#------------------------------------------------------------------------------
#$Date: 2020-02-01 02:10:33 +0200 (Sat, 01 Feb 2020) $
#$Revision: 247417 $
#$URL: file:///home/coder/svn-repositories/cod/cif/1/55/72/1557202.cif $
#------------------------------------------------------------------------------
#
# This file is available in the Crystallography Open Database (COD),
# http://www.crystallography.net/
#
# All data on this site have been placed in the public domain by the
# contributors.
#
data_1557202
loop_
_publ_author_name
'Wang, Rong'
'Fan, Run-Zhu'
'Ni, Fu-Qiang'
'Sang, Jun'
'Xie, Xing-Lin'
'Luo, Si-Yuan'
'Tang, Gui-Hua'
'Yin, Sheng'
_publ_section_title
;
 19-nor-, 20-nor-, and tetranor-Halimane-Type Furanoditerpenoids from
 Croton crassifolius
;
_journal_name_full               'Journal of Natural Products'
_journal_paper_doi               10.1021/acs.jnatprod.9b00634
_journal_year                    2020
_chemical_absolute_configuration ad
_chemical_formula_moiety         'C21 H26 O5'
_chemical_formula_sum            'C21 H26 O5'
_chemical_formula_weight         358.42
_space_group_crystal_system      triclinic
_space_group_IT_number           1
_space_group_name_Hall           'P 1'
_space_group_name_H-M_alt        'P 1'
_atom_sites_solution_hydrogens   geom
_atom_sites_solution_primary     dual
_audit_creation_date             2019-04-23
_audit_creation_method
;
Olex2 1.2
(compiled 2018.05.29 svn.r3508 for OlexSys, GUI svn.r5506)
;
_cell_angle_alpha                87.9040(10)
_cell_angle_beta                 80.1980(10)
_cell_angle_gamma                87.6940(10)
_cell_formula_units_Z            1
_cell_length_a                   6.30620(10)
_cell_length_b                   7.68480(10)
_cell_length_c                   9.7183(2)
_cell_measurement_reflns_used    17322
_cell_measurement_temperature    99.99(11)
_cell_measurement_theta_max      76.9890
_cell_measurement_theta_min      4.5930
_cell_volume                     463.505(14)
_computing_cell_refinement       'CrysAlisPro 1.171.39.46 (Rigaku OD, 2018)'
_computing_data_collection       'CrysAlisPro 1.171.39.46 (Rigaku OD, 2018)'
_computing_data_reduction        'CrysAlisPro 1.171.39.46 (Rigaku OD, 2018)'
_computing_molecular_graphics    'Olex2 (Dolomanov et al., 2009)'
_computing_publication_material  'Olex2 (Dolomanov et al., 2009)'
_computing_structure_refinement  'ShelXL (Sheldrick, 2015)'
_computing_structure_solution    'ShelXT (Sheldrick, 2015)'
_diffrn_ambient_environment      N~2~
_diffrn_ambient_temperature      99.99(11)
_diffrn_detector                 'CCD plate'
_diffrn_detector_type            HyPix
_diffrn_measured_fraction_theta_full 0.999
_diffrn_measured_fraction_theta_max 0.997
_diffrn_measurement_details
;
List of Runs (angles in degrees, time in seconds):

  # Type    Start    End  Width  t~exp~   \w     \q     \k     \f   Frames
--------------------------------------------------------------------------
  1  \w    -75.00  26.00   0.50    0.05    --  -46.62  87.00 -67.00  202
  2  \w    -25.00  75.00   0.50    0.05    --   46.62 -87.00 174.00  200
  3  \w   -128.00 -27.00   0.50    0.05    -- -100.00  87.00 -67.00  202
  4  \w   -173.00 -77.00   0.50    0.05    -- -100.00 -87.00 174.00  192
  5  \w     34.00 136.00   0.50    0.05    --  107.00 -87.00 174.00  204
  6  \w     81.00 178.00   0.50    0.05    --  107.00  87.00 -67.00  194
  7  \w    -54.00 -28.00   0.50    0.05    --   16.00 160.00 -43.33   52
  8  \w   -119.00 -23.00   0.50    0.05    --  -46.62 -77.00  90.00  192
  9  \w   -119.00 -23.00   0.50    0.05    --  -46.62 -77.00   0.00  192
 10  \w   -119.00 -23.00   0.50    0.05    --  -46.62 -77.00 150.00  192
 11  \w   -119.00 -23.00   0.50    0.05    --  -46.62 -77.00-150.00  192
 12  \w   -119.00 -30.00   0.50    0.05    --  -46.62 -57.00-150.00  178
 13  \w   -120.00 -32.00   0.50    0.05    --  -46.62 -38.00-120.00  176
 14  \w     15.00  95.00   0.50    0.05    --   46.62-125.00-120.00  160
 15  \w     32.00 120.00   0.50    0.05    --   46.62  38.00  60.00  176
 16  \w     31.00 122.00   0.50    0.05    --   46.62  19.00   0.00  182
 17  \w     25.00 121.00   0.50    0.05    --   48.00  76.00 -95.60  192
 18  \w   -124.00 -27.00   0.50    0.05    --  -52.00 -80.00  84.51  194
 19  \w     27.00 125.00   0.50    0.05    --   52.00  79.00-140.31  196
 20  \w     30.00 125.00   0.50    0.05    --   52.00  72.00 -56.11  190
 21  \w     32.00 129.00   0.50    0.05    --   56.00  77.00   0.70  194
 22  \w     34.00 129.00   0.50    0.05    --   56.00  72.00  92.37  190
 23  \w   -132.00 -36.00   0.50    0.05    --  -60.00 -77.00 130.37  192
 24  \w     35.00 132.00   0.50    0.05    --   60.00  81.00 -51.42  194
 25  \w     41.00 137.00   0.50    0.05    --   64.00  75.00-119.59  192
 26  \w   -140.00 -49.00   0.50    0.05    --  -68.00 -66.00 125.55  182
 27  \w   -140.00 -47.00   0.50    0.05    --  -68.00 -71.00-142.34  186
 28  \w   -140.00 -46.00   0.50    0.05    --  -68.00 -72.00  -2.35  188
 29  \w   -145.00 -51.00   0.50    0.05    --  -72.00 -69.00 -93.17  188
 30  \w   -145.00 -45.00   0.50    0.05    --  -72.00 -83.00 112.66  200
 31  \w   -145.00 -45.00   0.50    0.05    --  -72.00 -83.00  68.33  200
 32  \w     49.00 145.00   0.50    0.05    --   72.00  75.00-169.16  192
 33  \w   -149.00 -52.00   0.50    0.05    --  -76.00 -77.00  -3.10  194
 34  \w   -153.00 -58.00   0.50    0.05    --  -80.00 -73.00 -45.43  190
 35  \w    -82.00 -56.00   0.50    0.05    --  -80.00 -76.00 -99.17   52
 36  \w   -100.00 -66.00   0.50    0.05    --  -84.00 -66.00 148.05   68
 37  \w    -95.00 -70.00   0.50    0.05    --  -84.00 -52.00 -93.19   50
 38  \w   -102.00 -63.00   0.50    0.05    --  -84.00 -74.00  70.04   78
 39  \w   -156.00-130.00   0.50    0.05    --  -84.00 -74.00  70.04   52
 40  \w    -93.00 -67.00   0.50    0.05    --  -84.00 -60.00 -48.83   52
 41  \w    -91.00 -65.00   0.50    0.05    --  -84.00 -67.00-167.61   52
 42  \w    -91.00 -65.00   0.50    0.05    --  -84.00 -64.00  27.86   52
 43  \w    -96.00 -70.00   0.50    0.05    --  -88.00 -65.00-145.55   52
 44  \w   -103.00 -70.00   0.50    0.05    --  -88.00 -63.00 127.00   66
 45  \w   -100.00 -71.00   0.50    0.05    --  -88.00 -54.00-107.15   58
 46  \w    -91.00 -65.00   0.50    0.05    --  -92.00 -83.00 111.96   52
 47  \w   -109.00 -72.00   0.50    0.05    --  -96.00 -76.00-165.39   74
 48  \w   -168.00 -80.00   0.50    0.05    --  -96.00 -51.00 -42.36  176
 49  \w   -113.00 -73.00   0.50    0.05    --  -96.00 -76.00  46.79   80
 50  \w   -168.00-127.00   0.50    0.05    -- -100.00 -73.00 102.57   82
 51  \w   -103.00 -78.00   0.50    0.05    -- -100.00 -77.00-180.00   50
 52  \w   -161.00-130.00   0.50    0.05    -- -100.00 -77.00-180.00   62
 53  \w   -141.00 -78.00   0.50    0.05    -- -100.00 -76.00  15.25  126
 54  \w   -126.00 -82.00   0.50    0.05    -- -100.00 -61.00 108.81   88
 55  \w   -118.00 -82.00   0.50    0.05    -- -100.00 -77.00   0.00   72
 56  \w   -123.00 -76.00   0.50    0.05    -- -100.00 -77.00 -90.00   94
 57  \w   -136.00 -77.00   0.50    0.05    -- -100.00 -76.00 140.93  118
 58  \w   -114.00 -88.00   0.50    0.05    -- -100.00 -61.00-150.00   52
 59  \w   -104.00 -78.00   0.50    0.05    -- -100.00 -77.00  60.00   52
 60  \w   -121.00 -75.00   0.50    0.05    -- -100.00 -79.00 -72.23   92
 61  \w   -158.00 -81.00   0.50    0.05    -- -100.00 -71.00  29.34  154
 62  \w   -113.00 -81.00   0.50    0.05    -- -100.00 -67.00-118.67   64
 63  \w   -167.00-125.00   0.50    0.05    -- -100.00 -79.00 -72.23   84
 64  \w   -150.00-120.00   0.50    0.05    -- -100.00 -67.00-118.67   60
 65  \w   -134.00 -83.00   0.50    0.05    -- -100.00 -61.00  60.00  102
 66  \w   -121.00 -76.00   0.50    0.05    -- -100.00 -77.00 -35.29   90
 67  \w   -173.00-148.00   0.50    0.05    -- -100.00 -61.00  60.00   50
 68  \w   -123.00 -79.00   0.50    0.05    -- -100.00 -73.00 102.57   88
 69  \w   -173.00-132.00   0.50    0.05    -- -100.00 -77.00 -35.29   82
 70  \w     86.00 163.00   0.50    0.05    --  107.00  77.00 150.00  154
 71  \w     35.00 124.00   0.50    0.05    --  107.00 -61.00 -90.00  178
 72  \w     85.00 169.00   0.50    0.05    --  107.00 125.00 150.00  168
 73  \w    129.00 177.00   0.50    0.05    --  107.00  30.00 -60.00   96
 74  \w     35.00 124.00   0.50    0.05    --  107.00 -61.00 120.00  178
 75  \w     34.00 123.00   0.50    0.05    --  107.00 -30.00 150.00  178
 76  \w     63.00 109.00   0.50    0.05    --  107.00 -94.00 -90.00   92
 77  \w     96.00 176.00   0.50    0.05    --  107.00  61.00  90.00  160
 78  \w     92.00 144.00   0.50    0.05    --  107.00  61.00-120.00  104
 79  \w     88.00 113.00   0.50    0.05    --  107.00-125.00  30.00   50
 80  \w    152.00 178.00   0.50    0.05    --  107.00  61.00-150.00   52
 81  \w     98.00 124.00   0.50    0.05    --  107.00  61.00-150.00   52
 82  \w     82.00 117.00   0.50    0.05    --  107.00-125.00-120.00   70
 83  \w     78.00 104.00   0.50    0.05    --  107.00 -94.00  90.00   52
 84  \w     45.00  73.00   0.50    0.05    --  107.00 -94.00  90.00   56
 85  \w     41.00  74.00   0.50    0.05    --  107.00-125.00  30.00   66
 86  \w     68.00 102.00   0.50    0.05    --  107.00 -94.00  60.00   68
 87  \w     34.00  60.00   0.50    0.05    --  107.00 -94.00  60.00   52
;
_diffrn_measurement_device       'four-circle diffractometer'
_diffrn_measurement_device_type  'XtaLAB Synergy R, DW system, HyPix'
_diffrn_measurement_method       '\w scans'
_diffrn_orient_matrix_type
'CrysAlisPro convention (1999,Acta A55,543-557)'
_diffrn_orient_matrix_UB_11      -0.1112149000
_diffrn_orient_matrix_UB_12      -0.1532160000
_diffrn_orient_matrix_UB_13      0.0861297000
_diffrn_orient_matrix_UB_21      0.1307928000
_diffrn_orient_matrix_UB_22      0.0294478000
_diffrn_orient_matrix_UB_23      0.1168321000
_diffrn_orient_matrix_UB_31      -0.1790506000
_diffrn_orient_matrix_UB_32      0.1262835000
_diffrn_orient_matrix_UB_33      0.0695323000
_diffrn_radiation_monochromator  mirror
_diffrn_radiation_probe          x-ray
_diffrn_radiation_type           CuK\a
_diffrn_radiation_wavelength     1.54184
_diffrn_reflns_av_R_equivalents  0.0235
_diffrn_reflns_av_unetI/netI     0.0150
_diffrn_reflns_Laue_measured_fraction_full 0.999
_diffrn_reflns_Laue_measured_fraction_max 0.997
_diffrn_reflns_limit_h_max       7
_diffrn_reflns_limit_h_min       -7
_diffrn_reflns_limit_k_max       9
_diffrn_reflns_limit_k_min       -9
_diffrn_reflns_limit_l_max       11
_diffrn_reflns_limit_l_min       -11
_diffrn_reflns_number            18427
_diffrn_reflns_point_group_measured_fraction_full 0.975
_diffrn_reflns_point_group_measured_fraction_max 0.967
_diffrn_reflns_theta_full        67.684
_diffrn_reflns_theta_max         72.124
_diffrn_reflns_theta_min         4.620
_diffrn_source                   'Rotating-anode X-ray tube'
_diffrn_source_type              'Rigaku (Cu) X-ray Source'
_exptl_absorpt_coefficient_mu    0.739
_exptl_absorpt_correction_T_max  1.00000
_exptl_absorpt_correction_T_min  0.81820
_exptl_absorpt_correction_type   multi-scan
_exptl_absorpt_process_details
;
CrysAlisPro 1.171.39.46 (Rigaku Oxford Diffraction, 2018)
Empirical absorption correction using spherical harmonics,
 implemented in SCALE3 ABSPACK scaling algorithm.
;
_exptl_crystal_colour            colourless
_exptl_crystal_colour_primary    colourless
_exptl_crystal_density_diffrn    1.284
_exptl_crystal_description       block
_exptl_crystal_F_000             192
_exptl_crystal_size_max          0.3
_exptl_crystal_size_mid          0.2
_exptl_crystal_size_min          0
_refine_diff_density_max         0.151
_refine_diff_density_min         -0.174
_refine_diff_density_rms         0.035
_refine_ls_abs_structure_details
;
 Flack x determined using 1663 quotients [(I+)-(I-)]/[(I+)+(I-)]
 (Parsons, Flack and Wagner, Acta Cryst. B69 (2013) 249-259).
;
_refine_ls_abs_structure_Flack   0.02(4)
_refine_ls_extinction_method     none
_refine_ls_goodness_of_fit_ref   1.058
_refine_ls_hydrogen_treatment    constr
_refine_ls_matrix_type           full
_refine_ls_number_parameters     239
_refine_ls_number_reflns         3525
_refine_ls_number_restraints     3
_refine_ls_restrained_S_all      1.057
_refine_ls_R_factor_all          0.0283
_refine_ls_R_factor_gt           0.0271
_refine_ls_shift/su_max          0.000
_refine_ls_shift/su_mean         0.000
_refine_ls_structure_factor_coef Fsqd
_refine_ls_weighting_details
'w=1/[\s^2^(Fo^2^)+(0.0422P)^2^+0.0853P] where P=(Fo^2^+2Fc^2^)/3'
_refine_ls_weighting_scheme      calc
_refine_ls_wR_factor_gt          0.0699
_refine_ls_wR_factor_ref         0.0725
_reflns_Friedel_coverage         0.939
_reflns_Friedel_fraction_full    0.951
_reflns_Friedel_fraction_max     0.936
_reflns_number_gt                3492
_reflns_number_total             3525
_reflns_threshold_expression     'I > 2\s(I)'
_cod_data_source_file            np9b00634_si_002.cif
_cod_data_source_block           wangr_39_190419
_cod_database_code               1557202
_shelx_shelxl_version_number     2016/6
_shelx_space_group_comment
;
The symmetry employed for this shelxl refinement is uniquely defined
by the following loop, which should always be used as a source of
symmetry information in preference to the above space-group names.
They are only intended as comments.
;
_shelx_estimated_absorpt_t_max   1.000
_shelx_estimated_absorpt_t_min   0.809
_reflns_odcompleteness_completeness 99.73
_reflns_odcompleteness_iscentric 1
_reflns_odcompleteness_theta     71.98
_olex2_refinement_description
;
1. Fixed Uiso
 At 1.2 times of:
  All C(H) groups, All C(H,H) groups
 At 1.5 times of:
  All C(H,H,H) groups
2.a Ternary CH refined with riding coordinates:
 C6(H6), C10(H10), C4(H4)
2.b Secondary CH2 refined with riding coordinates:
 C14(H14A,H14B), C5(H5A,H5B), C12(H12A,H12B), C9(H9A,H9B)
2.c Aromatic/amide H refined with riding coordinates:
 C26(H26), C25(H25), C23(H23)
2.d Idealised Me refined as rotating group:
 C20(H20A,H20B,H20C), C13(H13A,H13B,H13C), C21(H21A,H21B,H21C), C18(H18A,H18B,
 H18C)
;
_shelx_res_file
;
TITL wangr_39_190419_a.res in P1
    wangr_39_190419.res
    created by SHELXL-2016/6 at 11:06:07 on 23-Apr-2019
REM Old TITL wangr_39_190419 in P1
REM SHELXT solution in P1: R1 0.114, Rweak 0.035, Alpha 0.000
REM <I/s> 0.000 for 0 systematic absences, Orientation as input
REM Flack x = 0.160 ( 0.041 ) from 1684 Parsons' quotients
REM Formula found by SHELXT: C21 O5
CELL 1.54184 6.3062 7.6848 9.7183 87.904 80.198 87.694
ZERR 1 0.0001 0.0001 0.0002 0.001 0.001 0.001
LATT -1
SFAC C H O
UNIT 21 26 5

L.S. 4
PLAN  5
SIZE 0.3 0.2 0
BOND $h
htab
conf
acta
LIST 6
fmap 2
acta
SHEL 999 0.81
REM <olex2.extras>
REM <HklSrc "%.\\wangr_39_190419.hkl">
REM </olex2.extras>

WGHT    0.042200    0.085300
FVAR       1.96894
O17   3    0.408204    0.226705    0.309160    11.00000    0.02699    0.01902 =
         0.03561    0.00348   -0.01685   -0.00569
O16   3    0.368026    0.694131    0.499936    11.00000    0.02625    0.02384 =
         0.02446   -0.00143   -0.00891    0.00176
O11   3    0.765749    0.715777    0.161483    11.00000    0.02376    0.02565 =
         0.02915    0.00880   -0.00531   -0.00117
O24   3    0.100580    0.888009    0.934801    11.00000    0.02853    0.02955 =
         0.02527    0.00135    0.00121    0.00582
O19   3    0.535012    0.569715    0.062322    11.00000    0.02846    0.04198 =
         0.03497    0.01467   -0.01411   -0.00404
C15   1    0.406020    0.692391    0.619098    11.00000    0.02030    0.01328 =
         0.02416    0.00111   -0.00359   -0.00350
C14   1    0.606683    0.604890    0.658491    11.00000    0.01872    0.01961 =
         0.01958    0.00004   -0.00496   -0.00250
AFIX  23
H14A  2    0.577987    0.574129    0.757440    11.00000   -1.20000
H14B  2    0.719870    0.688760    0.644227    11.00000   -1.20000
AFIX   0
C3    1    0.730500    0.367637    0.322667    11.00000    0.01712    0.01783 =
         0.02020    0.00261   -0.00528    0.00148
C22   1    0.256709    0.781877    0.728993    11.00000    0.01951    0.01383 =
         0.02611    0.00379   -0.00226   -0.00251
C7    1    0.691593    0.439651    0.578094    11.00000    0.01611    0.01714 =
         0.02002    0.00066   -0.00502   -0.00024
C26   1    0.060957    0.875729    0.711527    11.00000    0.02042    0.01876 =
         0.03272    0.00029   -0.00814   -0.00133
AFIX  43
H26   2    0.005989    0.892541    0.628920    11.00000   -1.20000
AFIX   0
C5    1    0.581919    0.148021    0.509748    11.00000    0.02296    0.01539 =
         0.02539    0.00344   -0.00747   -0.00214
AFIX  23
H5A   2    0.715803    0.096564    0.531381    11.00000   -1.20000
H5B   2    0.473149    0.060677    0.529720    11.00000   -1.20000
AFIX   0
C6    1    0.514146    0.303003    0.602131    11.00000    0.01652    0.01887 =
         0.02300    0.00319   -0.00508   -0.00284
AFIX  13
H6    2    0.386933    0.358130    0.571010    11.00000   -1.20000
AFIX   0
C8    1    0.760475    0.477681    0.421133    11.00000    0.01454    0.01656 =
         0.02031    0.00229   -0.00352    0.00026
C2    1    0.818522    0.411295    0.167744    11.00000    0.02195    0.02574 =
         0.01932    0.00137   -0.00396    0.00072
C10   1    0.955177    0.668039    0.226209    11.00000    0.01953    0.02608 =
         0.02732    0.00643   -0.00422   -0.00546
AFIX  13
H10   2    1.064525    0.756653    0.205381    11.00000   -1.20000
AFIX   0
C12   1    1.035610    0.497402    0.160245    11.00000    0.01859    0.03305 =
         0.02088    0.00385   -0.00236   -0.00010
AFIX  23
H12A  2    1.129632    0.432002    0.214134    11.00000   -1.20000
H12B  2    1.108663    0.514117    0.064725    11.00000   -1.20000
AFIX   0
C9    1    0.881501    0.644374    0.382122    11.00000    0.02007    0.02109 =
         0.02515    0.00172   -0.00414   -0.00602
AFIX  23
H9A   2    0.788818    0.743150    0.415524    11.00000   -1.20000
H9B   2    1.006118    0.642644    0.428561    11.00000   -1.20000
AFIX   0
C1    1    0.685312    0.567492    0.123737    11.00000    0.02233    0.03133 =
         0.02179    0.00818   -0.00378   -0.00238
C4    1    0.612200    0.200013    0.355479    11.00000    0.02146    0.01740 =
         0.02233   -0.00132   -0.00811    0.00059
AFIX  13
H4    2    0.694260    0.106642    0.301797    11.00000   -1.20000
AFIX   0
C20   1    0.895212    0.375366    0.636460    11.00000    0.01852    0.02296 =
         0.02253    0.00057   -0.00587    0.00109
AFIX 137
H20A  2    0.999653    0.464596    0.621409    11.00000   -1.50000
H20B  2    0.954828    0.272283    0.589452    11.00000   -1.50000
H20C  2    0.857570    0.349307    0.734755    11.00000   -1.50000
AFIX   0
C25   1   -0.026900    0.934236    0.837123    11.00000    0.01987    0.02518 =
         0.03900   -0.00195   -0.00200    0.00238
AFIX  43
H25   2   -0.156769    0.997653    0.855782    11.00000   -1.20000
AFIX   0
C23   1    0.271897    0.794861    0.866707    11.00000    0.02589    0.02058 =
         0.02346    0.00260    0.00086    0.00424
AFIX  43
H23   2    0.384023    0.746609    0.908178    11.00000   -1.20000
AFIX   0
C13   1    0.822839    0.262344    0.068492    11.00000    0.03812    0.03545 =
         0.02006   -0.00254   -0.00619   -0.00090
AFIX 137
H13A  2    0.909430    0.166678    0.097280    11.00000   -1.50000
H13B  2    0.882979    0.300943   -0.024519    11.00000   -1.50000
H13C  2    0.678835    0.225341    0.070034    11.00000   -1.50000
AFIX   0
C21   1    0.444513    0.243859    0.754442    11.00000    0.02954    0.02806 =
         0.02654    0.00388   -0.00077   -0.00870
AFIX 137
H21A  2    0.560442    0.177870    0.786097    11.00000   -1.50000
H21B  2    0.321319    0.172518    0.761874    11.00000   -1.50000
H21C  2    0.408040    0.344038    0.811023    11.00000   -1.50000
AFIX   0
C18   1    0.316249    0.068126    0.281138    11.00000    0.04456    0.02729 =
         0.05209    0.00526   -0.02849   -0.01361
AFIX 137
H18A  2    0.406846    0.012846    0.204401    11.00000   -1.50000
H18B  2    0.176030    0.092651    0.257663    11.00000   -1.50000
H18C  2    0.303920   -0.007957    0.362472    11.00000   -1.50000
AFIX   0
HKLF 4




REM  wangr_39_190419_a.res in P1
REM R1 =  0.0271 for    3492 Fo > 4sig(Fo)  and  0.0283 for all    3525 data
REM    239 parameters refined using      3 restraints

END

WGHT      0.0422      0.0852

REM Instructions for potential hydrogen bonds
EQIV $1 x+1, y, z
HTAB C12 O17_$1
HTAB C9 O16_$1
EQIV $2 x, y, z+1
HTAB C23 O19_$2
EQIV $3 x, y-1, z
HTAB C18 O16_$3

REM Highest difference peak  0.151,  deepest hole -0.174,  1-sigma level  0.035
Q1    1   0.6913  0.2827  0.3376  11.00000  0.05    0.15
Q2    1   0.7752  0.3907  0.2439  11.00000  0.05    0.15
Q3    1   0.7287  0.4572  0.4997  11.00000  0.05    0.15
Q4    1   0.6008  0.3655  0.5994  11.00000  0.05    0.13
Q5    1   0.9217  0.4459  0.1590  11.00000  0.05    0.13
;
_shelx_res_checksum              62488
_shelx_hkl_file
;
  -7  -4  -4   72.76    2.78
  -7  -4  -4   78.62    3.01
  -7  -4  -3    6.96    1.14
  -7  -4  -3    7.35    1.06
  -7  -4  -3    7.36    1.03
  -7  -4  -2    4.79    0.86
  -7  -4  -2    5.06    0.94
  -7  -4  -2    4.17    0.99
  -7  -4  -2    5.59    0.94
  -7  -4  -1   50.53    2.54
  -7  -4  -1   49.48    2.54
  -7  -4  -1   49.13    2.58
  -7  -4  -1   49.45    2.84
  -7  -4   0    5.14    0.80
  -7  -4   0    4.97    0.79
  -7  -4   0    4.90    0.83
  -7  -3  -6   26.91    1.79
  -7  -3  -5  122.29    3.50
  -7  -3  -5  140.66    4.13
  -7  -3  -4  145.43    4.39
  -7  -3  -4  154.65    4.91
  -7  -3  -4  165.67    5.79
  -7  -3  -4  158.57    5.11
  -7  -3  -3  333.02    8.37
  -7  -3  -3  348.38    9.33
  -7  -3  -3  338.12    8.61
  -7  -3  -2   36.56    2.45
  -7  -3  -2   34.76    2.52
  -7  -3  -2   34.31    2.47
  -7  -3  -2   34.37    2.19
  -7  -3  -1   36.36    2.25
  -7  -3  -1   42.92    2.74
  -7  -3   0   34.73    2.13
  -7  -3   0   38.58    2.40
  -7  -3   0   33.97    2.64
  -7  -3   0   33.30    2.25
  -7  -3   0   30.89    2.55
  -7  -3   0   36.15    2.34
  -7  -3   1  157.21    5.92
  -7  -3   1  141.54    4.20
  -7  -3   1  165.11    4.58
  -7  -3   1  147.76    4.36
  -7  -3   2   31.83    1.60
  -7  -3   2   36.42    2.57
  -7  -2  -6   75.34    3.12
  -7  -2  -6   69.50    2.87
  -7  -2  -5   30.10    2.05
  -7  -2  -5   32.00    2.16
  -7  -2  -5   30.43    1.95
  -7  -2  -4   69.28    3.48
  -7  -2  -4   72.42    3.86
  -7  -2  -4   70.31    3.54
  -7  -2  -4   73.63    3.51
  -7  -2  -3   26.91    2.52
  -7  -2  -3   29.29    2.44
  -7  -2  -3   29.19    2.33
  -7  -2  -3   28.37    2.35
  -7  -2  -2   63.86    3.52
  -7  -2  -2   60.89    3.85
  -7  -2  -2   65.38    3.63
  -7  -2  -2   65.83    3.73
  -7  -2  -1    9.34    1.63
  -7  -2  -1    8.27    1.46
  -7  -2  -1   10.17    1.48
  -7  -2   0   48.01    2.91
  -7  -2   0   46.76    2.92
  -7  -2   0   36.34    3.02
  -7  -2   0   44.30    3.20
  -7  -2   0   43.90    2.82
  -7  -2   1  113.59    5.44
  -7  -2   1  118.24    4.49
  -7  -2   1  115.00    4.17
  -7  -2   1  107.74    4.07
  -7  -2   2   87.31    4.57
  -7  -2   2   96.09    3.69
  -7  -2   3   29.77    1.72
  -7  -2   3   30.98    2.37
  -7  -1  -7    4.97    0.80
  -7  -1  -6    4.86    0.93
  -7  -1  -5  124.52    4.50
  -7  -1  -5  127.92    4.39
  -7  -1  -5  136.97    4.73
  -7  -1  -4  289.71    8.17
  -7  -1  -4  279.44    7.81
  -7  -1  -4  299.17    8.42
  -7  -1  -4  289.24    8.11
  -7  -1  -3   47.23    3.19
  -7  -1  -3   49.11    3.22
  -7  -1  -3   48.23    3.21
  -7  -1  -3   42.34    2.93
  -7  -1  -2   36.79    2.87
  -7  -1  -2   37.54    2.85
  -7  -1  -2   36.12    2.84
  -7  -1  -2   32.88    2.80
  -7  -1  -1   82.73    4.32
  -7  -1  -1   80.90    4.44
  -7  -1  -1   90.26    4.47
  -7  -1   0   39.23    3.23
  -7  -1   0   45.99    3.08
  -7  -1   0   41.80    2.89
  -7  -1   0   45.07    2.94
  -7  -1   1   73.23    4.48
  -7  -1   1   71.26    3.39
  -7  -1   1   76.63    3.80
  -7  -1   1   67.28    3.33
  -7  -1   2  105.31    4.19
  -7  -1   2   92.45    4.95
  -7  -1   3   37.54    2.14
  -7   0  -7   29.97    1.81
  -7   0  -6   70.05    3.46
  -7   0  -6   67.54    3.25
  -7   0  -5    1.15    0.67
  -7   0  -5    0.50    0.51
  -7   0  -4   96.75    4.32
  -7   0  -4   94.49    4.16
  -7   0  -3   36.84    2.80
  -7   0  -3   35.06    2.19
  -7   0  -3   36.23    2.48
  -7   0  -3   41.24    2.97
  -7   0  -3   41.68    2.90
  -7   0  -2  111.57    5.06
  -7   0  -2  106.05    4.87
  -7   0  -2  109.14    4.99
  -7   0  -2   98.32    4.40
  -7   0  -2  103.83    3.98
  -7   0  -1  120.11    4.38
  -7   0  -1  132.90    5.42
  -7   0  -1  131.00    5.49
  -7   0   0   25.56    2.28
  -7   0   0   29.96    2.49
  -7   0   0   23.45    1.84
  -7   0   1   67.06    3.35
  -7   0   1   69.28    3.03
  -7   0   2   44.00    2.59
  -7   0   2   34.07    1.84
  -7   0   3   86.41    3.32
  -7   1  -7   50.82    2.17
  -7   1  -6  118.33    4.05
  -7   1  -6  116.31    4.07
  -7   1  -5  135.68    4.66
  -7   1  -5  133.98    4.18
  -7   1  -5  142.68    5.02
  -7   1  -4   30.62    2.33
  -7   1  -4   30.66    2.41
  -7   1  -4   28.07    2.01
  -7   1  -4   28.07    2.18
  -7   1  -3    7.66    1.33
  -7   1  -3    7.86    1.40
  -7   1  -3    7.52    1.33
  -7   1  -3    7.97    1.20
  -7   1  -2   47.82    3.13
  -7   1  -2   46.32    2.79
  -7   1  -2   48.16    3.18
  -7   1  -2   49.75    3.19
  -7   1  -1    1.07    0.61
  -7   1  -1    2.02    0.83
  -7   1  -1    1.81    0.90
  -7   1   0   74.60    3.64
  -7   1   0   79.86    3.46
  -7   1   0   82.70    3.77
  -7   1   0   85.72    3.90
  -7   1   1   31.30    2.22
  -7   1   1   36.20    2.29
  -7   1   1   37.84    2.51
  -7   1   2  109.64    3.99
  -7   1   2  103.24    3.73
  -7   1   3   29.42    1.66
  -7   1   3   30.99    2.45
  -7   2  -6   37.00    1.75
  -7   2  -6   35.69    1.74
  -7   2  -5  102.09    3.52
  -7   2  -5   81.51    3.03
  -7   2  -5   78.04    2.83
  -7   2  -5   92.97    3.42
  -7   2  -4   13.50    1.41
  -7   2  -4   17.05    1.66
  -7   2  -4   14.09    1.47
  -7   2  -4   14.64    1.48
  -7   2  -3   30.17    2.26
  -7   2  -3   29.95    2.17
  -7   2  -3   27.29    2.22
  -7   2  -3   31.87    2.25
  -7   2  -2   39.59    2.72
  -7   2  -2   38.35    2.51
  -7   2  -2   41.09    2.63
  -7   2  -2   37.62    2.62
  -7   2  -1   15.89    1.62
  -7   2  -1   18.83    1.79
  -7   2  -1   20.27    1.98
  -7   2   0   14.37    1.58
  -7   2   0   18.42    1.72
  -7   2   0   14.40    1.44
  -7   2   0   13.97    1.57
  -7   2   1    3.07    0.80
  -7   2   1    2.27    0.67
  -7   2   1    3.34    0.69
  -7   2   1    3.31    0.75
  -7   2   1    1.09    0.59
  -7   2   2    6.30    0.93
  -7   2   2    4.90    0.99
  -7   3  -5    1.02    0.41
  -7   3  -4   46.00    2.26
  -7   3  -4   44.20    2.16
  -7   3  -3   47.62    2.52
  -7   3  -3   50.59    2.63
  -7   3  -2   54.38    2.78
  -7   3  -2   52.99    2.83
  -7   3  -2   51.41    2.74
  -7   3  -1  170.57    5.33
  -7   3  -1  176.06    5.33
  -7   3   0    6.00    0.96
  -7   3   0    7.78    1.08
  -7   3   0    4.94    0.89
  -7   3   1   66.30    2.76
  -7   3   1   49.87    2.11
  -7   3   2    9.34    0.92
  -7   4  -3  244.67    5.42
  -7   4  -2   69.64    2.68
  -7   4  -1   12.74    1.13
  -7   4   0    8.60    0.84
  -6  -6  -4   53.86    2.36
  -6  -6  -3  104.72    3.38
  -6  -6  -3   99.25    3.52
  -6  -6  -2   12.36    1.35
  -6  -6  -2   13.28    1.31
  -6  -6  -1   14.51    1.61
  -6  -6  -1   17.21    1.56
  -6  -6  -1   16.64    1.47
  -6  -6   0   60.05    3.42
  -6  -6   0   63.75    2.72
  -6  -6   1    6.33    1.12
  -6  -5  -7    4.97    0.73
  -6  -5  -6   76.73    3.43
  -6  -5  -6   81.28    3.25
  -6  -5  -5   -0.08    0.54
  -6  -5  -5    0.33    0.42
  -6  -5  -5    0.29    0.57
  -6  -5  -4   30.90    2.30
  -6  -5  -4   27.45    2.40
  -6  -5  -4   26.32    1.87
  -6  -5  -4   27.04    2.06
  -6  -5  -3    3.78    0.81
  -6  -5  -3    3.92    1.08
  -6  -5  -3    3.05    0.87
  -6  -5  -3    2.48    0.88
  -6  -5  -2   95.05    4.24
  -6  -5  -2   90.14    4.59
  -6  -5  -2   96.34    4.48
  -6  -5  -1   89.50    4.14
  -6  -5  -1   86.82    4.44
  -6  -5  -1   90.93    4.32
  -6  -5   0    2.72    0.88
  -6  -5   0    1.86    0.88
  -6  -5   1  172.24    5.52
  -6  -5   1  178.55    7.53
  -6  -5   1  171.24    5.36
  -6  -5   2   21.97    1.61
  -6  -5   3   61.94    3.58
  -6  -4  -6  197.17    6.85
  -6  -4  -5   90.11    4.08
  -6  -4  -5  105.81    5.18
  -6  -4  -5  101.16    4.51
  -6  -4  -5   85.21    3.45
  -6  -4  -4    6.21    1.33
  -6  -4  -4    5.15    1.44
  -6  -4  -4    5.48    1.20
  -6  -4  -4    4.60    1.08
  -6  -4  -3  320.82   10.36
  -6  -4  -3  311.40    8.95
  -6  -4  -3  312.64    8.71
  -6  -4  -3  335.79    9.75
  -6  -4  -2   37.76    3.10
  -6  -4  -2   35.45    2.89
  -6  -4  -2   28.70    2.26
  -6  -4  -2   34.71    3.24
  -6  -4  -1  471.74   13.14
  -6  -4  -1  457.68   10.60
  -6  -4  -1  488.55   12.16
  -6  -4   0    8.63    1.78
  -6  -4   0   12.20    1.81
  -6  -4   0    9.63    1.33
  -6  -4   1  124.83    5.16
  -6  -4   1  106.08    5.40
  -6  -4   1  111.15    4.31
  -6  -4   1  118.36    5.02
  -6  -4   1  129.41    7.17
  -6  -4   2  196.67    5.18
  -6  -4   2  202.54    5.59
  -6  -4   2  190.51    4.88
  -6  -4   3   41.24    3.55
  -6  -4   3   33.39    1.80
  -6  -4   4   20.07    2.17
  -6  -3  -8   24.19    1.91
  -6  -3  -7  119.76    5.09
  -6  -3  -6   71.56    3.34
  -6  -3  -6   86.19    4.69
  -6  -3  -5   14.10    1.87
  -6  -3  -5   15.34    2.00
  -6  -3  -5   14.64    1.77
  -6  -3  -5   19.72    2.08
  -6  -3  -5   13.96    1.60
  -6  -3  -5   12.35    1.65
  -6  -3  -4   18.40    2.06
  -6  -3  -4   19.00    2.29
  -6  -3  -4   16.58    1.93
  -6  -3  -4   17.41    2.00
  -6  -3  -4   17.79    2.16
  -6  -3  -3  366.08   10.16
  -6  -3  -3  349.85   10.10
  -6  -3  -3  340.49    9.91
  -6  -3  -2  245.34    9.60
  -6  -3  -2  275.83    8.88
  -6  -3  -2  285.54    9.46
  -6  -3  -2  256.89    7.93
  -6  -3  -2  278.40   10.12
  -6  -3  -2  253.49    8.35
  -6  -3  -1   30.43    3.67
  -6  -3  -1   40.36    3.22
  -6  -3  -1   34.76    2.93
  -6  -3  -1   40.26    3.70
  -6  -3   0   17.28    2.22
  -6  -3   0   17.42    2.15
  -6  -3   0   16.91    2.53
  -6  -3   0   16.19    2.00
  -6  -3   0   18.79    3.02
  -6  -3   1  264.21    8.50
  -6  -3   1  249.05    9.44
  -6  -3   1  260.65    8.26
  -6  -3   1  256.42   11.13
  -6  -3   1  264.24    8.39
  -6  -3   2  176.94    6.04
  -6  -3   2  177.00    6.20
  -6  -3   2  170.63    5.97
  -6  -3   2  168.02    6.22
  -6  -3   2  179.80    8.97
  -6  -3   3    8.18    1.12
  -6  -3   3   58.29    3.18
  -6  -3   4   28.67    2.04
  -6  -3   4   33.56    3.26
  -6  -3   5   69.96    3.75
  -6  -3   5   66.36    2.51
  -6  -2  -8   26.63    2.08
  -6  -2  -7  168.52    6.82
  -6  -2  -7  173.52    6.35
  -6  -2  -6  159.43    6.58
  -6  -2  -6  161.77    7.14
  -6  -2  -6  145.14    6.06
  -6  -2  -5  175.33    6.93
  -6  -2  -5  183.84    6.96
  -6  -2  -5  173.40    6.33
  -6  -2  -5  164.18    6.40
  -6  -2  -5  182.13    7.95
  -6  -2  -5  178.63    7.51
  -6  -2  -4   11.45    2.20
  -6  -2  -4    9.36    1.66
  -6  -2  -4   11.19    1.83
  -6  -2  -4   15.24    2.03
  -6  -2  -4   12.10    1.79
  -6  -2  -4   13.19    1.96
  -6  -2  -4   16.05    2.38
  -6  -2  -4   12.25    1.79
  -6  -2  -3   48.55    3.51
  -6  -2  -3   52.35    3.66
  -6  -2  -3   53.14    4.22
  -6  -2  -3   55.37    3.98
  -6  -2  -3   47.30    3.63
  -6  -2  -2  405.52   11.44
  -6  -2  -2  385.54   11.40
  -6  -2  -2  414.15   12.04
  -6  -2  -2  420.96   12.97
  -6  -2  -1  233.42    8.35
  -6  -2  -1  234.07   10.10
  -6  -2  -1  232.71    8.47
  -6  -2  -1  223.24    9.24
  -6  -2   0  165.39    7.09
  -6  -2   0  158.36    6.86
  -6  -2   0  168.16    6.84
  -6  -2   0  157.39    8.61
  -6  -2   1  155.59    6.60
  -6  -2   1  166.57    6.70
  -6  -2   1  166.42    6.65
  -6  -2   1  162.31    8.93
  -6  -2   1  154.59    6.65
  -6  -2   2  442.21   11.21
  -6  -2   2  460.62   12.15
  -6  -2   2  434.68   11.13
  -6  -2   2  426.47   11.04
  -6  -2   3  203.20    6.59
  -6  -2   3    0.08    0.20
  -6  -2   4    3.24    0.97
  -6  -2   4    4.75    1.58
  -6  -2   5   46.07    3.50
  -6  -2   5   45.38    2.53
  -6  -2   6   56.21    2.12
  -6  -1  -8   36.04    2.13
  -6  -1  -8   45.45    3.11
  -6  -1  -7   29.19    2.92
  -6  -1  -7   29.87    2.46
  -6  -1  -6   75.63    3.76
  -6  -1  -6   95.11    4.85
  -6  -1  -5  164.51    6.71
  -6  -1  -5  175.03    7.20
  -6  -1  -5  152.82    6.18
  -6  -1  -5  150.24    5.98
  -6  -1  -5  167.98    7.67
  -6  -1  -4  354.18   10.53
  -6  -1  -4  373.45   10.75
  -6  -1  -4  396.87   11.90
  -6  -1  -4  376.10   11.05
  -6  -1  -4  385.24   12.29
  -6  -1  -4  373.04   10.90
  -6  -1  -3  199.64    7.77
  -6  -1  -3  218.29    8.18
  -6  -1  -3  203.32    8.38
  -6  -1  -3  186.28    7.33
  -6  -1  -3  205.44    8.42
  -6  -1  -3  198.98    7.86
  -6  -1  -2  284.47    9.40
  -6  -1  -2  312.54   10.70
  -6  -1  -2  287.50    9.77
  -6  -1  -2  283.82    9.69
  -6  -1  -2  268.24    9.61
  -6  -1  -2  298.26    9.99
  -6  -1  -1   37.76    3.37
  -6  -1  -1   30.05    2.46
  -6  -1  -1   33.38    3.72
  -6  -1  -1   30.29    3.29
  -6  -1   0   36.95    3.21
  -6  -1   0   36.03    3.61
  -6  -1   0   36.91    3.29
  -6  -1   0   29.94    3.81
  -6  -1   0   40.12    3.27
  -6  -1   0   39.37    3.39
  -6  -1   0   42.68    3.59
  -6  -1   0   33.83    2.64
  -6  -1   1  252.18    8.48
  -6  -1   1  253.66    9.75
  -6  -1   1  236.07    7.45
  -6  -1   1  244.60    8.44
  -6  -1   1  254.42    8.65
  -6  -1   1  260.34    9.10
  -6  -1   1  250.29   11.33
  -6  -1   1  269.34    8.99
  -6  -1   2  110.73    4.70
  -6  -1   2  105.86    5.01
  -6  -1   2  114.62    7.53
  -6  -1   2  106.14    4.98
  -6  -1   2  114.30    5.70
  -6  -1   3  145.92    5.92
  -6  -1   3  140.02    4.79
  -6  -1   4  138.31    5.59
  -6  -1   4  150.89    7.86
  -6  -1   5   29.79    3.06
  -6  -1   5   27.07    2.11
  -6   0  -9   23.93    1.86
  -6   0  -8   -0.07    0.24
  -6   0  -8    3.63    1.17
  -6   0  -7    0.09    0.27
  -6   0  -6    7.80    1.37
  -6   0  -6    8.40    1.52
  -6   0  -6    9.62    1.92
  -6   0  -6    6.24    1.17
  -6   0  -5   66.89    4.00
  -6   0  -5   61.79    4.57
  -6   0  -5   61.58    3.69
  -6   0  -5   67.27    3.94
  -6   0  -5   64.35    3.87
  -6   0  -5   58.12    3.74
  -6   0  -4  113.18    6.12
  -6   0  -4  109.19    5.49
  -6   0  -4  113.06    5.55
  -6   0  -4  107.14    5.30
  -6   0  -4  107.70    5.44
  -6   0  -3  157.00    7.10
  -6   0  -3  158.40    6.92
  -6   0  -3  151.38    6.65
  -6   0  -3  145.41    6.65
  -6   0  -3  159.94    6.94
  -6   0  -2  335.72   10.91
  -6   0  -2  359.92   11.07
  -6   0  -2  351.24   10.86
  -6   0  -2  357.16   11.09
  -6   0  -2  335.11   10.45
  -6   0  -1   56.92    3.70
  -6   0  -1   63.58    4.95
  -6   0  -1   59.51    4.37
  -6   0   0  215.08    8.09
  -6   0   0  217.94    8.33
  -6   0   0  215.11    8.66
  -6   0   0  210.39    9.80
  -6   0   0  209.64    7.45
  -6   0   0  219.15    8.27
  -6   0   1  235.45    7.90
  -6   0   1  239.62    8.24
  -6   0   1  244.36    8.56
  -6   0   1  222.28    8.91
  -6   0   1  236.21    8.38
  -6   0   1  229.85   10.72
  -6   0   2  214.21   10.38
  -6   0   2  217.57    7.34
  -6   0   2  205.01    7.19
  -6   0   2  197.79    6.96
  -6   0   2  206.42    7.23
  -6   0   3   75.45    5.80
  -6   0   3   72.28    3.77
  -6   0   3   74.75    4.31
  -6   0   4  128.84    4.95
  -6   0   4  129.08    5.39
  -6   0   4  118.41    6.97
  -6   0   5   19.02    1.78
  -6   0   6   16.68    1.29
  -6   1  -9  193.66    5.44
  -6   1  -8   61.87    2.90
  -6   1  -7  115.85    5.53
  -6   1  -7   87.81    3.96
  -6   1  -6    7.30    1.18
  -6   1  -6   10.02    1.95
  -6   1  -5   76.78    4.08
  -6   1  -5   76.80    4.21
  -6   1  -5   76.17    4.90
  -6   1  -5   76.25    4.15
  -6   1  -4  132.57    6.03
  -6   1  -4  136.49    5.97
  -6   1  -4  137.90    6.57
  -6   1  -4  129.33    5.93
  -6   1  -3   89.39    5.09
  -6   1  -3   90.83    5.13
  -6   1  -3   94.21    5.12
  -6   1  -3  104.21    5.38
  -6   1  -2   60.59    4.23
  -6   1  -2   57.52    4.13
  -6   1  -2   51.26    3.59
  -6   1  -2   58.74    4.10
  -6   1  -2   62.17    4.23
  -6   1  -2   56.42    3.73
  -6   1  -1  123.30    5.74
  -6   1  -1  119.98    5.70
  -6   1  -1  124.97    6.17
  -6   1   0  327.79   10.43
  -6   1   0  295.52    9.73
  -6   1   0  336.31   10.37
  -6   1   0  316.74   12.03
  -6   1   0  324.63    9.93
  -6   1   0  343.59   10.65
  -6   1   0  313.59   10.35
  -6   1   1   37.96    3.19
  -6   1   1   43.26    3.44
  -6   1   1   46.53    3.62
  -6   1   1   44.16    4.52
  -6   1   1   47.11    3.45
  -6   1   1   46.07    3.43
  -6   1   2  232.12    7.64
  -6   1   2  216.92    7.32
  -6   1   2  242.22   10.85
  -6   1   2  238.55    8.27
  -6   1   2  243.66    8.07
  -6   1   3  166.18    6.00
  -6   1   3  159.60    5.78
  -6   1   4  143.08    5.41
  -6   1   4  146.30    5.46
  -6   1   5  281.16    7.10
  -6   1   6   56.90    3.17
  -6   2  -8   22.29    1.99
  -6   2  -8   19.23    1.47
  -6   2  -7    8.27    1.54
  -6   2  -7    9.00    1.25
  -6   2  -6    1.13    0.56
  -6   2  -6    5.15    1.41
  -6   2  -5    0.88    0.89
  -6   2  -5    1.14    0.76
  -6   2  -5   -0.10    0.28
  -6   2  -5    2.05    0.93
  -6   2  -4   21.91    2.51
  -6   2  -4   19.92    2.26
  -6   2  -4   24.73    2.46
  -6   2  -3  161.49    6.73
  -6   2  -3  149.31    6.23
  -6   2  -3  160.98    6.71
  -6   2  -2  188.99    7.54
  -6   2  -2  193.81    7.59
  -6   2  -2  183.64    7.26
  -6   2  -2  196.07    7.71
  -6   2  -1   55.43    3.83
  -6   2  -1   53.24    3.76
  -6   2   0  146.01    6.40
  -6   2   0  151.45    6.55
  -6   2   0  145.95    6.28
  -6   2   0  157.50    6.56
  -6   2   1  150.20    6.35
  -6   2   1  149.37    6.29
  -6   2   1  152.10    6.22
  -6   2   1  154.06    6.24
  -6   2   2   95.66    4.82
  -6   2   2   87.45    4.24
  -6   2   2   91.30    4.47
  -6   2   2   82.82    4.23
  -6   2   3  173.28    5.87
  -6   2   3  169.25    5.36
  -6   2   4   33.40    2.44
  -6   2   4   31.37    2.10
  -6   2   5  213.70    7.85
  -6   3  -8   68.18    2.80
  -6   3  -7  128.77    4.76
  -6   3  -7  115.37    3.93
  -6   3  -6    0.08    0.27
  -6   3  -6    0.11    0.67
  -6   3  -5   43.95    2.82
  -6   3  -5   44.61    2.73
  -6   3  -5   44.55    3.16
  -6   3  -4   73.90    3.97
  -6   3  -4   70.66    3.71
  -6   3  -4   76.30    4.10
  -6   3  -4   79.34    4.08
  -6   3  -3   43.53    3.21
  -6   3  -3   41.77    3.20
  -6   3  -3   42.01    2.92
  -6   3  -2   79.40    4.56
  -6   3  -2   84.82    4.70
  -6   3  -2   74.76    3.94
  -6   3  -1  284.34    8.19
  -6   3  -1  281.70    9.07
  -6   3  -1  287.09    7.40
  -6   3   0   73.34    4.99
  -6   3   0   76.73    3.81
  -6   3   0   77.00    4.39
  -6   3   0   79.18    4.50
  -6   3   0   76.77    4.37
  -6   3   0   80.06    3.70
  -6   3   1  126.15    4.70
  -6   3   1  133.13    5.53
  -6   3   1  125.00    5.36
  -6   3   1  127.31    6.93
  -6   3   2  219.84    6.02
  -6   3   2  228.91    9.13
  -6   3   2  214.80    6.03
  -6   3   3   34.69    3.51
  -6   3   4  157.83    6.90
  -6   3   5    3.26    0.94
  -6   4  -6   37.56    2.08
  -6   4  -5    4.65    0.87
  -6   4  -5    3.35    0.73
  -6   4  -4   29.72    2.30
  -6   4  -4   26.25    2.11
  -6   4  -3  177.21    6.27
  -6   4  -3  175.08    6.15
  -6   4  -2    8.88    1.46
  -6   4  -2   10.42    1.62
  -6   4  -2   10.46    1.60
  -6   4  -1  183.03    6.52
  -6   4  -1  178.96    5.25
  -6   4   0  110.72    4.83
  -6   4   0  107.59    4.77
  -6   4   0  106.06    4.01
  -6   4   0  102.15    4.68
  -6   4   1   24.49    2.14
  -6   4   1   21.40    2.53
  -6   4   1   20.17    1.94
  -6   4   1   23.09    1.86
  -6   4   1   19.08    1.87
  -6   4   2   11.38    1.27
  -6   4   2   10.18    1.82
  -6   4   2   13.00    1.51
  -6   4   2    9.51    1.17
  -6   4   3   37.50    2.23
  -6   4   3   37.82    3.10
  -6   4   4   37.28    2.68
  -6   5  -5   22.13    1.44
  -6   5  -4   95.07    3.30
  -6   5  -4   90.88    3.38
  -6   5  -3  110.69    4.00
  -6   5  -3  113.80    4.15
  -6   5  -3  107.94    3.99
  -6   5  -2  119.13    4.45
  -6   5  -2  116.79    4.26
  -6   5  -2  124.85    4.62
  -6   5  -1   49.18    2.63
  -6   5  -1   43.64    2.03
  -6   5   0   33.99    1.86
  -6   5   0   29.90    2.10
  -6   5   0   30.54    2.01
  -6   5   0   29.65    2.11
  -6   5   1   42.30    2.27
  -6   5   1   41.51    2.23
  -6   5   1   45.83    2.29
  -6   5   2    2.16    0.50
  -6   6  -2   50.59    2.07
  -5  -7  -4   30.28    1.86
  -5  -7  -4   31.25    1.87
  -5  -7  -3   59.90    2.55
  -5  -7  -3   54.40    2.45
  -5  -7  -2   56.81    2.77
  -5  -7  -2   60.47    3.07
  -5  -7  -1    9.72    1.24
  -5  -7   0   66.86    3.08
  -5  -7   0   66.19    3.04
  -5  -7   1    0.69    0.49
  -5  -7   1    0.31    0.37
  -5  -6  -7   57.31    2.45
  -5  -6  -7   65.49    2.70
  -5  -6  -6   21.22    1.81
  -5  -6  -6   21.17    1.56
  -5  -6  -5   19.54    1.89
  -5  -6  -5   15.64    1.74
  -5  -6  -5   18.06    1.64
  -5  -6  -4   63.90    3.62
  -5  -6  -4   67.42    3.57
  -5  -6  -4   60.97    2.99
  -5  -6  -4   66.77    3.57
  -5  -6  -3    6.40    1.19
  -5  -6  -3    8.81    1.47
  -5  -6  -3    6.61    1.30
  -5  -6  -3    8.87    1.39
  -5  -6  -2   58.54    3.57
  -5  -6  -2   67.37    3.89
  -5  -6  -2   59.18    3.16
  -5  -6  -1    8.79    1.41
  -5  -6   0   26.13    2.23
  -5  -6   0   29.30    2.48
  -5  -6   0   25.54    2.35
  -5  -6   1   50.33    3.04
  -5  -6   1   39.93    2.94
  -5  -6   2    5.47    1.13
  -5  -6   2    3.83    0.93
  -5  -6   2    3.72    0.77
  -5  -6   3   50.30    2.91
  -5  -6   3   51.43    2.41
  -5  -6   4  180.30    5.99
  -5  -5  -8   26.33    1.77
  -5  -5  -8   25.91    1.95
  -5  -5  -8   25.59    1.79
  -5  -5  -7   57.53    3.42
  -5  -5  -7   53.93    3.05
  -5  -5  -7   52.58    2.93
  -5  -5  -6    8.10    1.31
  -5  -5  -6    6.72    1.35
  -5  -5  -6    5.85    1.37
  -5  -5  -5   16.63    1.85
  -5  -5  -5   19.14    2.37
  -5  -5  -5   18.22    2.11
  -5  -5  -5   17.49    1.94
  -5  -5  -5   16.61    2.03
  -5  -5  -4  156.64    6.26
  -5  -5  -4  159.64    6.31
  -5  -5  -4  159.98    6.97
  -5  -5  -4  156.32    6.32
  -5  -5  -4  144.47    5.34
  -5  -5  -4  150.16    5.65
  -5  -5  -3  107.43    5.77
  -5  -5  -3  118.64    5.33
  -5  -5  -3  103.44    4.93
  -5  -5  -3  108.93    5.10
  -5  -5  -3  116.01    5.60
  -5  -5  -3  103.69    5.82
  -5  -5  -2  139.04    6.23
  -5  -5  -2  127.71    6.36
  -5  -5  -2  126.57    5.41
  -5  -5  -1   49.19    3.88
  -5  -5  -1   42.50    2.84
  -5  -5   0  179.85    7.08
  -5  -5   0  193.88    7.76
  -5  -5   0  200.38    7.54
  -5  -5   1   19.83    2.38
  -5  -5   1   17.90    2.15
  -5  -5   1   13.20    2.07
  -5  -5   2    0.94    0.74
  -5  -5   2    0.44    0.74
  -5  -5   3   96.17    4.11
  -5  -5   3   92.33    4.88
  -5  -5   4   14.87    1.85
  -5  -5   4   18.26    2.50
  -5  -5   5   11.15    1.33
  -5  -5   5   12.08    1.64
  -5  -4  -8   55.93    3.04
  -5  -4  -8   60.35    3.55
  -5  -4  -8   57.39    3.14
  -5  -4  -7    7.10    1.35
  -5  -4  -7    8.03    1.46
  -5  -4  -7    7.67    1.61
  -5  -4  -6  294.88    7.05
  -5  -4  -6  314.19    8.15
  -5  -4  -6  303.51    8.69
  -5  -4  -6  314.62    8.57
  -5  -4  -6  316.21    9.48
  -5  -4  -5   55.29    3.90
  -5  -4  -5   61.97    4.13
  -5  -4  -5   50.74    4.13
  -5  -4  -5   59.55    3.70
  -5  -4  -5   53.32    3.15
  -5  -4  -5   56.96    3.60
  -5  -4  -4  495.50   13.05
  -5  -4  -4  498.24   13.14
  -5  -4  -4  484.61   14.32
  -5  -4  -4  505.25   13.22
  -5  -4  -4  513.10   14.56
  -5  -4  -4  484.92   11.92
  -5  -4  -4  496.67   12.29
  -5  -4  -4  519.41   13.16
  -5  -4  -3  435.43   13.46
  -5  -4  -3  445.77   12.43
  -5  -4  -3  466.46   13.70
  -5  -4  -3  459.55   12.12
  -5  -4  -3  434.32   11.79
  -5  -4  -3  432.28   11.76
  -5  -4  -3  436.39   12.63
  -5  -4  -3  448.42   12.13
  -5  -4  -2   30.86    3.28
  -5  -4  -2   25.43    2.43
  -5  -4  -2   29.58    2.91
  -5  -4  -2   29.30    2.98
  -5  -4  -2   28.38    2.90
  -5  -4  -2   25.60    2.53
  -5  -4  -1  271.19    8.25
  -5  -4  -1  291.20   10.44
  -5  -4  -1  262.37    8.94
  -5  -4   0  184.85    6.72
  -5  -4   0  192.49    8.35
  -5  -4   0  188.92    7.67
  -5  -4   0  192.64    7.68
  -5  -4   1   25.60    2.98
  -5  -4   1   29.30    2.97
  -5  -4   1   27.26    2.50
  -5  -4   1   29.46    2.87
  -5  -4   2    4.72    1.44
  -5  -4   2    5.01    1.42
  -5  -4   2    6.23    1.43
  -5  -4   2    7.28    1.36
  -5  -4   2    6.66    1.44
  -5  -4   3  278.13    9.65
  -5  -4   3  282.92    8.13
  -5  -4   3  284.18    8.28
  -5  -4   4   20.99    1.95
  -5  -4   4   21.87    3.16
  -5  -4   4   20.68    2.46
  -5  -4   5   15.93    1.50
  -5  -4   5   16.83    2.45
  -5  -4   5   13.19    1.81
  -5  -4   6    1.06    0.59
  -5  -4   6    1.45    0.69
  -5  -3 -10    7.26    0.87
  -5  -3  -9   15.95    1.56
  -5  -3  -9   17.59    1.87
  -5  -3  -8   62.09    3.40
  -5  -3  -8   63.00    3.65
  -5  -3  -8   72.42    4.25
  -5  -3  -8   58.59    3.41
  -5  -3  -7   96.99    4.55
  -5  -3  -7  105.54    5.13
  -5  -3  -7  102.12    5.04
  -5  -3  -7  112.49    5.89
  -5  -3  -7   94.04    4.84
  -5  -3  -6  184.05    7.47
  -5  -3  -6  171.05    6.27
  -5  -3  -6  165.85    6.10
  -5  -3  -6  185.27    7.56
  -5  -3  -6  174.70    7.77
  -5  -3  -6  178.65    6.92
  -5  -3  -6  199.26    8.52
  -5  -3  -6  176.57    6.80
  -5  -3  -6  190.03    7.37
  -5  -3  -5   82.88    4.53
  -5  -3  -5   74.54    4.19
  -5  -3  -5   71.91    5.08
  -5  -3  -5   82.55    4.54
  -5  -3  -5   74.34    4.70
  -5  -3  -5   75.42    3.95
  -5  -3  -5   82.21    4.88
  -5  -3  -5   86.98    5.68
  -5  -3  -4  423.60   11.06
  -5  -3  -4  436.17   12.08
  -5  -3  -4  431.76   12.11
  -5  -3  -4  403.68   11.82
  -5  -3  -4  426.45   11.29
  -5  -3  -4  400.78   11.55
  -5  -3  -4  424.69   13.35
  -5  -3  -4  438.76   12.10
  -5  -3  -3  259.90    8.76
  -5  -3  -3  282.98   10.40
  -5  -3  -3  271.63    9.42
  -5  -3  -3  258.37    9.02
  -5  -3  -3  290.31    9.13
  -5  -3  -3  284.65    9.47
  -5  -3  -3  269.47    8.85
  -5  -3  -3  277.14    9.10
  -5  -3  -2  644.32   17.03
  -5  -3  -2  618.51   14.93
  -5  -3  -2  651.60   15.07
  -5  -3  -2  634.28   15.65
  -5  -3  -2  667.28   17.14
  -5  -3  -2  687.78   16.23
  -5  -3  -2  626.89   14.50
  -5  -3  -2  617.94   14.35
  -5  -3  -2  618.16   15.58
  -5  -3  -2  666.58   15.59
  -5  -3  -1   29.82    3.24
  -5  -3  -1   30.34    2.65
  -5  -3  -1   34.49    3.06
  -5  -3  -1   30.81    2.86
  -5  -3   0  240.73    8.42
  -5  -3   0  249.85    8.93
  -5  -3   0  248.26    8.90
  -5  -3   0  243.34    9.66
  -5  -3   1   55.56    3.97
  -5  -3   1   53.57    4.44
  -5  -3   1   46.56    3.56
  -5  -3   1   56.79    3.93
  -5  -3   1   52.53    3.85
  -5  -3   2  149.73    6.49
  -5  -3   2  166.81    6.76
  -5  -3   2  147.18    7.44
  -5  -3   2  165.72    6.85
  -5  -3   2  156.33    7.14
  -5  -3   2  162.72    6.68
  -5  -3   3   55.91    3.81
  -5  -3   3   53.58    3.48
  -5  -3   3   50.93    4.11
  -5  -3   3   53.07    3.37
  -5  -3   4   34.17    2.91
  -5  -3   4   30.69    3.18
  -5  -3   4   36.02    4.34
  -5  -3   5  107.65    6.65
  -5  -3   5   96.65    5.25
  -5  -3   5  101.74    4.67
  -5  -3   5   85.73    4.58
  -5  -3   6   31.79    2.59
  -5  -3   6   34.47    2.28
  -5  -3   6   33.17    3.01
  -5  -3   7   29.84    1.60
  -5  -2 -10   22.68    1.68
  -5  -2 -10   20.65    1.50
  -5  -2  -9  130.46    5.19
  -5  -2  -9  130.08    4.94
  -5  -2  -9  128.17    5.12
  -5  -2  -8   27.02    2.77
  -5  -2  -8   23.84    2.51
  -5  -2  -8   25.06    2.37
  -5  -2  -8   26.02    2.66
  -5  -2  -8   22.82    2.42
  -5  -2  -8   25.62    2.53
  -5  -2  -7  134.49    5.95
  -5  -2  -7  138.37    6.67
  -5  -2  -7  123.10    6.07
  -5  -2  -7  136.44    6.16
  -5  -2  -7  135.77    6.90
  -5  -2  -7  142.20    6.18
  -5  -2  -7  125.18    6.06
  -5  -2  -7  137.58    5.82
  -5  -2  -6  739.63   16.91
  -5  -2  -6  773.62   18.65
  -5  -2  -6  749.12   19.20
  -5  -2  -6  715.02   15.55
  -5  -2  -6  710.95   16.10
  -5  -2  -6  740.16   17.04
  -5  -2  -6  804.90   17.69
  -5  -2  -6  735.54   17.69
  -5  -2  -6  798.54   17.79
  -5  -2  -6  732.04   17.96
  -5  -2  -5  147.49    5.78
  -5  -2  -5  156.40    5.93
  -5  -2  -5  144.61    6.19
  -5  -2  -5  158.71    7.46
  -5  -2  -5  152.86    7.72
  -5  -2  -5  148.00    6.26
  -5  -2  -5  160.05    6.90
  -5  -2  -5  139.75    6.15
  -5  -2  -5  128.65    5.79
  -5  -2  -5  159.68    7.03
  -5  -2  -5  142.90    6.99
  -5  -2  -4  731.79   16.29
  -5  -2  -4  739.14   17.23
  -5  -2  -4  778.52   18.81
  -5  -2  -4  718.38   15.79
  -5  -2  -4  742.16   16.09
  -5  -2  -4  747.25   17.24
  -5  -2  -4  709.63   16.63
  -5  -2  -4  758.75   17.23
  -5  -2  -4  767.65   17.32
  -5  -2  -4  765.97   18.71
  -5  -2  -3  153.64    6.49
  -5  -2  -3  150.73    6.41
  -5  -2  -3  144.84    6.37
  -5  -2  -3  156.94    7.58
  -5  -2  -3  152.08    7.27
  -5  -2  -3  146.01    6.22
  -5  -2  -3  145.17    6.52
  -5  -2  -3  145.71    6.23
  -5  -2  -3  143.89    6.46
  -5  -2  -3  146.51    7.10
  -5  -2  -2  570.32   14.34
  -5  -2  -2  584.91   15.67
  -5  -2  -2  581.39   14.54
  -5  -2  -2  554.42   14.38
  -5  -2  -2  551.29   13.86
  -5  -2  -2  544.57   13.25
  -5  -2  -2  530.74   12.99
  -5  -2  -2  562.68   13.68
  -5  -2  -2  613.96   15.89
  -5  -2  -1  682.54   16.35
  -5  -2  -1  730.97   16.46
  -5  -2  -1  684.50   15.21
  -5  -2   0   95.45    5.30
  -5  -2   0  110.16    5.64
  -5  -2   0   98.89    5.30
  -5  -2   0  105.75    5.40
  -5  -2   0  100.26    5.36
  -5  -2   1   14.96    2.20
  -5  -2   1   13.57    2.03
  -5  -2   1   15.41    2.53
  -5  -2   1   13.35    2.03
  -5  -2   1   12.60    1.92
  -5  -2   2  124.57    6.94
  -5  -2   2  136.29    6.02
  -5  -2   2  124.94    5.90
  -5  -2   2  135.68    6.13
  -5  -2   2  140.39    6.51
  -5  -2   3 1023.18   19.97
  -5  -2   3  934.92   22.57
  -5  -2   3 1006.79   26.98
  -5  -2   3  912.93   21.37
  -5  -2   3 1018.04   19.76
  -5  -2   3 1018.41   21.50
  -5  -2   4   54.46    4.30
  -5  -2   4   70.07    6.10
  -5  -2   4   59.09    4.46
  -5  -2   4   60.40    4.10
  -5  -2   5   42.00    4.41
  -5  -2   5   45.34    3.77
  -5  -2   5   49.50    3.51
  -5  -2   5   43.12    3.73
  -5  -2   6   54.51    3.84
  -5  -2   6   69.16    4.86
  -5  -2   6   57.04    3.84
  -5  -2   6   65.71    3.63
  -5  -2   7  105.98    3.88
  -5  -2   7   79.49    3.74
  -5  -1 -10   59.35    2.88
  -5  -1 -10   48.53    2.40
  -5  -1  -9   72.62    4.10
  -5  -1  -9   73.53    3.63
  -5  -1  -8  442.66   12.22
  -5  -1  -8  441.22   12.22
  -5  -1  -8  471.17   12.11
  -5  -1  -8  486.26   13.43
  -5  -1  -8  478.99   12.04
  -5  -1  -7   83.57    5.46
  -5  -1  -7   87.08    5.06
  -5  -1  -7   75.69    4.76
  -5  -1  -7   85.91    5.00
  -5  -1  -7   76.66    4.44
  -5  -1  -7   87.25    5.02
  -5  -1  -7   82.46    4.77
  -5  -1  -6  370.63   12.54
  -5  -1  -6  354.30   10.40
  -5  -1  -6  365.10   11.56
  -5  -1  -6  369.72   10.89
  -5  -1  -6  375.06   11.05
  -5  -1  -6  350.69   10.98
  -5  -1  -6  368.79   11.14
  -5  -1  -5  189.68    7.37
  -5  -1  -5  189.21    7.20
  -5  -1  -5  196.93    8.12
  -5  -1  -5  184.95    6.81
  -5  -1  -5  180.14    6.94
  -5  -1  -5  192.58    7.85
  -5  -1  -5  170.50    6.64
  -5  -1  -5  182.71    6.74
  -5  -1  -5  163.73    6.54
  -5  -1  -5  185.19    7.65
  -5  -1  -5  179.00    7.39
  -5  -1  -5  192.50    7.76
  -5  -1  -4  559.53   14.07
  -5  -1  -4  622.39   14.79
  -5  -1  -4  569.50   13.58
  -5  -1  -4  571.37   13.85
  -5  -1  -4  580.48   15.42
  -5  -1  -4  577.83   13.81
  -5  -1  -4  597.43   14.71
  -5  -1  -4  593.05   14.86
  -5  -1  -4  577.91   16.10
  -5  -1  -4  544.92   13.91
  -5  -1  -4  594.41   15.34
  -5  -1  -4  595.99   14.70
  -5  -1  -3  138.63    6.14
  -5  -1  -3  144.32    6.06
  -5  -1  -3  137.13    5.94
  -5  -1  -3  146.76    6.47
  -5  -1  -3  135.92    6.07
  -5  -1  -3  134.62    6.01
  -5  -1  -3  129.15    5.20
  -5  -1  -3  125.18    5.93
  -5  -1  -3  121.61    6.51
  -5  -1  -3  133.60    6.53
  -5  -1  -3  130.01    5.30
  -5  -1  -3  138.20    6.71
  -5  -1  -2  429.92   11.70
  -5  -1  -2  402.29   11.14
  -5  -1  -2  428.32   11.19
  -5  -1  -2  435.65   11.87
  -5  -1  -2  440.58   12.84
  -5  -1  -2  456.30   13.11
  -5  -1  -2  439.28   11.59
  -5  -1  -2  464.58   12.51
  -5  -1  -2  424.82   12.00
  -5  -1  -1  424.92   14.16
  -5  -1  -1  430.64   12.97
  -5  -1  -1  454.89   12.59
  -5  -1  -1  420.08   11.68
  -5  -1  -1  448.20   11.32
  -5  -1   0   64.23    4.19
  -5  -1   0   63.79    4.05
  -5  -1   0   61.15    4.19
  -5  -1   0   69.64    4.44
  -5  -1   0   65.63    4.26
  -5  -1   0   68.89    4.82
  -5  -1   0   58.46    3.54
  -5  -1   1  237.02    8.46
  -5  -1   1  226.08    9.18
  -5  -1   1  231.03    8.09
  -5  -1   1  218.37    8.09
  -5  -1   1  216.92    7.37
  -5  -1   1  228.54   10.96
  -5  -1   1  226.53    8.51
  -5  -1   1  228.94    8.16
  -5  -1   2  252.45    8.17
  -5  -1   2  278.63    8.99
  -5  -1   2  249.60    8.43
  -5  -1   2  252.85    9.19
  -5  -1   2  243.11    9.82
  -5  -1   2  275.42   12.51
  -5  -1   2  253.25    8.40
  -5  -1   2  243.59    8.53
  -5  -1   3  421.96   13.24
  -5  -1   3  439.48   11.29
  -5  -1   3  437.36   11.31
  -5  -1   3  443.79   11.72
  -5  -1   3  466.06   11.51
  -5  -1   3  454.76   12.86
  -5  -1   3  444.11   16.59
  -5  -1   4   63.93    3.91
  -5  -1   4   64.89    6.05
  -5  -1   4   68.96    5.06
  -5  -1   4   60.29    4.45
  -5  -1   4   66.47    4.46
  -5  -1   5  123.26    7.77
  -5  -1   5  118.77    6.62
  -5  -1   5  105.25    5.83
  -5  -1   5  132.97    6.05
  -5  -1   6  156.75    7.21
  -5  -1   6  170.80    8.21
  -5  -1   6  171.60    6.40
  -5  -1   7   19.14    2.13
  -5   0 -10   23.54    1.84
  -5   0 -10   27.30    2.00
  -5   0  -9   33.82    2.72
  -5   0  -9   31.19    2.80
  -5   0  -8  101.40    4.52
  -5   0  -8  113.36    5.61
  -5   0  -8  106.64    5.87
  -5   0  -8  109.53    5.37
  -5   0  -7  179.81    7.56
  -5   0  -7  172.34    8.14
  -5   0  -7  191.31    7.77
  -5   0  -7  188.87    7.02
  -5   0  -6  184.55    7.67
  -5   0  -6  187.15    7.37
  -5   0  -5  128.90    6.15
  -5   0  -5  118.44    5.62
  -5   0  -5  118.32    6.66
  -5   0  -5  118.43    5.40
  -5   0  -5  126.82    5.67
  -5   0  -5  127.46    6.29
  -5   0  -5  125.66    6.03
  -5   0  -5  124.25    6.14
  -5   0  -5  119.61    5.36
  -5   0  -5  109.82    5.25
  -5   0  -4  165.31    6.38
  -5   0  -4  157.99    6.60
  -5   0  -4  171.30    6.85
  -5   0  -4  181.44    7.30
  -5   0  -4  179.19    7.04
  -5   0  -4  182.41    7.40
  -5   0  -4  166.95    6.90
  -5   0  -4  172.10    6.95
  -5   0  -4  158.02    6.53
  -5   0  -4  168.87    7.16
  -5   0  -4  166.11    7.79
  -5   0  -3  470.87   12.44
  -5   0  -3  470.25   12.44
  -5   0  -3  452.91   12.30
  -5   0  -3  460.95   11.82
  -5   0  -3  459.49   12.45
  -5   0  -3  489.57   13.12
  -5   0  -3  463.42   12.16
  -5   0  -3  430.70   13.06
  -5   0  -3  475.88   12.72
  -5   0  -2  205.31    7.73
  -5   0  -2  191.68    7.74
  -5   0  -2  184.75    6.89
  -5   0  -2  190.45    7.19
  -5   0  -2  190.59    7.41
  -5   0  -2  185.08    7.63
  -5   0  -2  191.82    7.42
  -5   0  -2  190.29    7.40
  -5   0  -1  186.13    7.24
  -5   0  -1  198.44    7.95
  -5   0  -1  188.32    8.71
  -5   0   0   12.81    2.12
  -5   0   0    9.29    1.64
  -5   0   0   11.08    1.84
  -5   0   0   10.62    1.65
  -5   0   0   12.04    2.46
  -5   0   0   10.44    1.80
  -5   0   0   12.59    1.99
  -5   0   0    8.37    1.62
  -5   0   1  320.55    9.74
  -5   0   1  317.56   10.07
  -5   0   1  340.38   10.07
  -5   0   1  336.65   10.38
  -5   0   1  345.27   10.37
  -5   0   1  325.63   11.13
  -5   0   1  335.56   10.11
  -5   0   1  334.17   13.34
  -5   0   2  119.35    5.51
  -5   0   2  114.94    6.43
  -5   0   2  123.71    5.74
  -5   0   2  114.01    5.55
  -5   0   2  127.98    5.79
  -5   0   2  124.25    8.16
  -5   0   2  123.80    5.53
  -5   0   2  120.51    5.66
  -5   0   2  112.76    6.30
  -5   0   3    3.28    1.06
  -5   0   3    2.12    0.93
  -5   0   3    2.48    1.20
  -5   0   3    2.54    1.09
  -5   0   3    4.36    1.21
  -5   0   3    1.68    0.86
  -5   0   4    3.77    1.17
  -5   0   4    3.58    1.86
  -5   0   4    3.28    1.42
  -5   0   4    2.79    1.10
  -5   0   5  104.27    5.10
  -5   0   5  106.05    6.47
  -5   0   5   97.61    7.06
  -5   0   5  110.82    5.52
  -5   0   6  266.28   10.03
  -5   0   6  279.96    8.56
  -5   0   7   12.27    1.46
  -5   0   7   13.18    1.93
  -5   0   8    0.24    0.26
  -5   1 -10   73.91    3.18
  -5   1 -10   66.98    3.05
  -5   1  -9   40.91    3.16
  -5   1  -9   46.71    3.09
  -5   1  -8   43.47    3.72
  -5   1  -8   44.95    3.52
  -5   1  -8   41.21    3.26
  -5   1  -7  255.36    9.16
  -5   1  -7  239.52    8.72
  -5   1  -7  236.26    9.58
  -5   1  -6   42.56    3.63
  -5   1  -6   38.17    3.36
  -5   1  -5  130.99    5.72
  -5   1  -5  136.99    7.20
  -5   1  -5  141.29    6.63
  -5   1  -5  145.05    6.44
  -5   1  -5  138.25    5.80
  -5   1  -5  139.25    5.97
  -5   1  -5  122.79    5.61
  -5   1  -4  303.55    9.46
  -5   1  -4  300.63    9.38
  -5   1  -4  270.87   10.22
  -5   1  -4  289.51    9.77
  -5   1  -4  279.45    9.03
  -5   1  -4  316.81    9.71
  -5   1  -4  270.99    9.07
  -5   1  -3  115.65    5.70
  -5   1  -3  108.86    5.50
  -5   1  -3  116.17    6.11
  -5   1  -3  117.50    5.64
  -5   1  -3  122.39    5.77
  -5   1  -3  125.40    5.61
  -5   1  -3  115.35    5.72
  -5   1  -2  135.07    6.25
  -5   1  -2  138.09    6.25
  -5   1  -2  144.66    6.45
  -5   1  -2  130.64    6.11
  -5   1  -2  139.34    6.08
  -5   1  -2  129.40    6.07
  -5   1  -1  100.24    5.27
  -5   1  -1   96.99    6.10
  -5   1   0   30.72    3.00
  -5   1   0   31.83    2.96
  -5   1   0   29.58    2.89
  -5   1   0   27.29    3.52
  -5   1   0   32.07    2.99
  -5   1   0   33.09    3.07
  -5   1   0   32.32    3.08
  -5   1   0   33.41    2.51
  -5   1   1  476.71   12.66
  -5   1   1  473.18   11.51
  -5   1   1  454.44   13.56
  -5   1   1  466.85   12.85
  -5   1   1  452.72   13.03
  -5   1   1  488.39   12.92
  -5   1   1  462.37   12.39
  -5   1   1  452.27   12.53
  -5   1   1  480.56   16.15
  -5   1   1  454.54   12.46
  -5   1   2  229.19    8.08
  -5   1   2  225.93    7.93
  -5   1   2  229.55   11.19
  -5   1   2  223.53    8.35
  -5   1   2  223.46    9.44
  -5   1   2  227.49    8.26
  -5   1   2  207.41    7.82
  -5   1   2  219.94    7.74
  -5   1   3  122.21    5.24
  -5   1   3  130.54    5.55
  -5   1   3  126.83    7.25
  -5   1   3  121.30    5.37
  -5   1   3  132.62    6.18
  -5   1   3  127.36    6.15
  -5   1   4  104.22    5.39
  -5   1   4  106.32    6.74
  -5   1   4  105.90    5.39
  -5   1   4  107.69    7.64
  -5   1   5  245.20    8.31
  -5   1   5  254.06    8.40
  -5   1   5  238.65   10.16
  -5   1   6   29.27    2.43
  -5   1   6   25.44    3.08
  -5   1   7    0.54    0.74
  -5   1   7    1.40    0.62
  -5   1   7    0.94    0.76
  -5   2 -10   39.63    2.10
  -5   2  -9   14.45    1.68
  -5   2  -9   10.80    1.64
  -5   2  -8   33.96    2.86
  -5   2  -8   30.77    3.07
  -5   2  -7  127.15    6.19
  -5   2  -7  120.97    5.86
  -5   2  -6   25.54    2.89
  -5   2  -6   23.96    3.07
  -5   2  -6   24.42    2.77
  -5   2  -5  484.92   13.61
  -5   2  -5  469.25   14.07
  -5   2  -5  465.94   12.91
  -5   2  -5  441.06   11.59
  -5   2  -5  442.68   11.69
  -5   2  -5  465.97   13.60
  -5   2  -4  118.81    6.06
  -5   2  -4  104.62    5.84
  -5   2  -4  116.30    5.56
  -5   2  -4  110.10    6.14
  -5   2  -4  108.52    5.53
  -5   2  -4  112.86    5.62
  -5   2  -4  121.93    5.69
  -5   2  -4  103.73    5.35
  -5   2  -3  391.12   10.79
  -5   2  -3  371.20   11.26
  -5   2  -3  387.37   11.27
  -5   2  -3  376.81   11.20
  -5   2  -3  381.43   11.38
  -5   2  -3  388.91   11.26
  -5   2  -3  349.24   11.27
  -5   2  -2  297.84    9.79
  -5   2  -2  275.27    8.99
  -5   2  -2  265.89    9.09
  -5   2  -2  309.83    9.98
  -5   2  -2  307.30    9.81
  -5   2  -2  299.01    9.78
  -5   2  -1  362.09   10.97
  -5   2  -1  356.82    9.23
  -5   2   0  643.60   15.49
  -5   2   0  645.63   15.63
  -5   2   0  651.49   16.13
  -5   2   0  653.35   14.22
  -5   2   0  659.11   15.93
  -5   2   0  630.68   15.83
  -5   2   1  564.68   14.16
  -5   2   1  565.29   14.55
  -5   2   1  583.97   18.17
  -5   2   1  525.76   14.18
  -5   2   1  573.49   14.24
  -5   2   1  552.89   14.30
  -5   2   1  587.13   14.74
  -5   2   1  579.40   13.39
  -5   2   2  153.22    8.94
  -5   2   2  139.27    5.85
  -5   2   2  131.34    7.43
  -5   2   2  139.96    6.35
  -5   2   2  137.33    5.94
  -5   2   2  143.87    6.27
  -5   2   2  128.43    5.90
  -5   2   2  120.74    5.88
  -5   2   3  291.37    8.81
  -5   2   3  325.96   10.11
  -5   2   3  278.99    8.47
  -5   2   3  318.35    9.65
  -5   2   3  318.88   12.10
  -5   2   4  166.04    6.91
  -5   2   4  173.60    8.69
  -5   2   4  154.69    6.25
  -5   2   5   12.03    1.61
  -5   2   5   10.80    2.22
  -5   2   5   10.78    1.69
  -5   2   6  102.04    5.84
  -5   2   6  116.38    6.51
  -5   2   6  100.31    3.95
  -5   2   7   47.69    3.28
  -5   3  -9  125.38    4.70
  -5   3  -9  131.36    4.50
  -5   3  -8  190.84    6.58
  -5   3  -7   49.12    3.85
  -5   3  -7   45.85    3.44
  -5   3  -6   33.68    3.40
  -5   3  -6   27.24    2.98
  -5   3  -6   27.87    2.85
  -5   3  -5  206.13    7.16
  -5   3  -5  215.30    8.53
  -5   3  -5  217.09    8.23
  -5   3  -5  204.36    8.52
  -5   3  -5  200.99    7.02
  -5   3  -4  160.34    6.62
  -5   3  -4  168.94    7.14
  -5   3  -4  175.82    6.96
  -5   3  -4  167.36    7.40
  -5   3  -4  163.06    7.36
  -5   3  -4  161.61    6.77
  -5   3  -3  197.45    7.88
  -5   3  -3  194.05    7.73
  -5   3  -3  212.42    7.91
  -5   3  -3  204.38    7.65
  -5   3  -3  204.17    7.81
  -5   3  -3  187.23    7.64
  -5   3  -2  255.15    7.52
  -5   3  -2  273.18    9.35
  -5   3  -2  265.72    8.89
  -5   3  -2  270.12    9.41
  -5   3  -2  288.76    9.47
  -5   3  -1  923.38   18.23
  -5   3  -1  931.55   19.07
  -5   3  -1  961.80   20.52
  -5   3   0  134.09    6.23
  -5   3   0  120.69    6.09
  -5   3   0  121.48    6.05
  -5   3   0  124.83    5.49
  -5   3   0  125.27    5.35
  -5   3   1   84.80    4.39
  -5   3   1   80.56    4.77
  -5   3   1   81.22    4.88
  -5   3   1   85.63    4.80
  -5   3   1   83.80    4.43
  -5   3   2   41.77    3.21
  -5   3   2   40.18    3.37
  -5   3   2   41.99    3.17
  -5   3   2   39.40    2.89
  -5   3   2   40.29    3.20
  -5   3   3  337.75    9.24
  -5   3   3  331.44    9.01
  -5   3   3  352.85    9.50
  -5   3   3  359.61   10.01
  -5   3   3  353.73   10.50
  -5   3   4   98.28    4.90
  -5   3   4   88.84    3.87
  -5   3   5  179.11    8.84
  -5   3   5  176.27    6.33
  -5   3   6   28.73    3.07
  -5   3   7    1.18    0.57
  -5   4  -8   64.88    3.18
  -5   4  -8   65.78    3.41
  -5   4  -7  116.74    5.00
  -5   4  -7  105.92    5.09
  -5   4  -6   56.25    3.73
  -5   4  -6   61.53    4.06
  -5   4  -5  139.07    6.41
  -5   4  -5  130.90    6.22
  -5   4  -5  126.73    5.12
  -5   4  -5  137.37    5.35
  -5   4  -5  138.06    6.22
  -5   4  -4  248.81    8.23
  -5   4  -4  250.27    8.77
  -5   4  -4  268.20    8.47
  -5   4  -4  260.75    9.21
  -5   4  -4  247.70    8.69
  -5   4  -3    8.17    1.60
  -5   4  -3   11.14    1.90
  -5   4  -3    7.55    1.50
  -5   4  -2  170.55    6.92
  -5   4  -2  181.17    7.34
  -5   4  -2  191.64    7.49
  -5   4  -2  176.44    6.12
  -5   4  -1   61.08    3.73
  -5   4  -1   55.10    4.52
  -5   4  -1   60.63    3.58
  -5   4  -1   65.55    4.34
  -5   4   0  697.49   16.40
  -5   4   0  654.47   18.80
  -5   4   0  699.50   16.42
  -5   4   0  714.38   15.20
  -5   4   0  687.85   16.59
  -5   4   1   53.85    3.78
  -5   4   1   54.18    3.74
  -5   4   1   55.54    3.53
  -5   4   1   54.92    3.85
  -5   4   1   50.91    4.89
  -5   4   2    5.83    1.29
  -5   4   2    5.13    1.27
  -5   4   2    5.18    1.22
  -5   4   2    4.94    1.75
  -5   4   2    5.00    1.26
  -5   4   3   61.75    5.35
  -5   4   3   62.87    3.65
  -5   4   3   63.39    3.80
  -5   4   3   55.53    3.16
  -5   4   3   53.25    3.07
  -5   4   4   93.38    4.32
  -5   4   5   36.74    3.54
  -5   4   6   42.39    3.12
  -5   5  -7   52.54    2.75
  -5   5  -6    6.49    1.20
  -5   5  -5   13.57    1.43
  -5   5  -5   14.74    1.89
  -5   5  -5   12.87    1.45
  -5   5  -5   11.20    1.60
  -5   5  -4   72.38    4.20
  -5   5  -4   68.27    3.72
  -5   5  -4   64.24    3.54
  -5   5  -4   57.18    3.35
  -5   5  -3  367.77   10.08
  -5   5  -3  353.45    9.88
  -5   5  -3  341.54    8.34
  -5   5  -3  349.67   10.14
  -5   5  -2   11.76    1.75
  -5   5  -2   15.51    2.07
  -5   5  -2   13.62    1.93
  -5   5  -2   14.64    1.66
  -5   5  -1   63.68    3.61
  -5   5  -1   76.51    4.43
  -5   5  -1   71.59    4.01
  -5   5  -1   83.45    4.58
  -5   5  -1   75.08    3.83
  -5   5   0  132.92    5.81
  -5   5   0  132.23    5.78
  -5   5   0  123.98    5.36
  -5   5   0  126.64    5.21
  -5   5   1   47.72    3.08
  -5   5   1   42.09    3.10
  -5   5   1   41.90    2.94
  -5   5   1   39.97    3.97
  -5   5   1   45.36    3.16
  -5   5   2  119.75    6.87
  -5   5   2  108.65    4.65
  -5   5   2  108.66    4.63
  -5   5   2  118.46    4.84
  -5   5   2  119.45    4.80
  -5   5   3  108.87    3.94
  -5   5   3  119.44    4.36
  -5   5   3  109.82    6.18
  -5   5   4    7.11    0.95
  -5   6  -5   44.67    2.58
  -5   6  -4   25.06    1.79
  -5   6  -4   27.76    1.90
  -5   6  -4   29.13    2.23
  -5   6  -3    5.61    1.10
  -5   6  -3    6.21    1.11
  -5   6  -3    5.87    1.13
  -5   6  -3    4.86    0.77
  -5   6  -3    4.70    0.82
  -5   6  -2   43.87    2.83
  -5   6  -2   41.78    2.74
  -5   6  -2   37.89    2.26
  -5   6  -2   34.74    2.41
  -5   6  -2   40.63    2.30
  -5   6  -1   58.56    2.95
  -5   6  -1   49.20    2.59
  -5   6  -1   60.09    3.37
  -5   6  -1   57.42    3.29
  -5   6   0   47.85    2.70
  -5   6   0   45.33    2.91
  -5   6   0   42.13    2.28
  -5   6   0   44.93    2.85
  -5   6   1  181.12    5.17
  -5   6   1  189.93    5.15
  -5   6   1  180.73    5.25
  -5   6   2   19.01    1.61
  -5   6   2   16.49    1.43
  -5   6   2   15.34    1.41
  -5   7  -3   23.25    1.32
  -5   7  -2    1.67    0.51
  -5   7  -2    1.87    0.55
  -5   7  -1   11.05    1.13
  -5   7  -1   10.05    1.05
  -5   7  -1    9.76    0.90
  -5   7   0    2.02    0.47
  -5   7   0    1.07    0.48
  -5   7   0    1.45    0.49
  -5   7   1   11.64    0.96
  -4  -8  -4   29.54    1.74
  -4  -8  -3   30.77    1.80
  -4  -8  -3   33.48    2.01
  -4  -8  -2  125.65    4.27
  -4  -8  -2  101.62    3.87
  -4  -8  -1   64.35    3.18
  -4  -8   0   60.25    3.11
  -4  -8   0   58.53    2.75
  -4  -8   1  174.30    5.43
  -4  -8   2   31.59    1.95
  -4  -7  -6   22.43    1.74
  -4  -7  -6   26.40    1.95
  -4  -7  -5   16.25    1.46
  -4  -7  -5   19.64    1.76
  -4  -7  -4  174.60    5.73
  -4  -7  -4  167.87    5.41
  -4  -7  -4  170.99    5.81
  -4  -7  -4  165.10    5.16
  -4  -7  -3    7.92    1.34
  -4  -7  -3    8.15    1.42
  -4  -7  -3    5.81    1.22
  -4  -7  -3    8.11    1.37
  -4  -7  -2   56.34    3.52
  -4  -7  -2   49.81    3.50
  -4  -7  -2   46.23    2.95
  -4  -7  -2   47.57    3.06
  -4  -7  -1   16.53    1.65
  -4  -7  -1   17.42    2.19
  -4  -7   0  184.32    6.55
  -4  -7   0  183.14    7.33
  -4  -7   1  230.74    7.10
  -4  -7   1  246.57    8.56
  -4  -7   2   88.75    4.78
  -4  -7   2   89.94    3.68
  -4  -7   3   29.17    2.59
  -4  -7   4   41.12    2.66
  -4  -6  -8   45.34    2.32
  -4  -6  -8   45.21    2.19
  -4  -6  -7   82.20    3.85
  -4  -6  -7   82.29    3.82
  -4  -6  -7   81.80    3.74
  -4  -6  -7   82.15    3.45
  -4  -6  -6   15.28    1.89
  -4  -6  -6   13.65    1.77
  -4  -6  -6   14.16    1.55
  -4  -6  -6   15.81    1.88
  -4  -6  -5   97.63    4.21
  -4  -6  -5  102.30    4.65
  -4  -6  -5   99.23    4.91
  -4  -6  -5   97.94    4.74
  -4  -6  -4   56.48    3.88
  -4  -6  -4   54.13    3.55
  -4  -6  -4   48.63    3.58
  -4  -6  -4   66.99    4.05
  -4  -6  -4   56.68    3.87
  -4  -6  -4   56.14    3.76
  -4  -6  -4   52.14    3.51
  -4  -6  -4   54.76    3.54
  -4  -6  -3  124.34    5.93
  -4  -6  -3  128.48    5.86
  -4  -6  -3  139.36    6.09
  -4  -6  -3  138.23    5.99
  -4  -6  -3  124.07    5.32
  -4  -6  -3  130.40    5.90
  -4  -6  -3  132.59    5.95
  -4  -6  -3  111.82    5.83
  -4  -6  -3  128.95    5.77
  -4  -6  -2    7.51    1.47
  -4  -6  -2    8.11    1.70
  -4  -6  -2    8.69    1.37
  -4  -6  -2    8.52    1.57
  -4  -6  -2    9.05    1.74
  -4  -6  -2    6.72    1.42
  -4  -6  -2   10.86    1.68
  -4  -6  -1   46.23    3.15
  -4  -6  -1   41.40    3.04
  -4  -6  -1   39.85    3.60
  -4  -6   0  115.66    6.31
  -4  -6   0  110.66    4.54
  -4  -6   0  120.06    5.73
  -4  -6   1    8.53    1.56
  -4  -6   1   10.89    2.05
  -4  -6   2   10.32    1.54
  -4  -6   2   12.26    2.17
  -4  -6   3   -0.08    0.21
  -4  -6   3  124.64    6.21
  -4  -6   4   13.53    2.08
  -4  -6   5  156.58    6.10
  -4  -6   5  140.65    5.72
  -4  -6   6  163.70    5.19
  -4  -5  -9   22.69    1.71
  -4  -5  -9   21.48    1.82
  -4  -5  -9   20.81    1.73
  -4  -5  -8   19.37    2.12
  -4  -5  -8   17.34    1.78
  -4  -5  -8   17.81    1.76
  -4  -5  -7    9.70    1.62
  -4  -5  -7    9.99    1.55
  -4  -5  -7   11.00    1.87
  -4  -5  -7   11.11    1.74
  -4  -5  -7    7.68    1.44
  -4  -5  -7   11.09    1.63
  -4  -5  -6  143.41    5.94
  -4  -5  -6  148.76    6.77
  -4  -5  -6  152.68    6.37
  -4  -5  -6  140.51    5.73
  -4  -5  -6  131.42    5.79
  -4  -5  -6  133.31    6.67
  -4  -5  -6  146.62    6.27
  -4  -5  -6  136.62    6.34
  -4  -5  -5  267.07    8.29
  -4  -5  -5  275.01    8.64
  -4  -5  -5  289.56    9.66
  -4  -5  -5  287.31    9.68
  -4  -5  -5  284.98    9.97
  -4  -5  -5  265.70    9.96
  -4  -5  -5  284.29    8.65
  -4  -5  -5  288.28    9.46
  -4  -5  -5  279.71    9.18
  -4  -5  -5  282.53    8.59
  -4  -5  -4  593.92   15.95
  -4  -5  -4  623.38   15.46
  -4  -5  -4  633.33   16.02
  -4  -5  -4  603.72   15.19
  -4  -5  -4  589.32   14.45
  -4  -5  -4  575.35   15.26
  -4  -5  -4  587.05   13.27
  -4  -5  -4  634.04   14.83
  -4  -5  -4  621.22   14.75
  -4  -5  -4  630.43   15.30
  -4  -5  -4  623.84   15.46
  -4  -5  -3   98.37    5.43
  -4  -5  -3   98.37    5.17
  -4  -5  -3   94.92    5.13
  -4  -5  -3   92.23    4.75
  -4  -5  -3  101.94    5.77
  -4  -5  -3  100.90    5.29
  -4  -5  -3  104.03    5.71
  -4  -5  -3  100.34    5.25
  -4  -5  -3   97.87    5.26
  -4  -5  -3  100.31    5.27
  -4  -5  -2   19.05    2.49
  -4  -5  -2   22.19    2.51
  -4  -5  -2   22.55    2.51
  -4  -5  -2   15.58    1.98
  -4  -5  -2   17.59    2.19
  -4  -5  -2   19.52    2.39
  -4  -5  -2   17.77    2.38
  -4  -5  -2   22.07    2.67
  -4  -5  -2   21.26    2.37
  -4  -5  -2   21.36    2.47
  -4  -5  -1  195.64    6.95
  -4  -5  -1  200.64    7.64
  -4  -5  -1  191.05    8.06
  -4  -5  -1  188.90    7.81
  -4  -5  -1  191.39    7.01
  -4  -5  -1  193.65    7.04
  -4  -5  -1  191.59    7.62
  -4  -5   0  180.69    7.33
  -4  -5   0  178.47    7.49
  -4  -5   0  181.94    7.34
  -4  -5   0  179.41    8.03
  -4  -5   0  164.15    5.99
  -4  -5   0  174.76    6.86
  -4  -5   0  172.02    6.14
  -4  -5   1  112.02    5.55
  -4  -5   1  104.44    5.58
  -4  -5   1  103.74    5.40
  -4  -5   1  101.63    6.13
  -4  -5   2  209.77    7.46
  -4  -5   2  197.63    8.86
  -4  -5   3   50.85    4.41
  -4  -5   3   47.39    3.13
  -4  -5   4  174.29    8.16
  -4  -5   5  107.44    5.88
  -4  -5   5   99.82    4.97
  -4  -5   6   72.04    3.65
  -4  -5   6   78.21    4.06
  -4  -4 -10   20.43    1.60
  -4  -4 -10   18.66    1.65
  -4  -4 -10   21.67    1.64
  -4  -4  -9   36.57    2.60
  -4  -4  -9   30.39    2.02
  -4  -4  -9   36.18    2.63
  -4  -4  -9   40.25    3.01
  -4  -4  -8  595.58   14.93
  -4  -4  -8  590.92   13.19
  -4  -4  -8  595.13   13.72
  -4  -4  -8  563.36   13.76
  -4  -4  -8  568.78   13.91
  -4  -4  -7  269.77    9.22
  -4  -4  -7  288.07    9.01
  -4  -4  -7  279.76    9.16
  -4  -4  -7  271.34    9.09
  -4  -4  -7  265.56    9.28
  -4  -4  -7  266.88    8.72
  -4  -4  -7  262.26    9.75
  -4  -4  -6   12.84    1.94
  -4  -4  -6    8.53    1.90
  -4  -4  -6    9.92    1.84
  -4  -4  -6   10.08    1.78
  -4  -4  -6   12.88    1.96
  -4  -4  -6   13.75    2.28
  -4  -4  -6   11.94    1.90
  -4  -4  -6    9.11    1.66
  -4  -4  -6   10.87    1.91
  -4  -4  -5  197.71    7.42
  -4  -4  -5  191.93    7.52
  -4  -4  -5  188.31    8.39
  -4  -4  -5  204.01    7.83
  -4  -4  -5  202.75    8.03
  -4  -4  -5  195.19    8.40
  -4  -4  -5  202.09    7.95
  -4  -4  -5  196.81    7.06
  -4  -4  -5  187.49    7.66
  -4  -4  -5  204.07    7.43
  -4  -4  -5  197.47    7.15
  -4  -4  -4 1743.10   30.60
  -4  -4  -4 1758.14   31.57
  -4  -4  -4 1623.89   29.51
  -4  -4  -4 1702.54   30.48
  -4  -4  -4 1691.29   31.37
  -4  -4  -4 1588.39   28.89
  -4  -4  -4 1746.46   31.39
  -4  -4  -4 1642.65   30.09
  -4  -4  -4 1744.04   31.15
  -4  -4  -4 1709.07   32.55
  -4  -4  -4 1666.55   29.45
  -4  -4  -4 1700.52   32.66
  -4  -4  -3  352.41   11.32
  -4  -4  -3  364.24   10.61
  -4  -4  -3  336.26   11.23
  -4  -4  -3  319.31    9.51
  -4  -4  -3  345.02   10.30
  -4  -4  -3  371.44   10.61
  -4  -4  -3  342.40   10.20
  -4  -4  -3  364.83   10.59
  -4  -4  -3  362.01   10.50
  -4  -4  -2  291.62    9.23
  -4  -4  -2  268.16    9.03
  -4  -4  -2  268.08    9.68
  -4  -4  -2  262.56    7.90
  -4  -4  -2  272.84    8.71
  -4  -4  -2  275.31    9.68
  -4  -4  -2  275.12    8.73
  -4  -4  -2  279.79    8.83
  -4  -4  -2  274.22    8.55
  -4  -4  -2  280.64    9.10
  -4  -4  -1  141.58    5.73
  -4  -4  -1  141.58    6.13
  -4  -4  -1  148.50    5.78
  -4  -4  -1  134.20    6.34
  -4  -4  -1  143.48    6.73
  -4  -4  -1  132.83    6.60
  -4  -4  -1  152.56    5.95
  -4  -4  -1  143.87    5.55
  -4  -4  -1  155.59    6.49
  -4  -4   0  103.99    4.47
  -4  -4   0   98.16    4.47
  -4  -4   0  106.59    5.37
  -4  -4   0  109.92    5.42
  -4  -4   0  108.02    5.13
  -4  -4   0   99.81    5.65
  -4  -4   0  105.05    5.74
  -4  -4   1   52.77    4.27
  -4  -4   1   56.88    3.84
  -4  -4   1   47.84    3.18
  -4  -4   1   50.37    4.01
  -4  -4   1   53.92    3.74
  -4  -4   2   29.99    2.76
  -4  -4   2   36.56    3.73
  -4  -4   2   34.03    3.33
  -4  -4   2   33.58    2.91
  -4  -4   2   39.05    2.97
  -4  -4   3  209.44    7.36
  -4  -4   3  201.34    7.17
  -4  -4   3  187.30    8.08
  -4  -4   3  222.32    9.62
  -4  -4   3  202.64    7.05
  -4  -4   4  232.27    7.77
  -4  -4   4  216.34    9.04
  -4  -4   4  224.26    9.83
  -4  -4   5  165.01    8.10
  -4  -4   5  156.49    7.55
  -4  -4   5  170.98    6.29
  -4  -4   6   73.84    4.97
  -4  -4   6   82.08    3.86
  -4  -4   6   81.86    5.21
  -4  -4   6   81.18    4.96
  -4  -4   7   34.28    1.99
  -4  -4   7   36.19    2.99
  -4  -4   7   32.12    2.70
  -4  -3 -10   18.86    1.80
  -4  -3 -10   21.84    2.06
  -4  -3  -9  268.54    8.26
  -4  -3  -9  247.15    7.00
  -4  -3  -9  255.05    8.36
  -4  -3  -8  774.02   17.73
  -4  -3  -8  791.99   17.41
  -4  -3  -8  788.25   17.55
  -4  -3  -8  754.70   17.46
  -4  -3  -8  752.23   17.29
  -4  -3  -8  796.41   17.51
  -4  -3  -8  769.59   16.53
  -4  -3  -7  277.81   10.19
  -4  -3  -7  256.56    9.36
  -4  -3  -7  274.14    9.15
  -4  -3  -7  288.03   10.09
  -4  -3  -7  271.90    9.54
  -4  -3  -7  283.10    9.63
  -4  -3  -7  277.68    9.05
  -4  -3  -6   42.39    3.50
  -4  -3  -6   41.04    3.79
  -4  -3  -6   44.39    3.64
  -4  -3  -6   42.15    3.42
  -4  -3  -6   43.48    3.91
  -4  -3  -6   42.88    3.48
  -4  -3  -6   40.99    3.56
  -4  -3  -6   40.35    3.33
  -4  -3  -6   38.47    3.69
  -4  -3  -6   40.91    3.29
  -4  -3  -5  285.97    9.58
  -4  -3  -5  293.53    9.48
  -4  -3  -5  273.92    8.62
  -4  -3  -5  267.06    8.93
  -4  -3  -5  294.93   10.57
  -4  -3  -5  271.42   10.05
  -4  -3  -5  284.21    9.22
  -4  -3  -5  268.56    8.34
  -4  -3  -5  245.55    7.93
  -4  -3  -5  279.85    9.07
  -4  -3  -4   21.50    2.17
  -4  -3  -4   22.51    2.19
  -4  -3  -4   25.49    2.40
  -4  -3  -4   26.56    2.93
  -4  -3  -4   25.48    2.61
  -4  -3  -4   28.30    2.58
  -4  -3  -4   25.48    2.43
  -4  -3  -4   27.40    3.11
  -4  -3  -4   23.88    2.52
  -4  -3  -4   25.89    2.88
  -4  -3  -4   24.52    2.58
  -4  -3  -4   22.09    2.35
  -4  -3  -4   21.74    2.46
  -4  -3  -3  197.90    7.08
  -4  -3  -3  201.50    7.33
  -4  -3  -3  223.88    8.78
  -4  -3  -3  198.74    7.22
  -4  -3  -3  207.43    8.22
  -4  -3  -3  203.04    7.25
  -4  -3  -3  203.99    7.34
  -4  -3  -3  190.78    6.68
  -4  -3  -3  199.95    8.03
  -4  -3  -3  202.07    7.25
  -4  -3  -3  202.52    6.51
  -4  -3  -2  324.87   10.50
  -4  -3  -2  343.99   10.63
  -4  -3  -2  326.68    9.31
  -4  -3  -2  309.70    8.40
  -4  -3  -2  316.94    9.23
  -4  -3  -2  323.38    9.19
  -4  -3  -2  339.42    9.82
  -4  -3  -2  336.76    9.34
  -4  -3  -2  332.85    9.68
  -4  -3  -2  333.06    9.63
  -4  -3  -1   36.34    2.62
  -4  -3  -1   39.70    2.83
  -4  -3  -1   43.52    3.17
  -4  -3  -1   41.18    3.47
  -4  -3  -1   41.85    2.74
  -4  -3  -1   42.18    3.44
  -4  -3  -1   41.10    2.82
  -4  -3  -1   41.05    3.05
  -4  -3  -1   37.33    2.79
  -4  -3   0   70.69    3.61
  -4  -3   0   75.41    4.34
  -4  -3   0   82.01    4.91
  -4  -3   0   81.19    4.14
  -4  -3   0   72.79    4.04
  -4  -3   0   79.09    4.57
  -4  -3   0   79.37    4.35
  -4  -3   1  196.66    6.46
  -4  -3   1  201.89    7.27
  -4  -3   1  200.81    7.15
  -4  -3   1  196.24    8.00
  -4  -3   1  194.31    7.17
  -4  -3   1  194.52    7.94
  -4  -3   2  105.64    5.18
  -4  -3   2  107.31    5.10
  -4  -3   2   95.46    5.77
  -4  -3   2   97.62    4.85
  -4  -3   2   95.85    5.63
  -4  -3   3  621.23   16.71
  -4  -3   3  621.58   14.28
  -4  -3   3  664.34   15.52
  -4  -3   3  656.21   17.66
  -4  -3   3  599.15   16.40
  -4  -3   3  650.81   14.40
  -4  -3   4  174.53    6.31
  -4  -3   4  168.27    8.48
  -4  -3   4  181.86    8.59
  -4  -3   4  181.73    7.27
  -4  -3   5  127.85    7.31
  -4  -3   5  131.19    7.45
  -4  -3   5  128.89    6.00
  -4  -3   6   59.50    4.74
  -4  -3   6   56.53    3.73
  -4  -3   6   55.51    4.67
  -4  -3   6   55.13    4.76
  -4  -3   7   90.09    4.91
  -4  -3   7  107.08    4.59
  -4  -3   7  104.42    5.77
  -4  -3   7   98.63    5.56
  -4  -3   8   79.40    4.12
  -4  -3   8   88.56    3.36
  -4  -2 -11    0.68    0.37
  -4  -2 -10    2.50    0.89
  -4  -2  -9    3.01    1.11
  -4  -2  -9    2.84    1.14
  -4  -2  -9    2.62    0.96
  -4  -2  -9    2.12    0.90
  -4  -2  -9    2.62    1.05
  -4  -2  -8  283.96   10.09
  -4  -2  -8  280.76    9.77
  -4  -2  -8  263.95    9.23
  -4  -2  -8  289.60    9.52
  -4  -2  -8  276.54    9.70
  -4  -2  -8  287.83    9.58
  -4  -2  -8  299.78    9.95
  -4  -2  -8  288.46    9.51
  -4  -2  -8  283.26    8.74
  -4  -2  -7   91.65    5.45
  -4  -2  -7   86.23    4.92
  -4  -2  -7   92.46    4.91
  -4  -2  -7   88.34    5.20
  -4  -2  -7   88.64    5.54
  -4  -2  -7   89.56    5.22
  -4  -2  -7   75.07    4.68
  -4  -2  -7   86.35    5.48
  -4  -2  -7   89.68    5.21
  -4  -2  -6  187.57    7.25
  -4  -2  -6  191.10    8.02
  -4  -2  -6  184.76    7.04
  -4  -2  -6  182.37    7.14
  -4  -2  -6  170.92    7.84
  -4  -2  -6  177.86    7.44
  -4  -2  -6  180.44    8.16
  -4  -2  -6  192.85    7.64
  -4  -2  -6  192.99    7.71
  -4  -2  -6  188.13    7.43
  -4  -2  -5    5.51    1.31
  -4  -2  -5    7.27    1.50
  -4  -2  -5    6.43    1.43
  -4  -2  -5    5.93    1.45
  -4  -2  -5    5.81    1.35
  -4  -2  -5    5.28    1.53
  -4  -2  -5    7.62    1.33
  -4  -2  -5    5.56    1.22
  -4  -2  -5    6.70    1.63
  -4  -2  -5    5.31    1.30
  -4  -2  -5    6.70    1.24
  -4  -2  -4   83.44    4.11
  -4  -2  -4   83.64    4.62
  -4  -2  -4   84.40    5.20
  -4  -2  -4   89.55    5.11
  -4  -2  -4   81.34    4.01
  -4  -2  -4   83.57    4.35
  -4  -2  -4   85.59    4.61
  -4  -2  -4   72.83    4.00
  -4  -2  -4   85.14    4.33
  -4  -2  -4   83.38    4.59
  -4  -2  -4   80.64    4.26
  -4  -2  -4   79.91    4.09
  -4  -2  -3  169.09    5.87
  -4  -2  -3  171.17    6.08
  -4  -2  -3  162.36    6.27
  -4  -2  -3  164.07    6.26
  -4  -2  -3  182.60    6.49
  -4  -2  -3  159.26    5.79
  -4  -2  -3  171.44    6.35
  -4  -2  -3  167.70    6.17
  -4  -2  -3  156.76    6.06
  -4  -2  -2  289.33    8.69
  -4  -2  -2  292.71    8.39
  -4  -2  -2  290.41    8.27
  -4  -2  -2  291.67    8.59
  -4  -2  -2  286.31    8.33
  -4  -2  -2  278.40    8.51
  -4  -2  -2  297.62    8.70
  -4  -2  -2  276.23    7.17
  -4  -2  -2  301.40    9.74
  -4  -2  -1 1197.75   22.40
  -4  -2  -1 1190.41   22.67
  -4  -2  -1 1158.45   21.30
  -4  -2  -1 1196.77   21.73
  -4  -2  -1 1287.29   24.31
  -4  -2  -1 1237.06   23.96
  -4  -2  -1 1244.46   23.98
  -4  -2  -1 1171.83   21.22
  -4  -2   0  178.04    6.51
  -4  -2   0  185.76    6.26
  -4  -2   0  171.29    5.23
  -4  -2   0  185.88    6.64
  -4  -2   0  176.26    5.24
  -4  -2   0  189.95    7.40
  -4  -2   0  176.76    6.48
  -4  -2   0  168.89    5.59
  -4  -2   0  173.70    6.48
  -4  -2   1   76.47    4.16
  -4  -2   1   80.51    4.35
  -4  -2   1   79.72    4.25
  -4  -2   1   83.10    4.93
  -4  -2   1   80.76    4.32
  -4  -2   2  107.30    5.28
  -4  -2   2  104.82    5.71
  -4  -2   2  101.52    4.82
  -4  -2   2  113.75    5.07
  -4  -2   2   97.72    5.62
  -4  -2   3    2.88    1.06
  -4  -2   3    3.27    0.94
  -4  -2   3    4.58    1.11
  -4  -2   3    4.07    1.40
  -4  -2   3    5.85    1.20
  -4  -2   3    2.90    0.91
  -4  -2   3    4.02    1.34
  -4  -2   3    4.75    1.48
  -4  -2   4  437.53   14.06
  -4  -2   4  446.03   12.46
  -4  -2   4  419.53   10.46
  -4  -2   4  415.22   14.07
  -4  -2   5   21.34    3.06
  -4  -2   5   21.30    2.54
  -4  -2   5   16.22    3.08
  -4  -2   5   26.81    3.51
  -4  -2   6   96.50    5.20
  -4  -2   6   85.93    6.30
  -4  -2   6   96.47    6.47
  -4  -2   6   89.67    6.06
  -4  -2   7    8.83    1.99
  -4  -2   7    7.39    1.49
  -4  -2   7    6.83    1.40
  -4  -2   7    8.04    1.76
  -4  -2   7    7.01    1.76
  -4  -2   8   78.82    4.55
  -4  -2   8   87.94    3.74
  -4  -2   9   16.51    1.53
  -4  -1 -11   41.91    2.39
  -4  -1 -10  153.05    5.43
  -4  -1 -10  151.94    5.74
  -4  -1  -9   25.23    2.54
  -4  -1  -9   28.59    2.76
  -4  -1  -9   25.07    2.67
  -4  -1  -9   21.63    2.52
  -4  -1  -8  177.31    7.31
  -4  -1  -8  174.54    7.23
  -4  -1  -8  157.87    6.77
  -4  -1  -8  154.53    6.85
  -4  -1  -8  171.56    7.69
  -4  -1  -8  175.73    7.30
  -4  -1  -8  166.37    7.29
  -4  -1  -8  176.71    6.60
  -4  -1  -7  148.43    7.44
  -4  -1  -7  148.69    7.01
  -4  -1  -7  154.66    6.87
  -4  -1  -7  165.18    7.11
  -4  -1  -7  160.24    6.99
  -4  -1  -7  166.29    7.08
  -4  -1  -7  145.19    6.43
  -4  -1  -7  149.79    6.78
  -4  -1  -7  166.75    7.35
  -4  -1  -7  164.78    6.68
  -4  -1  -6  477.69   14.35
  -4  -1  -6  494.69   13.85
  -4  -1  -6  528.48   13.67
  -4  -1  -6  485.56   12.90
  -4  -1  -6  515.13   13.56
  -4  -1  -6  543.31   13.78
  -4  -1  -6  506.51   13.00
  -4  -1  -6  503.29   13.20
  -4  -1  -6  500.79   13.07
  -4  -1  -6  479.09   12.31
  -4  -1  -6  517.38   13.62
  -4  -1  -5   25.82    2.32
  -4  -1  -5   23.81    2.87
  -4  -1  -5   22.33    2.07
  -4  -1  -5   25.43    2.37
  -4  -1  -5   25.73    2.50
  -4  -1  -5   24.95    2.49
  -4  -1  -5   25.55    2.54
  -4  -1  -5   26.26    2.86
  -4  -1  -5   26.40    2.69
  -4  -1  -5   20.20    2.04
  -4  -1  -5   22.59    2.33
  -4  -1  -5   23.79    2.08
  -4  -1  -4   22.67    2.56
  -4  -1  -4   29.64    2.76
  -4  -1  -4   27.25    2.55
  -4  -1  -4   30.41    2.44
  -4  -1  -4   30.71    2.56
  -4  -1  -4   28.23    2.34
  -4  -1  -4   29.89    2.61
  -4  -1  -4   23.00    2.21
  -4  -1  -4   24.44    2.07
  -4  -1  -4   32.47    2.46
  -4  -1  -4   30.08    2.64
  -4  -1  -4   29.86    2.57
  -4  -1  -4   28.07    2.43
  -4  -1  -3  889.07   17.54
  -4  -1  -3  868.82   19.43
  -4  -1  -3  908.06   17.56
  -4  -1  -3  878.05   19.02
  -4  -1  -3  926.47   17.95
  -4  -1  -3  933.75   18.39
  -4  -1  -3  936.29   18.23
  -4  -1  -3  909.54   18.10
  -4  -1  -3  920.89   19.10
  -4  -1  -3  932.45   18.20
  -4  -1  -3  864.30   17.71
  -4  -1  -3  879.96   17.29
  -4  -1  -2  236.59    7.22
  -4  -1  -2  231.15    6.50
  -4  -1  -2  224.10    7.05
  -4  -1  -2  235.87    7.89
  -4  -1  -2  232.22    7.38
  -4  -1  -2  231.46    7.29
  -4  -1  -2  227.90    7.13
  -4  -1  -2  220.06    7.15
  -4  -1  -2  235.36    8.02
  -4  -1  -2  222.67    6.92
  -4  -1  -1 2410.22   39.52
  -4  -1  -1 2299.57   37.26
  -4  -1  -1 2385.21   38.26
  -4  -1  -1 2399.42   37.23
  -4  -1  -1 2268.35   36.78
  -4  -1  -1 2307.74   37.80
  -4  -1   0    6.91    0.96
  -4  -1   0    6.67    1.09
  -4  -1   0    5.38    1.12
  -4  -1   0    5.61    1.18
  -4  -1   0    5.42    1.24
  -4  -1   0    5.26    1.31
  -4  -1   0    5.06    1.11
  -4  -1   1  297.79    8.65
  -4  -1   1  317.39    8.87
  -4  -1   1  304.46    8.76
  -4  -1   1  295.03    8.48
  -4  -1   1  298.60    8.99
  -4  -1   2  455.16   11.18
  -4  -1   2  399.75   11.67
  -4  -1   2  432.81   10.78
  -4  -1   2  443.67   11.77
  -4  -1   2  432.85   10.91
  -4  -1   2  405.10   12.23
  -4  -1   2  422.26   10.63
  -4  -1   2  446.09   11.00
  -4  -1   3  171.05    6.02
  -4  -1   3  171.85    6.08
  -4  -1   3  150.19    7.23
  -4  -1   3  165.70    6.32
  -4  -1   3  159.33    5.94
  -4  -1   3  165.82    6.87
  -4  -1   3  173.62    6.13
  -4  -1   3  166.33    7.93
  -4  -1   3  164.15    7.48
  -4  -1   4    4.88    1.94
  -4  -1   4    5.03    1.23
  -4  -1   4    7.80    1.88
  -4  -1   4    6.76    1.58
  -4  -1   4    8.94    2.08
  -4  -1   5   89.03    5.16
  -4  -1   5   86.16    4.79
  -4  -1   5   86.18    6.81
  -4  -1   5   84.74    5.94
  -4  -1   5   78.12    5.25
  -4  -1   5   98.03    6.73
  -4  -1   6  138.44    6.50
  -4  -1   6  137.39    7.61
  -4  -1   6  135.02    6.97
  -4  -1   6  130.75    7.84
  -4  -1   6  127.44    7.96
  -4  -1   7   53.50    4.47
  -4  -1   7   48.74    3.92
  -4  -1   7   58.69    3.85
  -4  -1   7   49.28    4.29
  -4  -1   8    8.16    1.40
  -4  -1   8   13.75    2.21
  -4   0 -11   58.07    2.83
  -4   0 -10   41.28    2.80
  -4   0  -9  312.01   10.07
  -4   0  -9  305.54    8.85
  -4   0  -9  302.28    9.90
  -4   0  -8  428.04   13.23
  -4   0  -8  433.52   12.33
  -4   0  -8  411.55   12.23
  -4   0  -8  456.91   12.70
  -4   0  -8  427.02   11.86
  -4   0  -8  458.81   12.99
  -4   0  -7  509.59   13.67
  -4   0  -7  518.96   15.14
  -4   0  -7  511.64   13.61
  -4   0  -7  505.85   13.95
  -4   0  -7  538.34   14.18
  -4   0  -7  531.62   13.97
  -4   0  -7  514.42   13.83
  -4   0  -6  466.22   12.30
  -4   0  -6  436.05   12.02
  -4   0  -6  491.88   13.12
  -4   0  -6  456.28   12.60
  -4   0  -6  461.70   12.63
  -4   0  -6  479.80   12.99
  -4   0  -6  482.04   12.78
  -4   0  -6  452.10   13.92
  -4   0  -6  472.73   12.74
  -4   0  -6  458.97   12.03
  -4   0  -6  487.01   13.23
  -4   0  -5  145.10    5.93
  -4   0  -5  139.78    5.86
  -4   0  -5  148.69    6.38
  -4   0  -5  136.59    5.43
  -4   0  -5  138.38    5.30
  -4   0  -5  145.99    6.04
  -4   0  -5  126.22    5.11
  -4   0  -5  139.72    5.58
  -4   0  -5  144.64    6.95
  -4   0  -5  146.93    6.31
  -4   0  -5  143.17    6.04
  -4   0  -5  130.60    5.16
  -4   0  -5  146.53    6.04
  -4   0  -5  130.57    5.99
  -4   0  -4  116.45    6.03
  -4   0  -4  125.25    5.06
  -4   0  -4  135.14    5.71
  -4   0  -4  120.69    4.69
  -4   0  -4  135.20    5.39
  -4   0  -4  131.36    5.38
  -4   0  -4  124.33    5.06
  -4   0  -4  131.45    5.76
  -4   0  -4  125.98    5.47
  -4   0  -4  140.36    5.77
  -4   0  -4  129.87    5.09
  -4   0  -4  136.21    5.61
  -4   0  -4  131.86    5.23
  -4   0  -4  121.44    5.22
  -4   0  -3  942.10   18.66
  -4   0  -3  932.00   18.37
  -4   0  -3  883.21   17.45
  -4   0  -3  905.10   17.27
  -4   0  -3  894.57   17.91
  -4   0  -3  956.98   18.19
  -4   0  -3  858.56   19.25
  -4   0  -3  848.33   18.33
  -4   0  -3  910.49   18.23
  -4   0  -3  953.57   18.63
  -4   0  -3  905.79   17.75
  -4   0  -3  955.10   18.28
  -4   0  -3  953.94   18.56
  -4   0  -2  573.71   13.10
  -4   0  -2  579.94   13.05
  -4   0  -2  583.66   12.86
  -4   0  -2  579.90   12.88
  -4   0  -2  578.79   13.02
  -4   0  -2  573.03   12.41
  -4   0  -2  586.70   12.98
  -4   0  -2  614.49   13.69
  -4   0  -2  627.16   13.61
  -4   0  -1  356.73    9.55
  -4   0  -1  335.66    8.19
  -4   0  -1  370.11    9.77
  -4   0  -1  359.06    9.10
  -4   0  -1  362.10    9.01
  -4   0  -1  378.77    9.01
  -4   0  -1  348.08    9.21
  -4   0   0  116.87    5.06
  -4   0   0  112.07    4.75
  -4   0   0  117.27    4.95
  -4   0   1  348.28    9.35
  -4   0   1  356.69    9.50
  -4   0   1  349.97   10.45
  -4   0   1  370.61    9.75
  -4   0   1  363.72   12.59
  -4   0   1  364.32    9.86
  -4   0   1  359.92    9.40
  -4   0   2   68.06    3.82
  -4   0   2   71.24    3.90
  -4   0   2   69.55    3.76
  -4   0   2   66.72    3.61
  -4   0   2   65.16    3.69
  -4   0   2   64.30    4.30
  -4   0   2   66.57    4.66
  -4   0   3  184.22    6.35
  -4   0   3  175.44    6.05
  -4   0   3  190.12    6.42
  -4   0   3  183.10    6.87
  -4   0   3  173.15    7.67
  -4   0   3  184.02    6.33
  -4   0   3  177.05    6.11
  -4   0   3  162.09    7.30
  -4   0   3  178.10    8.41
  -4   0   3  195.20    9.91
  -4   0   3  199.31    7.39
  -4   0   4  162.42    7.83
  -4   0   4  181.21    7.40
  -4   0   4  180.43    9.83
  -4   0   4  170.52    6.91
  -4   0   4  179.80    9.02
  -4   0   5  123.60    6.70
  -4   0   5  115.94    7.96
  -4   0   5  118.83    7.60
  -4   0   5  115.37    5.92
  -4   0   5  110.50    6.74
  -4   0   5  117.50    5.77
  -4   0   6    8.31    2.31
  -4   0   6    5.75    1.89
  -4   0   6    9.08    1.73
  -4   0   6    7.29    1.86
  -4   0   6    7.81    1.89
  -4   0   7  480.47   12.62
  -4   0   7  478.41   13.89
  -4   0   7  498.13   15.84
  -4   0   8    5.44    1.29
  -4   0   8    6.10    1.23
  -4   0   9   68.08    2.77
  -4   1 -11   40.54    2.22
  -4   1 -10   24.05    2.26
  -4   1 -10   17.99    1.95
  -4   1  -9   61.14    4.11
  -4   1  -9   61.37    4.24
  -4   1  -9   68.14    4.34
  -4   1  -8  452.61   13.84
  -4   1  -8  472.50   13.39
  -4   1  -7   54.11    4.20
  -4   1  -7   64.50    4.49
  -4   1  -7   63.41    4.36
  -4   1  -7   61.62    4.47
  -4   1  -7   59.29    4.75
  -4   1  -6    9.28    1.72
  -4   1  -6    8.18    1.66
  -4   1  -6   13.18    2.29
  -4   1  -6    8.40    1.70
  -4   1  -6    8.78    1.65
  -4   1  -6    9.45    1.92
  -4   1  -5  244.02    8.41
  -4   1  -5  250.18    7.56
  -4   1  -5  238.72    8.16
  -4   1  -5  271.15    9.07
  -4   1  -5  233.18    7.48
  -4   1  -5  273.81    9.05
  -4   1  -5  255.19    8.56
  -4   1  -5  234.10    7.32
  -4   1  -5  227.38    7.31
  -4   1  -4   74.98    4.33
  -4   1  -4   64.04    3.63
  -4   1  -4   67.87    3.75
  -4   1  -4   71.35    4.20
  -4   1  -4   68.42    3.54
  -4   1  -4   63.26    4.41
  -4   1  -4   63.06    4.18
  -4   1  -4   65.71    3.68
  -4   1  -4   71.40    3.92
  -4   1  -3   25.38    2.27
  -4   1  -3   23.79    2.41
  -4   1  -3   28.95    2.55
  -4   1  -3   25.28    2.35
  -4   1  -3   24.78    2.60
  -4   1  -3   26.13    2.40
  -4   1  -3   24.58    2.28
  -4   1  -3   28.10    2.45
  -4   1  -3   26.44    2.36
  -4   1  -2   67.38    2.99
  -4   1  -2   71.48    3.86
  -4   1  -2   69.47    3.75
  -4   1  -2   69.81    3.87
  -4   1  -2   66.43    3.66
  -4   1  -2   73.27    3.95
  -4   1  -2   72.62    3.91
  -4   1  -1  108.27    4.90
  -4   1  -1  111.47    4.94
  -4   1  -1  115.14    4.62
  -4   1  -1  126.98    5.31
  -4   1  -1  111.05    4.85
  -4   1   0  319.23    8.79
  -4   1   0  321.84    9.11
  -4   1   0  320.72    9.08
  -4   1   0  319.32    8.91
  -4   1   0  316.51    9.15
  -4   1   1  119.99    4.70
  -4   1   1  114.96    5.41
  -4   1   1  123.70    5.32
  -4   1   1  114.63    6.84
  -4   1   1  121.30    5.00
  -4   1   1  123.41    5.15
  -4   1   1  120.43    5.20
  -4   1   1  122.80    5.23
  -4   1   1  128.45    5.39
  -4   1   2  523.49   12.48
  -4   1   2  529.29   13.02
  -4   1   2  519.28   12.44
  -4   1   2  529.73   12.11
  -4   1   2  527.83   12.29
  -4   1   2  543.67   12.96
  -4   1   2  484.55   13.26
  -4   1   2  531.59   12.64
  -4   1   2  529.37   12.14
  -4   1   2  537.82   16.72
  -4   1   2  514.15   14.89
  -4   1   3   96.95    4.54
  -4   1   3   99.39    5.03
  -4   1   3  106.23    7.24
  -4   1   3   96.20    6.26
  -4   1   3   96.01    4.48
  -4   1   3   96.67    4.53
  -4   1   3   99.10    5.05
  -4   1   3   93.92    4.35
  -4   1   3  103.89    4.84
  -4   1   4    5.66    1.55
  -4   1   4    6.13    1.85
  -4   1   4    1.72    1.29
  -4   1   4    5.33    1.35
  -4   1   4    3.74    1.15
  -4   1   5  352.62   13.64
  -4   1   5  350.46   10.77
  -4   1   5  357.09   10.86
  -4   1   5  362.55   14.55
  -4   1   5  345.00   12.02
  -4   1   6  140.03    8.28
  -4   1   6  129.32    6.04
  -4   1   6  143.45    6.39
  -4   1   6  138.99    7.35
  -4   1   7  236.67    9.29
  -4   1   7  240.94    7.91
  -4   1   8   34.35    2.89
  -4   1   8   41.65    2.62
  -4   1   9   18.09    1.89
  -4   2 -10    3.60    0.95
  -4   2 -10    3.29    0.93
  -4   2  -9   61.84    3.98
  -4   2  -9   62.85    4.23
  -4   2  -9   67.54    4.16
  -4   2  -8  154.65    7.40
  -4   2  -8  155.98    7.03
  -4   2  -7  318.23   10.94
  -4   2  -7  350.29   11.32
  -4   2  -7  327.31   11.62
  -4   2  -6  183.26    7.85
  -4   2  -6  183.38    7.99
  -4   2  -5   62.51    3.60
  -4   2  -5   63.96    3.68
  -4   2  -5   67.53    4.52
  -4   2  -5   62.75    3.67
  -4   2  -5   66.05    4.41
  -4   2  -5   57.56    4.49
  -4   2  -4  613.07   14.22
  -4   2  -4  633.07   15.78
  -4   2  -4  657.81   15.49
  -4   2  -4  617.25   15.93
  -4   2  -4  677.76   15.89
  -4   2  -4  620.20   14.15
  -4   2  -4  602.96   14.17
  -4   2  -4  657.48   14.74
  -4   2  -3  392.97   10.61
  -4   2  -3  382.26   10.25
  -4   2  -3  370.68   10.77
  -4   2  -3  370.82   10.49
  -4   2  -3  381.48   10.20
  -4   2  -3  366.67   10.97
  -4   2  -3  379.17   10.89
  -4   2  -3  362.37   10.24
  -4   2  -2 1656.72   28.99
  -4   2  -2 1696.38   28.60
  -4   2  -2 1575.16   28.06
  -4   2  -2 1576.60   26.61
  -4   2  -2 1614.84   28.45
  -4   2  -2 1481.59   28.42
  -4   2  -2 1588.54   28.62
  -4   2  -2 1642.35   29.06
  -4   2  -2 1633.27   28.74
  -4   2  -1  756.22   16.26
  -4   2  -1  698.15   14.28
  -4   2  -1  756.50   14.88
  -4   2  -1  740.93   16.20
  -4   2  -1  730.37   15.98
  -4   2  -1  745.92   15.89
  -4   2   0  310.97    9.24
  -4   2   0  333.03    8.87
  -4   2   0  324.65    9.56
  -4   2   0  311.94   11.37
  -4   2   0  326.62    9.26
  -4   2   0  307.68    8.28
  -4   2   0  313.59    9.32
  -4   2   1  804.15   17.00
  -4   2   1  787.57   19.82
  -4   2   1  823.19   17.12
  -4   2   1  818.58   16.50
  -4   2   1  793.70   17.36
  -4   2   1  802.25   21.08
  -4   2   1  837.92   17.63
  -4   2   1  827.74   17.49
  -4   2   2   35.73    2.85
  -4   2   2   36.58    2.90
  -4   2   2   39.12    3.01
  -4   2   2   38.73    3.01
  -4   2   2   36.37    4.19
  -4   2   2   39.70    2.92
  -4   2   2   39.23    2.87
  -4   2   2   37.16    3.89
  -4   2   3   57.63    5.04
  -4   2   3   63.00    3.92
  -4   2   3   56.33    3.40
  -4   2   3   55.05    3.50
  -4   2   3   56.22    3.50
  -4   2   3   64.36    3.85
  -4   2   4  304.28   13.25
  -4   2   4  311.54    9.42
  -4   2   4  313.20   12.64
  -4   2   4  305.46    9.48
  -4   2   5   55.75    5.31
  -4   2   5   55.16    3.72
  -4   2   6  122.50    5.40
  -4   2   7   17.93    1.86
  -4   2   7   19.91    2.87
  -4   2   7   19.28    2.93
  -4   2   8    1.07    0.46
  -4   2   8    1.43    0.99
  -4   2   8    0.79    0.65
  -4   2   8    1.39    0.77
  -4   3 -10   91.88    3.66
  -4   3 -10   86.88    3.63
  -4   3  -9    3.38    1.09
  -4   3  -9    4.34    1.16
  -4   3  -8    9.35    1.70
  -4   3  -8    8.31    1.87
  -4   3  -8   10.45    1.83
  -4   3  -8   11.25    1.69
  -4   3  -7  123.67    5.82
  -4   3  -7  117.84    6.55
  -4   3  -7  127.91    6.38
  -4   3  -7  108.41    5.97
  -4   3  -6  512.58   13.48
  -4   3  -6  538.41   15.40
  -4   3  -6  533.22   14.71
  -4   3  -6  512.95   14.66
  -4   3  -6  540.89   14.88
  -4   3  -5  341.85   11.63
  -4   3  -5  348.79   10.35
  -4   3  -5  354.09   11.31
  -4   3  -5  336.59    9.52
  -4   3  -5  338.46    9.46
  -4   3  -4  149.46    7.10
  -4   3  -4  160.72    6.31
  -4   3  -4  158.64    7.16
  -4   3  -4  170.01    7.42
  -4   3  -4  157.19    7.04
  -4   3  -4  157.82    6.35
  -4   3  -4  152.88    6.32
  -4   3  -3  253.81    9.01
  -4   3  -3  270.13    8.69
  -4   3  -3  254.19    8.55
  -4   3  -3  273.00    9.22
  -4   3  -3  260.80    7.70
  -4   3  -3  267.88    9.22
  -4   3  -3  273.67    8.66
  -4   3  -2  835.71   18.27
  -4   3  -2  807.81   17.92
  -4   3  -2  864.01   18.33
  -4   3  -2  861.92   18.13
  -4   3  -2  848.86   17.11
  -4   3  -2  835.52   18.29
  -4   3  -2  852.87   18.34
  -4   3  -1  546.23   13.60
  -4   3  -1  543.39   13.05
  -4   3  -1  549.03   13.73
  -4   3  -1  549.33   12.84
  -4   3  -1  511.56   12.85
  -4   3  -1  563.03   13.53
  -4   3   0  499.08   11.89
  -4   3   0  513.05   13.58
  -4   3   0  518.40   12.96
  -4   3   0  511.58   13.07
  -4   3   0  500.28   11.99
  -4   3   0  527.97   13.32
  -4   3   0  534.91   12.74
  -4   3   1  329.84    9.14
  -4   3   1  347.85   10.26
  -4   3   1  354.26   10.12
  -4   3   1  352.02   10.71
  -4   3   1  347.32   10.32
  -4   3   1  345.60    9.60
  -4   3   1  350.77   10.05
  -4   3   2  330.07    9.81
  -4   3   2  332.00   10.91
  -4   3   2  327.17   10.00
  -4   3   2  313.33   12.33
  -4   3   2  324.94    9.48
  -4   3   2  339.54    9.67
  -4   3   2  318.01   10.25
  -4   3   2  325.64    9.84
  -4   3   2  317.97    8.97
  -4   3   3  117.00    5.28
  -4   3   3  115.44    5.33
  -4   3   3  115.03    5.01
  -4   3   3  121.75    6.54
  -4   3   3  118.52    5.93
  -4   3   3  121.06    7.62
  -4   3   3  115.98    5.11
  -4   3   3  119.08    5.44
  -4   3   3  120.80    5.77
  -4   3   4  189.12    7.60
  -4   3   4  189.50    6.59
  -4   3   4  195.67    8.70
  -4   3   4  202.92    7.71
  -4   3   4  208.41   10.25
  -4   3   5  262.80    8.78
  -4   3   5  246.27    7.38
  -4   3   5  237.23    8.29
  -4   3   5  239.13    9.78
  -4   3   6   17.29    2.53
  -4   3   6   21.44    3.19
  -4   3   6   16.59    2.89
  -4   3   6   21.40    2.24
  -4   3   7   23.34    2.91
  -4   3   7   23.48    2.59
  -4   3   7   22.49    2.92
  -4   3   8    5.69    1.08
  -4   4  -9  100.38    4.43
  -4   4  -9  102.86    4.20
  -4   4  -8   29.23    2.84
  -4   4  -8   31.91    2.77
  -4   4  -7  133.27    6.29
  -4   4  -7  132.63    6.28
  -4   4  -7  130.20    5.74
  -4   4  -6   86.64    5.51
  -4   4  -6   93.91    5.52
  -4   4  -6   93.40    5.08
  -4   4  -5  607.29   15.86
  -4   4  -5  553.42   13.17
  -4   4  -5  607.32   16.09
  -4   4  -5  573.68   13.43
  -4   4  -5  588.67   14.73
  -4   4  -4  169.97    7.04
  -4   4  -4  171.94    7.62
  -4   4  -4  160.12    7.43
  -4   4  -4  168.17    7.52
  -4   4  -4  171.71    6.68
  -4   4  -4  171.63    6.77
  -4   4  -3  211.26    8.21
  -4   4  -3  233.69    8.84
  -4   4  -3  211.31    7.34
  -4   4  -3  209.62    7.98
  -4   4  -3  224.92    8.08
  -4   4  -3  226.01    8.57
  -4   4  -3  226.43    8.04
  -4   4  -2   37.24    3.11
  -4   4  -2   44.24    3.43
  -4   4  -2   39.69    3.42
  -4   4  -2   42.10    3.18
  -4   4  -2   38.84    3.38
  -4   4  -2   39.41    3.34
  -4   4  -2   38.98    3.27
  -4   4  -1  164.65    7.07
  -4   4  -1  169.24    7.02
  -4   4  -1  178.97    8.61
  -4   4  -1  174.80    6.94
  -4   4  -1  177.85    6.89
  -4   4  -1  179.75    7.27
  -4   4   0  715.95   16.82
  -4   4   0  678.93   16.66
  -4   4   0  708.94   16.34
  -4   4   0  681.55   15.47
  -4   4   0  719.10   18.02
  -4   4   0  738.65   16.67
  -4   4   0  727.90   20.21
  -4   4   1  577.23   14.40
  -4   4   1  577.71   14.52
  -4   4   1  571.00   18.23
  -4   4   1  570.67   14.21
  -4   4   1  605.98   14.04
  -4   4   1  562.84   15.44
  -4   4   1  536.40   14.28
  -4   4   1  583.37   15.73
  -4   4   1  569.25   14.10
  -4   4   2   92.42    7.07
  -4   4   2   92.97    5.05
  -4   4   2   95.57    5.69
  -4   4   2   95.27    4.90
  -4   4   2   96.12    4.90
  -4   4   2   96.95    5.06
  -4   4   2   93.25    5.80
  -4   4   2   93.75    4.97
  -4   4   2   94.90    5.17
  -4   4   3   48.01    3.98
  -4   4   3   41.06    3.05
  -4   4   3   44.80    4.12
  -4   4   3   50.60    3.55
  -4   4   3   47.35    3.31
  -4   4   4   88.00    4.68
  -4   4   4   79.62    4.98
  -4   4   4   82.18    5.52
  -4   4   4   81.23    4.45
  -4   4   4   88.28    6.98
  -4   4   5  290.49   10.57
  -4   4   5  286.53   12.42
  -4   4   5  279.00    9.20
  -4   4   5  284.14    8.61
  -4   4   5  300.10    8.74
  -4   4   6   95.35    5.34
  -4   4   6   89.34    4.23
  -4   4   6   92.17    6.17
  -4   4   7   35.15    2.79
  -4   4   7   37.38    3.21
  -4   5  -9   14.24    1.26
  -4   5  -8   54.12    3.01
  -4   5  -7   68.16    3.94
  -4   5  -7   66.62    4.10
  -4   5  -7   67.91    3.95
  -4   5  -6  103.92    5.52
  -4   5  -6  110.71    5.60
  -4   5  -5  339.00    9.13
  -4   5  -5  370.03   11.27
  -4   5  -5  334.95    9.11
  -4   5  -5  368.18   11.36
  -4   5  -4   30.88    3.13
  -4   5  -4   26.28    2.84
  -4   5  -4   24.97    2.46
  -4   5  -4   23.46    2.43
  -4   5  -4   29.53    3.15
  -4   5  -3   18.59    2.27
  -4   5  -3   16.92    2.43
  -4   5  -3   18.13    2.29
  -4   5  -3   17.95    2.21
  -4   5  -2  241.37    8.41
  -4   5  -2  262.03    8.88
  -4   5  -2  243.02    8.69
  -4   5  -2  245.93    8.96
  -4   5  -1  104.39    5.46
  -4   5  -1  100.87    5.32
  -4   5  -1   98.54    5.24
  -4   5  -1  104.22    5.50
  -4   5   0   59.53    5.28
  -4   5   0   52.96    3.89
  -4   5   0   58.57    4.05
  -4   5   0   59.73    3.82
  -4   5   1  241.28    8.71
  -4   5   1  256.74    8.76
  -4   5   1  246.57    8.12
  -4   5   1  249.20    8.39
  -4   5   1  260.04    8.96
  -4   5   1  243.10   11.36
  -4   5   1  261.27   10.10
  -4   5   2    4.51    1.42
  -4   5   2    2.26    1.22
  -4   5   2    4.16    1.19
  -4   5   2    4.30    1.21
  -4   5   2    5.61    1.32
  -4   5   2    4.82    2.02
  -4   5   2    4.39    1.11
  -4   5   3    2.01    0.89
  -4   5   3    1.42    0.80
  -4   5   3    1.41    1.32
  -4   5   3    2.28    1.09
  -4   5   3    2.12    1.09
  -4   5   3    2.54    0.92
  -4   5   4   99.26    4.63
  -4   5   4   93.35    5.23
  -4   5   4   92.73    5.61
  -4   5   4   92.81    4.20
  -4   5   4  104.06    7.12
  -4   5   5  105.91    6.63
  -4   5   5  100.70    4.26
  -4   5   5   96.52    5.34
  -4   5   5   97.60    4.82
  -4   5   6   19.89    1.72
  -4   5   6   44.23    3.08
  -4   6  -7   28.05    2.07
  -4   6  -7   34.74    2.21
  -4   6  -6    3.95    1.06
  -4   6  -6    4.21    1.07
  -4   6  -5   72.52    3.95
  -4   6  -5   63.24    3.01
  -4   6  -5   65.85    3.03
  -4   6  -5   66.06    4.00
  -4   6  -4  110.55    4.70
  -4   6  -4  115.09    5.53
  -4   6  -4  110.88    4.74
  -4   6  -4  103.86    4.85
  -4   6  -3   75.59    4.12
  -4   6  -3   69.23    4.36
  -4   6  -3   69.92    3.99
  -4   6  -2   27.84    2.76
  -4   6  -2   24.04    2.48
  -4   6  -2   27.36    2.63
  -4   6  -1  380.59   10.77
  -4   6  -1  344.82    9.09
  -4   6  -1  379.09   10.81
  -4   6  -1  365.30   10.54
  -4   6   0  137.30    5.69
  -4   6   0  132.79    4.98
  -4   6   0  140.17    5.79
  -4   6   1  202.22    6.97
  -4   6   1  192.20    7.11
  -4   6   1  204.13    7.24
  -4   6   2   74.23    3.97
  -4   6   2   78.52    4.07
  -4   6   2   74.22    4.83
  -4   6   3    5.04    1.07
  -4   6   3    5.04    1.00
  -4   6   3    4.27    1.27
  -4   6   3    4.95    0.98
  -4   6   4   34.96    2.85
  -4   6   4   35.95    2.37
  -4   6   5   10.54    1.31
  -4   7  -6   79.59    2.85
  -4   7  -5   89.46    3.72
  -4   7  -4   31.44    2.37
  -4   7  -4   29.82    1.86
  -4   7  -4   30.33    1.85
  -4   7  -4   28.33    1.67
  -4   7  -3  120.20    4.49
  -4   7  -3  133.41    4.70
  -4   7  -3  127.28    5.12
  -4   7  -2    2.56    0.88
  -4   7  -2    1.46    0.69
  -4   7  -2    2.94    0.90
  -4   7  -2    3.69    1.00
  -4   7  -1   93.73    4.22
  -4   7  -1  104.70    4.53
  -4   7  -1  104.44    4.51
  -4   7  -1  101.27    4.18
  -4   7   0   33.46    2.36
  -4   7   0   29.52    2.17
  -4   7   1   33.66    2.32
  -4   7   1   28.36    2.21
  -4   7   1   30.94    2.32
  -4   7   2  138.17    4.55
  -4   7   2  131.09    4.41
  -4   7   3  139.86    4.33
  -4   8  -2   28.66    1.55
  -4   8  -2   28.87    1.42
  -4   8  -1   84.03    2.77
  -4   8  -1   90.83    3.06
  -4   8  -1   83.67    2.93
  -4   8   0   12.24    1.12
  -4   8   0   14.29    1.10
  -3  -9  -2   98.61    3.42
  -3  -9  -1  185.00    5.23
  -3  -9   0   33.15    2.01
  -3  -8  -6   16.75    1.32
  -3  -8  -6   16.52    1.25
  -3  -8  -5   59.15    2.83
  -3  -8  -5   59.72    2.96
  -3  -8  -5   59.06    2.80
  -3  -8  -4   11.67    1.29
  -3  -8  -4   11.56    1.39
  -3  -8  -4   10.44    1.48
  -3  -8  -4   11.12    1.44
  -3  -8  -3   35.70    2.49
  -3  -8  -3   38.15    2.92
  -3  -8  -3   38.66    2.71
  -3  -8  -3   43.88    2.71
  -3  -8  -2  115.27    4.77
  -3  -8  -2  125.27    4.94
  -3  -8  -2  117.93    4.62
  -3  -8  -2  121.84    5.62
  -3  -8  -1  173.84    5.75
  -3  -8  -1  182.88    7.18
  -3  -8  -1  167.46    6.08
  -3  -8  -1  187.56    6.27
  -3  -8  -1  169.66    5.45
  -3  -8   0   27.04    2.67
  -3  -8   0   26.18    2.18
  -3  -8   0   -0.07    0.23
  -3  -8   0   23.91    2.10
  -3  -8   0    0.06    0.17
  -3  -8   1   31.62    2.26
  -3  -8   2  250.82    6.32
  -3  -8   3   13.21    1.71
  -3  -8   4   83.66    3.51
  -3  -7  -7   21.43    1.71
  -3  -7  -7   21.18    1.71
  -3  -7  -7   21.41    1.69
  -3  -7  -7   21.94    1.84
  -3  -7  -6   43.92    2.83
  -3  -7  -6   42.08    2.63
  -3  -7  -6   40.91    2.86
  -3  -7  -6   38.19    2.56
  -3  -7  -5    0.60    0.59
  -3  -7  -5    0.25    0.73
  -3  -7  -5    1.50    0.90
  -3  -7  -5    2.06    0.75
  -3  -7  -4   70.14    4.18
  -3  -7  -4   80.14    3.98
  -3  -7  -3   33.88    2.97
  -3  -7  -3   40.75    3.14
  -3  -7  -3   37.31    3.16
  -3  -7  -3   40.67    3.29
  -3  -7  -3   35.50    3.08
  -3  -7  -3   33.72    2.90
  -3  -7  -2   36.04    3.05
  -3  -7  -2   33.06    2.83
  -3  -7  -2   34.38    2.99
  -3  -7  -2   37.39    3.14
  -3  -7  -2   31.70    2.78
  -3  -7  -1   27.98    2.63
  -3  -7  -1   33.29    3.40
  -3  -7  -1   29.76    2.62
  -3  -7  -1   30.09    2.82
  -3  -7  -1   32.28    2.96
  -3  -7  -1   28.93    2.71
  -3  -7   0   97.02    4.41
  -3  -7   0   93.03    4.58
  -3  -7   0   95.79    4.96
  -3  -7   0   99.99    5.12
  -3  -7   0   96.71    5.90
  -3  -7   1  472.51   14.08
  -3  -7   1  456.66   11.76
  -3  -7   1  432.24   11.43
  -3  -7   2  206.86    6.89
  -3  -7   2  205.36    6.51
  -3  -7   3   86.62    3.71
  -3  -7   4  172.38    7.18
  -3  -7   5  125.46    5.38
  -3  -7   6   65.15    2.99
  -3  -6  -9   19.50    1.48
  -3  -6  -9   21.81    1.58
  -3  -6  -8   24.85    2.10
  -3  -6  -8   24.29    1.79
  -3  -6  -8   27.12    2.23
  -3  -6  -8   25.75    2.15
  -3  -6  -8   27.81    2.12
  -3  -6  -7   97.70    4.59
  -3  -6  -7   94.25    4.57
  -3  -6  -7  100.84    4.48
  -3  -6  -7   97.68    4.68
  -3  -6  -7   91.73    4.62
  -3  -6  -7   91.20    4.60
  -3  -6  -6   35.15    3.08
  -3  -6  -6   38.74    3.03
  -3  -6  -6   34.60    2.94
  -3  -6  -6   36.36    3.17
  -3  -6  -6   37.81    3.15
  -3  -6  -6   37.81    3.10
  -3  -6  -6   39.87    3.18
  -3  -6  -5   20.82    2.36
  -3  -6  -5   18.83    2.41
  -3  -6  -5   16.34    2.12
  -3  -6  -5   19.43    2.43
  -3  -6  -5   20.66    2.48
  -3  -6  -5   17.42    2.17
  -3  -6  -5   16.15    2.30
  -3  -6  -5   19.16    2.03
  -3  -6  -5   19.90    2.38
  -3  -6  -4   18.87    2.45
  -3  -6  -4   15.54    2.03
  -3  -6  -4   13.15    2.02
  -3  -6  -4   17.54    2.34
  -3  -6  -4   16.58    2.04
  -3  -6  -4   16.99    2.32
  -3  -6  -4   19.79    2.43
  -3  -6  -4   15.50    2.08
  -3  -6  -4   16.12    2.06
  -3  -6  -3  290.00    9.73
  -3  -6  -3  282.98    9.64
  -3  -6  -3  272.54    8.34
  -3  -6  -3  260.48    8.07
  -3  -6  -3  252.31    8.99
  -3  -6  -3  275.36    9.06
  -3  -6  -3  278.77    9.32
  -3  -6  -3  263.99    9.19
  -3  -6  -3  278.74    9.60
  -3  -6  -3  291.86    9.28
  -3  -6  -2   79.27    4.75
  -3  -6  -2   73.72    4.56
  -3  -6  -2   72.36    4.62
  -3  -6  -2   68.84    4.34
  -3  -6  -2   84.72    4.80
  -3  -6  -2   74.65    4.48
  -3  -6  -1   35.61    3.12
  -3  -6  -1   36.59    3.10
  -3  -6  -1   37.85    3.28
  -3  -6  -1   35.63    3.02
  -3  -6  -1   38.45    3.34
  -3  -6  -1   43.67    3.51
  -3  -6  -1   37.33    2.99
  -3  -6  -1   36.51    3.15
  -3  -6   0  336.37   10.36
  -3  -6   0  315.83    9.93
  -3  -6   0  329.16    9.76
  -3  -6   0  347.46   10.52
  -3  -6   0  343.66   12.00
  -3  -6   0  311.16    9.41
  -3  -6   0  321.75    9.33
  -3  -6   0  349.43   10.60
  -3  -6   1  325.35   11.65
  -3  -6   1  291.85    9.25
  -3  -6   1  281.95    8.52
  -3  -6   1  276.99    7.97
  -3  -6   1  312.96    9.74
  -3  -6   1  274.76    8.74
  -3  -6   1  295.31    9.47
  -3  -6   1  291.42    8.47
  -3  -6   2   77.12    4.33
  -3  -6   2   82.37    4.51
  -3  -6   2   84.06    5.84
  -3  -6   2   87.49    4.87
  -3  -6   2   81.48    4.27
  -3  -6   3    3.69    1.25
  -3  -6   3    3.52    1.00
  -3  -6   3    2.66    0.99
  -3  -6   4   23.60    2.77
  -3  -6   4   22.43    2.36
  -3  -6   5  278.88   10.13
  -3  -6   5  267.30    9.24
  -3  -6   6   74.51    4.43
  -3  -6   6   67.79    3.95
  -3  -6   7   57.18    3.11
  -3  -6   7   50.16    2.61
  -3  -5 -10   23.95    1.66
  -3  -5 -10   22.83    1.64
  -3  -5  -9  274.55    8.07
  -3  -5  -9  281.14    7.67
  -3  -5  -8  109.06    5.11
  -3  -5  -8  111.65    4.58
  -3  -5  -8  112.31    5.32
  -3  -5  -8  105.30    4.95
  -3  -5  -8  115.30    5.43
  -3  -5  -8  110.76    5.47
  -3  -5  -8  114.10    5.23
  -3  -5  -7    6.13    1.45
  -3  -5  -7    6.02    1.35
  -3  -5  -7    5.10    1.39
  -3  -5  -7    4.56    1.31
  -3  -5  -7    4.82    1.29
  -3  -5  -7    4.27    1.38
  -3  -5  -7    6.66    1.56
  -3  -5  -7    4.71    1.42
  -3  -5  -7    4.28    1.35
  -3  -5  -6   23.31    2.90
  -3  -5  -6   27.43    2.86
  -3  -5  -6   25.70    2.93
  -3  -5  -6   22.76    2.62
  -3  -5  -6   26.72    2.80
  -3  -5  -6   22.29    2.65
  -3  -5  -6   25.86    2.76
  -3  -5  -6   28.23    2.78
  -3  -5  -5   30.56    2.94
  -3  -5  -5   23.83    2.73
  -3  -5  -5   22.73    2.52
  -3  -5  -5   26.56    2.74
  -3  -5  -5   27.15    2.76
  -3  -5  -5   22.78    2.80
  -3  -5  -5   22.25    2.25
  -3  -5  -5   25.95    2.85
  -3  -5  -5   25.87    2.90
  -3  -5  -5   23.84    2.63
  -3  -5  -4 1144.74   22.83
  -3  -5  -4 1055.61   22.75
  -3  -5  -4 1097.55   22.83
  -3  -5  -4 1165.00   23.12
  -3  -5  -4 1075.78   21.90
  -3  -5  -4 1113.85   21.77
  -3  -5  -4 1054.48   21.39
  -3  -5  -4 1101.97   23.61
  -3  -5  -4 1140.27   22.40
  -3  -5  -4 1121.09   23.15
  -3  -5  -3  493.83   12.17
  -3  -5  -3  530.98   13.68
  -3  -5  -3  505.18   13.73
  -3  -5  -3  506.70   13.13
  -3  -5  -3  517.29   13.56
  -3  -5  -3  506.56   13.34
  -3  -5  -3  503.48   13.43
  -3  -5  -3  517.56   12.51
  -3  -5  -3  501.98   12.75
  -3  -5  -3  506.51   13.40
  -3  -5  -3  528.68   13.07
  -3  -5  -3  486.64   13.16
  -3  -5  -2   73.73    4.47
  -3  -5  -2   68.08    3.58
  -3  -5  -2   70.28    4.27
  -3  -5  -2   70.33    4.22
  -3  -5  -2   72.73    4.34
  -3  -5  -2   74.00    4.24
  -3  -5  -2   69.39    4.26
  -3  -5  -2   71.78    4.22
  -3  -5  -2   72.08    4.41
  -3  -5  -2   72.81    4.27
  -3  -5  -1  110.71    5.10
  -3  -5  -1  116.65    5.48
  -3  -5  -1  120.92    5.55
  -3  -5  -1  126.23    5.57
  -3  -5  -1  110.83    5.45
  -3  -5  -1  115.21    5.46
  -3  -5  -1  124.61    5.72
  -3  -5  -1  119.03    5.57
  -3  -5  -1  107.21    5.09
  -3  -5  -1  123.05    5.80
  -3  -5   0  834.36   17.83
  -3  -5   0  824.99   17.35
  -3  -5   0  797.81   16.43
  -3  -5   0  789.46   16.79
  -3  -5   0  853.91   18.21
  -3  -5   0  859.30   18.08
  -3  -5   0  878.40   18.36
  -3  -5   0  826.30   16.56
  -3  -5   0  807.14   17.05
  -3  -5   0  848.59   18.32
  -3  -5   1  428.93   10.70
  -3  -5   1  428.33   10.40
  -3  -5   1  449.00   11.93
  -3  -5   1  459.74   12.22
  -3  -5   1  455.43   11.96
  -3  -5   1  434.44   11.63
  -3  -5   1  424.65   11.17
  -3  -5   1  464.75   11.84
  -3  -5   1  454.91   14.02
  -3  -5   1  438.66   11.31
  -3  -5   2    3.98    1.16
  -3  -5   2    3.80    1.16
  -3  -5   2    4.72    1.14
  -3  -5   2    4.03    1.12
  -3  -5   2    5.69    1.75
  -3  -5   2    4.95    1.25
  -3  -5   2    3.22    1.15
  -3  -5   2    3.04    0.97
  -3  -5   3  109.22    5.65
  -3  -5   3  108.18    5.06
  -3  -5   3  113.11    5.06
  -3  -5   3  111.80    6.81
  -3  -5   3  115.43    6.47
  -3  -5   3  115.03    5.62
  -3  -5   4  163.53    6.93
  -3  -5   4  156.13    7.90
  -3  -5   5  126.41    7.23
  -3  -5   5  122.41    5.81
  -3  -5   5  111.74    6.65
  -3  -5   6   15.94    2.48
  -3  -5   6   13.62    2.34
  -3  -5   6   17.79    2.09
  -3  -5   7   39.01    3.33
  -3  -5   7   38.74    3.31
  -3  -5   8   17.62    1.76
  -3  -5   8   15.77    1.67
  -3  -4 -11    5.02    0.73
  -3  -4 -10   43.90    2.69
  -3  -4 -10   39.98    2.44
  -3  -4 -10   42.49    2.47
  -3  -4 -10   43.85    2.90
  -3  -4  -9    0.40    0.54
  -3  -4  -9    0.14    0.79
  -3  -4  -9    0.92    0.79
  -3  -4  -9    0.66    0.70
  -3  -4  -8  689.20   16.19
  -3  -4  -8  696.04   16.11
  -3  -4  -8  664.26   17.06
  -3  -4  -8  655.84   15.05
  -3  -4  -8  693.48   15.83
  -3  -4  -8  645.40   15.66
  -3  -4  -8  705.95   14.88
  -3  -4  -7  316.15   10.13
  -3  -4  -7  292.98   10.71
  -3  -4  -7  306.80    9.40
  -3  -4  -7  332.50   10.34
  -3  -4  -7  311.85   10.06
  -3  -4  -7  293.81    9.95
  -3  -4  -7  283.07    9.62
  -3  -4  -7  323.62   10.49
  -3  -4  -7  286.84   10.01
  -3  -4  -7  312.43    9.42
  -3  -4  -7  307.76   10.24
  -3  -4  -7  312.07   11.20
  -3  -4  -6  198.59    7.47
  -3  -4  -6  200.65    7.97
  -3  -4  -6  198.37    7.91
  -3  -4  -6  210.60    8.85
  -3  -4  -6  206.13    7.92
  -3  -4  -6  186.69    7.30
  -3  -4  -6  206.66    8.08
  -3  -4  -6  180.32    7.53
  -3  -4  -6  194.67    7.77
  -3  -4  -6  198.45    7.54
  -3  -4  -6  183.03    8.13
  -3  -4  -5    0.18    0.79
  -3  -4  -5    2.71    1.17
  -3  -4  -5    2.12    0.98
  -3  -4  -5    1.62    0.94
  -3  -4  -5    1.00    0.94
  -3  -4  -5    0.96    0.66
  -3  -4  -5    1.37    0.72
  -3  -4  -5    2.33    1.04
  -3  -4  -5    1.93    0.96
  -3  -4  -5    2.24    0.93
  -3  -4  -5    0.58    0.75
  -3  -4  -5    0.85    0.73
  -3  -4  -5    1.65    0.71
  -3  -4  -4  201.89    7.47
  -3  -4  -4  215.15    8.29
  -3  -4  -4  204.04    7.22
  -3  -4  -4  199.58    7.31
  -3  -4  -4  207.70    6.73
  -3  -4  -4  187.74    7.40
  -3  -4  -4  206.68    7.52
  -3  -4  -4  193.13    7.73
  -3  -4  -4  201.72    7.01
  -3  -4  -4  211.81    6.91
  -3  -4  -4  205.99    6.94
  -3  -4  -4  202.73    7.32
  -3  -4  -3  243.38    8.09
  -3  -4  -3  239.56    8.54
  -3  -4  -3  240.66    8.05
  -3  -4  -3  232.21    8.30
  -3  -4  -3  255.62    8.30
  -3  -4  -3  239.95    8.13
  -3  -4  -3  248.75    7.67
  -3  -4  -3  245.92    8.18
  -3  -4  -3  244.30    7.67
  -3  -4  -3  234.44    7.06
  -3  -4  -3  239.25    7.66
  -3  -4  -3  234.45    7.36
  -3  -4  -2   26.26    2.36
  -3  -4  -2   24.96    2.51
  -3  -4  -2   26.75    2.60
  -3  -4  -2   26.94    2.47
  -3  -4  -2   25.08    2.37
  -3  -4  -2   26.80    2.40
  -3  -4  -2   24.29    2.02
  -3  -4  -2   25.45    2.37
  -3  -4  -2   23.59    2.31
  -3  -4  -1  472.14   11.46
  -3  -4  -1  484.25   11.85
  -3  -4  -1  469.69   11.33
  -3  -4  -1  473.34   11.48
  -3  -4  -1  464.38   12.01
  -3  -4  -1  470.42   11.81
  -3  -4  -1  477.20   11.25
  -3  -4  -1  474.50   11.72
  -3  -4  -1  484.82   11.79
  -3  -4  -1  490.53   12.31
  -3  -4   0  423.08   10.77
  -3  -4   0  423.68   10.26
  -3  -4   0  443.16   11.25
  -3  -4   0  447.07   11.54
  -3  -4   0  423.93   10.99
  -3  -4   0  422.19    9.88
  -3  -4   0  436.99   11.45
  -3  -4   0  440.76   11.08
  -3  -4   0  434.20   10.35
  -3  -4   0  441.78   10.51
  -3  -4   0  427.98   10.30
  -3  -4   0  441.61   11.14
  -3  -4   1  375.25   10.20
  -3  -4   1  360.05    9.32
  -3  -4   1  348.73    9.68
  -3  -4   1  347.93    9.73
  -3  -4   1  362.83    9.61
  -3  -4   1  370.57   10.01
  -3  -4   1  340.64    8.61
  -3  -4   1  373.78   11.63
  -3  -4   1  363.79   10.05
  -3  -4   1  346.74    9.54
  -3  -4   1  355.21   10.27
  -3  -4   1  345.82    8.44
  -3  -4   2  459.58   11.76
  -3  -4   2  446.12   12.79
  -3  -4   2  458.67   11.41
  -3  -4   2  437.20   10.69
  -3  -4   2  467.51   11.88
  -3  -4   2  444.42   10.28
  -3  -4   2  463.65   11.54
  -3  -4   2  464.80   13.84
  -3  -4   2  430.30   12.00
  -3  -4   2  477.72   12.04
  -3  -4   3   47.38    3.12
  -3  -4   3   43.84    4.17
  -3  -4   3   44.12    4.05
  -3  -4   3   39.66    3.23
  -3  -4   3   45.30    3.43
  -3  -4   3   48.31    3.12
  -3  -4   3   39.89    3.39
  -3  -4   4  395.33   11.54
  -3  -4   4  391.30   13.56
  -3  -4   4  376.44   10.46
  -3  -4   4  386.47   13.39
  -3  -4   5   32.04    3.82
  -3  -4   5   28.62    2.90
  -3  -4   5   34.09    2.89
  -3  -4   6  190.52    9.13
  -3  -4   6  180.92    7.30
  -3  -4   6  200.46    9.48
  -3  -4   6  197.33    7.03
  -3  -4   7   59.40    3.40
  -3  -4   7   64.47    4.97
  -3  -4   7   55.06    3.55
  -3  -4   7   53.18    4.40
  -3  -4   8  350.00   10.78
  -3  -4   8  347.53   10.44
  -3  -4   9  294.53    7.63
  -3  -3 -11   15.44    1.44
  -3  -3 -11   15.09    1.54
  -3  -3 -10  244.71    7.17
  -3  -3 -10  271.06    8.02
  -3  -3 -10  268.67    7.62
  -3  -3 -10  268.71    7.62
  -3  -3  -9  240.98    7.90
  -3  -3  -9  249.47    8.27
  -3  -3  -9  233.75    7.73
  -3  -3  -9  240.94    8.40
  -3  -3  -9  242.04    8.59
  -3  -3  -8   53.29    3.42
  -3  -3  -8   53.34    4.38
  -3  -3  -8   57.76    3.88
  -3  -3  -8   53.09    4.05
  -3  -3  -8   53.55    3.85
  -3  -3  -8   62.24    4.18
  -3  -3  -8   57.57    3.96
  -3  -3  -7  349.01   10.86
  -3  -3  -7  363.86   10.92
  -3  -3  -7  361.51   11.16
  -3  -3  -7  350.92   10.10
  -3  -3  -7  360.78   11.98
  -3  -3  -7  310.29    9.50
  -3  -3  -7  348.56   10.62
  -3  -3  -7  348.93   10.68
  -3  -3  -7  358.26   10.92
  -3  -3  -7  340.55   10.72
  -3  -3  -7  350.60   10.20
  -3  -3  -7  326.47   10.87
  -3  -3  -6  223.52    8.02
  -3  -3  -6  232.19    7.90
  -3  -3  -6  234.84    8.46
  -3  -3  -6  221.03    7.73
  -3  -3  -6  235.73    8.33
  -3  -3  -6  249.72    8.62
  -3  -3  -6  238.18    8.61
  -3  -3  -6  233.46    8.43
  -3  -3  -6  226.18    8.46
  -3  -3  -6  234.13    8.42
  -3  -3  -6  243.32    8.42
  -3  -3  -5  609.57   14.40
  -3  -3  -5  585.11   14.20
  -3  -3  -5  597.90   15.41
  -3  -3  -5  555.12   12.29
  -3  -3  -5  610.08   14.12
  -3  -3  -5  592.93   13.84
  -3  -3  -5  574.48   13.98
  -3  -3  -5  601.96   14.44
  -3  -3  -5  577.08   13.76
  -3  -3  -5  593.33   14.14
  -3  -3  -5  586.51   13.51
  -3  -3  -5  604.03   14.35
  -3  -3  -5  586.72   14.92
  -3  -3  -4  166.70    5.64
  -3  -3  -4  157.13    6.04
  -3  -3  -4  161.39    5.68
  -3  -3  -4  164.55    6.84
  -3  -3  -4  170.83    6.27
  -3  -3  -4  173.82    7.06
  -3  -3  -4  161.40    5.83
  -3  -3  -4  163.13    6.07
  -3  -3  -4  164.18    5.60
  -3  -3  -4  171.67    6.26
  -3  -3  -4  149.85    6.53
  -3  -3  -3  103.00    4.05
  -3  -3  -3  102.06    4.64
  -3  -3  -3   97.31    4.23
  -3  -3  -3  101.46    4.60
  -3  -3  -3  104.39    4.65
  -3  -3  -3  102.38    4.30
  -3  -3  -3  113.91    4.59
  -3  -3  -3   97.12    4.92
  -3  -3  -3   94.06    3.62
  -3  -3  -3  106.42    4.68
  -3  -3  -3  106.00    4.73
  -3  -3  -3  101.47    4.34
  -3  -3  -2   92.49    4.56
  -3  -3  -2   90.70    4.07
  -3  -3  -2   88.64    4.06
  -3  -3  -2   90.42    4.03
  -3  -3  -2   87.11    3.98
  -3  -3  -2   85.12    3.53
  -3  -3  -2   79.84    3.06
  -3  -3  -2   87.59    4.03
  -3  -3  -2   81.24    3.50
  -3  -3  -2   81.39    3.86
  -3  -3  -1  373.60    9.12
  -3  -3  -1  388.56    9.50
  -3  -3  -1  374.72    9.15
  -3  -3  -1  381.32    9.59
  -3  -3  -1  370.90    9.08
  -3  -3  -1  373.23    8.97
  -3  -3  -1  412.26   10.38
  -3  -3  -1  387.18    9.52
  -3  -3  -1  363.97    9.39
  -3  -3   0  128.97    5.28
  -3  -3   0  116.87    4.27
  -3  -3   0  122.73    4.21
  -3  -3   0  119.98    4.35
  -3  -3   0  122.94    4.79
  -3  -3   0  121.88    4.81
  -3  -3   0  121.97    4.67
  -3  -3   0  124.30    4.60
  -3  -3   1   21.67    1.99
  -3  -3   1   22.00    1.84
  -3  -3   1   21.89    1.89
  -3  -3   1   21.53    1.56
  -3  -3   1   24.42    2.09
  -3  -3   1   24.96    2.11
  -3  -3   2 1077.42   21.77
  -3  -3   2 1084.72   20.79
  -3  -3   2 1175.09   21.12
  -3  -3   2 1081.36   18.86
  -3  -3   2 1093.48   19.36
  -3  -3   2 1087.57   20.27
  -3  -3   2 1096.31   23.07
  -3  -3   2 1093.46   20.31
  -3  -3   3    7.91    1.79
  -3  -3   3    7.83    1.61
  -3  -3   3    8.05    1.76
  -3  -3   3    8.99    1.48
  -3  -3   3    8.76    1.54
  -3  -3   3   10.91    1.45
  -3  -3   3    9.10    1.36
  -3  -3   4 2301.05   39.46
  -3  -3   4 2298.52   43.43
  -3  -3   4 2383.39   39.53
  -3  -3   4 2394.49   43.87
  -3  -3   5  489.76   13.22
  -3  -3   5  502.81   13.44
  -3  -3   5  514.09   16.40
  -3  -3   5  503.73   13.28
  -3  -3   6    8.02    1.58
  -3  -3   6    6.59    1.44
  -3  -3   6    7.06    1.95
  -3  -3   6    5.46    1.85
  -3  -3   7   81.74    6.12
  -3  -3   7   83.18    4.64
  -3  -3   7   86.63    5.96
  -3  -3   8   55.22    4.28
  -3  -3   8   53.52    3.33
  -3  -3   8   58.35    4.59
  -3  -3   9    2.77    0.88
  -3  -2 -11   18.41    1.71
  -3  -2 -11   16.43    1.51
  -3  -2 -11   16.64    1.70
  -3  -2 -10   40.99    3.19
  -3  -2 -10   44.90    3.04
  -3  -2 -10   42.73    3.33
  -3  -2 -10   44.02    3.06
  -3  -2 -10   45.21    3.25
  -3  -2 -10   50.60    3.26
  -3  -2  -9  127.90    6.21
  -3  -2  -9  147.59    6.50
  -3  -2  -9  132.64    5.91
  -3  -2  -9  141.11    6.20
  -3  -2  -9  123.51    6.29
  -3  -2  -9  116.40    5.40
  -3  -2  -9  123.36    5.57
  -3  -2  -8  171.32    7.01
  -3  -2  -8  164.57    7.36
  -3  -2  -8  161.50    6.84
  -3  -2  -8  174.39    7.81
  -3  -2  -8  183.09    6.48
  -3  -2  -8  180.30    7.35
  -3  -2  -8  166.06    6.94
  -3  -2  -8  172.54    7.01
  -3  -2  -8  172.99    7.59
  -3  -2  -8  169.80    7.63
  -3  -2  -7  108.28    5.46
  -3  -2  -7  104.84    5.56
  -3  -2  -7  109.34    5.59
  -3  -2  -7  108.59    6.02
  -3  -2  -7   97.84    5.45
  -3  -2  -7  110.26    5.29
  -3  -2  -7  102.51    5.64
  -3  -2  -7  108.07    5.07
  -3  -2  -7  109.14    5.51
  -3  -2  -6  126.61    5.70
  -3  -2  -6  129.99    5.78
  -3  -2  -6  122.51    5.73
  -3  -2  -6  120.63    5.60
  -3  -2  -6  124.80    6.26
  -3  -2  -6  121.08    5.30
  -3  -2  -6  116.49    5.13
  -3  -2  -6  119.68    5.59
  -3  -2  -6  121.37    5.76
  -3  -2  -6  113.74    5.86
  -3  -2  -6  112.34    5.04
  -3  -2  -6  121.43    5.76
  -3  -2  -6  128.44    5.76
  -3  -2  -5   65.11    4.24
  -3  -2  -5   71.14    3.93
  -3  -2  -5   67.01    3.89
  -3  -2  -5   70.53    3.85
  -3  -2  -5   77.30    4.17
  -3  -2  -5   71.48    3.99
  -3  -2  -5   72.95    4.05
  -3  -2  -5   76.33    4.54
  -3  -2  -5   67.91    3.74
  -3  -2  -5   69.75    4.00
  -3  -2  -5   72.09    3.83
  -3  -2  -5   69.48    3.89
  -3  -2  -5   71.53    4.05
  -3  -2  -5   67.20    3.15
  -3  -2  -5   70.81    3.52
  -3  -2  -4  386.96    9.96
  -3  -2  -4  370.23    9.63
  -3  -2  -4  395.65    9.10
  -3  -2  -4  397.44    9.92
  -3  -2  -4  389.77    9.78
  -3  -2  -4  376.65    9.79
  -3  -2  -4  395.43    9.22
  -3  -2  -4  385.19    9.20
  -3  -2  -4  389.01    9.60
  -3  -2  -4  398.04   10.05
  -3  -2  -3  346.25    8.27
  -3  -2  -3  334.56    8.64
  -3  -2  -3  327.93    8.63
  -3  -2  -3  343.74    8.69
  -3  -2  -3  330.89    8.29
  -3  -2  -3  334.36    8.67
  -3  -2  -3  336.91    7.87
  -3  -2  -3  321.01    7.31
  -3  -2  -3  323.23    8.27
  -3  -2  -2   75.04    3.36
  -3  -2  -2   72.60    3.39
  -3  -2  -2   75.41    3.43
  -3  -2  -2   76.92    3.45
  -3  -2  -2   75.60    3.89
  -3  -2  -2   68.63    2.59
  -3  -2  -2   72.55    3.09
  -3  -2  -1    3.98    0.85
  -3  -2  -1    3.06    0.73
  -3  -2  -1    4.72    0.87
  -3  -2  -1    4.65    0.92
  -3  -2  -1    4.16    0.83
  -3  -2  -1    5.05    0.94
  -3  -2  -1    2.96    0.61
  -3  -2  -1    3.35    0.96
  -3  -2   0  839.04   15.45
  -3  -2   0  808.99   14.52
  -3  -2   0  822.87   14.51
  -3  -2   1  200.33    5.55
  -3  -2   1  193.19    5.89
  -3  -2   1  185.94    5.97
  -3  -2   1  196.01    4.52
  -3  -2   2    7.16    1.21
  -3  -2   2   11.18    1.34
  -3  -2   2    8.84    0.99
  -3  -2   3   76.36    3.51
  -3  -2   3   78.83    3.57
  -3  -2   3   76.38    4.83
  -3  -2   3   77.71    4.11
  -3  -2   3   75.15    4.46
  -3  -2   4  441.80   11.01
  -3  -2   4  442.66    9.83
  -3  -2   4  459.58   14.30
  -3  -2   4  449.31   11.89
  -3  -2   4  443.12   13.82
  -3  -2   4  453.64   11.80
  -3  -2   4  459.82   11.86
  -3  -2   5  177.65    9.15
  -3  -2   5  187.44    7.46
  -3  -2   5  175.06    7.11
  -3  -2   5  191.07    7.32
  -3  -2   5  192.26    9.16
  -3  -2   6   73.86    4.69
  -3  -2   6   75.91    4.50
  -3  -2   6   66.88    5.59
  -3  -2   6   79.78    6.23
  -3  -2   7   78.96    6.19
  -3  -2   7   73.87    4.62
  -3  -2   7   62.63    4.88
  -3  -2   8  133.53    7.19
  -3  -2   8  129.99    5.82
  -3  -2   9   12.77    1.56
  -3  -2   9   15.03    2.28
  -3  -2   9   13.86    1.99
  -3  -2  10   13.14    1.44
  -3  -1 -11   23.92    1.93
  -3  -1 -11   24.62    1.93
  -3  -1 -10   38.83    2.94
  -3  -1 -10   40.28    3.15
  -3  -1 -10   35.99    2.91
  -3  -1 -10   38.85    3.14
  -3  -1  -9  612.33   14.91
  -3  -1  -9  682.03   16.47
  -3  -1  -9  602.35   15.36
  -3  -1  -9  696.90   16.08
  -3  -1  -9  668.82   16.90
  -3  -1  -9  700.30   15.98
  -3  -1  -9  729.17   16.25
  -3  -1  -9  617.68   14.89
  -3  -1  -9  697.35   16.45
  -3  -1  -8   20.16    2.49
  -3  -1  -8   19.71    2.34
  -3  -1  -8   19.98    2.12
  -3  -1  -8   21.24    2.34
  -3  -1  -8   18.82    2.49
  -3  -1  -8   20.54    2.40
  -3  -1  -8   19.60    2.39
  -3  -1  -8   19.91    2.62
  -3  -1  -8   19.64    2.50
  -3  -1  -8   17.70    2.39
  -3  -1  -8   21.20    2.62
  -3  -1  -8   21.83    2.75
  -3  -1  -7  108.32    5.46
  -3  -1  -7  111.77    5.43
  -3  -1  -7  104.55    5.60
  -3  -1  -7  106.04    5.30
  -3  -1  -7  109.99    4.97
  -3  -1  -7  102.40    5.53
  -3  -1  -7  109.87    5.67
  -3  -1  -7  104.14    4.93
  -3  -1  -7  103.26    5.13
  -3  -1  -7  100.36    5.55
  -3  -1  -7   94.26    5.48
  -3  -1  -6  132.94    5.70
  -3  -1  -6  126.73    5.91
  -3  -1  -6  128.59    5.63
  -3  -1  -6  119.72    5.11
  -3  -1  -6  116.85    4.81
  -3  -1  -6  122.12    5.17
  -3  -1  -6  117.26    5.39
  -3  -1  -6  114.70    5.87
  -3  -1  -6  123.99    5.73
  -3  -1  -6  120.61    5.56
  -3  -1  -6  125.47    5.59
  -3  -1  -5  113.64    4.76
  -3  -1  -5  106.02    4.83
  -3  -1  -5  111.25    4.88
  -3  -1  -5  100.61    5.23
  -3  -1  -5  115.62    4.49
  -3  -1  -5  114.01    4.87
  -3  -1  -5  115.07    5.00
  -3  -1  -5  103.40    3.86
  -3  -1  -5  116.58    4.77
  -3  -1  -5  118.06    5.33
  -3  -1  -5  109.61    5.00
  -3  -1  -5  111.27    4.96
  -3  -1  -5  112.83    4.95
  -3  -1  -4  163.17    5.80
  -3  -1  -4  169.94    5.65
  -3  -1  -4  170.46    5.85
  -3  -1  -4  164.30    5.55
  -3  -1  -4  159.08    5.54
  -3  -1  -4  158.60    5.01
  -3  -1  -4  163.82    5.36
  -3  -1  -4  175.14    5.78
  -3  -1  -4  169.23    5.83
  -3  -1  -4  169.92    6.16
  -3  -1  -3 1289.29   21.34
  -3  -1  -3 1291.40   21.59
  -3  -1  -3 1258.48   22.15
  -3  -1  -3 1287.28   22.21
  -3  -1  -3 1265.84   21.84
  -3  -1  -3 1289.19   22.15
  -3  -1  -3 1266.09   20.82
  -3  -1  -3 1286.96   23.02
  -3  -1  -3 1291.30   22.04
  -3  -1  -2  976.49   17.19
  -3  -1  -2 1004.98   16.83
  -3  -1  -2  959.08   17.27
  -3  -1  -2 1007.15   17.16
  -3  -1  -2  953.52   15.66
  -3  -1  -2 1024.89   18.21
  -3  -1  -1  120.12    4.20
  -3  -1  -1  125.26    4.11
  -3  -1  -1  123.60    3.99
  -3  -1  -1  116.56    3.57
  -3  -1  -1  121.40    4.26
  -3  -1   0  696.15   12.41
  -3  -1   0  709.22   13.12
  -3  -1   0  688.09   12.25
  -3  -1   1  143.39    3.65
  -3  -1   1  156.55    4.99
  -3  -1   1  149.66    4.43
  -3  -1   2  169.73    5.30
  -3  -1   3  960.70   17.02
  -3  -1   3  911.28   18.01
  -3  -1   4  144.35    7.08
  -3  -1   4  143.12    5.65
  -3  -1   4  141.37    7.34
  -3  -1   4  130.55    4.38
  -3  -1   4  141.78    5.95
  -3  -1   4  137.79    5.60
  -3  -1   5   31.89    3.91
  -3  -1   5   37.69    3.21
  -3  -1   5   31.73    3.58
  -3  -1   5   36.43    2.99
  -3  -1   5   33.36    3.87
  -3  -1   6   95.10    6.55
  -3  -1   6   99.36    5.47
  -3  -1   6   98.93    6.99
  -3  -1   6  103.89    6.90
  -3  -1   7  259.43    9.30
  -3  -1   7  252.69   10.44
  -3  -1   8   99.03    6.79
  -3  -1   8  109.60    5.48
  -3  -1   9   98.91    5.86
  -3  -1   9  105.72    5.69
  -3  -1  10    9.70    1.29
  -3  -1  10    8.63    1.35
  -3   0 -11    0.63    0.59
  -3   0 -11    0.24    0.49
  -3   0 -10  118.69    5.04
  -3   0 -10  113.70    5.39
  -3   0 -10  124.48    5.59
  -3   0 -10  119.47    5.31
  -3   0  -9   57.33    4.06
  -3   0  -9   65.61    4.15
  -3   0  -9   62.52    4.16
  -3   0  -9   67.75    4.41
  -3   0  -9   58.34    3.94
  -3   0  -9   57.63    4.44
  -3   0  -9   59.84    4.22
  -3   0  -9   57.34    3.62
  -3   0  -8  427.79   11.34
  -3   0  -8  447.93   12.47
  -3   0  -8  465.99   12.49
  -3   0  -8  422.16   11.74
  -3   0  -8  426.51   12.01
  -3   0  -8  454.00   12.74
  -3   0  -8  448.56   13.34
  -3   0  -8  444.79   12.17
  -3   0  -8  441.52   13.25
  -3   0  -8  482.38   13.21
  -3   0  -8  423.09   12.84
  -3   0  -8  478.65   12.74
  -3   0  -7   79.76    4.46
  -3   0  -7   83.42    4.53
  -3   0  -7   83.96    4.67
  -3   0  -7   79.72    4.47
  -3   0  -7   81.99    4.71
  -3   0  -7   84.56    4.83
  -3   0  -7   74.00    4.93
  -3   0  -7   82.23    5.01
  -3   0  -7   81.77    4.58
  -3   0  -7   76.85    4.35
  -3   0  -7   76.14    4.06
  -3   0  -7   81.54    4.85
  -3   0  -7   69.82    4.64
  -3   0  -6 1298.77   24.14
  -3   0  -6 1203.55   23.32
  -3   0  -6 1191.62   22.47
  -3   0  -6 1223.08   23.39
  -3   0  -6 1228.25   23.97
  -3   0  -6 1189.84   22.49
  -3   0  -6 1156.53   24.51
  -3   0  -6 1212.14   23.09
  -3   0  -6 1315.50   24.11
  -3   0  -6 1230.28   22.57
  -3   0  -6 1214.51   22.88
  -3   0  -6 1232.13   23.45
  -3   0  -5  256.27    7.81
  -3   0  -5  250.53    7.69
  -3   0  -5  261.80    7.55
  -3   0  -5  241.52    6.88
  -3   0  -5  252.32    7.63
  -3   0  -5  230.92    7.88
  -3   0  -5  241.31    7.06
  -3   0  -5  268.50    8.00
  -3   0  -5  246.83    8.50
  -3   0  -5  267.46    7.93
  -3   0  -5  233.69    6.30
  -3   0  -5  255.48    7.92
  -3   0  -4  266.32    7.42
  -3   0  -4  279.88    7.60
  -3   0  -4  277.32    7.76
  -3   0  -4  276.45    7.61
  -3   0  -4  276.01    7.68
  -3   0  -4  273.06    7.83
  -3   0  -4  276.82    7.68
  -3   0  -4  274.05    6.95
  -3   0  -4  264.70    6.71
  -3   0  -4  278.73    7.78
  -3   0  -3  608.31   11.88
  -3   0  -3  599.59   12.50
  -3   0  -3  606.00   12.05
  -3   0  -3  614.57   12.06
  -3   0  -3  623.24   12.64
  -3   0  -3  625.12   12.61
  -3   0  -2  409.32    8.95
  -3   0  -2  415.82    8.35
  -3   0  -2  429.49    9.30
  -3   0  -2  408.43    9.36
  -3   0  -2  416.52    9.03
  -3   0  -2  428.97    9.17
  -3   0  -1 1668.28   26.37
  -3   0  -1 1691.64   26.70
  -3   0  -1 1676.81   27.09
  -3   0  -1 1657.36   26.19
  -3   0  -1 1596.06   25.74
  -3   0   0  593.03   10.82
  -3   0   0  612.59   11.20
  -3   0   0  579.14   10.50
  -3   0   1    6.61    0.98
  -3   0   2  121.89    4.30
  -3   0   3  219.13    6.08
  -3   0   4   37.87    2.20
  -3   0   4   43.82    3.06
  -3   0   4   37.59    3.78
  -3   0   4   46.57    4.41
  -3   0   4   40.21    3.66
  -3   0   4   44.52    3.19
  -3   0   5  835.79   18.16
  -3   0   5  813.16   17.71
  -3   0   5  760.70   20.12
  -3   0   5  806.11   21.42
  -3   0   5  819.58   21.91
  -3   0   6   18.85    2.91
  -3   0   6   24.68    2.66
  -3   0   6   24.14    3.40
  -3   0   7  519.61   16.10
  -3   0   7  486.91   16.24
  -3   0   7  523.68   14.08
  -3   0   7  545.24   17.77
  -3   0   7  550.39   17.06
  -3   0   8  156.42    6.64
  -3   0   8  155.54    8.16
  -3   0   8  159.55    8.72
  -3   0   9  120.38    5.03
  -3   0   9  122.32    6.61
  -3   0   9  125.10    6.38
  -3   0  10   26.28    2.29
  -3   0  10   23.99    2.12
  -3   1 -11   18.87    1.76
  -3   1 -11   21.77    1.76
  -3   1 -10   55.70    3.68
  -3   1 -10   51.41    3.35
  -3   1 -10   49.35    3.42
  -3   1 -10   48.06    3.17
  -3   1  -9  294.99   10.02
  -3   1  -9  298.17    9.80
  -3   1  -9  329.79   10.38
  -3   1  -9  346.40   10.19
  -3   1  -8   40.70    3.48
  -3   1  -8   44.50    3.51
  -3   1  -8   40.76    3.22
  -3   1  -8   44.56    3.95
  -3   1  -8   44.55    3.93
  -3   1  -8   40.89    3.58
  -3   1  -8   42.33    3.83
  -3   1  -8   43.79    3.64
  -3   1  -7  247.41    9.35
  -3   1  -7  268.32    8.97
  -3   1  -7  275.13    8.83
  -3   1  -7  255.38    9.72
  -3   1  -7  284.81    9.24
  -3   1  -7  258.66    9.50
  -3   1  -7  280.38    9.85
  -3   1  -7  246.20    8.10
  -3   1  -7  263.78    8.95
  -3   1  -7  273.29    9.38
  -3   1  -7  268.74    9.18
  -3   1  -6  144.38    6.48
  -3   1  -6  169.03    6.60
  -3   1  -6  157.23    6.25
  -3   1  -6  150.22    6.17
  -3   1  -6  165.14    6.55
  -3   1  -6  151.68    6.99
  -3   1  -6  158.55    6.81
  -3   1  -6  149.60    6.63
  -3   1  -6  162.43    6.13
  -3   1  -6  167.89    6.93
  -3   1  -6  157.79    6.27
  -3   1  -6  155.76    6.58
  -3   1  -5  544.30   13.91
  -3   1  -5  532.92   11.90
  -3   1  -5  550.74   13.00
  -3   1  -5  508.13   11.04
  -3   1  -5  527.64   13.24
  -3   1  -5  563.34   12.93
  -3   1  -5  580.13   13.38
  -3   1  -5  557.56   12.43
  -3   1  -5  581.56   13.22
  -3   1  -5  567.03   13.37
  -3   1  -5  552.81   13.31
  -3   1  -5  523.27   11.41
  -3   1  -4 1496.48   26.64
  -3   1  -4 1586.31   25.60
  -3   1  -4 1527.17   26.64
  -3   1  -4 1539.69   26.48
  -3   1  -4 1546.12   27.00
  -3   1  -4 1647.74   27.26
  -3   1  -4 1541.45   27.12
  -3   1  -4 1591.13   27.16
  -3   1  -4 1521.44   25.80
  -3   1  -4 1566.03   25.54
  -3   1  -3 1398.42   22.98
  -3   1  -3 1360.85   21.68
  -3   1  -3 1405.21   23.54
  -3   1  -3 1369.57   22.65
  -3   1  -3 1476.20   24.05
  -3   1  -3 1443.76   24.44
  -3   1  -3 1407.22   23.97
  -3   1  -2 3850.29   56.86
  -3   1  -2 3804.46   57.43
  -3   1  -2 3907.90   57.78
  -3   1  -2 3909.32   57.74
  -3   1  -2 3864.98   55.86
  -3   1  -2 3872.39   57.67
  -3   1  -1 1844.96   29.71
  -3   1  -1 1931.27   30.21
  -3   1  -1 1837.27   29.74
  -3   1  -1 1900.92   29.03
  -3   1   0  183.68    5.17
  -3   1   1  277.05    7.07
  -3   1   1  272.08    7.14
  -3   1   2  621.53   12.58
  -3   1   3  158.79    5.14
  -3   1   4  146.82    7.10
  -3   1   4  135.62    4.57
  -3   1   4  140.60    5.76
  -3   1   4  153.92    7.82
  -3   1   4  151.67    5.95
  -3   1   4  143.00    6.93
  -3   1   4  146.13    7.98
  -3   1   5  467.16   14.58
  -3   1   5  447.83   15.39
  -3   1   5  445.96   11.86
  -3   1   5  432.43   11.80
  -3   1   6  371.20   10.99
  -3   1   6  366.39   14.01
  -3   1   6  366.03   13.45
  -3   1   6  354.36   13.65
  -3   1   7  290.16    9.48
  -3   1   7  277.81   12.24
  -3   1   7  291.82   11.98
  -3   1   8   97.87    6.44
  -3   1   8  100.23    4.98
  -3   1   8   94.21    6.59
  -3   1   9   75.05    4.93
  -3   1   9   81.33    5.21
  -3   1   9   73.11    3.61
  -3   1  10   15.83    1.70
  -3   2 -11   29.98    1.92
  -3   2 -10   17.70    2.04
  -3   2 -10   17.03    1.95
  -3   2 -10   17.14    1.88
  -3   2  -9   63.47    4.26
  -3   2  -9   75.92    4.66
  -3   2  -9   64.26    4.41
  -3   2  -9   63.89    4.05
  -3   2  -9   69.63    4.37
  -3   2  -8  344.41   11.74
  -3   2  -8  344.71   11.07
  -3   2  -8  387.56   11.91
  -3   2  -8  363.49   12.05
  -3   2  -8  361.22   10.85
  -3   2  -8  375.45   11.48
  -3   2  -8  366.54   11.98
  -3   2  -7 1057.27   21.93
  -3   2  -7  986.75   20.86
  -3   2  -7 1093.30   22.90
  -3   2  -7  982.60   21.61
  -3   2  -7 1012.09   22.57
  -3   2  -7  973.34   21.62
  -3   2  -7 1036.98   23.06
  -3   2  -7  963.95   21.82
  -3   2  -6 1425.58   26.45
  -3   2  -6 1532.49   28.44
  -3   2  -6 1495.15   27.69
  -3   2  -6 1430.91   27.25
  -3   2  -6 1443.05   28.72
  -3   2  -6 1367.89   27.53
  -3   2  -6 1401.17   28.08
  -3   2  -6 1433.71   27.73
  -3   2  -5  267.49    7.46
  -3   2  -5  296.67    8.97
  -3   2  -5  281.38    9.22
  -3   2  -5  311.71    9.68
  -3   2  -5  294.91    8.40
  -3   2  -5  306.85    9.61
  -3   2  -5  283.32    9.16
  -3   2  -4  260.76    8.64
  -3   2  -4  261.97    8.31
  -3   2  -4  256.48    7.26
  -3   2  -4  268.84    7.93
  -3   2  -4  265.35    7.47
  -3   2  -4  252.99    6.43
  -3   2  -4  258.69    7.27
  -3   2  -3  710.12   14.18
  -3   2  -3  677.95   12.95
  -3   2  -3  665.36   13.87
  -3   2  -3  695.28   14.69
  -3   2  -3  691.76   13.99
  -3   2  -3  663.94   13.90
  -3   2  -3  722.59   15.06
  -3   2  -2 1103.80   19.74
  -3   2  -2 1178.78   19.47
  -3   2  -2 1095.92   19.83
  -3   2  -2 1137.81   20.37
  -3   2  -2 1160.67   21.00
  -3   2  -2 1155.09   20.47
  -3   2  -1  404.29    9.16
  -3   2  -1  416.62    9.76
  -3   2  -1  424.74    9.78
  -3   2  -1  407.71    9.85
  -3   2   0  333.17    8.17
  -3   2   1  212.29    6.38
  -3   2   1  211.96    6.36
  -3   2   1  216.39    6.53
  -3   2   2  759.66   15.36
  -3   2   2  775.25   15.36
  -3   2   2  762.97   15.26
  -3   2   3    4.79    0.94
  -3   2   3    5.70    1.03
  -3   2   3    4.85    1.49
  -3   2   3    5.49    1.78
  -3   2   3    5.99    1.17
  -3   2   4  274.10    7.44
  -3   2   4  289.65    8.58
  -3   2   4  293.40   12.02
  -3   2   4  306.05   10.99
  -3   2   4  303.88    8.61
  -3   2   4  305.25    9.59
  -3   2   4  291.86    8.97
  -3   2   5   87.91    4.59
  -3   2   5   84.15    5.02
  -3   2   5   83.63    5.92
  -3   2   5   90.17    6.52
  -3   2   5   82.50    4.66
  -3   2   5   89.68    4.54
  -3   2   6  255.80    8.46
  -3   2   6  256.57    8.89
  -3   2   6  250.84    9.23
  -3   2   6  243.24   11.34
  -3   2   6  255.80   11.10
  -3   2   7   63.39    5.66
  -3   2   7   64.22    3.94
  -3   2   7   65.23    5.45
  -3   2   7   58.45    4.16
  -3   2   8    3.39    1.02
  -3   2   8    2.80    0.91
  -3   2   8    2.23    1.13
  -3   2   8    4.10    1.56
  -3   2   8    2.49    1.41
  -3   2   9   22.32    2.62
  -3   2  10    8.31    1.16
  -3   3 -10   48.42    2.98
  -3   3 -10   48.19    3.16
  -3   3 -10   51.45    2.86
  -3   3 -10   52.93    3.05
  -3   3  -9   16.80    2.28
  -3   3  -9   17.93    2.12
  -3   3  -9   18.29    2.25
  -3   3  -9   14.14    1.99
  -3   3  -9   16.43    2.02
  -3   3  -8  187.66    7.88
  -3   3  -8  197.57    8.37
  -3   3  -8  212.61    8.24
  -3   3  -8  188.52    7.38
  -3   3  -8  197.11    7.82
  -3   3  -8  175.72    7.31
  -3   3  -7  215.55    8.59
  -3   3  -7  210.85    8.55
  -3   3  -7  190.81    8.51
  -3   3  -7  205.39    8.83
  -3   3  -7  210.58    8.36
  -3   3  -7  205.20    8.25
  -3   3  -7  220.61    8.10
  -3   3  -6 1095.27   24.07
  -3   3  -6 1124.55   24.02
  -3   3  -6 1119.78   23.47
  -3   3  -6 1040.01   21.78
  -3   3  -6 1076.75   23.24
  -3   3  -6 1134.82   23.14
  -3   3  -6 1047.58   22.83
  -3   3  -5  421.43   11.19
  -3   3  -5  436.48   12.32
  -3   3  -5  437.16   12.25
  -3   3  -5  397.19   11.93
  -3   3  -4   46.06    3.00
  -3   3  -4   47.76    3.55
  -3   3  -4   45.40    3.48
  -3   3  -4   46.67    2.97
  -3   3  -4   46.58    3.49
  -3   3  -4   48.58    3.72
  -3   3  -4   45.94    3.08
  -3   3  -4   46.30    3.52
  -3   3  -4   45.51    2.98
  -3   3  -4   45.27    2.79
  -3   3  -3  590.78   13.91
  -3   3  -3  591.83   13.23
  -3   3  -3  579.55   12.94
  -3   3  -3  593.98   12.69
  -3   3  -3  574.78   13.10
  -3   3  -3  596.25   14.20
  -3   3  -3  584.71   13.93
  -3   3  -3  595.04   13.21
  -3   3  -3  594.88   14.17
  -3   3  -3  590.40   13.99
  -3   3  -2  132.14    5.50
  -3   3  -2  127.92    5.13
  -3   3  -2  115.21    4.95
  -3   3  -2  126.06    5.34
  -3   3  -2  120.54    5.17
  -3   3  -2  119.42    5.01
  -3   3  -2  127.19    4.87
  -3   3  -1  268.00    7.92
  -3   3  -1  283.78    8.16
  -3   3  -1  272.48    7.99
  -3   3  -1  277.76    8.16
  -3   3  -1  258.67    7.58
  -3   3   0   58.22    3.27
  -3   3   0   61.23    3.43
  -3   3   1  262.51    7.89
  -3   3   1  252.43    7.77
  -3   3   1  267.58    9.94
  -3   3   1  270.17    7.88
  -3   3   1  248.76    7.69
  -3   3   2  227.95    7.21
  -3   3   2  218.54    9.38
  -3   3   2  227.29    8.62
  -3   3   2  223.38    6.96
  -3   3   2  231.37    7.26
  -3   3   2  233.82    7.41
  -3   3   2  217.51    7.02
  -3   3   2  223.98    6.97
  -3   3   2  222.97    8.11
  -3   3   2  213.69    7.07
  -3   3   3  269.56    7.67
  -3   3   3  259.54    7.77
  -3   3   3  258.95    7.83
  -3   3   3  275.22    9.41
  -3   3   3  272.76    8.32
  -3   3   4   52.37    4.90
  -3   3   4   53.59    3.45
  -3   3   4   48.37    3.92
  -3   3   4   49.72    3.44
  -3   3   5  232.35    8.13
  -3   3   5  242.54   10.60
  -3   3   5  230.08    7.74
  -3   3   5  225.87    9.06
  -3   3   5  235.03   11.07
  -3   3   6  478.52   13.90
  -3   3   6  469.36   16.65
  -3   3   6  486.08   12.65
  -3   3   6  459.86   16.20
  -3   3   7   58.65    4.22
  -3   3   7   58.32    5.20
  -3   3   7   57.11    5.07
  -3   3   8   46.15    3.69
  -3   3   8   47.02    3.27
  -3   3   8   49.99    4.29
  -3   3   9    8.85    1.55
  -3   3   9    6.77    1.38
  -3   4 -10    3.66    0.78
  -3   4 -10    4.07    0.74
  -3   4  -9   96.25    4.49
  -3   4  -9   93.93    4.76
  -3   4  -9   89.70    4.65
  -3   4  -8    8.58    1.71
  -3   4  -8   10.69    1.79
  -3   4  -8    9.39    1.81
  -3   4  -8    8.66    1.64
  -3   4  -8    8.60    1.83
  -3   4  -7  612.26   16.06
  -3   4  -7  616.53   15.85
  -3   4  -7  664.48   16.97
  -3   4  -7  639.77   15.36
  -3   4  -7  645.91   16.65
  -3   4  -7  664.49   17.21
  -3   4  -6   84.98    5.20
  -3   4  -6   83.80    5.39
  -3   4  -6   84.49    5.29
  -3   4  -6   88.58    5.50
  -3   4  -5   83.84    4.19
  -3   4  -5   92.22    5.65
  -3   4  -5   78.47    5.17
  -3   4  -5   88.01    5.37
  -3   4  -5   86.82    5.44
  -3   4  -5   85.96    5.20
  -3   4  -4  219.36    8.50
  -3   4  -4  209.55    7.07
  -3   4  -4  202.35    7.01
  -3   4  -4  215.98    8.53
  -3   4  -4  188.45    7.88
  -3   4  -4  204.49    8.35
  -3   4  -4  189.27    6.94
  -3   4  -4  194.25    6.97
  -3   4  -3   52.68    3.93
  -3   4  -3   53.43    3.99
  -3   4  -3   51.75    3.50
  -3   4  -3   50.71    3.45
  -3   4  -3   59.53    3.65
  -3   4  -3   56.69    3.54
  -3   4  -3   50.91    3.50
  -3   4  -3   53.36    3.87
  -3   4  -3   57.47    3.97
  -3   4  -3   54.15    4.05
  -3   4  -2  147.17    6.11
  -3   4  -2  146.98    6.04
  -3   4  -2  148.27    6.11
  -3   4  -2  147.50    5.98
  -3   4  -2  146.68    6.49
  -3   4  -2  155.48    6.70
  -3   4  -2  143.45    6.21
  -3   4  -2  146.05    5.92
  -3   4  -2  149.55    6.19
  -3   4  -1   83.87    4.39
  -3   4  -1   80.17    5.46
  -3   4  -1   77.80    4.25
  -3   4  -1   79.55    4.37
  -3   4  -1   84.16    4.71
  -3   4  -1   82.38    4.48
  -3   4  -1   86.79    5.27
  -3   4  -1   89.62    4.64
  -3   4  -1   88.77    4.65
  -3   4   0  890.22   18.20
  -3   4   0  893.86   22.14
  -3   4   0  860.67   20.25
  -3   4   0  884.11   20.24
  -3   4   0  932.74   18.55
  -3   4   1  839.63   17.81
  -3   4   1  825.97   19.87
  -3   4   1  823.97   17.44
  -3   4   1  843.16   19.63
  -3   4   1  827.05   21.84
  -3   4   1  871.89   18.06
  -3   4   1  819.99   17.78
  -3   4   1  830.02   17.82
  -3   4   1  832.40   16.90
  -3   4   2  510.75   15.09
  -3   4   2  506.54   12.64
  -3   4   2  503.37   12.43
  -3   4   2  533.96   17.21
  -3   4   2  506.35   12.25
  -3   4   2  529.61   12.84
  -3   4   3   21.09    2.33
  -3   4   3   18.89    2.05
  -3   4   3   18.85    2.07
  -3   4   3   21.75    2.24
  -3   4   3   21.54    2.98
  -3   4   3   17.92    3.27
  -3   4   3   19.04    3.11
  -3   4   3   22.86    2.28
  -3   4   3   19.01    2.10
  -3   4   4   59.41    5.04
  -3   4   4   59.13    3.73
  -3   4   4   62.39    5.52
  -3   4   4   55.25    4.47
  -3   4   4   54.54    3.28
  -3   4   4   57.19    5.76
  -3   4   4   57.53    3.67
  -3   4   5  519.63   12.98
  -3   4   5  538.46   18.28
  -3   4   5  539.43   17.50
  -3   4   5  527.74   16.51
  -3   4   5  528.60   12.89
  -3   4   5  535.88   15.35
  -3   4   6   42.13    3.80
  -3   4   6   40.46    4.58
  -3   4   6   38.75    4.10
  -3   4   6   36.08    4.17
  -3   4   7   15.40    2.62
  -3   4   7   15.92    2.65
  -3   4   7   17.87    2.67
  -3   4   7   16.80    2.27
  -3   4   8   38.08    3.31
  -3   4   9   73.46    3.53
  -3   5  -9   20.55    1.92
  -3   5  -8   52.77    3.35
  -3   5  -8   46.86    3.40
  -3   5  -8   53.74    3.63
  -3   5  -8   47.93    3.03
  -3   5  -7   71.65    4.42
  -3   5  -7   63.20    4.41
  -3   5  -7   65.66    4.18
  -3   5  -6   41.50    3.73
  -3   5  -6   47.13    4.01
  -3   5  -6   46.16    3.98
  -3   5  -6   44.08    3.70
  -3   5  -6   39.87    3.50
  -3   5  -5    1.64    1.11
  -3   5  -5    1.70    1.03
  -3   5  -5    2.48    1.21
  -3   5  -5    1.48    0.75
  -3   5  -5    4.67    1.51
  -3   5  -5    2.51    1.29
  -3   5  -5    1.87    0.82
  -3   5  -4  325.58   10.77
  -3   5  -4  323.31   10.95
  -3   5  -4  313.27    9.30
  -3   5  -4  316.03   11.16
  -3   5  -4  325.20   10.87
  -3   5  -4  302.43    9.49
  -3   5  -4  314.43    9.45
  -3   5  -4  316.75   10.56
  -3   5  -4  286.08    9.19
  -3   5  -4  318.49   11.28
  -3   5  -3   36.82    3.12
  -3   5  -3   39.87    3.48
  -3   5  -3   42.80    3.57
  -3   5  -3   40.06    3.19
  -3   5  -3   37.57    3.66
  -3   5  -3   35.84    3.15
  -3   5  -3   35.93    3.09
  -3   5  -2  329.42   10.30
  -3   5  -2  342.47   10.18
  -3   5  -2  331.53   10.19
  -3   5  -2  340.05   10.29
  -3   5  -2  321.09    9.92
  -3   5  -2  306.26    9.96
  -3   5  -2  327.92   10.57
  -3   5  -1  283.80   10.88
  -3   5  -1  285.21    9.40
  -3   5  -1  295.61    9.53
  -3   5  -1  285.77    9.49
  -3   5  -1  286.28    9.33
  -3   5  -1  271.83    9.25
  -3   5   0  729.90   16.89
  -3   5   0  726.79   16.61
  -3   5   0  711.76   18.84
  -3   5   0  729.61   20.56
  -3   5   1  582.53   14.66
  -3   5   1  596.90   14.13
  -3   5   1  566.67   14.50
  -3   5   1  593.41   17.13
  -3   5   1  597.06   14.65
  -3   5   1  564.90   13.11
  -3   5   1  600.71   14.51
  -3   5   1  597.30   18.81
  -3   5   1  593.58   16.65
  -3   5   2   33.47    2.74
  -3   5   2   46.30    3.43
  -3   5   2   34.36    4.40
  -3   5   2   36.65    3.07
  -3   5   2   37.68    3.83
  -3   5   2   40.16    4.12
  -3   5   2   41.14    3.38
  -3   5   2   36.14    2.71
  -3   5   2   40.16    3.26
  -3   5   3  155.19    6.19
  -3   5   3  163.41    6.47
  -3   5   3  160.07    6.44
  -3   5   3  158.15    6.32
  -3   5   3  161.13    8.44
  -3   5   3  159.69    7.95
  -3   5   3  149.26    6.57
  -3   5   3  152.77    5.80
  -3   5   4  116.97    4.88
  -3   5   4  106.63    4.63
  -3   5   4  115.94    4.82
  -3   5   4  120.27    8.26
  -3   5   4  124.89    7.40
  -3   5   4  112.29    5.20
  -3   5   5   16.17    2.76
  -3   5   5   23.08    2.18
  -3   5   5   16.30    1.76
  -3   5   5   18.78    3.33
  -3   5   6  114.53    6.59
  -3   5   6  113.19    7.11
  -3   5   7    1.45    0.98
  -3   5   7    1.88    0.90
  -3   5   8    7.68    1.34
  -3   5   8    5.40    0.89
  -3   6  -8   63.22    3.17
  -3   6  -7  252.40    7.80
  -3   6  -7  243.92    7.73
  -3   6  -7  247.28    7.16
  -3   6  -6  122.11    5.62
  -3   6  -6  124.53    5.48
  -3   6  -6  127.49    6.05
  -3   6  -6  138.16    6.17
  -3   6  -5  448.07   13.16
  -3   6  -5  472.74   12.49
  -3   6  -5  439.38   10.40
  -3   6  -5  430.48   10.27
  -3   6  -5  459.26   12.74
  -3   6  -4  225.39    8.34
  -3   6  -4  218.05    8.49
  -3   6  -4  227.55    8.51
  -3   6  -4  217.43    7.36
  -3   6  -4  219.76    7.45
  -3   6  -3   43.75    3.36
  -3   6  -3   53.23    3.85
  -3   6  -3   47.82    3.48
  -3   6  -3   47.09    3.74
  -3   6  -2  116.79    5.49
  -3   6  -2  126.41    6.06
  -3   6  -2  114.78    5.65
  -3   6  -2  128.47    5.98
  -3   6  -2  113.64    5.81
  -3   6  -2  121.73    6.22
  -3   6  -1  297.72   10.00
  -3   6  -1  316.29   10.27
  -3   6  -1  294.96   10.00
  -3   6  -1  326.29   10.20
  -3   6  -1  318.86   10.08
  -3   6   0  549.38   14.57
  -3   6   0  590.12   14.69
  -3   6   0  569.69   16.68
  -3   6   1   41.34    3.40
  -3   6   1   39.14    3.98
  -3   6   1   31.88    2.89
  -3   6   1   31.02    3.05
  -3   6   1   41.20    3.37
  -3   6   2   12.76    1.77
  -3   6   2   12.98    1.92
  -3   6   2   11.70    2.35
  -3   6   2   13.37    1.85
  -3   6   2   16.16    2.08
  -3   6   2   14.85    2.61
  -3   6   3   20.18    2.14
  -3   6   3   19.57    2.81
  -3   6   3   19.74    2.13
  -3   6   3   20.16    2.98
  -3   6   3   20.38    2.17
  -3   6   4    8.57    1.25
  -3   6   4   10.15    1.98
  -3   6   4    9.63    1.44
  -3   6   4    8.29    2.03
  -3   6   5  107.94    6.19
  -3   6   5  108.30    5.76
  -3   6   5  109.79    4.29
  -3   6   6   27.87    2.58
  -3   6   6   24.74    2.67
  -3   6   7   15.92    1.58
  -3   6   7   16.84    1.85
  -3   7  -7   79.48    3.03
  -3   7  -6  138.08    4.83
  -3   7  -6  141.02    4.95
  -3   7  -5   17.88    1.91
  -3   7  -5   20.25    2.08
  -3   7  -4  291.29    8.44
  -3   7  -4  288.52    8.95
  -3   7  -4  297.27    7.78
  -3   7  -4  276.60    7.57
  -3   7  -3   25.76    2.28
  -3   7  -3   23.57    2.24
  -3   7  -3   23.24    2.23
  -3   7  -2   79.99    4.31
  -3   7  -2   82.99    4.41
  -3   7  -2   90.97    4.96
  -3   7  -1   68.57    4.24
  -3   7  -1   60.45    3.87
  -3   7  -1   73.36    4.26
  -3   7   0  121.87    5.58
  -3   7   1   79.83    4.34
  -3   7   1   81.27    4.38
  -3   7   1   79.29    4.21
  -3   7   2   33.35    2.47
  -3   7   2   32.63    2.53
  -3   7   2   38.61    2.84
  -3   7   2   38.25    2.84
  -3   7   3   42.92    2.63
  -3   7   3   43.74    2.69
  -3   7   3   47.16    3.78
  -3   7   3   47.02    2.82
  -3   7   4   22.12    1.72
  -3   7   4   24.50    2.56
  -3   7   5   13.78    1.72
  -3   7   6   37.42    2.17
  -3   8  -5   70.29    2.61
  -3   8  -4   32.45    2.11
  -3   8  -3   31.74    1.94
  -3   8  -3   31.02    1.92
  -3   8  -2   85.81    3.60
  -3   8  -2   84.63    3.59
  -3   8  -2   80.43    3.81
  -3   8  -1    5.13    1.02
  -3   8  -1    5.13    1.03
  -3   8  -1    4.22    0.98
  -3   8   0  402.91    9.50
  -3   8   1  174.55    5.39
  -3   8   1  182.47    5.51
  -3   8   1  166.37    5.10
  -3   8   2  143.56    4.31
  -3   8   2  129.98    4.20
  -3   8   2  140.35    4.36
  -3   8   3  102.18    3.07
  -2  -9  -4    8.51    1.06
  -2  -9  -3   72.13    3.43
  -2  -9  -3   76.06    2.80
  -2  -9  -3   75.04    2.96
  -2  -9  -2   48.42    2.38
  -2  -9  -2   46.51    2.41
  -2  -9  -1   61.50    3.45
  -2  -9  -1   63.43    2.90
  -2  -9  -1   57.67    2.52
  -2  -9   0   31.97    2.47
  -2  -9   0   32.64    2.04
  -2  -9   1   23.33    1.59
  -2  -9   1   25.40    2.12
  -2  -9   2    6.90    1.06
  -2  -8  -6  122.91    3.97
  -2  -8  -6  119.91    4.17
  -2  -8  -5   44.19    2.67
  -2  -8  -5   43.73    2.73
  -2  -8  -5   38.85    2.41
  -2  -8  -4   26.70    2.32
  -2  -8  -4   24.41    1.99
  -2  -8  -4   25.13    2.21
  -2  -8  -4   28.11    2.46
  -2  -8  -4   28.21    2.11
  -2  -8  -3   68.78    3.79
  -2  -8  -3   67.93    3.54
  -2  -8  -2  121.41    5.51
  -2  -8  -2  118.32    4.90
  -2  -8  -2  124.47    5.53
  -2  -8  -2  123.19    5.32
  -2  -8  -2  128.79    5.64
  -2  -8  -2  129.20    5.39
  -2  -8  -1   27.37    2.41
  -2  -8  -1   24.57    2.44
  -2  -8  -1   28.90    2.56
  -2  -8  -1   26.98    2.55
  -2  -8  -1   29.28    2.49
  -2  -8   0   24.33    2.32
  -2  -8   0   26.80    2.23
  -2  -8   0   25.27    2.44
  -2  -8   0   25.47    2.38
  -2  -8   0   30.59    3.17
  -2  -8   1   50.74    3.27
  -2  -8   1   49.88    3.09
  -2  -8   1   48.65    3.08
  -2  -8   1   39.20    2.61
  -2  -8   1   47.92    3.09
  -2  -8   1   45.83    3.75
  -2  -8   2   30.93    2.46
  -2  -8   2   33.55    2.43
  -2  -8   2   30.96    2.32
  -2  -8   2   31.53    3.06
  -2  -8   3  243.95    7.73
  -2  -8   3   -0.06    0.18
  -2  -8   4  297.55    8.65
  -2  -8   5   39.00    2.29
  -2  -7  -8   13.57    1.26
  -2  -7  -7  109.41    4.00
  -2  -7  -7  113.55    4.63
  -2  -7  -7  107.59    4.41
  -2  -7  -6   99.82    4.48
  -2  -7  -6   94.69    4.71
  -2  -7  -6  100.08    4.76
  -2  -7  -6   96.69    4.55
  -2  -7  -5   23.02    2.52
  -2  -7  -5   27.24    2.18
  -2  -7  -5   27.85    2.68
  -2  -7  -5   24.92    2.36
  -2  -7  -5   22.82    2.49
  -2  -7  -5   27.79    2.59
  -2  -7  -4   12.47    1.99
  -2  -7  -4   12.69    1.97
  -2  -7  -4   15.24    1.90
  -2  -7  -4   14.03    2.08
  -2  -7  -4   14.66    2.05
  -2  -7  -4   15.04    2.04
  -2  -7  -4   14.13    1.98
  -2  -7  -3  200.88    7.45
  -2  -7  -3  208.58    8.17
  -2  -7  -3  208.05    8.08
  -2  -7  -3  207.39    7.02
  -2  -7  -3  209.56    7.98
  -2  -7  -3  216.74    7.68
  -2  -7  -2  117.88    5.49
  -2  -7  -2  116.75    5.32
  -2  -7  -2  120.60    5.91
  -2  -7  -2  124.82    6.19
  -2  -7  -2  122.70    6.05
  -2  -7  -2  125.74    5.88
  -2  -7  -1   18.96    2.38
  -2  -7  -1   16.20    2.10
  -2  -7  -1   17.49    2.01
  -2  -7  -1   19.04    2.31
  -2  -7  -1   14.90    2.08
  -2  -7  -1   18.02    2.23
  -2  -7   0  473.26   12.70
  -2  -7   0  483.67   12.73
  -2  -7   0  475.86   12.80
  -2  -7   0  472.08   12.30
  -2  -7   0  476.65   13.04
  -2  -7   0  453.99   11.84
  -2  -7   1   14.26    2.01
  -2  -7   1   14.63    2.00
  -2  -7   1   14.11    2.46
  -2  -7   1   14.49    2.05
  -2  -7   1   12.83    1.93
  -2  -7   1   16.03    2.11
  -2  -7   1   12.94    1.83
  -2  -7   2  106.87    5.39
  -2  -7   2  114.64    5.30
  -2  -7   2  110.30    5.16
  -2  -7   2  121.32    5.67
  -2  -7   2  118.16    6.79
  -2  -7   2  112.83    5.55
  -2  -7   3    6.48    1.35
  -2  -7   3    6.70    1.37
  -2  -7   3    6.15    1.22
  -2  -7   3   11.70    1.76
  -2  -7   3    6.40    1.24
  -2  -7   3    8.59    1.35
  -2  -7   3    7.59    1.87
  -2  -7   4  229.88    7.20
  -2  -7   4  226.30    8.63
  -2  -7   4  223.15    9.04
  -2  -7   4  220.64    7.22
  -2  -7   5  235.34    8.57
  -2  -7   5  238.50    8.40
  -2  -7   6   75.99    3.99
  -2  -7   6   76.69    4.01
  -2  -6  -9   18.01    1.67
  -2  -6  -9   18.12    1.46
  -2  -6  -9   16.28    1.29
  -2  -6  -9   18.96    1.66
  -2  -6  -8   47.55    3.13
  -2  -6  -8   40.81    2.67
  -2  -6  -8   45.41    2.89
  -2  -6  -7  187.02    6.35
  -2  -6  -7  186.64    6.94
  -2  -6  -7  181.65    6.58
  -2  -6  -7  185.92    7.19
  -2  -6  -7  161.87    6.22
  -2  -6  -7  177.27    6.71
  -2  -6  -7  188.35    7.29
  -2  -6  -6  247.15    9.14
  -2  -6  -6  254.83    8.70
  -2  -6  -6  272.16    9.28
  -2  -6  -6  248.76    8.26
  -2  -6  -6  261.97    8.52
  -2  -6  -6  279.14    9.32
  -2  -6  -6  266.06    9.06
  -2  -6  -6  258.16    9.19
  -2  -6  -5   14.96    2.20
  -2  -6  -5   20.04    2.39
  -2  -6  -5   18.74    2.45
  -2  -6  -5   19.36    2.43
  -2  -6  -5   18.85    2.45
  -2  -6  -5   17.56    2.27
  -2  -6  -5   18.52    2.19
  -2  -6  -5   16.40    1.89
  -2  -6  -5   17.69    2.37
  -2  -6  -5   21.33    2.58
  -2  -6  -5   15.84    2.30
  -2  -6  -4   68.52    4.62
  -2  -6  -4   63.33    4.44
  -2  -6  -4   63.89    4.26
  -2  -6  -4   64.92    4.37
  -2  -6  -4   67.82    4.32
  -2  -6  -4   62.33    4.25
  -2  -6  -4   64.87    3.93
  -2  -6  -4   64.14    4.35
  -2  -6  -4   70.20    4.58
  -2  -6  -3  458.08   13.03
  -2  -6  -3  469.11   11.76
  -2  -6  -3  489.72   13.23
  -2  -6  -3  459.44   12.84
  -2  -6  -3  461.39   12.79
  -2  -6  -3  472.62   12.36
  -2  -6  -3  458.88   12.58
  -2  -6  -3  469.96   12.73
  -2  -6  -2  440.51   12.46
  -2  -6  -2  429.22   11.53
  -2  -6  -2  420.80   10.52
  -2  -6  -2  417.42   12.00
  -2  -6  -2  425.00   12.16
  -2  -6  -2  420.59   11.44
  -2  -6  -2  409.33   11.64
  -2  -6  -1  169.62    6.81
  -2  -6  -1  168.95    6.84
  -2  -6  -1  184.13    6.52
  -2  -6  -1  178.97    6.60
  -2  -6  -1  166.95    7.03
  -2  -6  -1  172.31    7.13
  -2  -6  -1  167.21    6.64
  -2  -6   0  138.77    6.14
  -2  -6   0  133.22    5.87
  -2  -6   0  135.54    5.79
  -2  -6   0  140.37    6.22
  -2  -6   0  132.24    6.16
  -2  -6   0  125.49    5.28
  -2  -6   0  130.15    6.02
  -2  -6   0  137.74    6.09
  -2  -6   1  399.83   10.97
  -2  -6   1  409.52   11.42
  -2  -6   1  390.13   10.20
  -2  -6   1  404.81   11.47
  -2  -6   1  393.02   10.81
  -2  -6   1  389.61   11.06
  -2  -6   1  403.44   11.48
  -2  -6   1  412.61   11.39
  -2  -6   1  413.96   10.42
  -2  -6   2  946.02   19.53
  -2  -6   2  909.87   18.30
  -2  -6   2  870.59   18.47
  -2  -6   2  930.47   19.07
  -2  -6   2  980.37   20.21
  -2  -6   2  926.28   19.60
  -2  -6   2  958.45   22.92
  -2  -6   2  910.98   19.95
  -2  -6   2  932.83   19.35
  -2  -6   2  942.22   19.96
  -2  -6   3  442.89   12.27
  -2  -6   3  466.30   12.32
  -2  -6   3  441.91   12.00
  -2  -6   3  439.55   11.24
  -2  -6   3  446.60   11.41
  -2  -6   3  421.88   12.28
  -2  -6   4  107.11    5.37
  -2  -6   4  104.77    5.37
  -2  -6   4  104.56    4.42
  -2  -6   4  104.01    5.03
  -2  -6   4  107.03    6.60
  -2  -6   4  110.83    5.66
  -2  -6   5   64.60    5.02
  -2  -6   5   62.37    3.83
  -2  -6   5   57.02    3.82
  -2  -6   5   60.61    4.05
  -2  -6   5   58.68    4.74
  -2  -6   6  225.68    9.09
  -2  -6   6  206.02    7.18
  -2  -6   6  214.71    8.64
  -2  -6   7   41.43    3.35
  -2  -6   7   38.73    3.08
  -2  -6   8   64.06    3.29
  -2  -6   8   54.53    2.60
  -2  -5 -10   15.08    1.46
  -2  -5 -10   16.04    1.51
  -2  -5  -9    3.68    1.08
  -2  -5  -9    2.95    1.00
  -2  -5  -9    3.30    0.96
  -2  -5  -9    3.70    1.10
  -2  -5  -9    3.60    1.03
  -2  -5  -8  518.81   12.96
  -2  -5  -8  525.24   12.62
  -2  -5  -8  531.38   11.66
  -2  -5  -8  541.70   13.15
  -2  -5  -8  544.01   13.68
  -2  -5  -8  555.82   13.97
  -2  -5  -8  574.48   14.21
  -2  -5  -8  511.38   13.70
  -2  -5  -7  182.23    7.84
  -2  -5  -7  200.62    7.39
  -2  -5  -7  199.21    6.97
  -2  -5  -7  197.07    7.64
  -2  -5  -7  184.77    8.30
  -2  -5  -7  184.67    7.35
  -2  -5  -7  197.75    7.48
  -2  -5  -7  197.46    7.62
  -2  -5  -6   13.26    1.89
  -2  -5  -6   20.75    2.36
  -2  -5  -6   20.18    2.51
  -2  -5  -6   21.05    2.76
  -2  -5  -6   17.99    2.49
  -2  -5  -6   13.97    2.09
  -2  -5  -6   17.53    2.41
  -2  -5  -6   17.37    2.41
  -2  -5  -6   18.51    2.35
  -2  -5  -5    7.03    1.47
  -2  -5  -5    7.50    1.60
  -2  -5  -5    6.38    1.48
  -2  -5  -5    7.10    1.56
  -2  -5  -5    7.40    1.45
  -2  -5  -5    8.25    1.65
  -2  -5  -5    6.27    1.45
  -2  -5  -5    7.90    1.70
  -2  -5  -5    7.57    1.31
  -2  -5  -5    7.67    1.63
  -2  -5  -5    5.31    1.46
  -2  -5  -5    6.81    1.58
  -2  -5  -4  302.10    9.63
  -2  -5  -4  302.71    9.67
  -2  -5  -4  296.40    8.62
  -2  -5  -4  289.45    9.55
  -2  -5  -4  302.99    9.32
  -2  -5  -4  271.06    8.97
  -2  -5  -4  291.20    9.35
  -2  -5  -4  280.66    9.51
  -2  -5  -4  290.21    9.65
  -2  -5  -4  284.06    9.69
  -2  -5  -3  331.84    9.87
  -2  -5  -3  328.14    9.98
  -2  -5  -3  308.53    8.80
  -2  -5  -3  354.32   10.27
  -2  -5  -3  341.33   10.28
  -2  -5  -3  342.97    9.99
  -2  -5  -3  321.81    9.87
  -2  -5  -3  332.75    9.43
  -2  -5  -3  344.95   10.02
  -2  -5  -2  271.12    8.41
  -2  -5  -2  264.26    7.51
  -2  -5  -2  275.81    8.85
  -2  -5  -2  268.53    8.67
  -2  -5  -2  275.87    8.74
  -2  -5  -2  282.80    8.63
  -2  -5  -2  267.73    8.13
  -2  -5  -2  277.91    8.40
  -2  -5  -1  424.93    9.84
  -2  -5  -1  446.86   11.34
  -2  -5  -1  425.34   10.59
  -2  -5  -1  440.64   11.15
  -2  -5  -1  427.50   10.73
  -2  -5  -1  445.38   11.54
  -2  -5  -1  445.97   11.48
  -2  -5   0   78.93    4.02
  -2  -5   0   75.38    4.13
  -2  -5   0   69.69    3.61
  -2  -5   0   83.87    4.21
  -2  -5   0   72.38    3.68
  -2  -5   0   74.84    3.51
  -2  -5   0   73.50    4.07
  -2  -5   0   77.51    4.27
  -2  -5   0   77.87    4.15
  -2  -5   0   72.57    3.98
  -2  -5   1 1613.45   28.55
  -2  -5   1 1589.87   27.50
  -2  -5   1 1548.37   27.96
  -2  -5   1 1610.01   28.61
  -2  -5   1 1510.52   26.83
  -2  -5   1 1674.24   28.09
  -2  -5   1 1594.11   27.85
  -2  -5   1 1660.16   28.47
  -2  -5   2   92.94    4.57
  -2  -5   2   99.30    4.98
  -2  -5   2   94.26    4.79
  -2  -5   2   91.54    5.76
  -2  -5   2   88.35    4.24
  -2  -5   2   93.20    4.18
  -2  -5   2   95.37    4.61
  -2  -5   2   95.34    4.61
  -2  -5   2  102.11    4.87
  -2  -5   2   90.53    4.73
  -2  -5   3  195.64    7.26
  -2  -5   3  190.71    7.28
  -2  -5   3  194.24    7.49
  -2  -5   3  192.37    7.16
  -2  -5   3  209.77    6.94
  -2  -5   3  187.13    6.50
  -2  -5   3  193.53    8.84
  -2  -5   3  184.90    6.44
  -2  -5   4   66.81    4.26
  -2  -5   4   71.81    4.08
  -2  -5   4   73.82    5.56
  -2  -5   4   70.32    4.40
  -2  -5   4   69.31    4.06
  -2  -5   4   68.60    4.48
  -2  -5   4   73.07    4.40
  -2  -5   5  142.66    7.85
  -2  -5   5  130.60    6.11
  -2  -5   5  124.91    5.68
  -2  -5   5  132.97    5.95
  -2  -5   5  128.28    5.27
  -2  -5   5  130.73    6.17
  -2  -5   5  146.39    8.16
  -2  -5   5  124.55    6.29
  -2  -5   6   48.33    4.60
  -2  -5   6   40.24    3.12
  -2  -5   6   43.47    3.63
  -2  -5   6   47.51    4.34
  -2  -5   7   55.93    3.45
  -2  -5   7   58.73    3.68
  -2  -5   7   65.66    5.02
  -2  -5   7   48.94    4.13
  -2  -5   8   24.87    2.51
  -2  -4 -11   75.48    2.92
  -2  -4 -11   74.31    3.05
  -2  -4 -10   69.45    3.15
  -2  -4 -10   73.01    3.78
  -2  -4 -10   72.41    3.64
  -2  -4  -9    4.78    1.33
  -2  -4  -9    5.11    1.23
  -2  -4  -9    6.88    1.35
  -2  -4  -9    5.50    1.37
  -2  -4  -9    4.23    1.23
  -2  -4  -8   90.27    5.15
  -2  -4  -8   93.57    4.83
  -2  -4  -8   92.25    5.16
  -2  -4  -8   99.35    5.18
  -2  -4  -8  102.89    6.12
  -2  -4  -8  100.48    5.08
  -2  -4  -8   86.83    5.39
  -2  -4  -8  105.41    5.61
  -2  -4  -8  101.91    5.59
  -2  -4  -7   36.01    3.08
  -2  -4  -7   35.77    2.85
  -2  -4  -7   36.53    3.19
  -2  -4  -7   30.91    3.27
  -2  -4  -7   31.81    2.97
  -2  -4  -7   32.70    3.51
  -2  -4  -7   32.67    3.18
  -2  -4  -7   32.55    3.09
  -2  -4  -7   34.51    3.03
  -2  -4  -7   33.35    3.33
  -2  -4  -7   30.69    3.15
  -2  -4  -6   32.38    2.77
  -2  -4  -6   35.35    3.15
  -2  -4  -6   36.18    3.11
  -2  -4  -6   33.60    3.44
  -2  -4  -6   36.38    3.08
  -2  -4  -6   31.34    2.68
  -2  -4  -6   38.80    3.47
  -2  -4  -6   35.66    3.35
  -2  -4  -5  272.65    8.87
  -2  -4  -5  273.39    9.23
  -2  -4  -5  270.67    8.42
  -2  -4  -5  265.33    8.83
  -2  -4  -5  274.40    9.65
  -2  -4  -5  269.80    8.71
  -2  -4  -5  276.78    8.39
  -2  -4  -5  263.80    7.20
  -2  -4  -5  280.01    9.20
  -2  -4  -5  276.93    8.47
  -2  -4  -5  261.09    8.94
  -2  -4  -4   53.37    3.52
  -2  -4  -4   51.84    3.53
  -2  -4  -4   48.83    2.93
  -2  -4  -4   57.22    3.60
  -2  -4  -4   49.88    3.25
  -2  -4  -4   49.45    3.21
  -2  -4  -4   50.37    3.44
  -2  -4  -4   52.04    3.49
  -2  -4  -4   50.71    3.44
  -2  -4  -4   52.82    3.75
  -2  -4  -3  361.46   10.28
  -2  -4  -3  380.32   10.00
  -2  -4  -3  374.40    9.93
  -2  -4  -3  384.75    9.98
  -2  -4  -3  378.52    9.87
  -2  -4  -3  362.51    9.23
  -2  -4  -3  387.50    9.92
  -2  -4  -3  379.31    9.01
  -2  -4  -2  974.91   18.62
  -2  -4  -2  975.30   18.55
  -2  -4  -2  926.35   16.94
  -2  -4  -2  930.96   17.59
  -2  -4  -2  928.07   18.52
  -2  -4  -2  938.43   18.04
  -2  -4  -2  968.04   18.46
  -2  -4  -2  986.63   18.61
  -2  -4  -2  951.40   18.02
  -2  -4  -1  107.57    4.49
  -2  -4  -1  102.85    3.77
  -2  -4  -1  101.43    3.51
  -2  -4  -1  100.65    4.24
  -2  -4  -1  101.26    4.29
  -2  -4  -1  101.52    4.09
  -2  -4  -1  108.70    4.56
  -2  -4  -1  105.28    4.42
  -2  -4   0 1116.33   19.99
  -2  -4   0 1124.13   19.01
  -2  -4   0 1103.62   20.01
  -2  -4   0 1100.49   19.59
  -2  -4   0 1106.49   20.20
  -2  -4   0 1123.05   19.99
  -2  -4   0 1103.95   19.47
  -2  -4   0 1056.27   20.14
  -2  -4   0 1074.44   20.04
  -2  -4   1  317.01    7.53
  -2  -4   1  289.32    8.19
  -2  -4   1  307.42    8.40
  -2  -4   1  305.35    8.13
  -2  -4   1  307.40    8.22
  -2  -4   1  319.03    8.30
  -2  -4   1  307.17    8.03
  -2  -4   1  302.47    7.94
  -2  -4   1  298.18    7.80
  -2  -4   2  906.48   17.53
  -2  -4   2  897.87   17.01
  -2  -4   2  921.93   18.18
  -2  -4   2  943.71   18.10
  -2  -4   2  895.50   16.44
  -2  -4   2  928.35   17.88
  -2  -4   2  926.44   17.44
  -2  -4   2  921.40   18.06
  -2  -4   2  941.69   18.10
  -2  -4   2  919.22   16.97
  -2  -4   3  210.18    7.07
  -2  -4   3  218.44    7.26
  -2  -4   3  196.53    7.04
  -2  -4   3  198.11    7.07
  -2  -4   3  209.95    7.14
  -2  -4   3  196.37    6.08
  -2  -4   3  196.10    6.55
  -2  -4   3  205.40    6.42
  -2  -4   3  198.56    6.73
  -2  -4   3  198.14    8.37
  -2  -4   3  197.03    7.05
  -2  -4   4  738.23   16.13
  -2  -4   4  735.07   16.56
  -2  -4   4  732.78   16.75
  -2  -4   4  752.50   15.63
  -2  -4   4  729.76   19.00
  -2  -4   4  717.94   16.78
  -2  -4   4  771.07   16.54
  -2  -4   4  737.38   14.69
  -2  -4   5 1510.54   32.24
  -2  -4   5 1442.55   27.70
  -2  -4   5 1510.68   31.58
  -2  -4   5 1464.30   27.10
  -2  -4   5 1447.84   26.64
  -2  -4   5 1533.87   27.61
  -2  -4   5 1434.32   28.57
  -2  -4   6    7.79    2.05
  -2  -4   6   10.67    2.31
  -2  -4   6    8.55    1.54
  -2  -4   6   10.94    1.81
  -2  -4   6   10.47    1.77
  -2  -4   6    9.95    1.88
  -2  -4   6    6.65    1.44
  -2  -4   7   60.78    4.97
  -2  -4   7   54.55    4.15
  -2  -4   7   58.85    3.94
  -2  -4   7   59.43    3.71
  -2  -4   7   62.92    4.10
  -2  -4   8    4.13    1.44
  -2  -4   8    5.30    1.19
  -2  -4   9  222.08    7.49
  -2  -4   9  249.88    8.74
  -2  -3 -11    2.61    0.79
  -2  -3 -11    3.64    0.81
  -2  -3 -10   64.56    3.92
  -2  -3 -10   63.87    3.71
  -2  -3 -10   61.74    3.30
  -2  -3 -10   57.70    3.67
  -2  -3  -9  412.28   11.84
  -2  -3  -9  401.81   11.65
  -2  -3  -9  411.34   11.10
  -2  -3  -9  399.57   12.70
  -2  -3  -9  419.09   12.09
  -2  -3  -9  419.40   11.74
  -2  -3  -9  400.32   11.76
  -2  -3  -8   91.38    5.61
  -2  -3  -8   94.02    5.06
  -2  -3  -8   85.36    4.60
  -2  -3  -8   92.43    5.29
  -2  -3  -8   93.83    5.92
  -2  -3  -8   84.97    4.65
  -2  -3  -8   91.13    5.23
  -2  -3  -8   95.25    5.42
  -2  -3  -8  106.98    5.75
  -2  -3  -8   86.79    5.49
  -2  -3  -8   96.60    5.49
  -2  -3  -7   54.31    3.38
  -2  -3  -7   56.32    3.74
  -2  -3  -7   61.19    4.21
  -2  -3  -7   60.25    4.40
  -2  -3  -7   59.48    3.96
  -2  -3  -7   59.14    3.88
  -2  -3  -7   64.12    4.24
  -2  -3  -7   57.71    4.27
  -2  -3  -7   60.54    4.23
  -2  -3  -6   53.99    3.33
  -2  -3  -6   51.55    3.50
  -2  -3  -6   52.08    4.12
  -2  -3  -6   57.11    3.60
  -2  -3  -6   49.06    3.07
  -2  -3  -6   52.68    3.53
  -2  -3  -6   54.42    3.88
  -2  -3  -6   46.38    3.63
  -2  -3  -6   53.28    3.64
  -2  -3  -6   55.81    3.85
  -2  -3  -5  250.37    6.42
  -2  -3  -5  272.87    8.14
  -2  -3  -5  258.12    8.43
  -2  -3  -5  273.17    8.27
  -2  -3  -5  263.44    7.76
  -2  -3  -5  255.44    8.04
  -2  -3  -5  269.42    7.71
  -2  -3  -5  273.76    9.17
  -2  -3  -5  276.55    8.66
  -2  -3  -4  587.43   12.94
  -2  -3  -4  561.92   12.37
  -2  -3  -4  585.43   12.97
  -2  -3  -4  579.25   13.81
  -2  -3  -4  560.74   12.98
  -2  -3  -4  569.47   12.32
  -2  -3  -4  592.76   13.03
  -2  -3  -4  577.36   12.78
  -2  -3  -4  597.71   12.57
  -2  -3  -4  576.96   13.00
  -2  -3  -3   35.47    2.67
  -2  -3  -3   38.23    2.54
  -2  -3  -3   38.67    2.49
  -2  -3  -3   33.92    2.33
  -2  -3  -3   40.29    2.57
  -2  -3  -3   36.12    2.48
  -2  -3  -3   38.35    2.44
  -2  -3  -2  465.26    9.96
  -2  -3  -2  464.43   10.27
  -2  -3  -2  459.64   10.19
  -2  -3  -2  453.04   10.17
  -2  -3  -2  456.51   10.65
  -2  -3  -2  455.69   10.10
  -2  -3  -2  470.72    9.87
  -2  -3  -2  461.55    9.65
  -2  -3  -1  134.63    3.85
  -2  -3  -1  145.23    4.22
  -2  -3  -1  135.05    4.51
  -2  -3  -1  138.64    4.80
  -2  -3  -1  130.30    4.55
  -2  -3  -1  138.93    4.21
  -2  -3  -1  142.65    4.66
  -2  -3  -1  135.56    4.03
  -2  -3   0 9687.87  134.12
  -2  -3   0 9512.47  133.38
  -2  -3   0 9432.38  133.02
  -2  -3   0 9523.26  133.21
  -2  -3   0 9370.93  133.62
  -2  -3   0 9438.28  133.78
  -2  -3   0 9401.61  131.97
  -2  -3   0 9475.60  133.05
  -2  -3   1 1205.10   18.42
  -2  -3   1 1253.66   20.97
  -2  -3   1 1266.61   20.69
  -2  -3   1 1185.21   19.69
  -2  -3   1 1248.99   21.38
  -2  -3   1 1320.52   21.23
  -2  -3   1 1263.70   20.72
  -2  -3   1 1230.96   20.21
  -2  -3   1 1257.44   20.92
  -2  -3   2   26.84    1.58
  -2  -3   2   30.15    2.17
  -2  -3   2   33.03    2.32
  -2  -3   2   32.96    2.29
  -2  -3   2   31.35    2.27
  -2  -3   2   28.06    1.77
  -2  -3   2   28.61    1.90
  -2  -3   2   25.26    1.95
  -2  -3   3  204.35    6.48
  -2  -3   3  193.53    6.28
  -2  -3   3  196.25    6.08
  -2  -3   3  213.15    6.75
  -2  -3   3  190.35    6.47
  -2  -3   3  212.94    6.69
  -2  -3   3  208.40    4.94
  -2  -3   3  204.62    6.56
  -2  -3   4  543.04   12.77
  -2  -3   4  554.23   15.17
  -2  -3   4  540.89   11.75
  -2  -3   4  549.73   12.56
  -2  -3   4  564.82   13.40
  -2  -3   4  541.36   12.58
  -2  -3   4  558.31   12.87
  -2  -3   4  548.52   11.05
  -2  -3   5  558.71   13.63
  -2  -3   5  567.09   16.30
  -2  -3   5  590.41   13.17
  -2  -3   5  546.01   13.46
  -2  -3   5  555.97   14.43
  -2  -3   5  572.75   16.99
  -2  -3   5  577.34   13.93
  -2  -3   5  553.04   13.71
  -2  -3   6  268.69    9.10
  -2  -3   6  258.68    8.88
  -2  -3   6  265.63    8.76
  -2  -3   6  280.75    9.98
  -2  -3   6  266.06    9.02
  -2  -3   6  263.84   10.98
  -2  -3   7  157.08    6.83
  -2  -3   7  154.14    8.32
  -2  -3   7  157.08    6.61
  -2  -3   7  148.98    6.72
  -2  -3   7  159.08    7.52
  -2  -3   8  120.85    5.64
  -2  -3   8  113.11    6.79
  -2  -3   8  120.31    5.33
  -2  -3   8  116.19    7.30
  -2  -3   8  118.98    6.19
  -2  -3   9  222.26    9.16
  -2  -3   9  207.29    8.16
  -2  -3  10   12.59    1.69
  -2  -3  10   13.71    1.71
  -2  -2 -11  108.87    4.19
  -2  -2 -11  119.20    4.87
  -2  -2 -11  125.44    4.91
  -2  -2 -11  121.18    4.48
  -2  -2 -10   10.99    1.55
  -2  -2 -10    8.64    1.58
  -2  -2 -10    9.96    1.66
  -2  -2 -10   10.02    1.64
  -2  -2 -10    9.40    1.75
  -2  -2 -10   10.09    1.77
  -2  -2 -10    9.95    1.66
  -2  -2  -9   63.61    4.70
  -2  -2  -9   62.33    4.34
  -2  -2  -9   61.40    4.37
  -2  -2  -9   66.36    4.83
  -2  -2  -9   65.74    4.03
  -2  -2  -9   59.23    4.15
  -2  -2  -9   60.04    4.13
  -2  -2  -8  102.81    5.27
  -2  -2  -8  103.18    4.99
  -2  -2  -8  105.83    5.69
  -2  -2  -8  104.65    5.52
  -2  -2  -8  110.73    5.73
  -2  -2  -8  102.16    5.70
  -2  -2  -8  102.18    4.97
  -2  -2  -8   93.24    5.69
  -2  -2  -8  107.72    6.20
  -2  -2  -8  109.84    5.74
  -2  -2  -7  158.84    5.72
  -2  -2  -7  160.14    6.71
  -2  -2  -7  161.14    6.52
  -2  -2  -7  168.06    6.44
  -2  -2  -7  167.69    7.58
  -2  -2  -7  163.98    6.87
  -2  -2  -7  159.90    6.28
  -2  -2  -7  163.71    7.17
  -2  -2  -7  162.67    7.21
  -2  -2  -7  162.54    6.83
  -2  -2  -7  162.83    6.94
  -2  -2  -6   77.85    4.51
  -2  -2  -6   78.34    3.79
  -2  -2  -6   85.36    4.25
  -2  -2  -6   79.28    4.85
  -2  -2  -6   86.45    4.22
  -2  -2  -6   89.99    4.63
  -2  -2  -6   75.36    3.59
  -2  -2  -6   77.33    4.23
  -2  -2  -6   76.65    4.15
  -2  -2  -6   87.00    4.74
  -2  -2  -6   89.87    4.62
  -2  -2  -6   81.66    4.15
  -2  -2  -5  503.81   11.17
  -2  -2  -5  498.94    9.61
  -2  -2  -5  524.78   11.87
  -2  -2  -5  531.85   11.19
  -2  -2  -5  516.68   11.75
  -2  -2  -5  534.65   12.40
  -2  -2  -5  530.51   11.76
  -2  -2  -5  517.06   11.71
  -2  -2  -5  512.23   12.26
  -2  -2  -4   97.44    4.05
  -2  -2  -4   93.37    3.92
  -2  -2  -4   98.35    3.85
  -2  -2  -4   95.29    4.12
  -2  -2  -4   99.11    4.13
  -2  -2  -4   93.20    3.95
  -2  -2  -4   96.17    4.11
  -2  -2  -4   96.32    3.25
  -2  -2  -3  297.68    7.22
  -2  -2  -3  302.19    7.36
  -2  -2  -3  309.70    6.77
  -2  -2  -3  302.91    7.47
  -2  -2  -3  296.02    7.52
  -2  -2  -3  308.11    8.17
  -2  -2  -3  298.12    7.36
  -2  -2  -3  300.81    7.28
  -2  -2  -3  309.44    7.28
  -2  -2  -3  299.69    7.45
  -2  -2  -2  116.10    3.61
  -2  -2  -2  113.31    3.88
  -2  -2  -2  116.71    3.94
  -2  -2  -2  117.80    4.29
  -2  -2  -2  113.73    3.75
  -2  -2  -2  111.42    3.82
  -2  -2  -2  116.96    3.49
  -2  -2  -2  112.90    3.86
  -2  -2  -1  233.68    5.62
  -2  -2  -1  223.75    4.86
  -2  -2  -1  230.44    5.69
  -2  -2  -1  228.72    5.55
  -2  -2  -1  236.43    6.18
  -2  -2  -1  225.25    4.67
  -2  -2  -1  224.29    5.17
  -2  -2  -1  223.92    5.09
  -2  -2   0 2575.35   38.21
  -2  -2   0 2726.95   39.52
  -2  -2   0 2583.31   38.07
  -2  -2   0 2566.56   36.66
  -2  -2   0 2592.92   38.52
  -2  -2   0 2535.77   36.68
  -2  -2   0 2587.48   38.44
  -2  -2   1 1674.85   26.16
  -2  -2   1 1623.37   24.87
  -2  -2   1 1660.02   24.63
  -2  -2   1 1718.67   26.84
  -2  -2   1 1740.46   26.33
  -2  -2   1 1615.65   25.46
  -2  -2   1 1652.44   24.91
  -2  -2   2  468.60    9.73
  -2  -2   2  463.77    9.23
  -2  -2   2  443.77    9.64
  -2  -2   2  445.38    9.31
  -2  -2   2  460.45    8.44
  -2  -2   3    7.66    1.16
  -2  -2   3    8.43    0.64
  -2  -2   3    7.34    1.10
  -2  -2   3    7.58    0.93
  -2  -2   4  494.84   10.93
  -2  -2   4  505.09   11.35
  -2  -2   4  504.01   11.47
  -2  -2   4  476.87    9.44
  -2  -2   4  491.28   11.21
  -2  -2   4  488.52   11.47
  -2  -2   4  509.84   11.97
  -2  -2   5   49.98    3.43
  -2  -2   5   53.76    4.38
  -2  -2   5   52.69    3.30
  -2  -2   5   61.73    3.73
  -2  -2   5   57.64    3.85
  -2  -2   5   52.46    3.35
  -2  -2   5   52.14    3.34
  -2  -2   5   49.84    4.42
  -2  -2   6  258.74   10.67
  -2  -2   6  260.89    8.49
  -2  -2   6  258.10    9.50
  -2  -2   6  255.38    8.46
  -2  -2   6  265.29    9.02
  -2  -2   7  257.38   11.11
  -2  -2   7  281.67    9.63
  -2  -2   7  250.90   11.52
  -2  -2   7  253.60    9.94
  -2  -2   7  259.82    8.58
  -2  -2   8   45.22    3.63
  -2  -2   8   35.45    3.92
  -2  -2   8   35.88    2.80
  -2  -2   8   35.90    4.21
  -2  -2   8   38.73    3.26
  -2  -2   8   39.43    3.74
  -2  -2   9  509.52   15.34
  -2  -2   9  508.74   12.53
  -2  -2   9  432.78   12.53
  -2  -2   9  454.10   13.84
  -2  -2  10    9.99    1.72
  -2  -2  10    8.56    1.67
  -2  -1 -11   73.62    3.60
  -2  -1 -11   73.55    3.52
  -2  -1 -11   76.69    3.94
  -2  -1 -11   72.69    3.93
  -2  -1 -10   93.33    5.17
  -2  -1 -10   99.13    4.95
  -2  -1 -10   97.65    4.93
  -2  -1 -10   88.19    4.32
  -2  -1 -10  101.01    5.04
  -2  -1 -10  108.29    5.55
  -2  -1 -10  103.76    5.36
  -2  -1  -9  407.18   12.15
  -2  -1  -9  383.34   11.45
  -2  -1  -9  384.18   10.85
  -2  -1  -9  383.60   11.84
  -2  -1  -9  364.12   12.08
  -2  -1  -9  376.45   11.87
  -2  -1  -9  388.61   12.59
  -2  -1  -9  385.16   11.86
  -2  -1  -9  407.42   11.67
  -2  -1  -8  918.32   21.22
  -2  -1  -8  927.00   20.89
  -2  -1  -8  955.03   19.68
  -2  -1  -8  911.03   20.14
  -2  -1  -8  877.39   18.38
  -2  -1  -8  915.01   18.69
  -2  -1  -8  943.37   20.77
  -2  -1  -8  908.04   20.67
  -2  -1  -8  934.77   20.59
  -2  -1  -8  939.97   20.12
  -2  -1  -7   70.78    4.44
  -2  -1  -7   68.40    4.24
  -2  -1  -7   73.61    3.99
  -2  -1  -7   71.80    3.92
  -2  -1  -7   67.41    4.46
  -2  -1  -7   76.34    4.41
  -2  -1  -7   70.88    4.20
  -2  -1  -7   75.13    4.47
  -2  -1  -7   69.92    4.09
  -2  -1  -7   72.07    4.54
  -2  -1  -7   69.17    4.22
  -2  -1  -7   57.80    3.80
  -2  -1  -6   87.00    4.60
  -2  -1  -6   85.93    4.11
  -2  -1  -6   79.89    3.66
  -2  -1  -6   88.83    4.29
  -2  -1  -6   85.51    4.07
  -2  -1  -6   81.15    4.26
  -2  -1  -6   91.48    4.84
  -2  -1  -6   88.07    4.40
  -2  -1  -6   80.58    4.29
  -2  -1  -6   92.40    4.72
  -2  -1  -6   87.88    4.37
  -2  -1  -6   87.30    4.42
  -2  -1  -6   93.24    4.69
  -2  -1  -5  310.34    8.76
  -2  -1  -5  307.63    8.26
  -2  -1  -5  322.40    8.30
  -2  -1  -5  322.85    9.17
  -2  -1  -5  318.50    8.58
  -2  -1  -5  332.73    8.90
  -2  -1  -5  333.63    7.80
  -2  -1  -5  353.58    8.60
  -2  -1  -5  325.28    8.81
  -2  -1  -5  321.90    8.34
  -2  -1  -5  307.15    8.59
  -2  -1  -4  451.82    8.71
  -2  -1  -4  487.30   10.61
  -2  -1  -4  466.44   10.12
  -2  -1  -4  483.86   10.92
  -2  -1  -4  480.80   10.12
  -2  -1  -4  478.14    9.72
  -2  -1  -4  481.74   10.22
  -2  -1  -4  465.57    9.76
  -2  -1  -4  453.78   10.29
  -2  -1  -4  480.36   10.39
  -2  -1  -3  219.27    5.11
  -2  -1  -3  229.89    6.31
  -2  -1  -3  219.26    5.10
  -2  -1  -3  224.16    5.85
  -2  -1  -3  225.79    5.63
  -2  -1  -3  227.28    5.78
  -2  -1  -3  223.39    5.64
  -2  -1  -3  229.82    5.87
  -2  -1  -3  225.78    5.87
  -2  -1  -2  136.47    3.66
  -2  -1  -2  130.96    3.92
  -2  -1  -2  132.24    3.48
  -2  -1  -2  138.14    3.71
  -2  -1  -2  130.54    3.84
  -2  -1  -1 3309.52   47.09
  -2  -1  -1 3262.25   48.20
  -2  -1  -1 3410.64   48.31
  -2  -1  -1 3346.30   48.22
  -2  -1  -1 3370.39   46.72
  -2  -1   0  444.29    8.89
  -2  -1   0  422.50    8.27
  -2  -1   0  432.45    7.76
  -2  -1   0  435.18    7.75
  -2  -1   0  440.73    8.18
  -2  -1   1   25.90    1.30
  -2  -1   1   23.41    1.03
  -2  -1   1   25.94    1.49
  -2  -1   1   27.68    1.38
  -2  -1   1   24.89    1.56
  -2  -1   2  533.07   10.13
  -2  -1   2  539.59   10.02
  -2  -1   3  459.10    9.92
  -2  -1   3  465.48    8.77
  -2  -1   3  435.64    9.87
  -2  -1   3  471.12    9.77
  -2  -1   4  608.95   12.44
  -2  -1   4  593.33   13.05
  -2  -1   4  574.28   10.28
  -2  -1   5  949.87   18.99
  -2  -1   5  936.74   18.65
  -2  -1   5  908.11   18.83
  -2  -1   5  950.58   18.06
  -2  -1   5  910.23   19.44
  -2  -1   6  347.20   10.48
  -2  -1   6  358.12   10.58
  -2  -1   6  324.48   12.08
  -2  -1   6  340.98   12.96
  -2  -1   6  342.41   10.17
  -2  -1   6  356.27   11.33
  -2  -1   6  363.72    9.74
  -2  -1   7  353.54   12.03
  -2  -1   7  373.93   11.05
  -2  -1   7  360.74   13.33
  -2  -1   7  350.39   13.87
  -2  -1   7  368.07   11.38
  -2  -1   7  368.78   11.24
  -2  -1   7  365.47    9.95
  -2  -1   8  292.64    9.96
  -2  -1   8  288.60    9.44
  -2  -1   8  265.38   11.27
  -2  -1   8  288.81   12.23
  -2  -1   8  270.80   10.44
  -2  -1   9   44.60    3.43
  -2  -1   9   42.81    4.25
  -2  -1  10   15.07    2.20
  -2   0 -11    2.18    0.85
  -2   0 -11    0.57    0.61
  -2   0 -11    0.71    0.57
  -2   0 -10    6.95    1.47
  -2   0 -10    4.95    1.39
  -2   0 -10    5.67    1.15
  -2   0 -10    6.00    1.34
  -2   0 -10    4.92    1.40
  -2   0 -10    6.49    1.45
  -2   0 -10    4.63    1.18
  -2   0  -9  494.27   13.49
  -2   0  -9  476.10   12.78
  -2   0  -9  461.61   12.08
  -2   0  -9  463.87   12.60
  -2   0  -9  421.19   11.38
  -2   0  -9  477.96   13.43
  -2   0  -9  432.99   13.29
  -2   0  -9  462.21   13.35
  -2   0  -9  419.97   13.24
  -2   0  -9  450.93   12.67
  -2   0  -8  289.37    8.60
  -2   0  -8  287.25    9.47
  -2   0  -8  297.28   10.09
  -2   0  -8  286.72    9.75
  -2   0  -8  270.62    9.29
  -2   0  -8  287.16    9.10
  -2   0  -8  271.03    8.84
  -2   0  -8  281.92    9.28
  -2   0  -8  282.48   10.16
  -2   0  -8  285.32    9.45
  -2   0  -8  280.92    9.83
  -2   0  -8  278.08   10.03
  -2   0  -8  248.47    8.77
  -2   0  -7  137.46    6.38
  -2   0  -7  114.73    5.60
  -2   0  -7  135.24    5.90
  -2   0  -7  132.61    5.89
  -2   0  -7  135.66    5.72
  -2   0  -7  119.51    5.14
  -2   0  -7  133.51    6.10
  -2   0  -7  138.16    6.16
  -2   0  -7  128.69    6.24
  -2   0  -7  134.57    5.45
  -2   0  -7  133.73    5.92
  -2   0  -6  130.80    5.75
  -2   0  -6  137.13    5.22
  -2   0  -6  126.43    5.43
  -2   0  -6  130.37    5.25
  -2   0  -6  136.59    5.17
  -2   0  -6  133.38    5.52
  -2   0  -6  127.98    4.53
  -2   0  -6  141.43    5.71
  -2   0  -6  131.40    5.83
  -2   0  -6  131.47    5.40
  -2   0  -6  137.98    5.57
  -2   0  -5  535.82   11.81
  -2   0  -5  530.01   11.50
  -2   0  -5  570.83   12.55
  -2   0  -5  542.20   12.01
  -2   0  -5  532.77   10.71
  -2   0  -5  530.17   11.76
  -2   0  -5  561.42   11.68
  -2   0  -5  532.05   11.78
  -2   0  -5  511.96   12.17
  -2   0  -5  528.56   11.91
  -2   0  -5  547.02   12.46
  -2   0  -4  450.56    9.74
  -2   0  -4  440.18   10.02
  -2   0  -4  435.78    9.45
  -2   0  -4  458.18    9.83
  -2   0  -4  412.05    9.19
  -2   0  -4  445.80    9.88
  -2   0  -4  427.86    9.31
  -2   0  -4  423.82    8.19
  -2   0  -4  448.72    9.55
  -2   0  -4  430.97    9.84
  -2   0  -4  451.48    9.82
  -2   0  -3   77.40    3.01
  -2   0  -3   71.98    1.59
  -2   0  -3   77.47    3.02
  -2   0  -3   67.31    2.93
  -2   0  -3   76.89    2.71
  -2   0  -3   78.81    2.63
  -2   0  -3   74.48    2.84
  -2   0  -3   76.84    3.00
  -2   0  -3   76.13    3.04
  -2   0  -2  931.43   14.03
  -2   0  -2  957.31   15.90
  -2   0  -2  938.69   15.36
  -2   0  -2  936.63   15.76
  -2   0  -2  978.42   15.37
  -2   0  -2  936.87   15.68
  -2   0  -2  960.02   15.51
  -2   0  -1  308.45    5.60
  -2   0  -1  310.28    6.22
  -2   0  -1  303.62    5.55
  -2   0  -1  298.51    6.28
  -2   0  -1  308.24    6.51
  -2   0  -1  310.64    6.32
  -2   0  -1  303.31    5.70
  -2   0   0  526.97    8.99
  -2   0   0  507.99    8.89
  -2   0   0  501.36    9.76
  -2   0   0  518.88    8.79
  -2   0   1 1962.32   29.41
  -2   0   2   90.41    3.25
  -2   0   2  103.90    3.13
  -2   0   3  379.37    8.41
  -2   0   3  384.13    8.95
  -2   0   3  401.64    7.70
  -2   0   4  110.50    4.04
  -2   0   4   99.48    4.49
  -2   0   4  103.50    2.97
  -2   0   4  102.82    4.51
  -2   0   5  306.12    8.88
  -2   0   5  311.58    8.01
  -2   0   5  313.05    8.62
  -2   0   5  299.11    9.10
  -2   0   5  292.32   10.89
  -2   0   5  306.54    9.48
  -2   0   5  307.47    8.84
  -2   0   6    6.31    1.73
  -2   0   6    5.69    1.23
  -2   0   6    7.63    1.50
  -2   0   6    8.20    1.52
  -2   0   6    9.53    2.20
  -2   0   6    7.47    1.59
  -2   0   6    3.97    1.34
  -2   0   7  570.19   14.96
  -2   0   7  561.61   13.80
  -2   0   7  570.33   17.97
  -2   0   7  529.92   16.87
  -2   0   7  563.02   15.85
  -2   0   7  563.14   14.56
  -2   0   8   22.94    2.72
  -2   0   8   19.97    3.28
  -2   0   8   19.09    2.36
  -2   0   8   16.50    2.86
  -2   0   9   66.07    4.14
  -2   0   9   65.54    5.29
  -2   0  10   44.24    3.58
  -2   0  11   14.56    1.59
  -2   1 -11    2.39    0.73
  -2   1 -11    2.90    0.97
  -2   1 -10   81.53    4.76
  -2   1 -10   87.08    4.44
  -2   1 -10   88.18    4.76
  -2   1 -10   88.43    4.63
  -2   1  -9   11.97    2.11
  -2   1  -9   16.07    2.19
  -2   1  -9   14.32    2.21
  -2   1  -9   12.34    1.92
  -2   1  -9   12.88    2.19
  -2   1  -9   15.35    2.27
  -2   1  -9   14.50    2.26
  -2   1  -9   13.49    1.95
  -2   1  -9   10.73    1.76
  -2   1  -8  538.46   13.81
  -2   1  -8  520.65   13.94
  -2   1  -8  505.33   13.08
  -2   1  -8  527.78   12.59
  -2   1  -8  563.64   14.44
  -2   1  -8  518.94   14.30
  -2   1  -8  513.53   14.56
  -2   1  -8  512.09   14.42
  -2   1  -8  534.18   13.76
  -2   1  -8  484.46   13.57
  -2   1  -7  984.34   20.86
  -2   1  -7 1008.11   20.67
  -2   1  -7  933.06   19.69
  -2   1  -7  985.64   19.14
  -2   1  -7  997.55   19.56
  -2   1  -7  972.55   19.16
  -2   1  -7 1030.79   19.96
  -2   1  -7 1052.32   21.55
  -2   1  -7  971.13   21.19
  -2   1  -7 1043.11   20.98
  -2   1  -7 1085.98   21.59
  -2   1  -7 1053.13   20.95
  -2   1  -7 1039.47   21.86
  -2   1  -6   77.75    4.43
  -2   1  -6   82.14    4.25
  -2   1  -6   73.16    4.00
  -2   1  -6   78.42    3.96
  -2   1  -6   79.75    4.09
  -2   1  -6   78.78    3.86
  -2   1  -6   76.73    3.64
  -2   1  -6   73.55    3.50
  -2   1  -6   79.80    3.84
  -2   1  -6   81.84    4.38
  -2   1  -6   74.75    4.10
  -2   1  -6   78.36    3.92
  -2   1  -6   85.55    4.70
  -2   1  -6   79.27    4.35
  -2   1  -6   73.10    4.06
  -2   1  -6   65.25    3.82
  -2   1  -5  166.15    6.04
  -2   1  -5  164.08    5.63
  -2   1  -5  159.98    5.43
  -2   1  -5  165.15    5.40
  -2   1  -5  160.38    5.08
  -2   1  -5  169.28    5.86
  -2   1  -5  171.55    5.65
  -2   1  -5  178.60    6.34
  -2   1  -5  155.97    5.60
  -2   1  -5  161.43    5.91
  -2   1  -5  154.85    5.66
  -2   1  -4   69.83    3.22
  -2   1  -4   69.41    2.84
  -2   1  -4   71.76    3.13
  -2   1  -4   71.73    3.46
  -2   1  -4   68.77    2.61
  -2   1  -4   69.21    3.23
  -2   1  -4   68.73    2.33
  -2   1  -4   71.33    3.21
  -2   1  -4   73.76    3.55
  -2   1  -4   75.55    3.42
  -2   1  -4   68.34    3.32
  -2   1  -4   69.41    3.45
  -2   1  -3  974.94   16.98
  -2   1  -3  959.35   16.81
  -2   1  -3  938.24   15.21
  -2   1  -3  984.26   16.80
  -2   1  -3  995.93   15.88
  -2   1  -3  948.68   16.55
  -2   1  -3  920.43   16.86
  -2   1  -3 1013.39   17.25
  -2   1  -3  965.06   16.00
  -2   1  -3  952.45   17.04
  -2   1  -2 1801.62   26.74
  -2   1  -2 1830.38   27.45
  -2   1  -2 1768.14   27.47
  -2   1  -2 1735.80   26.83
  -2   1  -2 1859.80   27.92
  -2   1  -2 1801.70   27.91
  -2   1  -2 1825.27   27.47
  -2   1  -2 1805.81   27.98
  -2   1  -2 1789.59   27.92
  -2   1  -1 3292.49   46.65
  -2   1  -1 3233.41   47.32
  -2   1  -1 3167.17   46.64
  -2   1  -1 3205.76   47.18
  -2   1  -1 3246.58   47.25
  -2   1  -1 3283.59   47.32
  -2   1  -1 3298.36   47.28
  -2   1   0   38.40    1.78
  -2   1   0   38.29    1.83
  -2   1   1 1049.30   17.01
  -2   1   1 1035.83   16.95
  -2   1   1 1013.77   16.85
  -2   1   2 1662.96   26.18
  -2   1   2 1651.78   25.58
  -2   1   3 1290.93   20.56
  -2   1   4  340.09    6.87
  -2   1   5  341.04   11.83
  -2   1   5  346.23    9.35
  -2   1   5  333.43    9.25
  -2   1   6  354.37   10.17
  -2   1   6  329.99   12.00
  -2   1   6  325.43   12.59
  -2   1   6  347.14   10.16
  -2   1   7  156.66    8.84
  -2   1   7  155.10    7.11
  -2   1   7  151.54    8.64
  -2   1   7  154.81    6.67
  -2   1   8   41.97    3.69
  -2   1   8   43.16    4.57
  -2   1   8   44.45    3.48
  -2   1   9  107.34    5.12
  -2   1   9  111.49    6.76
  -2   1  10  149.16    5.21
  -2   1  10  163.00    6.80
  -2   2 -11  104.08    4.31
  -2   2 -10  339.61    9.42
  -2   2 -10  322.80   10.32
  -2   2 -10  346.20   10.13
  -2   2  -9  254.73    9.05
  -2   2  -9  254.29    8.76
  -2   2  -9  226.00    7.87
  -2   2  -9  228.17    9.29
  -2   2  -9  225.66    7.96
  -2   2  -9  222.85    8.27
  -2   2  -9  253.34    9.50
  -2   2  -8  142.67    6.13
  -2   2  -8  137.31    6.83
  -2   2  -8  146.09    6.90
  -2   2  -8  140.55    6.26
  -2   2  -8  147.72    7.15
  -2   2  -8  141.17    7.18
  -2   2  -8  145.93    6.79
  -2   2  -8  141.53    6.70
  -2   2  -8  133.37    6.22
  -2   2  -8  142.77    7.09
  -2   2  -7   61.91    4.05
  -2   2  -7   55.21    3.75
  -2   2  -7   51.95    3.57
  -2   2  -7   58.39    4.18
  -2   2  -7   63.79    4.27
  -2   2  -7   56.62    4.21
  -2   2  -7   57.21    4.24
  -2   2  -7   62.37    4.20
  -2   2  -7   59.78    3.97
  -2   2  -7   50.65    3.99
  -2   2  -7   49.39    3.57
  -2   2  -6 1900.57   33.88
  -2   2  -6 1924.28   33.73
  -2   2  -6 1941.96   34.77
  -2   2  -6 2062.83   33.42
  -2   2  -6 2010.57   33.39
  -2   2  -6 1986.56   35.09
  -2   2  -6 1983.96   34.51
  -2   2  -6 2045.27   34.36
  -2   2  -6 1924.51   34.85
  -2   2  -6 1954.49   34.05
  -2   2  -6 1964.57   33.95
  -2   2  -6 1772.82   33.25
  -2   2  -5   20.63    2.09
  -2   2  -5   20.89    2.09
  -2   2  -5   18.09    1.83
  -2   2  -5   20.71    2.14
  -2   2  -5   21.38    2.12
  -2   2  -5   22.18    2.06
  -2   2  -5   19.96    1.59
  -2   2  -5   21.30    2.26
  -2   2  -5   21.00    2.07
  -2   2  -4  215.41    6.38
  -2   2  -4  203.79    6.42
  -2   2  -4  200.00    5.50
  -2   2  -4  220.60    6.88
  -2   2  -4  208.55    6.92
  -2   2  -4  213.82    5.62
  -2   2  -4  204.97    5.44
  -2   2  -4  210.68    6.64
  -2   2  -3  876.94   16.35
  -2   2  -3  863.55   16.47
  -2   2  -3  858.29   15.17
  -2   2  -3  868.41   15.88
  -2   2  -3  848.59   14.86
  -2   2  -3  843.75   16.06
  -2   2  -3  858.92   15.58
  -2   2  -3  835.77   16.33
  -2   2  -3  841.46   14.99
  -2   2  -2 1510.31   23.79
  -2   2  -2 1471.83   24.56
  -2   2  -2 1466.43   24.42
  -2   2  -2 1452.19   23.41
  -2   2  -2 1506.44   23.86
  -2   2  -1 2840.48   42.00
  -2   2  -1 2767.65   41.61
  -2   2  -1 2715.49   42.12
  -2   2  -1 2765.25   42.25
  -2   2   0  729.97   13.10
  -2   2   1  635.15   11.93
  -2   2   1  616.02   11.70
  -2   2   1  624.86   11.85
  -2   2   2  712.75   13.06
  -2   2   2  691.93   12.88
  -2   2   3 1134.10   19.59
  -2   2   3 1075.29   18.51
  -2   2   3 1102.64   18.31
  -2   2   4  200.90    6.80
  -2   2   4  211.31    5.44
  -2   2   5  352.43   12.42
  -2   2   5  376.21   10.59
  -2   2   5  364.00    9.62
  -2   2   5  376.92    9.39
  -2   2   5  362.63   12.78
  -2   2   5  381.31   10.08
  -2   2   6  239.36    8.69
  -2   2   6  234.95   10.56
  -2   2   6  234.46    7.83
  -2   2   6  239.89   10.65
  -2   2   6  243.37    8.20
  -2   2   7    1.81    1.38
  -2   2   7    1.37    1.07
  -2   2   7    1.69    1.00
  -2   2   7    1.06    0.77
  -2   2   8   21.95    3.24
  -2   2   8   18.65    2.13
  -2   2   9    1.98    1.11
  -2   2   9    1.23    0.89
  -2   2   9    0.99    0.99
  -2   2  10  224.59    7.34
  -2   2  10  193.36    6.12
  -2   3 -11   46.60    2.49
  -2   3 -10  140.20    5.07
  -2   3 -10  127.79    4.96
  -2   3  -9  288.49    9.16
  -2   3  -9  279.57    9.35
  -2   3  -9  301.78   10.35
  -2   3  -9  291.14    9.66
  -2   3  -8  903.76   20.14
  -2   3  -8  946.21   21.37
  -2   3  -8  859.75   20.81
  -2   3  -8  970.47   19.93
  -2   3  -8  895.23   20.34
  -2   3  -8  855.08   18.87
  -2   3  -8  857.86   19.77
  -2   3  -8  829.28   18.71
  -2   3  -8  789.16   17.99
  -2   3  -7  441.86   12.26
  -2   3  -7  485.59   13.78
  -2   3  -7  473.13   13.91
  -2   3  -7  453.79   12.82
  -2   3  -7  439.44   12.76
  -2   3  -7  448.26   12.72
  -2   3  -7  410.95   11.92
  -2   3  -7  466.35   13.86
  -2   3  -7  454.21   12.47
  -2   3  -7  433.98   12.19
  -2   3  -6  422.55   11.65
  -2   3  -6  430.40   11.96
  -2   3  -6  419.17   12.01
  -2   3  -6  396.53   11.24
  -2   3  -6  422.58   11.56
  -2   3  -6  435.62   12.67
  -2   3  -6  429.41   12.71
  -2   3  -6  428.54   11.75
  -2   3  -5  447.67   11.38
  -2   3  -5  468.44   12.69
  -2   3  -5  434.28   11.34
  -2   3  -5  459.10   11.86
  -2   3  -5  446.04   12.02
  -2   3  -5  447.39   11.57
  -2   3  -5  438.22   10.43
  -2   3  -5  433.71   11.62
  -2   3  -5  448.86   11.80
  -2   3  -4  316.95    8.52
  -2   3  -4  334.55    8.47
  -2   3  -4  332.18    9.14
  -2   3  -4  328.82    9.48
  -2   3  -4  333.66    9.12
  -2   3  -4  314.21    7.97
  -2   3  -4  335.20    9.86
  -2   3  -4  334.66    9.37
  -2   3  -3   39.30    2.46
  -2   3  -3   38.63    2.78
  -2   3  -3   36.42    2.32
  -2   3  -3   38.95    2.44
  -2   3  -3   42.21    3.06
  -2   3  -3   39.41    2.79
  -2   3  -3   35.19    2.21
  -2   3  -2 2191.10   34.23
  -2   3  -2 2146.48   35.38
  -2   3  -2 2152.60   34.23
  -2   3  -2 2167.64   34.23
  -2   3  -2 2201.88   35.66
  -2   3  -2 2106.34   35.16
  -2   3  -1  106.04    4.04
  -2   3  -1  103.41    3.98
  -2   3  -1   98.58    3.97
  -2   3  -1   94.72    4.29
  -2   3  -1  101.09    4.34
  -2   3   0  517.08   10.98
  -2   3   1  776.77   15.01
  -2   3   1  789.97   15.08
  -2   3   1  801.99   15.19
  -2   3   2  148.38    5.02
  -2   3   2  157.60    5.18
  -2   3   3   44.05    2.59
  -2   3   3   43.77    2.54
  -2   3   4  450.40   10.86
  -2   3   4  432.98   10.30
  -2   3   4  455.85   12.71
  -2   3   4  446.00   13.75
  -2   3   4  443.20   13.99
  -2   3   4  421.16    9.48
  -2   3   4  439.43   10.64
  -2   3   5  372.70   11.01
  -2   3   5  362.66   11.78
  -2   3   5  368.78   13.07
  -2   3   5  357.37   13.02
  -2   3   5  346.20    9.23
  -2   3   5  340.77    9.60
  -2   3   6  396.92   14.48
  -2   3   6  420.60   10.52
  -2   3   6  445.34   13.69
  -2   3   6  408.74   12.21
  -2   3   6  427.02   14.97
  -2   3   6  409.22   11.17
  -2   3   7  829.74   22.47
  -2   3   7  873.56   21.22
  -2   3   7  839.14   22.15
  -2   3   8    4.73    1.51
  -2   3   8    4.94    1.72
  -2   3   8    7.12    2.06
  -2   3   9   70.24    4.65
  -2   3   9   69.77    4.35
  -2   3  10   16.24    1.56
  -2   3  10   20.59    2.20
  -2   4 -10    0.87    0.58
  -2   4  -9    2.89    1.08
  -2   4  -9    3.26    1.12
  -2   4  -9    4.59    1.24
  -2   4  -9    3.92    1.05
  -2   4  -8  498.37   13.82
  -2   4  -8  469.17   12.67
  -2   4  -8  492.79   14.23
  -2   4  -8  484.50   13.29
  -2   4  -7  206.02    8.26
  -2   4  -7  184.04    7.37
  -2   4  -7  202.45    8.02
  -2   4  -7  194.96    8.73
  -2   4  -7  200.98    8.57
  -2   4  -7  184.83    7.42
  -2   4  -6  183.78    7.41
  -2   4  -6  186.03    8.37
  -2   4  -6  180.72    7.63
  -2   4  -6  181.30    8.02
  -2   4  -6  185.50    7.70
  -2   4  -6  169.19    6.39
  -2   4  -6  169.51    6.79
  -2   4  -6  175.30    7.24
  -2   4  -5   68.89    4.31
  -2   4  -5   71.58    4.58
  -2   4  -5   65.68    4.74
  -2   4  -5   63.68    3.74
  -2   4  -5   71.35    3.98
  -2   4  -5   71.07    4.52
  -2   4  -4   35.79    3.04
  -2   4  -4   32.67    2.51
  -2   4  -4   30.46    2.29
  -2   4  -4   36.68    2.79
  -2   4  -4   29.21    2.34
  -2   4  -4   37.90    3.33
  -2   4  -4   30.02    2.90
  -2   4  -4   28.71    2.31
  -2   4  -4   33.18    3.21
  -2   4  -4   34.41    2.99
  -2   4  -4   30.16    2.42
  -2   4  -3   74.81    3.84
  -2   4  -3   68.52    3.67
  -2   4  -3   73.30    3.79
  -2   4  -3   68.36    3.77
  -2   4  -3   74.77    4.64
  -2   4  -3   63.57    4.03
  -2   4  -3   72.07    4.11
  -2   4  -3   69.09    3.65
  -2   4  -3   70.22    4.52
  -2   4  -2   82.38    4.06
  -2   4  -2   77.60    4.53
  -2   4  -2   79.43    3.95
  -2   4  -2   81.13    4.67
  -2   4  -2   76.82    3.88
  -2   4  -1  235.67    7.22
  -2   4  -1  218.46    7.44
  -2   4  -1  233.36    7.22
  -2   4  -1  223.83    7.53
  -2   4  -1  222.51    7.05
  -2   4  -1  223.98    7.88
  -2   4   0  200.07    6.62
  -2   4   1  148.04    5.61
  -2   4   1  147.26    5.55
  -2   4   2 1069.43   20.25
  -2   4   2 1064.86   20.30
  -2   4   2 1126.64   20.54
  -2   4   2 1096.43   23.64
  -2   4   2 1066.72   20.07
  -2   4   2 1079.62   20.28
  -2   4   2 1061.38   22.63
  -2   4   3   15.17    1.79
  -2   4   3   13.11    1.60
  -2   4   3   16.10    2.80
  -2   4   3   12.29    1.55
  -2   4   3   15.61    1.71
  -2   4   3   15.73    2.31
  -2   4   3   14.39    2.56
  -2   4   3    9.85    2.02
  -2   4   3   13.58    1.61
  -2   4   3   12.41    1.49
  -2   4   4  147.21    8.06
  -2   4   4  143.33    5.31
  -2   4   4  157.52    7.51
  -2   4   4  148.89    5.34
  -2   4   4  137.39    5.76
  -2   4   4  143.15    5.52
  -2   4   4  154.40    8.74
  -2   4   4  158.39    5.69
  -2   4   5  113.48    7.35
  -2   4   5  121.08    7.96
  -2   4   5  118.66    5.02
  -2   4   5  120.18    6.77
  -2   4   5  121.02    5.13
  -2   4   6  510.79   16.65
  -2   4   6  530.23   15.77
  -2   4   6  518.03   12.00
  -2   4   6  503.14   17.19
  -2   4   7   88.86    6.27
  -2   4   7  106.69    6.34
  -2   4   7   90.86    6.39
  -2   4   8   78.35    5.01
  -2   4   8   75.65    5.17
  -2   4   9   18.70    2.34
  -2   4   9   20.06    2.15
  -2   4  10   32.55    2.22
  -2   5  -9   10.70    1.65
  -2   5  -9   11.93    1.60
  -2   5  -8  146.16    6.73
  -2   5  -8  138.66    5.62
  -2   5  -8  133.59    6.48
  -2   5  -8  149.06    6.46
  -2   5  -8  125.48    4.94
  -2   5  -7  229.41    8.10
  -2   5  -7  240.70    8.56
  -2   5  -7  242.40    9.63
  -2   5  -7  242.23    9.63
  -2   5  -7  256.53    9.45
  -2   5  -6   26.57    3.18
  -2   5  -6   26.03    2.89
  -2   5  -6   28.52    3.32
  -2   5  -6   25.15    3.16
  -2   5  -6   26.69    2.82
  -2   5  -5  309.38    9.63
  -2   5  -5  311.85   10.95
  -2   5  -5  308.82   10.47
  -2   5  -5  313.46   11.51
  -2   5  -5  322.92   11.67
  -2   5  -5  295.88   10.03
  -2   5  -4  332.43   10.09
  -2   5  -4  316.37    9.36
  -2   5  -4  314.07    9.37
  -2   5  -4  313.11   10.62
  -2   5  -4  335.44   11.74
  -2   5  -4  326.68   10.50
  -2   5  -4  339.32    9.53
  -2   5  -4  333.84    9.34
  -2   5  -4  346.08   11.97
  -2   5  -4  369.57   11.55
  -2   5  -3   12.13    1.76
  -2   5  -3   11.68    1.78
  -2   5  -3   12.62    2.09
  -2   5  -3   11.07    2.07
  -2   5  -3   11.14    1.67
  -2   5  -3   10.20    1.67
  -2   5  -3   11.82    2.17
  -2   5  -3   13.41    1.87
  -2   5  -3    8.23    1.67
  -2   5  -2  477.14   12.28
  -2   5  -2  470.33   12.22
  -2   5  -2  487.57   13.55
  -2   5  -2  465.83   13.10
  -2   5  -2  496.19   12.36
  -2   5  -2  471.00   12.03
  -2   5  -2  475.99   13.91
  -2   5  -2  466.47   12.40
  -2   5  -1  232.77    8.01
  -2   5  -1  238.52    8.74
  -2   5  -1  238.73    8.11
  -2   5  -1  235.91    9.44
  -2   5  -1  234.65    7.87
  -2   5  -1  231.07    8.13
  -2   5  -1  232.48    7.97
  -2   5  -1  243.02    8.08
  -2   5   0  448.79   12.80
  -2   5   0  478.02   12.32
  -2   5   0  481.17   14.70
  -2   5   0  481.51   14.06
  -2   5   1   59.91    3.82
  -2   5   1   60.72    3.86
  -2   5   1   62.64    3.89
  -2   5   1   63.26    5.01
  -2   5   1   57.49    3.72
  -2   5   1   64.41    5.49
  -2   5   1   60.72    3.84
  -2   5   1   62.86    3.94
  -2   5   2  475.11   12.05
  -2   5   2  484.63   12.32
  -2   5   2  471.04   12.27
  -2   5   2  488.57   12.47
  -2   5   2  475.73   12.13
  -2   5   2  485.99   15.21
  -2   5   2  480.83   12.17
  -2   5   3   94.21    4.63
  -2   5   3   89.68    4.58
  -2   5   3   93.66    4.57
  -2   5   3   92.29    6.32
  -2   5   3   84.16    4.47
  -2   5   3   93.56    4.64
  -2   5   3   88.44    6.92
  -2   5   3   93.77    4.86
  -2   5   4  194.05    6.81
  -2   5   4  183.13    6.62
  -2   5   4  202.91    6.71
  -2   5   4  204.39    7.34
  -2   5   4  191.91    6.59
  -2   5   5  368.05    9.79
  -2   5   5  381.02   13.12
  -2   5   5  405.97   15.52
  -2   5   6   23.84    3.55
  -2   5   6   28.41    3.65
  -2   5   6   25.23    3.16
  -2   5   6   26.61    2.14
  -2   5   7   58.20    4.46
  -2   5   7   60.17    4.88
  -2   5   8   80.70    4.60
  -2   5   8   78.30    4.96
  -2   5   9   45.19    2.96
  -2   6  -9   51.91    2.35
  -2   6  -8  106.43    4.68
  -2   6  -8  103.31    4.81
  -2   6  -8  104.38    4.60
  -2   6  -7    9.50    1.76
  -2   6  -7   12.41    1.98
  -2   6  -7   12.22    1.94
  -2   6  -7   11.12    1.55
  -2   6  -7   15.93    2.28
  -2   6  -6  638.31   16.17
  -2   6  -6  587.85   16.17
  -2   6  -6  607.05   16.26
  -2   6  -6  586.15   14.35
  -2   6  -5  290.26    9.82
  -2   6  -5  309.25   10.65
  -2   6  -5  309.35   10.92
  -2   6  -5  321.16   11.52
  -2   6  -5  293.32   11.14
  -2   6  -4  192.06    7.07
  -2   6  -4  187.11    8.87
  -2   6  -4  216.10    9.00
  -2   6  -4  196.90    7.74
  -2   6  -4  189.67    6.86
  -2   6  -4  212.98    8.55
  -2   6  -4  202.87    7.15
  -2   6  -4  207.73    8.22
  -2   6  -4  198.60    9.04
  -2   6  -3   18.37    2.26
  -2   6  -3   17.79    2.65
  -2   6  -3   22.80    2.41
  -2   6  -3   23.50    2.49
  -2   6  -3   19.23    2.84
  -2   6  -3   18.58    2.38
  -2   6  -3   15.26    2.29
  -2   6  -3   17.58    2.45
  -2   6  -3   18.23    2.23
  -2   6  -2   83.29    4.84
  -2   6  -2   70.76    4.50
  -2   6  -2   81.75    5.43
  -2   6  -2   68.47    4.54
  -2   6  -2   82.95    4.72
  -2   6  -2   69.41    4.64
  -2   6  -2   83.11    4.71
  -2   6  -2   83.39    4.90
  -2   6  -1  150.43    6.78
  -2   6  -1  165.01    6.99
  -2   6  -1  159.59    7.60
  -2   6  -1  164.98    7.12
  -2   6  -1  170.13    6.69
  -2   6  -1  159.12    6.77
  -2   6  -1  172.13    7.04
  -2   6  -1  158.73    7.05
  -2   6  -1  162.14    8.19
  -2   6   0   30.15    2.97
  -2   6   0   30.63    3.56
  -2   6   1  828.79   18.73
  -2   6   1  806.75   18.63
  -2   6   1  834.44   18.69
  -2   6   1  827.90   18.44
  -2   6   1  840.72   21.09
  -2   6   1  836.23   18.48
  -2   6   1  829.84   22.09
  -2   6   1  839.49   18.67
  -2   6   2   31.56    2.93
  -2   6   2   30.51    2.91
  -2   6   2   34.75    3.01
  -2   6   2   33.76    3.05
  -2   6   2   31.76    2.91
  -2   6   2   32.03    3.65
  -2   6   2   34.58    3.02
  -2   6   3  114.97    5.58
  -2   6   3  127.21    5.84
  -2   6   3  131.31    7.31
  -2   6   3  131.43    5.80
  -2   6   3  132.42    5.78
  -2   6   3  133.59    5.81
  -2   6   3  131.18    5.83
  -2   6   4   29.09    2.47
  -2   6   4   33.23    2.63
  -2   6   4   30.40    2.50
  -2   6   4   31.12    2.55
  -2   6   5  136.39    7.74
  -2   6   5  126.98    4.86
  -2   6   6  168.25    8.08
  -2   6   6  150.42    4.57
  -2   6   7   61.59    4.36
  -2   6   8    8.25    1.30
  -2   6   8    7.48    1.32
  -2   7  -7   89.41    3.83
  -2   7  -6   62.71    3.75
  -2   7  -6   65.83    3.81
  -2   7  -6   62.51    3.32
  -2   7  -5  228.95    8.00
  -2   7  -5  231.79    8.34
  -2   7  -5  226.02    7.62
  -2   7  -4   27.46    2.72
  -2   7  -4   26.22    2.92
  -2   7  -4   26.48    2.25
  -2   7  -4   26.16    2.29
  -2   7  -4   32.51    2.97
  -2   7  -3  209.88    8.56
  -2   7  -3  202.01    7.14
  -2   7  -3  210.35    7.33
  -2   7  -3  202.95    7.28
  -2   7  -3  217.67    7.96
  -2   7  -3  204.70    7.96
  -2   7  -2   65.71    4.06
  -2   7  -2   71.66    4.30
  -2   7  -2   66.69    4.22
  -2   7  -2   68.76    4.51
  -2   7  -2   65.73    4.08
  -2   7  -2   67.48    4.81
  -2   7  -1  383.97   11.32
  -2   7  -1  379.78   11.07
  -2   7  -1  385.37   11.17
  -2   7   0  534.18   14.12
  -2   7   1  156.32    7.97
  -2   7   1  167.93    6.98
  -2   7   1  165.85    6.84
  -2   7   1  169.21    6.93
  -2   7   1  170.74    7.02
  -2   7   2   15.98    2.08
  -2   7   2   15.76    2.01
  -2   7   2   13.49    2.37
  -2   7   2   18.20    2.17
  -2   7   2   14.41    2.00
  -2   7   3  204.88    8.85
  -2   7   3  200.00    6.90
  -2   7   3  193.81    6.72
  -2   7   3  189.48    6.76
  -2   7   3  197.24    6.54
  -2   7   4   40.88    3.91
  -2   7   4   42.50    2.54
  -2   7   4   40.06    2.49
  -2   7   4   40.12    2.51
  -2   7   4   42.98    3.80
  -2   7   5   11.74    1.11
  -2   7   5   15.35    2.19
  -2   7   6   88.85    4.87
  -2   7   6   87.29    4.49
  -2   8  -5  406.47    8.80
  -2   8  -5  400.03    8.79
  -2   8  -4  132.54    3.99
  -2   8  -4  144.27    5.20
  -2   8  -4  146.31    4.91
  -2   8  -3   38.68    2.47
  -2   8  -3   39.78    2.48
  -2   8  -3   36.01    2.38
  -2   8  -3   38.64    2.81
  -2   8  -2    5.74    1.28
  -2   8  -2    7.22    1.29
  -2   8  -2    5.63    1.15
  -2   8  -1   73.33    3.87
  -2   8  -1   68.88    3.78
  -2   8   0    3.76    1.08
  -2   8   1  160.82    5.89
  -2   8   1  160.13    5.85
  -2   8   2   20.96    1.78
  -2   8   2   24.57    2.11
  -2   8   2   21.43    1.99
  -2   8   2   19.07    1.86
  -2   8   3   68.48    4.19
  -2   8   3   65.01    2.78
  -2   8   3   71.70    3.17
  -2   8   3   67.05    3.08
  -2   8   4   98.48    4.68
  -2   8   5   37.27    2.47
  -2   9  -3    8.21    0.84
  -2   9  -2    1.86    0.48
  -2   9  -2    2.02    0.58
  -2   9  -1  233.13    5.65
  -2   9   0   44.85    1.97
  -2   9   0   46.45    2.35
  -2   9   1  108.71    3.43
  -2   9   1  116.90    3.51
  -1  -9  -4  176.22    4.74
  -1  -9  -3   40.80    2.32
  -1  -9  -3   40.33    2.09
  -1  -9  -2   12.96    1.41
  -1  -9  -2   14.58    1.44
  -1  -9  -1   20.20    2.12
  -1  -9  -1   20.75    1.64
  -1  -9  -1   18.21    1.77
  -1  -9  -1   19.79    1.84
  -1  -9  -1   21.81    1.83
  -1  -9   0    6.30    1.24
  -1  -9   0    6.66    1.12
  -1  -9   0    6.58    1.04
  -1  -9   0    5.94    1.05
  -1  -9   0    6.62    1.00
  -1  -9   1   12.20    1.36
  -1  -9   1   12.75    1.64
  -1  -9   1   12.95    1.38
  -1  -9   2   22.19    1.92
  -1  -9   2   20.90    1.49
  -1  -8  -6   29.35    1.81
  -1  -8  -6   31.03    2.02
  -1  -8  -6   31.42    2.16
  -1  -8  -5   85.23    3.85
  -1  -8  -5   86.91    3.84
  -1  -8  -4    4.64    0.99
  -1  -8  -4    4.86    1.13
  -1  -8  -4    4.69    0.99
  -1  -8  -3   15.87    2.05
  -1  -8  -3   16.18    2.02
  -1  -8  -3   14.25    1.84
  -1  -8  -3   15.82    1.85
  -1  -8  -3   15.27    1.93
  -1  -8  -2   49.72    3.13
  -1  -8  -2   58.72    3.81
  -1  -8  -2   58.10    3.61
  -1  -8  -2   49.69    3.73
  -1  -8  -2   55.02    3.57
  -1  -8  -2   52.72    3.73
  -1  -8  -1  187.27    7.33
  -1  -8  -1  188.28    6.77
  -1  -8  -1  178.04    5.87
  -1  -8  -1  184.75    7.15
  -1  -8  -1  191.17    7.53
  -1  -8   0   94.65    4.98
  -1  -8   0   90.94    4.69
  -1  -8   0   93.24    4.41
  -1  -8   0   94.20    5.15
  -1  -8   1    6.04    1.29
  -1  -8   1    3.86    1.10
  -1  -8   1    4.78    1.19
  -1  -8   1    3.78    1.14
  -1  -8   1    3.85    1.17
  -1  -8   1    3.93    1.07
  -1  -8   1    5.86    1.55
  -1  -8   2  286.39    8.55
  -1  -8   2  274.69    8.41
  -1  -8   2  279.71    8.20
  -1  -8   2  307.80   10.31
  -1  -8   2  280.64    9.18
  -1  -8   3   86.25    4.18
  -1  -8   3   82.09    4.13
  -1  -8   3   80.20    3.78
  -1  -8   3   85.44    3.72
  -1  -8   3   90.89    5.04
  -1  -8   4   91.53    4.59
  -1  -8   4   86.66    3.72
  -1  -8   5   51.74    2.81
  -1  -8   5   46.34    2.50
  -1  -7  -8    2.25    0.68
  -1  -7  -8    1.66    0.62
  -1  -7  -7   61.72    2.75
  -1  -7  -7   64.19    3.24
  -1  -7  -6    8.46    1.37
  -1  -7  -6    7.03    1.28
  -1  -7  -6    5.97    1.35
  -1  -7  -5   22.47    2.47
  -1  -7  -5   25.56    2.50
  -1  -7  -5   21.44    2.10
  -1  -7  -5   21.08    2.43
  -1  -7  -5   22.13    2.59
  -1  -7  -4   54.17    3.43
  -1  -7  -4   53.34    4.00
  -1  -7  -4   58.06    4.16
  -1  -7  -4   51.92    3.58
  -1  -7  -4   60.49    4.17
  -1  -7  -4   60.86    4.10
  -1  -7  -3  111.42    5.96
  -1  -7  -3  118.27    5.04
  -1  -7  -3  122.60    5.88
  -1  -7  -3  125.04    6.16
  -1  -7  -2  112.15    5.89
  -1  -7  -2  114.21    6.16
  -1  -7  -2  115.64    5.97
  -1  -7  -2  119.35    5.95
  -1  -7  -2  118.05    5.42
  -1  -7  -1   45.79    3.73
  -1  -7  -1   45.60    3.16
  -1  -7  -1   46.69    3.49
  -1  -7  -1   43.83    3.63
  -1  -7  -1   40.03    3.42
  -1  -7  -1   48.84    3.82
  -1  -7   0  129.54    5.69
  -1  -7   0  113.29    5.65
  -1  -7   0  126.49    5.96
  -1  -7   0  116.96    5.88
  -1  -7   0  112.57    5.49
  -1  -7   0  127.62    6.23
  -1  -7   0  110.22    6.03
  -1  -7   1  188.44    7.46
  -1  -7   1  189.56    7.13
  -1  -7   1  185.63    7.50
  -1  -7   1  193.15    7.52
  -1  -7   1  174.27    6.63
  -1  -7   1  193.71    7.34
  -1  -7   1  188.64    8.00
  -1  -7   2  681.97   15.04
  -1  -7   2  685.68   16.01
  -1  -7   2  725.74   18.95
  -1  -7   2  717.08   17.67
  -1  -7   2  717.74   16.62
  -1  -7   2  733.60   16.70
  -1  -7   3  208.81    9.06
  -1  -7   3  196.67    7.04
  -1  -7   3  207.81    7.66
  -1  -7   3  219.80    7.89
  -1  -7   3  207.95    8.42
  -1  -7   3  209.94    7.43
  -1  -7   3  203.92    7.05
  -1  -7   4   26.24    3.09
  -1  -7   4   23.38    2.31
  -1  -7   4   27.08    2.47
  -1  -7   4   19.74    1.96
  -1  -7   4   19.86    1.87
  -1  -7   4   23.06    2.67
  -1  -7   5   34.59    3.22
  -1  -7   5   34.29    2.72
  -1  -7   5   33.61    2.40
  -1  -7   5   35.46    2.74
  -1  -7   5   37.42    3.24
  -1  -7   6    6.21    1.05
  -1  -7   6    4.50    1.16
  -1  -7   6    5.35    1.43
  -1  -7   6    5.13    1.09
  -1  -7   7  123.04    5.18
  -1  -6  -9   36.62    2.24
  -1  -6  -9   37.24    2.35
  -1  -6  -8    5.31    1.21
  -1  -6  -8    4.70    0.98
  -1  -6  -8    4.41    1.06
  -1  -6  -7   61.69    3.67
  -1  -6  -7   61.60    3.33
  -1  -6  -7   68.05    3.62
  -1  -6  -7   67.83    4.33
  -1  -6  -7   69.53    4.31
  -1  -6  -6   22.76    2.48
  -1  -6  -6   24.72    2.66
  -1  -6  -6   25.94    2.82
  -1  -6  -6   27.14    2.61
  -1  -6  -6   27.31    3.06
  -1  -6  -6   26.77    2.51
  -1  -6  -5   26.93    2.77
  -1  -6  -5   23.00    2.54
  -1  -6  -5   18.93    2.40
  -1  -6  -5   20.31    2.33
  -1  -6  -5   21.42    2.26
  -1  -6  -5   21.87    2.56
  -1  -6  -5   19.38    2.68
  -1  -6  -5   19.11    2.66
  -1  -6  -5   22.38    2.70
  -1  -6  -4   97.49    5.39
  -1  -6  -4   97.93    5.46
  -1  -6  -4  102.73    5.72
  -1  -6  -4   91.75    5.11
  -1  -6  -4   96.87    5.76
  -1  -6  -4   95.69    4.95
  -1  -6  -4   98.36    5.78
  -1  -6  -3   83.32    4.98
  -1  -6  -3   83.92    5.23
  -1  -6  -3   82.04    4.18
  -1  -6  -3   95.36    5.06
  -1  -6  -3   90.07    5.06
  -1  -6  -2 2469.61   42.13
  -1  -6  -2 2541.32   41.72
  -1  -6  -1 1279.81   24.89
  -1  -6  -1 1252.82   23.31
  -1  -6   0   15.46    2.00
  -1  -6   0   17.10    1.82
  -1  -6   0   17.47    2.19
  -1  -6   0   16.80    2.01
  -1  -6   0   14.93    1.88
  -1  -6   1   29.77    2.55
  -1  -6   1   31.30    2.44
  -1  -6   1   32.40    2.57
  -1  -6   1   30.45    2.48
  -1  -6   1   35.91    2.92
  -1  -6   1   31.15    2.82
  -1  -6   1   31.31    2.66
  -1  -6   1   30.56    2.75
  -1  -6   1   31.64    3.06
  -1  -6   1   29.91    2.65
  -1  -6   2   21.65    2.18
  -1  -6   2   17.11    1.92
  -1  -6   2   15.51    1.98
  -1  -6   2   19.80    2.19
  -1  -6   2   17.71    2.10
  -1  -6   2   22.90    2.48
  -1  -6   2   23.25    2.48
  -1  -6   2   19.54    2.05
  -1  -6   2   19.77    2.49
  -1  -6   2   17.64    2.09
  -1  -6   3  326.74   11.71
  -1  -6   3  303.73    9.43
  -1  -6   3  318.90    9.76
  -1  -6   3  308.75    9.76
  -1  -6   3  308.62    9.72
  -1  -6   3  324.81   10.16
  -1  -6   3  312.16   10.74
  -1  -6   4  253.26   10.25
  -1  -6   4  247.39    8.53
  -1  -6   4  244.20    9.46
  -1  -6   4  245.93    8.71
  -1  -6   4  246.00    8.29
  -1  -6   4  254.75    8.72
  -1  -6   4  242.23    7.68
  -1  -6   4  239.12    7.40
  -1  -6   4  249.24    8.67
  -1  -6   4  240.52    8.58
  -1  -6   5   56.07    3.84
  -1  -6   5   61.83    3.58
  -1  -6   5   61.55    4.06
  -1  -6   5   61.51    3.63
  -1  -6   5   66.79    5.00
  -1  -6   5   63.10    3.99
  -1  -6   5   64.43    4.68
  -1  -6   6    8.45    2.14
  -1  -6   6    8.27    1.84
  -1  -6   6   10.01    1.62
  -1  -6   6   10.02    1.48
  -1  -6   6    6.64    1.57
  -1  -6   6    8.42    1.40
  -1  -6   7   69.32    3.45
  -1  -6   7   69.60    3.95
  -1  -6   7   71.14    4.30
  -1  -6   8   18.38    2.20
  -1  -6   8   14.43    1.43
  -1  -5 -10   32.22    1.96
  -1  -5 -10   28.28    1.95
  -1  -5  -9   15.41    1.82
  -1  -5  -9   13.36    1.44
  -1  -5  -9   13.91    1.81
  -1  -5  -9   15.30    1.97
  -1  -5  -8   95.49    4.58
  -1  -5  -8   90.64    5.22
  -1  -5  -8  100.04    5.22
  -1  -5  -8   94.60    5.16
  -1  -5  -7   44.07    2.97
  -1  -5  -7   42.80    3.35
  -1  -5  -7   37.35    3.69
  -1  -5  -7   44.74    3.12
  -1  -5  -7   40.80    3.16
  -1  -5  -7   47.16    4.08
  -1  -5  -7   42.72    3.67
  -1  -5  -6  737.76   16.78
  -1  -5  -6  715.43   18.31
  -1  -5  -6  712.49   16.93
  -1  -5  -6  703.91   15.82
  -1  -5  -6  724.75   16.38
  -1  -5  -6  751.95   18.60
  -1  -5  -6  731.52   18.45
  -1  -5  -6  786.34   18.26
  -1  -5  -5  369.30   10.76
  -1  -5  -5  363.79   10.89
  -1  -5  -5  347.06   11.25
  -1  -5  -5  352.86   10.46
  -1  -5  -5  355.32   10.12
  -1  -5  -5  354.81    9.72
  -1  -5  -5  373.24   11.82
  -1  -5  -5  357.74   11.60
  -1  -5  -4   40.68    3.23
  -1  -5  -4   44.52    3.42
  -1  -5  -4   37.89    3.20
  -1  -5  -4   35.81    2.92
  -1  -5  -4   38.62    2.92
  -1  -5  -4   43.22    3.61
  -1  -5  -3  515.31   12.96
  -1  -5  -3  511.82   12.62
  -1  -5  -3  503.18   11.32
  -1  -5  -3  490.82   12.34
  -1  -5  -3  491.87   12.24
  -1  -5  -3  538.88   13.67
  -1  -5  -3  517.36   12.98
  -1  -5  -2  499.48   11.55
  -1  -5  -2  524.49   12.63
  -1  -5  -1  569.48   11.65
  -1  -5  -1  596.52   12.55
  -1  -5  -1  586.01   13.48
  -1  -5  -1  600.88   12.61
  -1  -5   0  507.21   10.70
  -1  -5   0  512.08   11.80
  -1  -5   0  533.26   12.19
  -1  -5   0  506.62   10.95
  -1  -5   0  523.15   11.29
  -1  -5   0  504.77   11.75
  -1  -5   0  531.50   12.41
  -1  -5   1  731.04   14.57
  -1  -5   1  727.86   14.94
  -1  -5   1  705.60   14.93
  -1  -5   1  740.50   14.86
  -1  -5   1  725.26   15.40
  -1  -5   1  727.00   15.38
  -1  -5   1  734.29   15.43
  -1  -5   1  706.19   14.75
  -1  -5   1  759.41   16.45
  -1  -5   2  246.59    7.41
  -1  -5   2  224.63    7.50
  -1  -5   2  223.67    6.77
  -1  -5   2  236.49    7.48
  -1  -5   2  238.80    8.20
  -1  -5   2  232.67    7.30
  -1  -5   2  228.31    7.65
  -1  -5   2  229.91    6.97
  -1  -5   2  241.82    7.53
  -1  -5   2  224.81    7.37
  -1  -5   3   88.54    4.48
  -1  -5   3   89.72    4.59
  -1  -5   3   87.57    4.57
  -1  -5   3   88.00    4.54
  -1  -5   3   83.54    3.95
  -1  -5   3   89.76    4.08
  -1  -5   3   87.94    5.05
  -1  -5   3   88.36    5.51
  -1  -5   4   95.34    5.90
  -1  -5   4   82.11    5.11
  -1  -5   4   91.52    4.94
  -1  -5   4   91.69    4.80
  -1  -5   4   90.89    4.80
  -1  -5   4   91.51    4.50
  -1  -5   4   93.87    4.90
  -1  -5   4   93.82    4.95
  -1  -5   4   91.54    4.89
  -1  -5   5  493.04   15.09
  -1  -5   5  506.06   13.18
  -1  -5   5  489.98   13.33
  -1  -5   5  492.22   11.90
  -1  -5   5  474.83   12.86
  -1  -5   5  500.83   12.78
  -1  -5   5  494.06   14.33
  -1  -5   5  493.27   12.57
  -1  -5   5  489.59   13.09
  -1  -5   6  220.26    9.55
  -1  -5   6  213.71    7.94
  -1  -5   6  203.81    7.27
  -1  -5   6  218.18    9.06
  -1  -5   6  218.88    7.84
  -1  -5   7   19.36    2.68
  -1  -5   7   22.91    2.40
  -1  -5   7   21.26    2.31
  -1  -5   7   23.20    2.06
  -1  -5   7   21.02    2.57
  -1  -5   7   19.20    2.58
  -1  -5   7   23.56    3.23
  -1  -5   8   18.72    2.27
  -1  -5   8   17.25    1.89
  -1  -5   8   24.45    3.05
  -1  -5   8   18.21    2.06
  -1  -5   8   18.97    2.37
  -1  -5   9   33.69    2.92
  -1  -5   9   30.26    2.07
  -1  -4 -11   33.81    2.02
  -1  -4 -11   29.23    1.88
  -1  -4 -10   32.37    2.70
  -1  -4 -10   30.97    2.29
  -1  -4  -9   96.80    4.87
  -1  -4  -9   97.32    4.99
  -1  -4  -9   93.92    4.22
  -1  -4  -9  100.20    5.03
  -1  -4  -9  103.29    5.53
  -1  -4  -9   99.70    5.42
  -1  -4  -8  274.37    9.39
  -1  -4  -8  265.56    9.84
  -1  -4  -8  259.01    8.43
  -1  -4  -8  261.59   10.34
  -1  -4  -8  267.34   10.09
  -1  -4  -8  275.34    9.49
  -1  -4  -7  480.79   12.32
  -1  -4  -7  485.40   12.67
  -1  -4  -7  526.33   15.29
  -1  -4  -7  501.76   12.17
  -1  -4  -7  505.08   12.93
  -1  -4  -7  481.83   14.34
  -1  -4  -7  523.61   14.05
  -1  -4  -6  286.42    8.77
  -1  -4  -6  255.14    7.90
  -1  -4  -6  260.59    8.60
  -1  -4  -6  270.77   10.06
  -1  -4  -6  270.08    8.38
  -1  -4  -6  252.09    7.58
  -1  -4  -6  277.64    9.90
  -1  -4  -6  282.93    9.51
  -1  -4  -5   12.37    1.89
  -1  -4  -5   10.26    1.57
  -1  -4  -5    9.47    1.76
  -1  -4  -5   11.47    1.68
  -1  -4  -5   10.45    1.82
  -1  -4  -5    9.15    1.49
  -1  -4  -5   12.29    1.58
  -1  -4  -5    8.76    1.30
  -1  -4  -5   12.03    1.92
  -1  -4  -4  325.12    9.01
  -1  -4  -4  304.13    8.86
  -1  -4  -4  307.08    9.48
  -1  -4  -4  301.73    8.20
  -1  -4  -4  299.70    8.36
  -1  -4  -4  304.58    9.51
  -1  -4  -4  314.49    9.61
  -1  -4  -3  328.82    7.40
  -1  -4  -3  357.14    8.97
  -1  -4  -3  354.52    9.69
  -1  -4  -3  346.25    9.14
  -1  -4  -3  331.75    9.25
  -1  -4  -3  337.68    9.08
  -1  -4  -3  334.14    8.66
  -1  -4  -2 1325.33   23.08
  -1  -4  -2 1291.89   20.27
  -1  -4  -2 1360.29   22.81
  -1  -4  -1 1164.84   20.37
  -1  -4  -1 1116.71   18.13
  -1  -4  -1 1148.34   18.73
  -1  -4  -1 1136.49   18.31
  -1  -4  -1 1158.28   19.61
  -1  -4  -1 1144.73   19.41
  -1  -4   0 1061.68   18.23
  -1  -4   0 1081.78   18.10
  -1  -4   0 1076.44   18.36
  -1  -4   0 1086.61   19.01
  -1  -4   0 1097.35   19.45
  -1  -4   0 1086.19   18.04
  -1  -4   1 1117.73   19.98
  -1  -4   1 1149.83   19.70
  -1  -4   1 1126.20   20.13
  -1  -4   1 1113.78   19.84
  -1  -4   1 1159.11   19.76
  -1  -4   1 1123.16   19.43
  -1  -4   2  890.63   17.07
  -1  -4   2  903.30   16.88
  -1  -4   2  888.33   16.42
  -1  -4   2  894.75   16.93
  -1  -4   2  845.23   16.04
  -1  -4   2  927.52   17.11
  -1  -4   2  915.62   16.78
  -1  -4   2  872.29   17.64
  -1  -4   3  160.81    6.85
  -1  -4   3  148.90    5.65
  -1  -4   3  163.14    5.73
  -1  -4   3  159.76    5.81
  -1  -4   3  154.04    5.62
  -1  -4   3  147.38    4.82
  -1  -4   3  156.52    5.70
  -1  -4   3  160.43    5.11
  -1  -4   3  153.78    5.70
  -1  -4   3  157.85    6.22
  -1  -4   4  146.13    6.96
  -1  -4   4  143.14    5.85
  -1  -4   4  149.19    5.96
  -1  -4   4  155.65    6.60
  -1  -4   4  144.44    5.68
  -1  -4   4  150.34    5.88
  -1  -4   4  140.58    5.02
  -1  -4   4  148.22    5.88
  -1  -4   5  939.40   22.04
  -1  -4   5  888.96   17.60
  -1  -4   5  944.49   19.19
  -1  -4   5  903.06   18.68
  -1  -4   5  967.21   19.45
  -1  -4   5 1013.95   21.29
  -1  -4   6  724.43   16.52
  -1  -4   6  678.84   18.58
  -1  -4   6  697.74   16.53
  -1  -4   6  682.49   15.99
  -1  -4   6  717.50   15.32
  -1  -4   6  724.11   16.53
  -1  -4   6  653.75   15.16
  -1  -4   6  700.49   16.32
  -1  -4   6  693.81   18.02
  -1  -4   7    5.72    1.91
  -1  -4   7    6.52    1.41
  -1  -4   7    7.02    1.50
  -1  -4   7    5.93    1.38
  -1  -4   7    5.89    1.36
  -1  -4   7    6.65    1.17
  -1  -4   7    7.16    1.37
  -1  -4   7    7.20    1.90
  -1  -4   7    6.35    1.60
  -1  -4   7    7.27    1.78
  -1  -4   8   63.03    5.22
  -1  -4   8   57.63    4.47
  -1  -4   8   58.26    3.72
  -1  -4   8   63.14    3.99
  -1  -4   8   59.31    4.17
  -1  -4   8   64.44    4.73
  -1  -4   9   17.00    2.09
  -1  -4   9   18.66    1.95
  -1  -4   9   18.31    2.60
  -1  -4  10   19.34    2.02
  -1  -3 -11    0.62    0.52
  -1  -3 -11    0.82    0.63
  -1  -3 -11    0.88    0.66
  -1  -3 -10    5.39    1.18
  -1  -3 -10    6.26    1.38
  -1  -3 -10    3.23    0.93
  -1  -3  -9  113.76    5.45
  -1  -3  -9  104.98    5.90
  -1  -3  -9  108.20    4.78
  -1  -3  -9  106.13    6.26
  -1  -3  -9  108.30    5.43
  -1  -3  -9  104.28    5.33
  -1  -3  -8  268.29    9.22
  -1  -3  -8  283.28    9.50
  -1  -3  -8  267.75    9.98
  -1  -3  -8  275.98    8.69
  -1  -3  -8  267.71   10.07
  -1  -3  -8  266.09    9.30
  -1  -3  -7   18.87    2.02
  -1  -3  -7   18.78    2.19
  -1  -3  -7   20.55    2.20
  -1  -3  -7   17.44    2.60
  -1  -3  -7   20.06    2.40
  -1  -3  -7   21.71    2.11
  -1  -3  -7   17.89    2.42
  -1  -3  -7   24.74    2.84
  -1  -3  -7   20.78    2.50
  -1  -3  -6  155.14    5.45
  -1  -3  -6  164.24    6.02
  -1  -3  -6  171.91    6.23
  -1  -3  -6  169.69    7.49
  -1  -3  -6  164.92    5.91
  -1  -3  -6  169.47    7.18
  -1  -3  -6  158.14    6.52
  -1  -3  -5  138.13    4.84
  -1  -3  -5  141.58    5.45
  -1  -3  -5  148.00    5.36
  -1  -3  -5  155.20    6.00
  -1  -3  -5  151.35    4.87
  -1  -3  -5  149.14    5.51
  -1  -3  -5  156.24    6.36
  -1  -3  -5  153.26    6.59
  -1  -3  -4  172.04    5.61
  -1  -3  -4  172.94    5.96
  -1  -3  -4  163.54    5.55
  -1  -3  -4  162.39    6.15
  -1  -3  -4  158.03    4.97
  -1  -3  -4  163.09    6.00
  -1  -3  -4  171.65    6.13
  -1  -3  -3  305.71    7.77
  -1  -3  -3  319.68    8.41
  -1  -3  -3  319.86    7.57
  -1  -3  -3  314.54    7.42
  -1  -3  -3  321.78    7.87
  -1  -3  -3  314.79    8.25
  -1  -3  -3  301.18    6.37
  -1  -3  -2  822.92   15.03
  -1  -3  -2  781.86   12.49
  -1  -3  -2  830.80   14.69
  -1  -3  -1  695.85   11.67
  -1  -3  -1  730.12   13.20
  -1  -3  -1  732.45   11.99
  -1  -3  -1  700.50   13.04
  -1  -3  -1  730.39   12.03
  -1  -3  -1  755.58   13.34
  -1  -3   0   22.97    1.37
  -1  -3   0   23.65    1.46
  -1  -3   0   24.06    1.50
  -1  -3   0   24.69    1.46
  -1  -3   0   23.96    1.62
  -1  -3   0   22.73    1.52
  -1  -3   1 2088.33   32.15
  -1  -3   1 2092.96   31.56
  -1  -3   1 2073.56   32.05
  -1  -3   1 2084.41   32.35
  -1  -3   1 2157.22   32.01
  -1  -3   1 2131.44   32.09
  -1  -3   2  848.62   15.33
  -1  -3   2  871.01   14.80
  -1  -3   2  836.85   15.31
  -1  -3   2  861.44   15.51
  -1  -3   2  874.58   14.63
  -1  -3   2  838.95   15.32
  -1  -3   2  859.26   16.00
  -1  -3   3  237.77    6.20
  -1  -3   3  256.89    6.99
  -1  -3   3  237.58    5.59
  -1  -3   3  255.16    6.87
  -1  -3   3  252.88    6.89
  -1  -3   3  244.92    7.33
  -1  -3   3  250.88    6.10
  -1  -3   3  249.40    6.74
  -1  -3   4  224.79    7.48
  -1  -3   4  220.85    6.49
  -1  -3   4  220.14    6.64
  -1  -3   4  215.88    6.47
  -1  -3   4  216.90    6.01
  -1  -3   4  227.30    6.90
  -1  -3   4  215.83    6.64
  -1  -3   5  623.48   16.24
  -1  -3   5  657.70   13.95
  -1  -3   5  662.85   14.30
  -1  -3   5  622.77   13.91
  -1  -3   5  624.47   14.21
  -1  -3   5  650.18   14.40
  -1  -3   5  646.26   14.03
  -1  -3   5  619.28   13.38
  -1  -3   5  600.53   12.92
  -1  -3   5  654.29   15.71
  -1  -3   6   44.50    3.26
  -1  -3   6   45.60    3.31
  -1  -3   6   43.93    4.06
  -1  -3   6   42.44    3.19
  -1  -3   6   49.72    3.50
  -1  -3   6   45.49    4.47
  -1  -3   6   47.52    3.23
  -1  -3   6   40.54    2.71
  -1  -3   6   42.67    3.28
  -1  -3   6   47.36    3.85
  -1  -3   6   49.52    4.03
  -1  -3   6   45.20    3.35
  -1  -3   7   79.41    5.68
  -1  -3   7   86.85    4.72
  -1  -3   7   90.70    5.06
  -1  -3   7   89.75    4.74
  -1  -3   7   86.49    4.92
  -1  -3   7   83.58    4.42
  -1  -3   7   81.04    4.66
  -1  -3   7   86.63    5.76
  -1  -3   7   85.79    5.44
  -1  -3   7   96.06    6.77
  -1  -3   8    8.73    1.52
  -1  -3   8   10.25    1.91
  -1  -3   8    9.16    1.64
  -1  -3   8   11.56    2.25
  -1  -3   8    9.24    2.00
  -1  -3   8   11.53    2.51
  -1  -3   9   85.25    5.24
  -1  -3   9   92.49    5.57
  -1  -3   9   87.70    5.97
  -1  -3  10   11.16    1.85
  -1  -3  10   12.08    1.45
  -1  -3  11   18.35    1.58
  -1  -2 -11   28.83    2.40
  -1  -2 -11   25.03    2.24
  -1  -2 -11   24.00    2.03
  -1  -2 -10   64.04    3.70
  -1  -2 -10   65.22    4.45
  -1  -2  -9  337.86   10.15
  -1  -2  -9  329.69    9.12
  -1  -2  -9  304.39   11.13
  -1  -2  -9  323.37   11.31
  -1  -2  -9  337.43   11.31
  -1  -2  -9  315.43    9.92
  -1  -2  -8  184.21    7.22
  -1  -2  -8  174.88    6.58
  -1  -2  -8  187.61    8.46
  -1  -2  -8  173.40    7.10
  -1  -2  -8  188.98    8.27
  -1  -2  -8  188.41    8.10
  -1  -2  -8  166.69    6.95
  -1  -2  -8  176.59    7.88
  -1  -2  -8  176.07    7.15
  -1  -2  -7    7.79    1.45
  -1  -2  -7    6.73    1.54
  -1  -2  -7    8.29    1.46
  -1  -2  -7    6.89    1.24
  -1  -2  -7    6.69    1.64
  -1  -2  -7    6.83    1.41
  -1  -2  -7    6.93    1.62
  -1  -2  -7    8.29    1.56
  -1  -2  -7    7.11    1.21
  -1  -2  -6   65.81    3.37
  -1  -2  -6   61.72    3.45
  -1  -2  -6   53.67    3.10
  -1  -2  -6   58.73    3.59
  -1  -2  -6   54.55    3.04
  -1  -2  -6   62.10    3.52
  -1  -2  -6   59.62    3.85
  -1  -2  -6   62.66    3.70
  -1  -2  -5   61.04    3.10
  -1  -2  -5   64.91    3.11
  -1  -2  -5   66.11    2.79
  -1  -2  -5   61.56    3.20
  -1  -2  -5   65.24    3.53
  -1  -2  -5   68.09    3.22
  -1  -2  -4  537.81   10.61
  -1  -2  -4  541.43   10.81
  -1  -2  -4  533.53   12.02
  -1  -2  -4  509.69   10.47
  -1  -2  -4  513.43   10.04
  -1  -2  -4  517.67   11.55
  -1  -2  -4  507.52   11.11
  -1  -2  -4  527.67   10.70
  -1  -2  -3   59.21    2.62
  -1  -2  -3   57.87    2.97
  -1  -2  -3   59.88    2.47
  -1  -2  -3   60.92    2.45
  -1  -2  -3   58.59    2.85
  -1  -2  -3   62.27    2.69
  -1  -2  -3   65.64    3.00
  -1  -2  -2  568.55    8.95
  -1  -2  -2  572.67   10.37
  -1  -2  -2  563.43   10.88
  -1  -2  -2  549.21    8.54
  -1  -2  -2  546.54   10.16
  -1  -2  -2  531.96   10.27
  -1  -2  -2  576.89   10.58
  -1  -2  -1 3205.52   46.59
  -1  -2  -1 3269.70   47.02
  -1  -2  -1 3230.46   45.63
  -1  -2  -1 3220.57   46.68
  -1  -2   0 7285.51  101.37
  -1  -2   1 4531.21   64.30
  -1  -2   1 4668.34   64.09
  -1  -2   1 4602.98   64.41
  -1  -2   1 4562.92   64.15
  -1  -2   2  176.46    4.48
  -1  -2   2  181.03    4.77
  -1  -2   2  178.21    4.70
  -1  -2   2  176.92    3.99
  -1  -2   2  176.93    4.01
  -1  -2   2  180.60    4.91
  -1  -2   3  178.30    5.51
  -1  -2   3  172.53    4.89
  -1  -2   3  184.02    3.69
  -1  -2   3  167.83    4.83
  -1  -2   3  165.96    4.35
  -1  -2   3  171.67    4.97
  -1  -2   4  170.00    5.31
  -1  -2   4  166.98    5.31
  -1  -2   4  160.75    5.27
  -1  -2   4  161.89    5.07
  -1  -2   4  169.44    5.03
  -1  -2   4  161.19    4.72
  -1  -2   4  163.71    5.92
  -1  -2   4  159.63    3.85
  -1  -2   5 1811.07   30.72
  -1  -2   5 1878.61   30.37
  -1  -2   5 1801.96   30.19
  -1  -2   5 1757.73   28.93
  -1  -2   5 1925.60   29.95
  -1  -2   5 1749.71   30.07
  -1  -2   5 1757.06   29.41
  -1  -2   5 1834.10   30.37
  -1  -2   5 1896.27   32.26
  -1  -2   6  256.84    8.39
  -1  -2   6  260.59   10.02
  -1  -2   6  274.93    8.17
  -1  -2   6  247.59    8.97
  -1  -2   6  252.80    8.08
  -1  -2   6  269.54   10.82
  -1  -2   6  279.31    8.26
  -1  -2   6  270.03    8.02
  -1  -2   6  262.75    7.66
  -1  -2   6  259.75    7.69
  -1  -2   6  263.83    8.54
  -1  -2   6  267.04    9.54
  -1  -2   7   13.18    1.96
  -1  -2   7   17.09    2.72
  -1  -2   7   18.33    2.05
  -1  -2   7   19.25    2.26
  -1  -2   7   19.00    2.20
  -1  -2   7   16.81    1.99
  -1  -2   7   14.99    1.73
  -1  -2   7   15.42    2.78
  -1  -2   7   15.58    2.34
  -1  -2   7   18.39    2.68
  -1  -2   7   18.30    2.31
  -1  -2   8   96.36    6.80
  -1  -2   8   93.01    5.16
  -1  -2   8   95.74    5.43
  -1  -2   8   88.46    6.09
  -1  -2   8   89.72    4.50
  -1  -2   8   92.11    4.99
  -1  -2   8   91.80    6.06
  -1  -2   9   26.67    3.22
  -1  -2   9   33.26    2.91
  -1  -2   9   32.45    2.78
  -1  -2   9   31.17    3.69
  -1  -2   9   33.61    3.58
  -1  -2  10  147.54    6.94
  -1  -2  10  144.06    5.40
  -1  -2  11    5.97    0.95
  -1  -2  11    7.05    1.27
  -1  -1 -12   60.88    2.69
  -1  -1 -11    3.56    1.14
  -1  -1 -11    2.92    1.03
  -1  -1 -11    3.47    0.93
  -1  -1 -11    3.14    0.89
  -1  -1 -10   11.46    2.03
  -1  -1 -10    9.51    1.55
  -1  -1 -10   13.24    2.10
  -1  -1 -10   11.54    1.85
  -1  -1 -10   10.68    1.94
  -1  -1  -9    5.89    1.49
  -1  -1  -9    6.69    1.48
  -1  -1  -9    8.01    1.77
  -1  -1  -9    8.07    1.78
  -1  -1  -9    6.58    1.66
  -1  -1  -9    7.83    1.84
  -1  -1  -9    7.64    1.49
  -1  -1  -8  759.35   17.98
  -1  -1  -8  768.72   17.13
  -1  -1  -8  748.75   16.19
  -1  -1  -8  769.48   17.18
  -1  -1  -8  787.44   18.92
  -1  -1  -8  778.98   18.88
  -1  -1  -8  783.22   18.82
  -1  -1  -8  745.84   18.41
  -1  -1  -8  780.27   17.28
  -1  -1  -7  185.97    6.00
  -1  -1  -7  183.70    7.19
  -1  -1  -7  195.37    6.95
  -1  -1  -7  190.05    7.61
  -1  -1  -7  190.13    6.50
  -1  -1  -7  185.91    5.95
  -1  -1  -7  192.03    7.86
  -1  -1  -7  185.77    6.81
  -1  -1  -7  196.32    7.80
  -1  -1  -7  187.02    7.51
  -1  -1  -7  195.43    7.02
  -1  -1  -6   54.07    3.32
  -1  -1  -6   50.76    2.77
  -1  -1  -6   42.10    3.17
  -1  -1  -6   47.95    2.89
  -1  -1  -6   45.28    2.62
  -1  -1  -6   46.94    3.47
  -1  -1  -6   46.99    3.03
  -1  -1  -6   49.89    3.39
  -1  -1  -6   48.16    3.39
  -1  -1  -6   51.10    3.17
  -1  -1  -5 1679.38   28.28
  -1  -1  -5 1713.73   27.52
  -1  -1  -5 1725.99   28.66
  -1  -1  -5 1725.16   27.52
  -1  -1  -5 1752.39   29.79
  -1  -1  -5 1742.40   25.92
  -1  -1  -5 1711.94   27.37
  -1  -1  -5 1723.14   26.33
  -1  -1  -5 1727.73   29.08
  -1  -1  -5 1770.03   29.22
  -1  -1  -5 1692.65   28.37
  -1  -1  -4  251.26    6.26
  -1  -1  -4  243.41    5.83
  -1  -1  -4  218.83    4.18
  -1  -1  -4  231.71    5.74
  -1  -1  -4  241.66    6.76
  -1  -1  -4  231.95    4.75
  -1  -1  -4  238.95    5.25
  -1  -1  -4  241.98    6.20
  -1  -1  -3  141.35    4.01
  -1  -1  -3  140.62    3.86
  -1  -1  -3  143.75    3.91
  -1  -1  -3  137.94    2.93
  -1  -1  -3  140.61    3.61
  -1  -1  -3  143.77    4.24
  -1  -1  -3  136.82    4.10
  -1  -1  -3  137.53    3.02
  -1  -1  -2  235.66    5.01
  -1  -1  -2  220.23    4.87
  -1  -1  -2  230.64    4.95
  -1  -1  -2  226.59    5.35
  -1  -1  -2  219.63    4.73
  -1  -1  -2  230.85    5.04
  -1  -1  -2  236.27    5.09
  -1  -1  -1 4121.79   56.82
  -1  -1  -1 4039.30   56.14
  -1  -1   0 3006.49   42.72
  -1  -1   0 3045.31   42.89
  -1  -1   0 3085.33   43.01
  -1  -1   0 3024.21   43.37
  -1  -1   1 6314.00   88.08
  -1  -1   2 6421.64   88.54
  -1  -1   2 6310.62   89.71
  -1  -1   3  560.81   10.46
  -1  -1   3  555.73   10.46
  -1  -1   3  587.25    9.18
  -1  -1   3  567.08   10.30
  -1  -1   3  562.51    9.94
  -1  -1   3  548.85   10.79
  -1  -1   3  556.50   11.16
  -1  -1   4 1925.79   29.62
  -1  -1   4 1912.70   29.59
  -1  -1   4 1893.26   30.34
  -1  -1   4 1871.57   26.72
  -1  -1   4 1873.57   29.23
  -1  -1   4 1927.02   29.40
  -1  -1   4 1884.16   31.25
  -1  -1   5  233.74    7.03
  -1  -1   5  226.82    6.32
  -1  -1   5  214.58    6.83
  -1  -1   5  223.04    6.31
  -1  -1   5  234.50    6.55
  -1  -1   5  212.51    7.50
  -1  -1   5  228.81    6.11
  -1  -1   6  496.91   12.37
  -1  -1   6  500.66   12.48
  -1  -1   6  460.43   13.84
  -1  -1   6  512.57   11.35
  -1  -1   6  529.26   12.32
  -1  -1   6  484.72   11.11
  -1  -1   6  501.03   10.73
  -1  -1   6  497.48   11.75
  -1  -1   6  508.14   15.06
  -1  -1   6  486.46   13.03
  -1  -1   6  507.42   13.74
  -1  -1   6  482.35   12.27
  -1  -1   7   92.45    5.14
  -1  -1   7   92.60    5.08
  -1  -1   7   74.64    5.47
  -1  -1   7   86.18    4.74
  -1  -1   7   89.97    4.96
  -1  -1   7   94.94    4.28
  -1  -1   7   82.35    4.41
  -1  -1   7   95.29    6.52
  -1  -1   7   90.40    5.81
  -1  -1   7   81.43    5.19
  -1  -1   8  265.95    9.46
  -1  -1   8  263.86   10.93
  -1  -1   8  269.71    9.08
  -1  -1   8  280.35    9.59
  -1  -1   8  261.18   11.48
  -1  -1   8  261.83   10.69
  -1  -1   9  117.46    7.27
  -1  -1   9  114.04    6.77
  -1  -1   9  119.62    5.54
  -1  -1   9  126.61    6.15
  -1  -1   9  116.15    6.85
  -1  -1   9  117.56    5.86
  -1  -1  10   88.13    5.42
  -1  -1  11   20.29    1.82
  -1  -1  11   25.79    2.49
  -1   0 -12  151.98    4.56
  -1   0 -11    7.03    1.44
  -1   0 -11    9.76    1.59
  -1   0 -11    8.23    1.33
  -1   0 -11    6.28    1.13
  -1   0 -11    8.10    1.48
  -1   0 -10  137.35    5.49
  -1   0 -10  153.70    6.90
  -1   0 -10  153.96    6.85
  -1   0 -10  139.50    6.32
  -1   0 -10  136.72    6.09
  -1   0 -10  152.19    6.87
  -1   0 -10  131.64    6.63
  -1   0  -9    3.18    1.19
  -1   0  -9    3.18    1.14
  -1   0  -9    2.24    1.14
  -1   0  -9    3.82    1.41
  -1   0  -9    3.76    1.40
  -1   0  -9    2.63    1.24
  -1   0  -9    1.59    0.90
  -1   0  -9    2.51    1.16
  -1   0  -9    4.01    1.45
  -1   0  -9    3.45    1.09
  -1   0  -8   44.01    3.70
  -1   0  -8   53.22    3.62
  -1   0  -8   45.72    3.15
  -1   0  -8   43.16    3.59
  -1   0  -8   52.44    4.19
  -1   0  -8   47.65    3.98
  -1   0  -8   39.81    3.12
  -1   0  -8   47.20    3.87
  -1   0  -7  151.16    6.51
  -1   0  -7  146.14    5.84
  -1   0  -7  145.11    5.52
  -1   0  -7  152.07    6.51
  -1   0  -7  144.64    5.06
  -1   0  -7  139.40    6.45
  -1   0  -7  153.09    6.74
  -1   0  -7  150.62    6.54
  -1   0  -7  138.24    5.67
  -1   0  -6    5.42    1.22
  -1   0  -6    6.64    1.18
  -1   0  -6    6.65    1.05
  -1   0  -6    4.47    0.95
  -1   0  -6    5.60    0.91
  -1   0  -6    6.48    1.32
  -1   0  -6    5.87    0.93
  -1   0  -6    6.89    1.22
  -1   0  -6    5.06    1.17
  -1   0  -6    8.79    1.48
  -1   0  -6    6.75    1.19
  -1   0  -6    6.61    1.27
  -1   0  -5  767.60   13.89
  -1   0  -5  751.59   14.57
  -1   0  -5  790.44   13.81
  -1   0  -5  725.99   15.12
  -1   0  -5  764.32   15.44
  -1   0  -5  777.22   14.04
  -1   0  -5  773.99   15.43
  -1   0  -5  789.63   15.65
  -1   0  -5  803.99   15.55
  -1   0  -5  769.41   14.73
  -1   0  -5  792.88   15.44
  -1   0  -4  185.46    5.32
  -1   0  -4  184.48    4.73
  -1   0  -4  184.01    4.69
  -1   0  -4  196.86    5.50
  -1   0  -4  183.76    4.49
  -1   0  -4  168.09    3.07
  -1   0  -4  187.18    5.38
  -1   0  -4  180.60    5.35
  -1   0  -4  182.88    5.06
  -1   0  -3   99.62    2.97
  -1   0  -3   97.11    2.92
  -1   0  -3   93.67    3.19
  -1   0  -3   95.90    2.73
  -1   0  -3   93.61    3.14
  -1   0  -3   96.01    2.71
  -1   0  -3   99.84    3.25
  -1   0  -3   95.72    2.21
  -1   0  -3   94.06    3.08
  -1   0  -2 1097.07   16.53
  -1   0  -2 1029.62   14.95
  -1   0  -2 1056.61   16.17
  -1   0  -2 1057.37   15.53
  -1   0  -2 1052.41   15.84
  -1   0  -2 1061.36   16.46
  -1   0  -2 1040.98   15.97
  -1   0  -2 1046.08   16.40
  -1   0  -2 1055.60   16.19
  -1   0   0 2270.44   31.99
  -1   0   1    5.64    0.53
  -1   0   1    6.64    0.52
  -1   0   2 2972.60   41.49
  -1   0   2 2890.73   41.05
  -1   0   2 2882.87   40.35
  -1   0   2 2818.72   40.82
  -1   0   2 2783.70   40.89
  -1   0   3 1471.08   22.61
  -1   0   3 1488.55   22.46
  -1   0   3 1494.55   22.43
  -1   0   3 1502.08   22.96
  -1   0   3 1495.25   24.06
  -1   0   3 1458.02   21.27
  -1   0   4 6555.22   92.41
  -1   0   4 6406.10   91.48
  -1   0   4 6624.90   92.24
  -1   0   4 6565.89   92.05
  -1   0   4 6727.14   93.45
  -1   0   4 6390.18   94.90
  -1   0   5  895.98   15.47
  -1   0   5  872.91   17.19
  -1   0   5  843.48   16.50
  -1   0   5  864.92   18.29
  -1   0   6  220.85    7.49
  -1   0   6  218.79    8.92
  -1   0   6  228.73    6.23
  -1   0   6  235.27    7.92
  -1   0   6  227.66    9.37
  -1   0   6  238.89    7.57
  -1   0   6  235.35    7.23
  -1   0   6  240.68    8.81
  -1   0   7  239.87    8.47
  -1   0   7  232.80    7.73
  -1   0   7  236.00   10.31
  -1   0   7  233.44    8.33
  -1   0   7  219.76    9.64
  -1   0   7  231.39    9.51
  -1   0   7  241.63    8.66
  -1   0   8  246.82    9.03
  -1   0   8  266.20    8.50
  -1   0   8  242.71   10.85
  -1   0   8  253.00    9.29
  -1   0   8  264.46   10.72
  -1   0   8  230.21   10.34
  -1   0   9  114.76    7.09
  -1   0   9  116.13    5.15
  -1   0   9  119.95    6.14
  -1   0   9  113.87    5.85
  -1   0  10    8.20    1.77
  -1   0  10    7.63    1.47
  -1   0  10    8.42    1.99
  -1   0  10    8.35    1.55
  -1   0  11  105.22    5.14
  -1   1 -11   79.96    4.14
  -1   1 -11   82.93    4.19
  -1   1 -10   28.46    2.94
  -1   1 -10   32.58    3.13
  -1   1 -10   29.06    2.84
  -1   1 -10   26.34    2.55
  -1   1 -10   28.74    3.01
  -1   1 -10   27.75    2.52
  -1   1 -10   29.16    3.10
  -1   1  -9   51.94    4.21
  -1   1  -9   53.27    3.60
  -1   1  -9   49.11    3.88
  -1   1  -9   55.12    4.27
  -1   1  -9   42.63    3.45
  -1   1  -9   53.17    4.18
  -1   1  -9   46.31    4.10
  -1   1  -9   55.11    4.43
  -1   1  -9   52.78    4.19
  -1   1  -9   45.31    3.94
  -1   1  -8   75.33    5.00
  -1   1  -8   83.67    4.57
  -1   1  -8   83.57    5.04
  -1   1  -8   86.21    4.36
  -1   1  -8   77.91    4.67
  -1   1  -8   87.92    5.28
  -1   1  -8   87.31    5.42
  -1   1  -8   79.67    5.20
  -1   1  -8   76.92    4.30
  -1   1  -8   85.75    5.21
  -1   1  -7   63.64    4.24
  -1   1  -7   58.75    3.62
  -1   1  -7   61.91    4.14
  -1   1  -7   57.09    3.58
  -1   1  -7   61.23    3.48
  -1   1  -7   62.84    4.29
  -1   1  -7   59.58    4.22
  -1   1  -7   61.11    3.63
  -1   1  -7   57.36    3.98
  -1   1  -7   58.22    3.69
  -1   1  -6  603.08   13.10
  -1   1  -6  613.42   13.23
  -1   1  -6  591.56   12.73
  -1   1  -6  583.92   11.80
  -1   1  -6  640.07   12.91
  -1   1  -6  600.70   12.25
  -1   1  -6  565.33   11.54
  -1   1  -6  631.53   14.51
  -1   1  -6  622.94   14.43
  -1   1  -6  599.75   13.04
  -1   1  -6  633.35   14.18
  -1   1  -5 1257.86   21.09
  -1   1  -5 1236.79   20.71
  -1   1  -5 1273.00   21.62
  -1   1  -5 1258.51   21.33
  -1   1  -5 1273.13   20.14
  -1   1  -5 1268.68   22.78
  -1   1  -5 1258.33   22.80
  -1   1  -5 1261.59   21.69
  -1   1  -5 1244.91   22.55
  -1   1  -4   31.79    1.78
  -1   1  -4   32.88    1.89
  -1   1  -4   31.27    1.88
  -1   1  -4   32.85    2.16
  -1   1  -4   32.76    2.19
  -1   1  -4   34.67    2.29
  -1   1  -4   33.35    1.89
  -1   1  -4   33.31    2.03
  -1   1  -4   34.08    2.23
  -1   1  -3  961.83   16.04
  -1   1  -3  944.72   14.56
  -1   1  -3  960.14   15.59
  -1   1  -3  953.43   15.46
  -1   1  -3  955.95   15.18
  -1   1  -3  973.18   15.67
  -1   1  -3  927.02   14.10
  -1   1  -3  988.01   16.38
  -1   1  -3  950.64   15.85
  -1   1  -3  960.06   16.25
  -1   1  -3  898.66   14.46
  -1   1  -2 1723.21   25.77
  -1   1  -2 1705.18   25.10
  -1   1  -2 1677.52   25.69
  -1   1  -2 1773.73   25.67
  -1   1  -2 1703.91   24.77
  -1   1  -2 1690.40   25.60
  -1   1  -2 1710.88   25.12
  -1   1  -2 1762.61   25.87
  -1   1  -1  734.17   11.56
  -1   1  -1  720.41   11.55
  -1   1  -1  761.26   11.88
  -1   1  -1  758.93   11.71
  -1   1  -1  734.42   10.92
  -1   1  -1  707.33   12.03
  -1   1  -1  727.28   11.78
  -1   1  -1  765.00   11.72
  -1   1   1 2774.36   38.86
  -1   1   1 2655.98   39.04
  -1   1   1 2735.94   38.92
  -1   1   2 3802.94   52.65
  -1   1   2 3709.04   53.35
  -1   1   2 3769.61   52.73
  -1   1   3  143.72    4.10
  -1   1   3  139.73    3.19
  -1   1   3  135.89    4.66
  -1   1   3  141.17    3.13
  -1   1   4  245.76    6.54
  -1   1   4  273.15    7.78
  -1   1   5  434.28   10.18
  -1   1   5  414.38   10.84
  -1   1   5  412.98   11.38
  -1   1   6   60.20    3.62
  -1   1   6   60.18    4.61
  -1   1   6   59.42    3.58
  -1   1   6   59.31    4.53
  -1   1   6   61.33    3.21
  -1   1   6   63.73    4.12
  -1   1   6   65.03    4.47
  -1   1   7  467.52   11.20
  -1   1   7  479.87   15.27
  -1   1   7  473.41   14.58
  -1   1   7  478.39   12.49
  -1   1   8  221.16    8.18
  -1   1   8  224.53    8.85
  -1   1   8  212.08    6.92
  -1   1   8  212.61    9.97
  -1   1   9   70.10    4.71
  -1   1   9   60.38    4.63
  -1   1   9   69.98    5.70
  -1   1   9   65.52    5.17
  -1   1  10   10.54    1.87
  -1   1  10    8.63    1.57
  -1   1  10    9.07    1.60
  -1   1  10   14.15    2.41
  -1   1  11  257.46    8.17
  -1   1  11  218.54    6.61
  -1   2 -11   34.19    2.56
  -1   2 -11   27.67    2.10
  -1   2 -10   84.35    4.78
  -1   2 -10   85.34    4.89
  -1   2 -10   81.41    4.53
  -1   2 -10   89.52    5.30
  -1   2  -9  404.46   12.09
  -1   2  -9  419.10   11.09
  -1   2  -9  406.14   11.26
  -1   2  -9  377.36   10.71
  -1   2  -9  392.08   11.28
  -1   2  -9  396.11   12.63
  -1   2  -9  428.41   12.74
  -1   2  -8  111.67    5.54
  -1   2  -8  108.18    6.06
  -1   2  -8  113.68    5.98
  -1   2  -8  103.99    5.91
  -1   2  -8  105.65    5.23
  -1   2  -8  106.11    5.43
  -1   2  -8  114.31    6.17
  -1   2  -8   99.30    5.23
  -1   2  -8  102.81    5.99
  -1   2  -8   99.66    5.77
  -1   2  -7   70.31    4.53
  -1   2  -7   72.73    4.67
  -1   2  -7   65.23    3.93
  -1   2  -7   72.51    4.57
  -1   2  -7   76.83    4.24
  -1   2  -7   66.54    4.11
  -1   2  -7   70.34    4.63
  -1   2  -7   70.57    4.58
  -1   2  -7   85.71    5.18
  -1   2  -7   68.10    3.91
  -1   2  -7   73.85    4.46
  -1   2  -6  458.43   12.00
  -1   2  -6  458.93   11.31
  -1   2  -6  475.93   12.35
  -1   2  -6  464.83   12.09
  -1   2  -6  469.02   11.35
  -1   2  -6  471.83   11.62
  -1   2  -6  478.80   12.16
  -1   2  -6  480.32   12.71
  -1   2  -6  458.33   11.16
  -1   2  -6  462.84   12.23
  -1   2  -5  552.43   12.40
  -1   2  -5  533.75   11.79
  -1   2  -5  534.03   12.37
  -1   2  -5  553.29   12.62
  -1   2  -5  542.94   12.38
  -1   2  -5  507.90   10.03
  -1   2  -5  557.02   11.89
  -1   2  -5  528.00   11.75
  -1   2  -5  585.97   13.15
  -1   2  -5  531.67   12.82
  -1   2  -5  546.90   11.80
  -1   2  -5  553.24   12.67
  -1   2  -4  282.71    7.35
  -1   2  -4  299.66    7.31
  -1   2  -4  289.53    7.06
  -1   2  -4  259.94    5.45
  -1   2  -4  269.76    5.71
  -1   2  -4  263.46    5.18
  -1   2  -4  302.11    8.00
  -1   2  -4  292.80    7.93
  -1   2  -4  297.28    7.28
  -1   2  -4  292.46    7.79
  -1   2  -3   83.07    3.12
  -1   2  -3   84.70    2.73
  -1   2  -3   83.37    3.16
  -1   2  -3   76.02    3.28
  -1   2  -3   74.50    1.85
  -1   2  -3   81.66    3.50
  -1   2  -3   80.40    2.72
  -1   2  -3   83.77    3.53
  -1   2  -3   77.31    3.11
  -1   2  -3   85.30    3.48
  -1   2  -2 1399.69   23.67
  -1   2  -2 1451.12   22.49
  -1   2  -2 1515.37   22.71
  -1   2  -2 1475.86   22.58
  -1   2  -2 1506.17   23.65
  -1   2  -2 1514.40   23.80
  -1   2  -2 1415.64   23.19
  -1   2  -1 2592.83   37.82
  -1   2  -1 2692.49   38.91
  -1   2  -1 2668.04   39.00
  -1   2  -1 2763.92   39.79
  -1   2  -1 2569.03   38.84
  -1   2  -1 2702.41   38.94
  -1   2  -1 2710.97   39.34
  -1   2   0 2220.94   32.64
  -1   2   0 2211.66   32.62
  -1   2   0 2180.36   32.62
  -1   2   0 2196.77   33.39
  -1   2   1 1577.37   24.26
  -1   2   1 1601.56   24.25
  -1   2   2  201.97    5.03
  -1   2   2  199.52    4.74
  -1   2   2  211.98    4.90
  -1   2   3  991.44   16.79
  -1   2   3  997.34   15.97
  -1   2   4  341.16    6.59
  -1   2   5   51.35    3.25
  -1   2   6 1101.90   25.17
  -1   2   6 1192.42   24.08
  -1   2   6 1149.07   26.24
  -1   2   6 1232.36   23.28
  -1   2   6 1117.28   21.44
  -1   2   7 1483.96   31.99
  -1   2   7 1516.15   27.78
  -1   2   7 1500.39   30.93
  -1   2   7 1573.20   29.68
  -1   2   7 1602.85   30.77
  -1   2   7 1497.01   33.12
  -1   2   8  103.40    6.69
  -1   2   8  100.48    5.08
  -1   2   8  115.38    6.08
  -1   2   8  105.05    7.24
  -1   2   8  102.40    6.30
  -1   2   9   61.11    4.26
  -1   2   9   49.99    4.14
  -1   2   9   60.85    5.30
  -1   2   9   60.36    4.75
  -1   2  10   93.78    5.76
  -1   2  10   94.32    4.71
  -1   2  11  158.33    5.25
  -1   3 -11   26.73    2.01
  -1   3 -10  137.02    5.79
  -1   3 -10  113.69    5.11
  -1   3  -9   89.74    5.14
  -1   3  -9   87.26    4.50
  -1   3  -9   91.04    4.72
  -1   3  -8  367.08   11.61
  -1   3  -8  382.08   11.86
  -1   3  -8  367.81   10.62
  -1   3  -8  366.56   10.83
  -1   3  -8  362.66   10.86
  -1   3  -8  356.56   11.95
  -1   3  -8  387.13   11.47
  -1   3  -7  299.11    9.99
  -1   3  -7  274.67   10.12
  -1   3  -7  297.46   10.38
  -1   3  -7  299.53    9.42
  -1   3  -7  304.99    9.58
  -1   3  -7  291.33    9.47
  -1   3  -7  264.24    8.49
  -1   3  -7  298.25   10.05
  -1   3  -7  305.42   10.26
  -1   3  -6  179.39    6.87
  -1   3  -6  181.56    6.87
  -1   3  -6  174.01    7.19
  -1   3  -6  181.27    6.78
  -1   3  -6  173.72    6.83
  -1   3  -6  183.23    7.40
  -1   3  -6  174.86    7.39
  -1   3  -6  166.57    6.28
  -1   3  -6  166.52    7.19
  -1   3  -6  151.57    5.92
  -1   3  -5  605.40   13.77
  -1   3  -5  627.09   14.52
  -1   3  -5  618.92   13.98
  -1   3  -5  616.51   14.72
  -1   3  -5  610.20   13.99
  -1   3  -5  608.73   14.50
  -1   3  -5  662.72   13.92
  -1   3  -5  636.60   14.97
  -1   3  -5  603.68   13.48
  -1   3  -4 1198.31   21.39
  -1   3  -4 1241.99   22.15
  -1   3  -4 1229.77   22.53
  -1   3  -4 1177.32   19.94
  -1   3  -4 1244.34   22.96
  -1   3  -4 1222.25   22.38
  -1   3  -4 1205.80   21.67
  -1   3  -3  269.72    6.51
  -1   3  -3  265.67    7.75
  -1   3  -3  252.21    7.04
  -1   3  -3  265.99    6.58
  -1   3  -2  586.79   10.48
  -1   3  -2  618.63   11.80
  -1   3  -2  597.57   11.35
  -1   3  -2  575.44   11.51
  -1   3  -2  560.38   11.78
  -1   3  -1  736.52   11.41
  -1   3  -1  767.02   13.72
  -1   3  -1  778.27   13.61
  -1   3  -1  733.09   13.21
  -1   3  -1  753.63   14.53
  -1   3   0  388.41    8.36
  -1   3   0  397.40    8.44
  -1   3   1  864.49   15.33
  -1   3   1  860.55   15.26
  -1   3   2 3653.41   54.89
  -1   3   2 3805.81   54.87
  -1   3   3 1678.21   26.48
  -1   3   3 1646.44   26.82
  -1   3   4   68.00    2.81
  -1   3   4   70.67    3.25
  -1   3   4   73.72    4.05
  -1   3   5  368.47    9.89
  -1   3   5  380.61   11.54
  -1   3   5  364.28   12.02
  -1   3   5  367.35   12.48
  -1   3   5  373.11   12.58
  -1   3   5  382.07   11.13
  -1   3   6  359.68   12.81
  -1   3   6  391.44   12.52
  -1   3   6  405.11   12.36
  -1   3   6  401.14   13.93
  -1   3   6  393.85   11.04
  -1   3   6  414.62   13.56
  -1   3   7  697.09   19.24
  -1   3   7  746.85   17.28
  -1   3   7  727.53   18.88
  -1   3   7  698.83   20.51
  -1   3   8  107.22    6.57
  -1   3   8  113.78    5.85
  -1   3   8  113.90    7.42
  -1   3   8  105.21    6.36
  -1   3   9  154.88    7.11
  -1   3   9  178.82    7.00
  -1   3   9  172.03    7.98
  -1   3   9  168.39    7.42
  -1   3   9  167.44    8.53
  -1   3  10   96.46    5.02
  -1   3  11   27.75    1.96
  -1   3  11   23.25    1.70
  -1   4 -10  251.02    7.48
  -1   4 -10  241.89    7.81
  -1   4  -9    5.36    1.26
  -1   4  -8   78.65    4.38
  -1   4  -8   74.69    4.18
  -1   4  -8   80.27    5.02
  -1   4  -8   71.82    4.51
  -1   4  -8   83.81    4.99
  -1   4  -7  171.34    7.15
  -1   4  -7  171.86    6.98
  -1   4  -7  169.10    7.69
  -1   4  -7  164.75    7.08
  -1   4  -7  168.90    7.05
  -1   4  -7  186.36    7.95
  -1   4  -6  231.35    8.12
  -1   4  -6  259.78    8.23
  -1   4  -6  231.04    8.38
  -1   4  -6  211.08    7.61
  -1   4  -6  241.49    8.44
  -1   4  -6  238.83    9.13
  -1   4  -6  245.34    8.51
  -1   4  -5   12.33    1.67
  -1   4  -5   14.45    1.81
  -1   4  -5   12.66    1.93
  -1   4  -5    9.90    1.82
  -1   4  -5   13.64    1.94
  -1   4  -5   13.42    2.11
  -1   4  -5    8.96    1.51
  -1   4  -4  225.08    6.76
  -1   4  -4  229.58    6.57
  -1   4  -4  223.53    7.97
  -1   4  -4  238.33    7.56
  -1   4  -4  229.76    7.85
  -1   4  -4  225.77    7.74
  -1   4  -4  226.22    7.43
  -1   4  -4  228.91    7.46
  -1   4  -3  379.68    8.51
  -1   4  -3  367.44   10.29
  -1   4  -3  414.01   10.13
  -1   4  -3  382.53   10.28
  -1   4  -3  396.08    9.87
  -1   4  -3  394.36    9.42
  -1   4  -3  389.17    9.32
  -1   4  -2  233.77    5.21
  -1   4  -2  230.97    6.79
  -1   4  -2  246.93    6.91
  -1   4  -2  246.63    6.93
  -1   4  -1  416.14    9.59
  -1   4  -1  383.70    9.55
  -1   4   0  596.06   12.25
  -1   4   0  539.68   11.73
  -1   4   1   17.61    1.69
  -1   4   1   19.72    1.80
  -1   4   2  788.25   15.33
  -1   4   2  805.00   15.49
  -1   4   2  766.24   15.16
  -1   4   3  551.61   12.68
  -1   4   3  554.69   12.09
  -1   4   3  565.36   12.05
  -1   4   3  568.93   12.00
  -1   4   3  552.75   14.34
  -1   4   4   50.24    4.23
  -1   4   4   57.47    3.14
  -1   4   4   49.76    3.52
  -1   4   4   51.46    2.87
  -1   4   4   47.88    3.92
  -1   4   4   49.98    2.80
  -1   4   4   53.17    4.77
  -1   4   5  223.37    9.57
  -1   4   5  230.49    8.60
  -1   4   5  219.63    6.50
  -1   4   5  218.35    7.06
  -1   4   5  233.28   10.51
  -1   4   5  226.16    9.27
  -1   4   5  248.14    9.60
  -1   4   6   89.13    6.08
  -1   4   6   86.64    4.50
  -1   4   6   96.73    5.71
  -1   4   6   86.14    5.72
  -1   4   6   85.20    6.26
  -1   4   7  175.47    8.56
  -1   4   7  179.96    8.18
  -1   4   7  184.59    8.62
  -1   4   8   18.62    2.61
  -1   4   9   13.97    2.19
  -1   4  10   56.29    3.54
  -1   4  10   58.74    3.48
  -1   5  -9   39.17    3.10
  -1   5  -9   36.16    2.58
  -1   5  -8  132.48    6.58
  -1   5  -8  136.28    6.76
  -1   5  -8  135.30    6.12
  -1   5  -7  635.22   14.98
  -1   5  -7  664.04   17.78
  -1   5  -7  669.20   17.74
  -1   5  -7  633.11   15.19
  -1   5  -6  463.82   12.46
  -1   5  -6  489.60   14.81
  -1   5  -6  478.01   12.99
  -1   5  -6  488.05   14.86
  -1   5  -6  448.17   12.52
  -1   5  -6  456.61   12.85
  -1   5  -6  437.43   11.97
  -1   5  -5   82.55    4.75
  -1   5  -5   92.55    5.15
  -1   5  -5   91.18    5.05
  -1   5  -5   97.68    6.03
  -1   5  -5   87.06    5.77
  -1   5  -5   88.92    5.13
  -1   5  -5   88.31    4.87
  -1   5  -4   33.96    2.64
  -1   5  -4   32.22    2.55
  -1   5  -4   36.70    3.08
  -1   5  -4   40.96    3.24
  -1   5  -4   33.64    3.10
  -1   5  -4   42.89    3.23
  -1   5  -4   33.46    2.57
  -1   5  -4   38.02    3.69
  -1   5  -4   36.05    2.70
  -1   5  -4   33.75    3.16
  -1   5  -4   33.78    3.52
  -1   5  -3  313.04    9.03
  -1   5  -3  311.16    8.98
  -1   5  -3  309.58   10.00
  -1   5  -3  308.28    9.87
  -1   5  -3  318.95    9.27
  -1   5  -3  331.52   11.11
  -1   5  -3  318.61    9.02
  -1   5  -3  298.57    8.70
  -1   5  -3  323.36    9.69
  -1   5  -3  325.46    9.73
  -1   5  -3  325.85   11.05
  -1   5  -2  211.46    7.29
  -1   5  -2  243.27    7.98
  -1   5  -2  235.94    7.61
  -1   5  -2  232.36    8.18
  -1   5  -2  227.31    8.27
  -1   5  -2  231.75    7.52
  -1   5  -2  232.07    7.43
  -1   5  -2  232.10    8.95
  -1   5  -2  226.94    7.80
  -1   5  -1   44.61    3.18
  -1   5  -1   42.99    3.05
  -1   5  -1   37.09    3.30
  -1   5  -1   35.05    2.91
  -1   5  -1   37.87    3.42
  -1   5  -1   46.39    3.15
  -1   5  -1   37.23    2.85
  -1   5  -1   35.12    3.09
  -1   5   0  242.97    7.79
  -1   5   0  236.25    8.53
  -1   5   0  248.23    7.88
  -1   5   0  241.10    7.68
  -1   5   0  249.12    9.83
  -1   5   0  241.30    8.73
  -1   5   0  243.31    8.96
  -1   5   0  239.74    7.75
  -1   5   1  462.81   11.52
  -1   5   1  475.74   11.84
  -1   5   1  470.84   11.54
  -1   5   1  460.03   11.59
  -1   5   1  467.43   14.19
  -1   5   1  445.21   11.53
  -1   5   1  454.60   12.78
  -1   5   2  513.42   12.52
  -1   5   2  514.49   12.33
  -1   5   2  542.74   12.85
  -1   5   2  535.98   12.80
  -1   5   2  521.46   12.47
  -1   5   2  520.17   12.47
  -1   5   2  530.74   15.54
  -1   5   2  530.29   14.73
  -1   5   3   35.73    2.80
  -1   5   3   37.15    2.78
  -1   5   3   40.38    2.95
  -1   5   3   45.49    3.98
  -1   5   3   34.23    2.72
  -1   5   3   42.16    2.99
  -1   5   3   34.08    3.71
  -1   5   3   32.30    4.03
  -1   5   4   84.84    4.16
  -1   5   4   87.16    4.78
  -1   5   4   83.30    4.17
  -1   5   4   95.32    6.96
  -1   5   4   88.70    5.69
  -1   5   4   82.53    4.09
  -1   5   4   86.22    4.13
  -1   5   4   79.42    4.07
  -1   5   4   77.06    5.78
  -1   5   4   71.99    3.65
  -1   5   5    7.02    1.56
  -1   5   5    5.30    1.17
  -1   5   5    7.53    2.16
  -1   5   5    7.25    1.98
  -1   5   5    6.17    1.08
  -1   5   6  190.14    8.03
  -1   5   6  200.96    9.72
  -1   5   6  197.22    9.15
  -1   5   7   80.70    5.97
  -1   5   7   95.08    6.05
  -1   5   8  102.54    5.87
  -1   5   8  105.32    6.21
  -1   5   9  187.96    7.21
  -1   6  -9    2.51    0.60
  -1   6  -8   64.45    3.60
  -1   6  -8   60.45    3.79
  -1   6  -7   77.03    4.91
  -1   6  -7   78.73    5.00
  -1   6  -7   75.50    4.56
  -1   6  -6  218.26    7.73
  -1   6  -6  238.68    9.53
  -1   6  -6  221.06    9.30
  -1   6  -6  216.88    7.50
  -1   6  -5   37.06    3.32
  -1   6  -5   40.55    3.98
  -1   6  -5   46.60    4.31
  -1   6  -5   44.17    3.45
  -1   6  -4   44.63    3.17
  -1   6  -4   48.12    3.75
  -1   6  -4   46.98    3.85
  -1   6  -4   44.11    3.09
  -1   6  -4   45.64    4.28
  -1   6  -4   48.18    3.29
  -1   6  -4   46.29    4.34
  -1   6  -4   45.82    3.65
  -1   6  -3   68.33    5.19
  -1   6  -3   67.01    4.07
  -1   6  -3   65.50    4.61
  -1   6  -3   65.10    5.08
  -1   6  -3   66.68    4.08
  -1   6  -3   71.52    4.58
  -1   6  -3   63.61    4.34
  -1   6  -3   66.38    5.12
  -1   6  -3   70.76    4.11
  -1   6  -3   70.16    4.17
  -1   6  -2   42.55    3.36
  -1   6  -2   46.06    3.60
  -1   6  -2   42.58    3.33
  -1   6  -2   48.68    4.28
  -1   6  -2   45.97    4.19
  -1   6  -2   44.21    3.33
  -1   6  -2   45.46    3.41
  -1   6  -2   42.22    3.76
  -1   6  -2   44.17    3.55
  -1   6  -1  458.54   12.67
  -1   6  -1  450.97   12.41
  -1   6  -1  469.86   14.15
  -1   6  -1  454.08   12.42
  -1   6  -1  470.24   13.73
  -1   6  -1  476.71   12.53
  -1   6  -1  469.35   12.33
  -1   6  -1  429.38   13.88
  -1   6  -1  477.52   12.92
  -1   6   0   71.22    4.40
  -1   6   0   77.40    5.28
  -1   6   0   80.74    4.66
  -1   6   0   80.11    4.65
  -1   6   0   79.82    5.47
  -1   6   0   76.70    5.15
  -1   6   0   73.13    4.40
  -1   6   0   77.83    4.51
  -1   6   1   23.01    2.52
  -1   6   1   23.25    2.48
  -1   6   1   22.58    2.49
  -1   6   1   26.35    3.50
  -1   6   1   29.87    2.79
  -1   6   1   27.01    2.70
  -1   6   1   25.43    2.71
  -1   6   1   24.47    3.04
  -1   6   2   89.08    4.90
  -1   6   2   95.14    4.90
  -1   6   2   91.31    5.89
  -1   6   2   95.04    5.06
  -1   6   2   88.35    6.34
  -1   6   2   88.71    4.83
  -1   6   2   98.47    5.03
  -1   6   2   91.41    5.09
  -1   6   3  341.50   10.13
  -1   6   3  327.64    9.69
  -1   6   3  343.98   13.13
  -1   6   3  355.51   10.57
  -1   6   3  343.66   10.26
  -1   6   3  351.50   10.17
  -1   6   3  346.32   10.03
  -1   6   4  427.90   11.06
  -1   6   4  412.54   11.09
  -1   6   4  462.93   12.00
  -1   6   4  420.31   14.78
  -1   6   4  426.35   10.99
  -1   6   4  429.06   10.90
  -1   6   4  425.15   13.99
  -1   6   4  407.71   10.70
  -1   6   4  411.87   10.21
  -1   6   5    2.20    1.45
  -1   6   5    2.56    1.17
  -1   6   5    2.14    0.87
  -1   6   6  164.75    8.38
  -1   6   6  158.88    7.83
  -1   6   7   20.17    2.60
  -1   6   7   20.99    2.84
  -1   6   8   43.03    3.33
  -1   6   9   13.50    1.38
  -1   6   9   16.33    1.57
  -1   7  -8   17.22    1.35
  -1   7  -7  227.86    6.92
  -1   7  -6   18.23    1.73
  -1   7  -6   20.36    2.39
  -1   7  -5  350.12   10.32
  -1   7  -5  339.83   10.26
  -1   7  -5  376.41   10.05
  -1   7  -5  343.97    8.43
  -1   7  -4   93.90    5.87
  -1   7  -4   92.74    4.30
  -1   7  -4   93.66    5.05
  -1   7  -4  103.48    4.58
  -1   7  -4   99.07    5.15
  -1   7  -4   94.49    4.41
  -1   7  -3  178.06    6.84
  -1   7  -3  183.16    8.50
  -1   7  -3  173.43    7.49
  -1   7  -3  188.43    6.87
  -1   7  -3  190.17    6.99
  -1   7  -3  187.91    7.54
  -1   7  -2   39.55    3.28
  -1   7  -2   41.35    3.98
  -1   7  -2   43.32    3.59
  -1   7  -2   40.49    3.25
  -1   7  -2   38.41    3.22
  -1   7  -2   38.61    3.58
  -1   7  -1  139.74    6.41
  -1   7  -1  145.89    7.57
  -1   7  -1  139.04    6.44
  -1   7  -1  143.10    7.10
  -1   7  -1  136.90    6.50
  -1   7  -1  144.14    6.39
  -1   7  -1  144.20    6.37
  -1   7  -1  148.87    6.84
  -1   7   0  264.24    9.18
  -1   7   0  240.27    8.79
  -1   7   0  259.98    9.17
  -1   7   0  258.07    8.88
  -1   7   0  245.40   10.15
  -1   7   0  257.00    8.91
  -1   7   1  495.37   13.39
  -1   7   1  481.02   12.93
  -1   7   1  470.97   13.29
  -1   7   1  501.77   13.67
  -1   7   1  518.53   13.46
  -1   7   1  485.81   13.03
  -1   7   1  486.79   15.01
  -1   7   2  329.78   10.22
  -1   7   2  309.39   10.14
  -1   7   2  327.98   10.07
  -1   7   2  326.31   10.01
  -1   7   2  336.97   11.99
  -1   7   2  343.24   10.56
  -1   7   3  145.53    6.16
  -1   7   3  157.37    6.31
  -1   7   3  147.47    7.61
  -1   7   3  151.05    8.38
  -1   7   3  157.51    6.66
  -1   7   3  153.21    6.18
  -1   7   4   50.96    4.73
  -1   7   4   54.02    3.26
  -1   7   4   51.30    3.21
  -1   7   4   51.81    3.14
  -1   7   4   47.94    4.15
  -1   7   4   47.29    2.68
  -1   7   4   51.22    3.46
  -1   7   5  258.08   10.29
  -1   7   5  276.35    9.97
  -1   7   5  258.01    7.52
  -1   7   6    3.78    1.26
  -1   7   6    6.27    1.57
  -1   7   7  171.83    6.53
  -1   7   7  174.01    6.38
  -1   7   8   97.91    3.62
  -1   8  -6   38.57    2.20
  -1   8  -5   78.18    4.00
  -1   8  -5   71.54    3.00
  -1   8  -4  127.57    5.73
  -1   8  -4  115.76    3.89
  -1   8  -4  129.03    5.23
  -1   8  -4  118.22    4.72
  -1   8  -3   64.19    3.39
  -1   8  -3   62.29    3.28
  -1   8  -3   60.21    3.66
  -1   8  -3   67.64    3.85
  -1   8  -2  118.21    5.16
  -1   8  -2  116.96    5.14
  -1   8  -2  121.42    5.11
  -1   8  -2  126.62    5.23
  -1   8  -2  122.80    5.58
  -1   8  -1    8.71    1.53
  -1   8  -1   11.40    1.81
  -1   8  -1   12.70    1.78
  -1   8  -1   13.55    1.84
  -1   8  -1   11.11    1.53
  -1   8   0  451.80   11.79
  -1   8   0  428.48   11.45
  -1   8   0  453.98   11.68
  -1   8   1  135.28    5.93
  -1   8   1  128.67    5.67
  -1   8   1  133.34    5.68
  -1   8   1  135.45    5.71
  -1   8   2   83.32    4.29
  -1   8   2   86.04    4.34
  -1   8   2   86.38    4.51
  -1   8   2   79.57    4.96
  -1   8   2   79.30    4.10
  -1   8   3  127.61    4.95
  -1   8   3  130.27    4.97
  -1   8   3  116.92    5.85
  -1   8   3  112.89    3.90
  -1   8   3  130.43    5.28
  -1   8   4  162.04    4.88
  -1   8   4  166.51    6.70
  -1   8   4  177.31    5.60
  -1   8   5   90.11    4.35
  -1   8   6   18.07    1.63
  -1   9  -3   70.89    2.75
  -1   9  -2   15.53    1.48
  -1   9  -2   13.92    1.26
  -1   9  -1   40.73    2.30
  -1   9  -1   37.47    2.41
  -1   9   0  162.58    5.14
  -1   9   0  157.61    5.01
  -1   9   1   75.84    3.23
  -1   9   1   77.35    3.43
  -1   9   2    1.93    0.65
  -1   9   2    3.62    0.79
  -1   9   3   29.23    1.47
  -1   9   3   33.75    1.77
   0  -9  -4   15.51    1.21
   0  -9  -3   32.59    1.79
   0  -9  -2    7.33    1.15
   0  -9  -2    6.79    1.03
   0  -9  -1   28.85    1.89
   0  -9  -1   25.99    2.28
   0  -9  -1   26.88    2.11
   0  -9  -1   29.37    2.10
   0  -9   0  108.59    4.62
   0  -9   0  110.57    4.13
   0  -9   0  105.82    4.33
   0  -9   1    9.09    1.30
   0  -9   1    9.23    1.24
   0  -9   1    9.76    1.11
   0  -9   1   10.09    1.28
   0  -9   2   59.82    2.85
   0  -9   2   53.38    2.58
   0  -9   2   52.36    2.50
   0  -9   3   71.47    2.87
   0  -9   3   68.16    2.81
   0  -8  -6   54.14    2.37
   0  -8  -6   58.21    2.93
   0  -8  -5   27.63    1.98
   0  -8  -5   23.60    1.82
   0  -8  -4   60.02    3.39
   0  -8  -4   58.18    2.93
   0  -8  -4   62.29    3.79
   0  -8  -3  102.72    5.05
   0  -8  -3  108.66    5.30
   0  -8  -3  105.42    4.73
   0  -8  -2   22.39    2.47
   0  -8  -2   18.10    1.86
   0  -8  -2   22.63    2.32
   0  -8  -1   78.48    4.16
   0  -8  -1   73.82    3.56
   0  -8  -1   82.60    4.61
   0  -8  -1   83.59    5.10
   0  -8   0   11.52    1.92
   0  -8   0   10.69    1.53
   0  -8   0    9.12    1.78
   0  -8   1   61.43    4.36
   0  -8   1   62.83    4.38
   0  -8   1   59.35    3.60
   0  -8   2   70.58    4.48
   0  -8   2   66.49    4.46
   0  -8   2   72.59    4.01
   0  -8   3  212.48    7.60
   0  -8   3  214.54    7.11
   0  -8   3  202.85    6.98
   0  -8   3  205.41    6.87
   0  -8   3  210.43    7.97
   0  -8   4  175.89    4.97
   0  -8   4  183.77    5.70
   0  -8   5   59.11    2.62
   0  -8   5   59.80    2.97
   0  -8   6  112.13    4.52
   0  -8   6  109.23    3.90
   0  -7  -8   20.65    1.48
   0  -7  -7   22.25    1.66
   0  -7  -7   24.46    2.13
   0  -7  -6   39.08    2.47
   0  -7  -6   44.01    3.29
   0  -7  -5   15.71    1.97
   0  -7  -5   14.21    1.97
   0  -7  -5   16.15    1.92
   0  -7  -4  183.56    7.25
   0  -7  -4  174.26    6.50
   0  -7  -4  175.78    7.33
   0  -7  -3  151.36    6.77
   0  -7  -3  141.47    6.67
   0  -7  -3  137.34    5.34
   0  -7  -3  145.63    6.19
   0  -7  -2 1189.95   24.51
   0  -7  -2 1174.59   24.25
   0  -7  -1  108.01    5.76
   0  -7  -1  113.91    5.01
   0  -7  -1  106.41    5.71
   0  -7   0   13.67    1.87
   0  -7   0   15.52    2.22
   0  -7   0   15.11    2.19
   0  -7   0   14.50    1.87
   0  -7   0   13.30    2.10
   0  -7   0   16.53    2.47
   0  -7   1   15.11    2.09
   0  -7   1   16.70    1.98
   0  -7   1   14.57    2.10
   0  -7   1   16.64    2.09
   0  -7   1   19.91    2.28
   0  -7   1   15.81    2.21
   0  -7   1   12.74    2.23
   0  -7   2  657.10   17.10
   0  -7   2  585.62   13.67
   0  -7   2  643.99   16.85
   0  -7   2  592.84   14.52
   0  -7   2  600.09   14.49
   0  -7   2  673.73   15.27
   0  -7   2  616.03   15.03
   0  -7   2  623.45   15.09
   0  -7   2  629.32   14.00
   0  -7   2  599.14   15.07
   0  -7   3  161.07    7.53
   0  -7   3  164.07    6.84
   0  -7   3  147.50    6.07
   0  -7   3  168.33    6.94
   0  -7   3  162.45    6.36
   0  -7   3  175.77    7.93
   0  -7   4   43.34    3.20
   0  -7   4   39.72    3.52
   0  -7   4   40.59    3.07
   0  -7   4   43.19    3.34
   0  -7   4   39.36    3.65
   0  -7   5   28.69    2.54
   0  -7   5   29.78    2.58
   0  -7   5   26.44    2.65
   0  -7   5   26.66    2.30
   0  -7   5   28.73    2.54
   0  -7   5   29.86    3.09
   0  -7   6   -0.06    0.11
   0  -7   6    4.15    0.97
   0  -7   7  123.14    5.66
   0  -7   7  119.13    4.85
   0  -7   8   42.07    2.45
   0  -6  -9    2.36    0.58
   0  -6  -8   62.48    3.49
   0  -6  -7  214.30    6.77
   0  -6  -7  225.27    7.97
   0  -6  -6  323.93    9.26
   0  -6  -6  320.99   10.42
   0  -6  -6  292.47    8.49
   0  -6  -6  293.08    9.33
   0  -6  -5  325.89   10.33
   0  -6  -5  322.71   10.03
   0  -6  -5  346.10   11.18
   0  -6  -5  322.25    9.70
   0  -6  -5  326.03   11.43
   0  -6  -4   28.69    2.87
   0  -6  -4   26.40    2.63
   0  -6  -4   28.23    2.52
   0  -6  -4   28.07    2.88
   0  -6  -3   38.29    3.26
   0  -6  -3   36.04    3.20
   0  -6  -3   33.12    3.03
   0  -6  -2  143.96    6.56
   0  -6  -2  169.15    6.91
   0  -6  -1  905.70   19.41
   0  -6  -1  892.96   17.56
   0  -6   0  271.64    7.90
   0  -6   0  282.82    9.20
   0  -6   0  280.33    8.46
   0  -6   1    1.41    0.64
   0  -6   1    2.65    0.83
   0  -6   1    1.02    0.58
   0  -6   1    5.43    1.14
   0  -6   1    1.40    0.84
   0  -6   1    3.66    1.13
   0  -6   1    2.65    0.97
   0  -6   1    4.46    1.46
   0  -6   2  135.13    5.98
   0  -6   2  131.77    5.47
   0  -6   2  122.61    5.40
   0  -6   2  133.26    5.59
   0  -6   2  133.92    5.74
   0  -6   2  126.87    5.77
   0  -6   2  129.42    5.39
   0  -6   2  140.02    6.19
   0  -6   2  125.66    6.55
   0  -6   3  218.65    8.89
   0  -6   3  192.14    7.16
   0  -6   3  212.12    8.81
   0  -6   3  207.82    7.53
   0  -6   3  204.83    7.55
   0  -6   3  211.04    7.76
   0  -6   3  191.99    7.09
   0  -6   3  211.78    7.86
   0  -6   3  199.09    7.58
   0  -6   3  205.07    7.42
   0  -6   4   76.52    5.15
   0  -6   4   73.59    4.38
   0  -6   4   83.89    4.69
   0  -6   4   79.41    4.64
   0  -6   4   74.60    4.48
   0  -6   4   79.51    4.61
   0  -6   4   75.10    4.45
   0  -6   4   81.72    5.41
   0  -6   5  161.62    7.77
   0  -6   5  148.96    7.16
   0  -6   5  143.14    6.32
   0  -6   5  145.39    5.76
   0  -6   5  143.43    6.38
   0  -6   5  150.95    6.36
   0  -6   5  156.19    6.62
   0  -6   6   85.44    5.01
   0  -6   6   75.49    4.42
   0  -6   6   78.44    4.12
   0  -6   6   78.59    3.71
   0  -6   6   89.44    4.49
   0  -6   6   84.49    4.73
   0  -6   6   81.38    5.33
   0  -6   7   38.02    3.76
   0  -6   7   28.13    2.30
   0  -6   7   27.44    2.11
   0  -6   7   29.67    2.97
   0  -6   7   32.17    3.17
   0  -6   8  131.96    6.22
   0  -6   8  132.04    5.46
   0  -6   8  133.21    4.59
   0  -6   9   21.52    1.88
   0  -5 -10    7.17    0.84
   0  -5  -9  141.19    4.95
   0  -5  -9  142.15    5.18
   0  -5  -9  144.05    5.89
   0  -5  -8   23.09    2.41
   0  -5  -8   23.09    2.75
   0  -5  -8   23.06    2.45
   0  -5  -7    9.04    1.92
   0  -5  -7   10.21    1.99
   0  -5  -7    7.81    1.70
   0  -5  -6   36.72    3.39
   0  -5  -6   37.45    2.94
   0  -5  -6   36.41    3.05
   0  -5  -6   38.05    3.62
   0  -5  -6   35.04    2.73
   0  -5  -6   32.72    3.47
   0  -5  -6   38.31    3.66
   0  -5  -5   29.02    2.66
   0  -5  -5   29.83    2.80
   0  -5  -5   32.84    3.17
   0  -5  -5   27.38    2.44
   0  -5  -5   27.15    3.05
   0  -5  -4  286.03    8.85
   0  -5  -4  272.95    8.79
   0  -5  -4  269.12    8.95
   0  -5  -4  257.81    8.16
   0  -5  -4  252.62    7.76
   0  -5  -3  778.58   16.08
   0  -5  -3  828.45   17.50
   0  -5  -3  791.97   16.66
   0  -5  -3  854.09   17.27
   0  -5  -2  295.35    8.71
   0  -5  -1  108.45    3.96
   0  -5  -1  114.60    5.00
   0  -5  -1  113.74    4.37
   0  -5   0  124.31    4.28
   0  -5   0  129.66    4.65
   0  -5   0  131.88    5.00
   0  -5   0  131.43    4.38
   0  -5   1  225.72    6.54
   0  -5   1  221.77    6.55
   0  -5   1  223.82    6.74
   0  -5   1  228.15    7.29
   0  -5   1  225.61    6.49
   0  -5   1  224.15    7.06
   0  -5   2  404.97   10.15
   0  -5   2  426.65   10.43
   0  -5   2  419.99   10.46
   0  -5   2  424.60   10.60
   0  -5   2  407.64   10.16
   0  -5   2  420.72   10.79
   0  -5   2  425.45   11.02
   0  -5   3   94.42    5.33
   0  -5   3   90.20    4.50
   0  -5   3  100.25    4.70
   0  -5   3   93.62    4.05
   0  -5   3   92.60    4.33
   0  -5   3   92.42    4.47
   0  -5   3   98.75    4.77
   0  -5   3   94.81    4.54
   0  -5   3   93.99    4.67
   0  -5   4  187.66    6.93
   0  -5   4  191.17    7.96
   0  -5   4  181.03    6.90
   0  -5   4  172.76    6.12
   0  -5   4  194.15    7.14
   0  -5   4  177.61    6.79
   0  -5   4  173.02    5.95
   0  -5   4  181.69    6.82
   0  -5   4  178.72    6.87
   0  -5   4  177.13    6.81
   0  -5   4  171.64    6.20
   0  -5   5  120.71    5.71
   0  -5   5  114.85    6.28
   0  -5   5  115.83    5.41
   0  -5   5  110.73    5.59
   0  -5   5  122.14    5.72
   0  -5   5  110.93    5.43
   0  -5   5  113.10    5.50
   0  -5   5  124.05    5.69
   0  -5   5  104.19    5.25
   0  -5   5  114.52    6.40
   0  -5   6  488.98   14.26
   0  -5   6  499.91   13.04
   0  -5   6  513.22   12.58
   0  -5   6  507.62   12.94
   0  -5   6  495.67   14.97
   0  -5   7    0.33    0.70
   0  -5   7    1.27    0.77
   0  -5   7    3.54    1.37
   0  -5   7    0.83    0.76
   0  -5   7    1.43    0.71
   0  -5   7    0.80    0.90
   0  -5   7    1.50    0.88
   0  -5   8    5.50    1.19
   0  -5   8    7.06    1.31
   0  -5   8    5.96    1.26
   0  -5   8    6.58    1.81
   0  -5   8    7.83    1.68
   0  -5   8    5.11    1.42
   0  -5   9  226.83    6.67
   0  -5   9  225.81    8.22
   0  -5   9  217.47    7.23
   0  -4 -10   37.13    2.80
   0  -4  -9    7.02    1.28
   0  -4  -9    6.12    1.23
   0  -4  -9    6.41    1.53
   0  -4  -9    4.40    1.37
   0  -4  -9    4.89    1.13
   0  -4  -8    1.62    0.98
   0  -4  -8    1.42    0.88
   0  -4  -8    3.05    1.26
   0  -4  -8    2.18    0.96
   0  -4  -8    1.70    0.98
   0  -4  -7  477.23   11.96
   0  -4  -7  516.84   15.25
   0  -4  -7  499.21   14.41
   0  -4  -7  514.78   14.84
   0  -4  -7  499.47   13.53
   0  -4  -6  178.23    6.34
   0  -4  -6  175.70    6.60
   0  -4  -6  173.75    7.97
   0  -4  -6  185.41    8.10
   0  -4  -6  177.24    7.78
   0  -4  -6  189.36    7.52
   0  -4  -5  257.95    7.80
   0  -4  -5  241.09    7.09
   0  -4  -5  250.50    7.94
   0  -4  -5  246.94    9.05
   0  -4  -5  250.79    9.13
   0  -4  -5  252.65    9.03
   0  -4  -4  171.14    6.83
   0  -4  -4  163.77    5.86
   0  -4  -4  158.85    5.48
   0  -4  -4  160.73    6.55
   0  -4  -4  155.11    5.45
   0  -4  -4  155.28    5.18
   0  -4  -4  165.02    6.02
   0  -4  -3 1470.92   24.28
   0  -4  -3 1468.67   25.32
   0  -4  -3 1395.20   25.48
   0  -4  -3 1448.56   24.80
   0  -4  -2  155.79    3.98
   0  -4  -2  159.99    5.21
   0  -4  -2  166.99    5.45
   0  -4  -1 1671.32   25.91
   0  -4  -1 1754.83   25.81
   0  -4  -1 1720.48   26.57
   0  -4  -1 1653.44   26.67
   0  -4  -1 1815.36   28.41
   0  -4  -1 1745.05   27.10
   0  -4   0  566.82   10.59
   0  -4   0  566.08   10.62
   0  -4   0  565.43   10.91
   0  -4   1  164.97    4.83
   0  -4   1  165.88    4.90
   0  -4   1  157.73    4.89
   0  -4   1  164.97    5.29
   0  -4   1  152.84    4.75
   0  -4   2   19.80    1.68
   0  -4   2   17.08    1.59
   0  -4   2   16.20    1.57
   0  -4   2   19.38    1.69
   0  -4   2   17.47    1.60
   0  -4   2   17.24    1.73
   0  -4   3   12.57    1.47
   0  -4   3   12.92    1.41
   0  -4   3   13.35    1.53
   0  -4   3    9.90    1.34
   0  -4   3   11.84    1.35
   0  -4   3   11.82    1.47
   0  -4   4  155.14    5.26
   0  -4   4  163.37    6.01
   0  -4   4  172.19    6.94
   0  -4   4  153.41    4.94
   0  -4   4  154.54    5.80
   0  -4   4  162.60    5.95
   0  -4   4  148.99    5.54
   0  -4   4  156.25    5.87
   0  -4   4  157.38    5.14
   0  -4   4  153.35    5.80
   0  -4   5  360.44    9.45
   0  -4   5  369.76   10.09
   0  -4   5  364.18    9.00
   0  -4   5  370.77   11.52
   0  -4   5  387.20   10.30
   0  -4   5  363.25    9.83
   0  -4   5  394.68   10.35
   0  -4   5  376.53   10.36
   0  -4   6  220.38    7.46
   0  -4   6  231.28    8.07
   0  -4   6  224.50    9.03
   0  -4   6  230.34    8.12
   0  -4   6  212.68    7.76
   0  -4   6  231.67    8.23
   0  -4   6  228.66    7.81
   0  -4   6  227.56    7.33
   0  -4   6  236.08    7.73
   0  -4   6  223.90    8.00
   0  -4   7  166.64    6.60
   0  -4   7  165.33    7.66
   0  -4   7  176.84    7.05
   0  -4   7  171.56    7.13
   0  -4   7  168.40    6.60
   0  -4   7  176.59    5.98
   0  -4   7  179.31    8.44
   0  -4   7  181.78    7.12
   0  -4   8    3.43    1.08
   0  -4   8    3.54    1.44
   0  -4   8    4.02    1.25
   0  -4   8    4.56    1.18
   0  -4   8    4.59    1.32
   0  -4   8    3.53    1.26
   0  -4   8    3.13    1.32
   0  -4   9   81.78    5.37
   0  -4   9   85.90    5.01
   0  -4   9   79.69    4.26
   0  -4   9   85.93    5.29
   0  -4  10   35.03    2.79
   0  -3 -11   44.66    2.50
   0  -3 -11   45.83    2.63
   0  -3 -10   44.09    3.37
   0  -3  -9    7.78    1.39
   0  -3  -9   11.05    1.67
   0  -3  -9    8.35    1.76
   0  -3  -9    8.44    1.48
   0  -3  -8   28.53    3.41
   0  -3  -8   28.66    2.78
   0  -3  -8   28.18    3.14
   0  -3  -8   23.53    2.96
   0  -3  -8   24.28    2.58
   0  -3  -7  582.95   15.58
   0  -3  -7  594.56   16.66
   0  -3  -7  612.98   16.13
   0  -3  -7  588.70   14.60
   0  -3  -6   65.87    3.37
   0  -3  -6   70.12    4.13
   0  -3  -6   60.85    3.39
   0  -3  -6   63.52    4.59
   0  -3  -6   69.31    4.55
   0  -3  -6   70.02    4.47
   0  -3  -5  850.67   16.62
   0  -3  -5  911.36   18.06
   0  -3  -5  918.52   19.10
   0  -3  -5  819.31   15.95
   0  -3  -5  850.93   15.45
   0  -3  -5  859.04   16.41
   0  -3  -5  866.68   18.50
   0  -3  -5  934.04   18.86
   0  -3  -4  156.39    5.18
   0  -3  -4  170.09    5.39
   0  -3  -4  159.70    6.22
   0  -3  -4  166.44    4.95
   0  -3  -4  168.47    6.20
   0  -3  -4  166.55    5.17
   0  -3  -3 2938.34   46.21
   0  -3  -3 3200.09   47.10
   0  -3  -3 3060.75   48.11
   0  -3  -3 3284.97   46.54
   0  -3  -2  327.04    5.94
   0  -3  -2  329.55    7.74
   0  -3  -2  342.55    7.46
   0  -3  -1 1730.25   25.50
   0  -3  -1 1747.82   25.40
   0  -3  -1 1782.95   25.94
   0  -3  -1 1689.30   26.57
   0  -3  -1 1747.58   27.24
   0  -3   0  106.79    3.01
   0  -3   0  105.18    3.00
   0  -3   0  108.26    3.16
   0  -3   0   97.36    2.63
   0  -3   1 1274.40   20.38
   0  -3   1 1275.59   20.42
   0  -3   1 1311.62   20.53
   0  -3   2  477.53    9.49
   0  -3   2  500.16    9.64
   0  -3   2  482.55    9.56
   0  -3   2  461.44    9.41
   0  -3   2  450.93    8.47
   0  -3   2  465.89    9.77
   0  -3   3  630.50   12.33
   0  -3   3  645.74   12.42
   0  -3   3  635.33   12.50
   0  -3   3  624.92   12.29
   0  -3   3  601.09   11.51
   0  -3   4  494.45   10.93
   0  -3   4  513.30   11.00
   0  -3   4  496.74   10.24
   0  -3   4  489.77    9.48
   0  -3   4  503.91   10.95
   0  -3   4  505.45   11.20
   0  -3   4  497.49   10.61
   0  -3   5  103.10    4.43
   0  -3   5  101.97    4.57
   0  -3   5   96.24    4.25
   0  -3   5  106.19    4.65
   0  -3   5  102.07    4.52
   0  -3   5   99.32    4.32
   0  -3   5  107.83    4.30
   0  -3   5   97.71    4.44
   0  -3   5  107.64    4.39
   0  -3   5  103.34    4.64
   0  -3   5   93.64    3.79
   0  -3   6  429.13   12.73
   0  -3   6  425.61   11.22
   0  -3   6  433.61   11.44
   0  -3   6  461.51   11.46
   0  -3   6  440.57   10.89
   0  -3   6  438.69   11.46
   0  -3   6  424.57   10.07
   0  -3   6  442.42   11.23
   0  -3   6  438.46   10.52
   0  -3   6  426.99   11.46
   0  -3   6  434.22   11.27
   0  -3   6  420.91   11.20
   0  -3   7  192.34    9.42
   0  -3   7  169.59    7.89
   0  -3   7  177.77    6.86
   0  -3   7  180.41    6.88
   0  -3   7  179.63    7.02
   0  -3   7  182.11    6.50
   0  -3   7  183.87    7.32
   0  -3   7  196.16    8.75
   0  -3   7  184.81    7.27
   0  -3   8  287.61   11.69
   0  -3   8  228.46    9.28
   0  -3   8  254.36    8.32
   0  -3   8  269.41    8.39
   0  -3   8  265.16   10.49
   0  -3   8  259.15    8.58
   0  -3   8  252.42    8.87
   0  -3   9   16.75    2.68
   0  -3   9   12.71    1.60
   0  -3   9   16.57    2.10
   0  -3   9   13.56    2.24
   0  -3  10   13.31    2.00
   0  -3  10   15.42    1.77
   0  -3  11   40.29    2.04
   0  -2 -11    2.01    0.82
   0  -2 -11    1.46    0.75
   0  -2 -11    1.28    0.73
   0  -2 -11    2.30    0.88
   0  -2 -10    6.27    1.46
   0  -2 -10    6.24    1.54
   0  -2  -9   86.53    4.37
   0  -2  -9   83.63    5.62
   0  -2  -9   90.68    5.45
   0  -2  -9   82.60    5.35
   0  -2  -8 1020.86   20.43
   0  -2  -8  980.63   23.44
   0  -2  -8 1022.43   20.49
   0  -2  -8 1050.36   22.90
   0  -2  -8 1021.27   22.86
   0  -2  -8  987.34   22.33
   0  -2  -8  997.39   20.51
   0  -2  -7 1295.91   24.86
   0  -2  -7 1391.46   27.01
   0  -2  -7 1349.20   25.15
   0  -2  -7 1389.01   27.31
   0  -2  -7 1379.70   25.39
   0  -2  -6   70.08    4.17
   0  -2  -6   64.13    3.45
   0  -2  -6   62.55    3.05
   0  -2  -6   64.94    4.44
   0  -2  -6   68.12    4.23
   0  -2  -6   66.10    3.71
   0  -2  -5    0.83    0.46
   0  -2  -5    0.33    0.57
   0  -2  -5    0.32    0.40
   0  -2  -5    0.28    0.42
   0  -2  -5    0.85    0.35
   0  -2  -5    0.23    0.65
   0  -2  -5    0.65    0.65
   0  -2  -4  478.89    9.54
   0  -2  -4  476.64    9.61
   0  -2  -4  500.39    9.90
   0  -2  -4  496.03    9.07
   0  -2  -4  495.10   11.19
   0  -2  -4  497.16   11.09
   0  -2  -3 1048.39   16.50
   0  -2  -3 1047.24   18.42
   0  -2  -3 1038.26   17.26
   0  -2  -3 1125.06   17.31
   0  -2  -3 1093.05   17.27
   0  -2  -3 1001.55   15.04
   0  -2  -3 1131.36   16.91
   0  -2  -2  253.37    5.35
   0  -2  -2  250.31    4.15
   0  -2  -2  239.98    5.99
   0  -2  -2  252.32    5.33
   0  -2  -2  249.54    4.56
   0  -2  -1  985.96   14.42
   0  -2  -1 1033.90   14.82
   0  -2  -1 1004.67   15.73
   0  -2   0 1900.74   27.26
   0  -2   0 1898.32   27.44
   0  -2   0 1872.90   27.06
   0  -2   1 5630.48   78.87
   0  -2   1 5625.14   78.62
   0  -2   2  626.19   11.10
   0  -2   2  657.27   11.18
   0  -2   2  629.33   11.21
   0  -2   2  641.11   11.07
   0  -2   3  209.56    4.97
   0  -2   3  205.27    5.18
   0  -2   3  219.05    5.51
   0  -2   3  210.00    5.42
   0  -2   3  205.57    5.19
   0  -2   4  436.89    9.30
   0  -2   4  416.91    8.61
   0  -2   4  439.78    9.65
   0  -2   4  453.15    9.43
   0  -2   4  453.39    9.17
   0  -2   4  413.55    9.15
   0  -2   4  439.78    8.97
   0  -2   4  427.00    9.54
   0  -2   4  415.32    7.61
   0  -2   4  439.03    9.44
   0  -2   5  802.16   15.20
   0  -2   5  735.40   15.22
   0  -2   5  784.52   15.59
   0  -2   5  744.45   15.25
   0  -2   5  767.51   14.26
   0  -2   5  790.88   15.26
   0  -2   5  796.59   14.81
   0  -2   5  799.38   15.16
   0  -2   5  793.08   14.47
   0  -2   5  799.85   15.75
   0  -2   5  814.87   15.84
   0  -2   6   99.92    4.79
   0  -2   6  100.65    5.46
   0  -2   6  106.90    4.09
   0  -2   6  104.04    4.48
   0  -2   6  102.69    4.68
   0  -2   6  105.25    4.79
   0  -2   6  105.67    4.56
   0  -2   6  106.96    4.56
   0  -2   6  103.02    4.45
   0  -2   6   99.94    3.89
   0  -2   6  105.34    4.25
   0  -2   6  107.37    4.94
   0  -2   6  106.06    4.98
   0  -2   6  107.37    5.71
   0  -2   7    1.71    0.91
   0  -2   7    1.97    1.21
   0  -2   7    3.78    1.32
   0  -2   7    1.55    0.72
   0  -2   7    0.13    0.54
   0  -2   7    1.42    0.84
   0  -2   7    0.87    0.61
   0  -2   7    2.66    0.85
   0  -2   7    1.20    0.53
   0  -2   7    0.58    0.75
   0  -2   7    2.34    0.89
   0  -2   8   25.78    2.77
   0  -2   8   26.18    3.12
   0  -2   8   23.95    3.34
   0  -2   8   24.76    2.28
   0  -2   8   25.08    2.61
   0  -2   8   28.21    2.42
   0  -2   8   25.00    2.37
   0  -2   8   27.71    2.86
   0  -2   8   29.91    3.46
   0  -2   9   26.79    2.78
   0  -2   9   28.09    3.50
   0  -2   9   22.82    2.81
   0  -2   9   23.72    2.51
   0  -2   9   24.57    2.57
   0  -2  10   47.55    3.89
   0  -2  10   51.11    3.25
   0  -2  10   54.81    3.30
   0  -2  11   32.53    1.97
   0  -2  11   36.50    2.89
   0  -1 -11   80.26    3.96
   0  -1 -11   80.27    4.08
   0  -1 -11   71.49    3.85
   0  -1 -11   70.94    3.91
   0  -1 -10   51.25    3.77
   0  -1 -10   55.83    4.22
   0  -1 -10   46.45    3.68
   0  -1 -10   51.17    3.87
   0  -1  -9   80.23    4.85
   0  -1  -9   87.01    5.60
   0  -1  -9   87.33    5.40
   0  -1  -9   88.44    5.65
   0  -1  -9   84.94    5.41
   0  -1  -9   83.89    5.20
   0  -1  -8  261.12    9.13
   0  -1  -8  270.45    8.37
   0  -1  -8  280.24   10.46
   0  -1  -8  277.19    8.40
   0  -1  -8  288.67   10.13
   0  -1  -8  276.39   10.12
   0  -1  -8  287.49   10.46
   0  -1  -8  277.46    9.73
   0  -1  -8  272.56    8.37
   0  -1  -7  195.52    7.26
   0  -1  -7  199.22    6.72
   0  -1  -7  203.54    8.41
   0  -1  -7  197.52    6.68
   0  -1  -7  203.79    7.89
   0  -1  -7  200.61    8.13
   0  -1  -7  211.62    8.04
   0  -1  -7  210.66    7.87
   0  -1  -7  201.68    6.77
   0  -1  -6  161.61    5.91
   0  -1  -6  159.49    6.69
   0  -1  -6  149.54    5.38
   0  -1  -6  158.59    4.62
   0  -1  -6  160.74    6.20
   0  -1  -6  159.88    6.36
   0  -1  -6  160.08    5.57
   0  -1  -6  156.57    6.49
   0  -1  -5  193.27    5.83
   0  -1  -5  177.12    4.68
   0  -1  -5  185.35    4.64
   0  -1  -5  186.65    6.07
   0  -1  -5  177.57    4.63
   0  -1  -5  187.08    6.29
   0  -1  -5  184.34    5.56
   0  -1  -4  539.30   10.33
   0  -1  -4  523.79    9.38
   0  -1  -4  524.68    9.48
   0  -1  -4  538.48    9.10
   0  -1  -4  494.44    8.45
   0  -1  -4  551.07   11.21
   0  -1  -4  523.65   10.86
   0  -1  -4  512.23   10.27
   0  -1  -3  164.90    4.18
   0  -1  -3  161.53    3.83
   0  -1  -3  168.82    3.48
   0  -1  -3  164.79    3.47
   0  -1  -3  169.56    4.74
   0  -1  -3  168.93    4.66
   0  -1  -2 4820.22   66.92
   0  -1  -2 4927.55   67.07
   0  -1  -2 4646.52   66.66
   0  -1  -2 4797.12   66.17
   0  -1  -2 4778.06   67.88
   0  -1   1 1744.77   24.94
   0  -1   1 1730.64   24.99
   0  -1   1 1719.25   24.95
   0  -1   1 1761.63   25.06
   0  -1   2 3923.16   55.72
   0  -1   2 3990.68   55.92
   0  -1   2 3995.89   55.63
   0  -1   2 3904.06   55.42
   0  -1   3 2782.51   40.18
   0  -1   3 2846.70   40.61
   0  -1   3 2751.59   40.59
   0  -1   3 2764.66   40.20
   0  -1   3 2807.45   39.91
   0  -1   3 2710.32   39.89
   0  -1   3 2724.79   40.61
   0  -1   3 2743.50   38.94
   0  -1   4 6879.00   99.29
   0  -1   4 7051.98   99.63
   0  -1   4 7148.64  100.42
   0  -1   4 7085.52   99.18
   0  -1   4 7094.41   99.62
   0  -1   4 6942.19  100.50
   0  -1   4 7125.12   97.75
   0  -1   5 1094.77   18.84
   0  -1   5 1139.22   18.64
   0  -1   5 1141.12   19.81
   0  -1   5 1105.10   18.86
   0  -1   5 1076.96   18.18
   0  -1   5 1082.74   18.68
   0  -1   5 1114.48   20.15
   0  -1   5 1102.60   19.92
   0  -1   6  221.21    7.33
   0  -1   6  229.50    6.42
   0  -1   6  225.84    7.40
   0  -1   6  227.98    7.01
   0  -1   6  222.17    6.34
   0  -1   6  228.49    6.50
   0  -1   6  245.66    7.64
   0  -1   6  239.42    7.73
   0  -1   6  220.26    7.30
   0  -1   6  237.03    6.01
   0  -1   7  250.39    9.98
   0  -1   7  234.62    8.25
   0  -1   7  202.67    8.62
   0  -1   7  234.86    6.82
   0  -1   7  234.59    9.31
   0  -1   7  233.65    8.20
   0  -1   7  236.02    6.95
   0  -1   7  241.75    8.52
   0  -1   7  230.84    8.23
   0  -1   8    2.57    1.10
   0  -1   8    3.16    1.33
   0  -1   8    2.74    1.02
   0  -1   8    3.95    1.21
   0  -1   8    2.69    1.30
   0  -1   8    2.72    1.33
   0  -1   8    1.43    1.03
   0  -1   8    2.34    1.02
   0  -1   9   93.02    5.41
   0  -1   9   98.36    6.34
   0  -1   9  104.55    5.18
   0  -1   9   97.19    5.38
   0  -1  10    4.39    1.06
   0  -1  10    3.54    1.22
   0  -1  10    4.87    1.25
   0  -1  11   23.33    1.98
   0  -1  11   19.49    2.34
   0   0 -11   84.99    4.11
   0   0 -11   77.53    3.87
   0   0 -11   79.24    4.11
   0   0 -11   74.00    3.90
   0   0 -10   39.90    3.33
   0   0 -10   38.15    3.40
   0   0 -10   35.45    3.25
   0   0 -10   33.13    3.16
   0   0 -10   37.96    3.51
   0   0  -9  503.60   14.12
   0   0  -9  542.42   14.65
   0   0  -9  511.28   14.36
   0   0  -9  546.69   14.97
   0   0  -9  520.09   14.74
   0   0  -9  540.28   15.28
   0   0  -9  493.06   13.92
   0   0  -8    4.24    1.30
   0   0  -8    4.00    1.17
   0   0  -8    3.70    1.29
   0   0  -8    3.92    1.27
   0   0  -8    2.56    1.15
   0   0  -8    2.24    1.05
   0   0  -8    5.07    1.32
   0   0  -7  380.97   10.85
   0   0  -7  351.63    9.26
   0   0  -7  356.21   11.12
   0   0  -7  363.37    9.03
   0   0  -7  370.04   10.93
   0   0  -7  373.35   10.59
   0   0  -7  352.54   10.73
   0   0  -7  368.92   11.32
   0   0  -7  344.43   10.42
   0   0  -7  348.77    9.09
   0   0  -6   29.48    2.48
   0   0  -6   25.25    2.02
   0   0  -6   30.21    2.05
   0   0  -6   29.24    2.56
   0   0  -6   30.36    2.61
   0   0  -6   28.01    2.41
   0   0  -6   30.39    2.15
   0   0  -6   26.67    2.56
   0   0  -5  316.23    8.23
   0   0  -5  317.11    6.34
   0   0  -5  326.05    7.31
   0   0  -5  321.56    8.66
   0   0  -5  323.22    8.34
   0   0  -5  319.29    8.47
   0   0  -5  316.31    7.43
   0   0  -4  932.17   15.95
   0   0  -4  911.27   14.10
   0   0  -4  886.62   14.77
   0   0  -4  890.86   15.82
   0   0  -4  908.35   14.19
   0   0  -4  878.96   16.02
   0   0  -4  886.03   16.31
   0   0  -4  854.86   14.95
   0   0  -3    2.95    0.57
   0   0  -3    2.76    0.38
   0   0  -3    2.77    0.45
   0   0  -3    2.43    0.64
   0   0  -3    2.55    0.61
   0   0  -3    2.43    0.56
   0   0  -2 2280.30   33.55
   0   0  -2 2325.43   33.57
   0   0  -2 2342.44   33.05
   0   0  -2 2332.75   32.25
   0   0  -2 2322.12   33.72
   0   0  -1 1278.43   18.17
   0   0  -1 1277.92   18.21
   0   0  -1 1269.37   17.57
   0   0  -1 1240.02   18.26
   0   0   1 1246.94   17.68
   0   0   1 1271.63   17.60
   0   0   1 1253.13   17.56
   0   0   2 2335.37   33.66
   0   0   2 2353.86   33.24
   0   0   2 2396.52   32.98
   0   0   2 2369.33   33.04
   0   0   2 2273.24   33.97
   0   0   3    2.12    0.46
   0   0   3    2.13    0.37
   0   0   3    3.33    0.55
   0   0   3    1.96    0.36
   0   0   3    2.42    0.34
   0   0   3    2.08    0.32
   0   0   4  905.65   15.20
   0   0   4  886.79   14.33
   0   0   4  857.16   14.94
   0   0   4  877.34   14.27
   0   0   4  908.09   13.86
   0   0   4  893.66   16.04
   0   0   4  896.07   13.66
   0   0   4  884.96   15.95
   0   0   4  873.47   16.56
   0   0   5  324.24    6.83
   0   0   5  342.38    7.74
   0   0   5  331.90    6.89
   0   0   5  322.98    6.26
   0   0   5  324.81    8.60
   0   0   5  328.59    8.58
   0   0   5  330.63    9.27
   0   0   5  307.98    5.84
   0   0   5  334.91    7.88
   0   0   6   25.84    1.68
   0   0   6   28.29    2.11
   0   0   6   27.80    2.45
   0   0   6   27.75    2.18
   0   0   6   28.54    1.77
   0   0   6   26.63    2.43
   0   0   6   26.28    2.28
   0   0   6   26.91    2.40
   0   0   6   27.24    2.74
   0   0   7  351.59   11.92
   0   0   7  350.79   10.36
   0   0   7  373.16   10.80
   0   0   7  331.92   11.37
   0   0   7  343.09    9.09
   0   0   7  361.05   10.51
   0   0   7  357.41   10.91
   0   0   7  362.28   12.00
   0   0   7  378.53   10.58
   0   0   8    3.45    1.13
   0   0   8    2.11    1.16
   0   0   8    3.08    1.11
   0   0   8    3.26    1.04
   0   0   8    1.82    0.98
   0   0   8    5.42    1.43
   0   0   8    2.90    1.45
   0   0   9  573.76   14.79
   0   0   9  520.24   15.66
   0   0   9  540.26   12.95
   0   0   9  566.92   15.02
   0   0  10   38.33    3.25
   0   0  10   36.38    3.80
   0   0  11   82.60    4.04
   0   0  11   80.14    4.35
   0   0  11   75.08    4.53
   0   1 -11   22.11    2.19
   0   1 -11   18.88    1.84
   0   1 -11   21.69    2.08
   0   1 -11   20.10    2.05
   0   1 -10    4.83    1.48
   0   1 -10    6.14    1.58
   0   1 -10    4.67    1.40
   0   1 -10    5.69    1.35
   0   1 -10    4.25    1.28
   0   1 -10    6.11    1.56
   0   1  -9  103.04    5.88
   0   1  -9  109.26    5.91
   0   1  -9  106.95    6.05
   0   1  -9  107.94    6.11
   0   1  -9   94.58    5.58
   0   1  -9  107.77    5.94
   0   1  -9  100.49    5.81
   0   1  -9  101.78    6.06
   0   1  -8    0.93    0.78
   0   1  -8    3.09    1.16
   0   1  -8    2.48    1.25
   0   1  -8    3.16    1.31
   0   1  -8    2.12    1.10
   0   1  -8    2.42    1.23
   0   1  -8    1.83    0.90
   0   1  -8    1.18    1.07
   0   1  -8    2.53    0.85
   0   1  -8    2.56    1.21
   0   1  -8    2.92    1.20
   0   1  -7  245.19    8.59
   0   1  -7  236.63    8.44
   0   1  -7  227.04    7.27
   0   1  -7  233.33    8.18
   0   1  -7  240.16    8.56
   0   1  -7  219.21    7.45
   0   1  -7  253.24    8.76
   0   1  -7  234.43    8.83
   0   1  -7  221.21    7.97
   0   1  -6  234.48    7.75
   0   1  -6  225.66    7.59
   0   1  -6  237.10    6.87
   0   1  -6  227.14    7.71
   0   1  -6  226.42    7.06
   0   1  -6  238.45    7.81
   0   1  -6  244.12    8.13
   0   1  -6  229.84    6.39
   0   1  -6  219.35    7.30
   0   1  -5 1110.66   20.33
   0   1  -5 1115.05   19.29
   0   1  -5 1089.50   20.34
   0   1  -5 1155.91   19.76
   0   1  -5 1170.58   20.58
   0   1  -5 1088.06   20.69
   0   1  -5 1080.41   18.64
   0   1  -5 1084.14   19.90
   0   1  -4 6981.24  100.83
   0   1  -4 7255.99  100.01
   0   1  -4 6903.03  100.78
   0   1  -4 7059.34  100.17
   0   1  -4 7215.27  100.90
   0   1  -4 7154.27  101.35
   0   1  -4 6863.41   99.26
   0   1  -4 7128.49  100.59
   0   1  -3 2716.53   38.68
   0   1  -3 2837.22   39.91
   0   1  -3 2790.43   39.98
   0   1  -3 2818.82   40.48
   0   1  -3 2721.85   40.70
   0   1  -3 2668.94   37.98
   0   1  -3 2661.57   40.10
   0   1  -2 3863.01   54.50
   0   1  -2 3849.14   54.18
   0   1  -2 3898.66   55.11
   0   1  -2 3938.22   55.02
   0   1  -2 3869.29   55.46
   0   1  -2 3907.61   55.28
   0   1  -2 4001.20   55.32
   0   1  -1 1756.23   25.35
   0   1  -1 1766.36   25.35
   0   1  -1 1750.18   25.32
   0   1  -1 1745.08   25.22
   0   1  -1 1802.83   25.41
   0   1  -1 1796.82   25.73
   0   1  -1 1809.91   25.62
   0   1   0 3051.13   42.43
   0   1   1 3642.46   50.13
   0   1   1 3658.06   50.36
   0   1   2 4814.45   67.32
   0   1   2 4754.27   66.23
   0   1   3  169.69    3.74
   0   1   3  172.56    3.04
   0   1   3  156.61    2.83
   0   1   3  170.45    4.34
   0   1   3  173.25    4.15
   0   1   3  171.32    4.98
   0   1   3  165.66    3.83
   0   1   4  504.78   10.15
   0   1   4  519.81    9.49
   0   1   4  501.12    8.06
   0   1   4  523.32   10.10
   0   1   4  519.99   11.03
   0   1   4  529.78   11.03
   0   1   4  526.72   11.49
   0   1   4  528.19    9.24
   0   1   5  181.27    5.57
   0   1   5  191.15    5.22
   0   1   5  184.46    6.34
   0   1   5  178.40    6.26
   0   1   5  185.25    6.76
   0   1   5  189.93    5.73
   0   1   6  162.32    5.70
   0   1   6  167.50    5.88
   0   1   6  151.39    6.21
   0   1   6  156.92    6.41
   0   1   6  152.42    6.31
   0   1   6  154.82    6.27
   0   1   6  153.77    6.90
   0   1   7  188.89    8.25
   0   1   7  194.99    7.20
   0   1   7  210.25    7.95
   0   1   7  195.98    6.19
   0   1   7  200.54    6.86
   0   1   7  186.84    6.90
   0   1   7  208.15    7.33
   0   1   7  205.23    8.81
   0   1   8  285.79    9.44
   0   1   8  266.71   10.41
   0   1   8  282.93    9.96
   0   1   8  279.57   11.13
   0   1   9   92.79    5.15
   0   1   9   93.04    5.50
   0   1   9   88.65    6.36
   0   1  10   55.80    3.93
   0   1  10   49.44    4.43
   0   1  10   51.86    4.31
   0   1  11   81.22    4.07
   0   1  11   81.86    4.58
   0   1  11   76.79    4.26
   0   2 -11   35.16    2.40
   0   2 -11   35.99    2.50
   0   2 -10   55.66    3.79
   0   2 -10   45.91    3.39
   0   2 -10   56.64    3.97
   0   2 -10   56.56    3.92
   0   2 -10   55.21    4.11
   0   2  -9   22.63    2.75
   0   2  -9   24.71    2.98
   0   2  -9   19.14    2.19
   0   2  -9   25.26    2.84
   0   2  -9   24.56    2.81
   0   2  -9   27.98    3.14
   0   2  -9   20.19    2.77
   0   2  -8   22.43    2.73
   0   2  -8   33.26    3.37
   0   2  -8   28.19    3.15
   0   2  -8   25.68    2.58
   0   2  -8   27.44    2.97
   0   2  -8   27.55    3.05
   0   2  -8   20.59    2.66
   0   2  -8   25.16    3.08
   0   2  -8   22.36    2.62
   0   2  -7    2.56    0.84
   0   2  -7    4.30    1.32
   0   2  -7    1.30    1.04
   0   2  -7    2.24    1.14
   0   2  -7    0.66    0.88
   0   2  -7    0.31    0.75
   0   2  -7    1.14    0.68
   0   2  -7    1.10    0.98
   0   2  -7    1.88    0.97
   0   2  -7    2.12    0.93
   0   2  -6  105.50    4.47
   0   2  -6   95.95    4.89
   0   2  -6  101.65    5.06
   0   2  -6  104.64    5.32
   0   2  -6   94.15    5.02
   0   2  -6   94.44    4.23
   0   2  -6  105.42    4.69
   0   2  -6   99.27    5.02
   0   2  -6  105.14    5.17
   0   2  -6  101.69    4.34
   0   2  -6  108.22    5.20
   0   2  -6  106.07    5.41
   0   2  -6  104.19    4.89
   0   2  -5  783.39   15.14
   0   2  -5  810.33   16.26
   0   2  -5  798.90   16.31
   0   2  -5  792.91   16.54
   0   2  -5  802.02   16.68
   0   2  -5  843.94   15.73
   0   2  -5  801.72   16.38
   0   2  -5  793.68   16.39
   0   2  -5  791.12   15.08
   0   2  -5  801.89   16.36
   0   2  -5  783.53   16.80
   0   2  -5  768.19   14.47
   0   2  -5  808.17   16.02
   0   2  -4  413.81    9.03
   0   2  -4  426.15    9.66
   0   2  -4  418.98    8.22
   0   2  -4  465.70    9.56
   0   2  -4  432.89    9.88
   0   2  -4  426.33    9.88
   0   2  -4  404.75    7.39
   0   2  -4  450.72    9.13
   0   2  -4  438.67    9.94
   0   2  -4  433.91   10.24
   0   2  -4  437.19    8.74
   0   2  -4  422.90    9.62
   0   2  -3  233.76    5.44
   0   2  -3  221.22    5.63
   0   2  -3  206.75    4.95
   0   2  -3  207.60    4.61
   0   2  -3  218.82    5.49
   0   2  -3  222.74    5.86
   0   2  -3  212.90    5.83
   0   2  -3  208.88    5.23
   0   2  -3  229.00    5.98
   0   2  -3  240.87    6.28
   0   2  -3  210.87    5.07
   0   2  -3  207.02    5.58
   0   2  -2  603.37   10.82
   0   2  -2  617.19   10.88
   0   2  -2  639.64   10.90
   0   2  -2  634.88   10.65
   0   2  -2  635.61   10.94
   0   2  -2  643.79   11.56
   0   2  -2  648.70   11.86
   0   2  -2  642.63   11.39
   0   2  -1 5737.11   78.97
   0   2  -1 5639.16   79.37
   0   2  -1 5658.35   79.70
   0   2  -1 5598.66   80.36
   0   2   0 1902.57   27.97
   0   2   0 1890.53   26.93
   0   2   0 1867.17   27.69
   0   2   0 1871.46   28.07
   0   2   0 1836.26   27.17
   0   2   1  974.43   16.18
   0   2   1 1015.48   15.27
   0   2   1  975.62   15.18
   0   2   1  960.22   15.42
   0   2   1  985.55   15.19
   0   2   1  968.40   14.50
   0   2   2  239.08    4.86
   0   2   2  224.76    3.56
   0   2   2  245.87    4.71
   0   2   2  261.15    5.15
   0   2   2  245.03    4.17
   0   2   3 1058.74   16.45
   0   2   3 1096.15   16.48
   0   2   3 1029.62   15.46
   0   2   3 1066.19   17.93
   0   2   3 1053.72   18.14
   0   2   3 1013.52   18.75
   0   2   3 1045.09   15.53
   0   2   3 1034.88   16.42
   0   2   4  483.28    8.53
   0   2   4  514.03   10.72
   0   2   4  487.26    8.41
   0   2   4  509.00   11.21
   0   2   4  477.34    9.49
   0   2   5    0.89    0.46
   0   2   5    1.05    0.64
   0   2   5    0.21    0.54
   0   2   5    0.23    0.57
   0   2   6   65.53    3.77
   0   2   6   63.37    4.15
   0   2   6   63.97    3.84
   0   2   6   58.67    4.53
   0   2   6   68.54    4.13
   0   2   6   69.72    4.33
   0   2   6   66.45    3.49
   0   2   7 1377.35   25.12
   0   2   7 1345.15   25.01
   0   2   7 1359.72   26.49
   0   2   7 1331.26   25.45
   0   2   7 1401.52   27.50
   0   2   7 1313.39   25.43
   0   2   7 1392.92   29.73
   0   2   8  994.13   20.44
   0   2   8 1011.72   22.70
   0   2   8 1004.72   21.96
   0   2   8  977.65   24.86
   0   2   8  978.69   20.43
   0   2   9   86.06    5.40
   0   2   9   88.70    5.30
   0   2   9   95.15    6.29
   0   2   9   83.53    6.10
   0   2  10    7.33    1.80
   0   2  10    4.42    1.45
   0   2  10    5.94    1.34
   0   2  11    1.51    0.67
   0   2  11    0.90    0.71
   0   3 -11   50.80    2.56
   0   3 -10   15.51    1.96
   0   3 -10   11.60    1.62
   0   3 -10   14.00    1.91
   0   3  -9   16.89    2.34
   0   3  -9   14.86    2.14
   0   3  -9   15.43    2.39
   0   3  -9   14.72    2.35
   0   3  -8  248.37    9.37
   0   3  -8  265.59    9.70
   0   3  -8  279.84    9.88
   0   3  -8  262.26    9.89
   0   3  -8  263.30   10.20
   0   3  -8  261.49    9.92
   0   3  -8  252.47    8.80
   0   3  -8  259.11    9.52
   0   3  -8  242.00    8.23
   0   3  -7  188.80    7.81
   0   3  -7  190.80    8.38
   0   3  -7  196.31    8.07
   0   3  -7  175.10    6.93
   0   3  -7  179.91    7.93
   0   3  -7  185.34    8.10
   0   3  -7  185.21    7.87
   0   3  -7  186.96    7.25
   0   3  -7  194.46    7.94
   0   3  -7  177.91    7.69
   0   3  -7  185.89    7.32
   0   3  -6  415.61   10.23
   0   3  -6  435.61   12.00
   0   3  -6  452.21   12.47
   0   3  -6  445.19   12.59
   0   3  -6  433.26   12.54
   0   3  -6  416.35   11.34
   0   3  -6  456.78   12.86
   0   3  -6  472.08   11.81
   0   3  -6  445.59   12.33
   0   3  -6  433.78   12.18
   0   3  -6  454.08   13.03
   0   3  -5   93.26    3.96
   0   3  -5  102.22    4.72
   0   3  -5   98.35    4.87
   0   3  -5  104.24    5.23
   0   3  -5   99.56    5.06
   0   3  -5   88.22    4.80
   0   3  -5   96.18    5.06
   0   3  -5  101.33    4.58
   0   3  -5   94.75    4.79
   0   3  -5   94.05    3.93
   0   3  -5   99.89    4.87
   0   3  -4  525.70   12.47
   0   3  -4  500.66   10.52
   0   3  -4  523.13   11.32
   0   3  -4  491.09   11.74
   0   3  -4  498.73    9.60
   0   3  -4  497.18   10.33
   0   3  -4  512.43   12.23
   0   3  -4  517.25   11.93
   0   3  -4  479.73   11.87
   0   3  -4  483.42   10.40
   0   3  -4  488.06   10.32
   0   3  -4  520.55   11.90
   0   3  -4  487.07   10.33
   0   3  -3  619.93   12.01
   0   3  -3  601.84   11.78
   0   3  -3  633.04   11.92
   0   3  -3  631.67   13.41
   0   3  -3  608.01   11.37
   0   3  -3  622.22   12.27
   0   3  -3  618.28   12.87
   0   3  -3  596.24   11.62
   0   3  -3  601.97   11.74
   0   3  -2  469.52    9.54
   0   3  -2  456.23    8.99
   0   3  -2  490.16   10.71
   0   3  -2  478.83    9.62
   0   3  -2  493.08    9.49
   0   3  -2  481.33    9.56
   0   3  -2  457.62    9.41
   0   3  -2  486.93    9.64
   0   3  -2  462.42    9.73
   0   3  -1 1295.77   21.12
   0   3  -1 1282.34   19.58
   0   3  -1 1260.03   20.95
   0   3  -1 1284.56   22.06
   0   3  -1 1303.33   20.97
   0   3  -1 1278.14   20.43
   0   3  -1 1410.74   22.32
   0   3  -1 1231.94   20.98
   0   3  -1 1356.62   21.39
   0   3  -1 1306.18   20.71
   0   3   0  106.28    3.73
   0   3   0  103.80    2.16
   0   3   0  109.49    3.50
   0   3   0   99.52    2.83
   0   3   0  107.92    3.56
   0   3   0  100.31    3.67
   0   3   0  106.95    3.80
   0   3   0  104.62    3.97
   0   3   0   99.08    3.01
   0   3   1 1703.25   27.89
   0   3   1 1740.93   26.66
   0   3   1 1733.04   26.73
   0   3   1 1725.92   28.02
   0   3   1 1741.13   25.60
   0   3   2  321.64    8.29
   0   3   2  332.23    6.95
   0   3   2  323.30    6.86
   0   3   2  338.35    7.39
   0   3   2  321.33    8.39
   0   3   2  325.59    5.80
   0   3   3 3194.84   45.85
   0   3   3 3257.91   46.38
   0   3   3 3121.47   47.48
   0   3   3 3069.56   43.76
   0   3   4  163.43    4.47
   0   3   4  155.25    4.48
   0   3   4  163.21    5.88
   0   3   5  819.40   14.92
   0   3   5  837.84   18.27
   0   3   5  848.98   16.68
   0   3   5  843.24   17.60
   0   3   5  880.42   18.44
   0   3   6   62.38    4.10
   0   3   6   62.49    4.29
   0   3   6   63.95    4.90
   0   3   6   64.25    4.79
   0   3   6   65.61    3.92
   0   3   7  581.01   14.63
   0   3   7  591.23   17.42
   0   3   7  573.21   15.89
   0   3   7  586.02   17.07
   0   3   8   29.09    3.29
   0   3   8   27.17    2.86
   0   3   8   24.09    3.34
   0   3   8   27.22    3.43
   0   3   9    9.31    1.93
   0   3   9    9.22    1.68
   0   3   9    8.61    2.07
   0   3   9    9.87    2.10
   0   3  10   47.40    3.21
   0   3  10   48.53    3.84
   0   3  11   35.35    2.32
   0   4  -9   85.82    4.55
   0   4  -9   89.25    5.20
   0   4  -9   85.54    4.95
   0   4  -9   82.49    4.65
   0   4  -8    1.85    1.13
   0   4  -8    3.26    1.20
   0   4  -8    4.72    1.47
   0   4  -8    3.20    1.10
   0   4  -8    2.69    1.22
   0   4  -8    2.77    1.11
   0   4  -7  166.42    7.21
   0   4  -7  178.66    7.91
   0   4  -7  180.02    7.91
   0   4  -7  179.57    8.19
   0   4  -7  175.97    7.25
   0   4  -7  188.08    8.47
   0   4  -7  190.13    7.78
   0   4  -6  217.66    8.00
   0   4  -6  222.98    8.70
   0   4  -6  218.03    8.70
   0   4  -6  208.67    7.71
   0   4  -6  226.30    9.11
   0   4  -6  248.81    9.62
   0   4  -5  377.67   10.30
   0   4  -5  379.90   11.30
   0   4  -5  374.91   11.47
   0   4  -5  344.28   10.23
   0   4  -5  381.73   11.72
   0   4  -5  370.99   10.34
   0   4  -5  347.11   11.36
   0   4  -4  160.44    5.41
   0   4  -4  159.12    5.70
   0   4  -4  151.48    6.43
   0   4  -4  159.59    6.75
   0   4  -4  166.51    6.36
   0   4  -4  150.46    5.73
   0   4  -4  183.79    6.28
   0   4  -4  171.59    7.06
   0   4  -4  150.03    4.99
   0   4  -4  158.04    5.38
   0   4  -3   10.10    1.27
   0   4  -3   13.23    1.37
   0   4  -3   10.13    1.58
   0   4  -3   13.26    1.86
   0   4  -3   15.11    1.59
   0   4  -3   14.82    1.48
   0   4  -3   14.58    1.95
   0   4  -3   12.27    1.46
   0   4  -3   12.91    1.41
   0   4  -3   11.69    1.39
   0   4  -2   18.62    1.69
   0   4  -2   17.37    1.33
   0   4  -2   18.16    1.74
   0   4  -2   19.67    1.69
   0   4  -2   17.62    1.59
   0   4  -2   19.04    2.10
   0   4  -2   14.21    1.51
   0   4  -2   19.11    1.75
   0   4  -2   18.89    2.06
   0   4  -2   18.93    1.71
   0   4  -1  152.61    3.67
   0   4  -1  161.33    5.35
   0   4  -1  167.65    5.34
   0   4  -1  166.49    5.32
   0   4  -1  153.66    4.64
   0   4  -1  160.07    6.01
   0   4  -1  157.86    5.35
   0   4  -1  165.66    5.53
   0   4  -1  158.94    6.03
   0   4  -1  154.95    4.86
   0   4   0  562.13   12.18
   0   4   0  571.47   11.66
   0   4   0  587.28   11.90
   0   4   0  533.96   10.12
   0   4   0  549.43   12.73
   0   4   0  563.13   12.27
   0   4   0  553.34   12.78
   0   4   0  554.58   10.67
   0   4   1 1695.67   29.21
   0   4   1 1720.56   27.85
   0   4   1 1713.01   27.93
   0   4   1 1720.01   29.46
   0   4   1 1743.51   26.19
   0   4   2  169.77    6.28
   0   4   2  164.06    5.03
   0   4   2  176.35    5.56
   0   4   2  158.73    4.86
   0   4   2  164.36    6.28
   0   4   2  159.35    3.76
   0   4   3 1459.90   23.71
   0   4   3 1441.50   24.53
   0   4   3 1434.33   24.78
   0   4   3 1410.32   26.99
   0   4   4  162.21    6.45
   0   4   4  160.07    4.87
   0   4   4  168.40    5.39
   0   4   4  153.34    5.76
   0   4   4  168.05    7.10
   0   4   4  153.78    6.03
   0   4   4  163.61    7.31
   0   4   5  238.65    8.75
   0   4   5  244.78    9.76
   0   4   5  237.89    8.00
   0   4   5  260.70    8.75
   0   4   6  182.53    7.92
   0   4   6  161.88    6.19
   0   4   6  183.78    8.74
   0   4   6  178.83    7.23
   0   4   7  528.09   15.23
   0   4   7  510.60   12.90
   0   4   7  525.71   16.20
   0   4   8   -0.23    0.92
   0   4   8    0.52    0.56
   0   4   9    5.39    1.13
   0   4   9    6.88    1.72
   0   4   9    4.72    1.57
   0   4  10   33.07    2.75
   0   4  10   37.25    3.06
   0   4  11   20.35    1.65
   0   5  -9  204.42    6.39
   0   5  -9  189.75    4.73
   0   5  -8    6.76    1.45
   0   5  -8    7.09    1.62
   0   5  -8    6.35    1.51
   0   5  -8    4.79    1.27
   0   5  -7    0.97    0.99
   0   5  -7    1.51    0.98
   0   5  -7    1.56    1.01
   0   5  -7    1.47    0.76
   0   5  -7    4.12    1.44
   0   5  -6  484.01   14.22
   0   5  -6  515.60   13.50
   0   5  -6  502.27   14.52
   0   5  -6  510.66   13.44
   0   5  -6  528.38   15.25
   0   5  -6  532.90   15.44
   0   5  -5  111.00    6.11
   0   5  -5  116.58    6.34
   0   5  -5  113.04    6.48
   0   5  -5  101.61    5.37
   0   5  -5  110.62    5.48
   0   5  -5  114.85    6.46
   0   5  -4  171.17    7.68
   0   5  -4  176.64    7.20
   0   5  -4  180.24    6.78
   0   5  -4  179.92    8.09
   0   5  -4  178.10    6.07
   0   5  -4  169.63    5.99
   0   5  -4  185.68    8.14
   0   5  -4  167.60    6.43
   0   5  -3   89.55    4.34
   0   5  -3  103.36    5.06
   0   5  -3   84.83    4.43
   0   5  -3   88.86    5.34
   0   5  -3   93.45    4.39
   0   5  -3   87.82    4.91
   0   5  -3   96.76    4.54
   0   5  -3  101.74    5.76
   0   5  -3   95.55    4.42
   0   5  -3   88.28    4.22
   0   5  -3   96.61    5.56
   0   5  -2  414.25   10.81
   0   5  -2  412.73   10.43
   0   5  -2  416.65   10.58
   0   5  -2  422.89   12.22
   0   5  -2  399.41   10.81
   0   5  -2  427.45   10.88
   0   5  -2  433.16   10.69
   0   5  -2  406.74   11.54
   0   5  -2  409.82   10.00
   0   5  -2  416.82   12.20
   0   5  -2  430.09   10.63
   0   5  -2  404.09   10.22
   0   5  -2  399.82   10.50
   0   5  -2  429.32   12.43
   0   5  -1  214.68    7.20
   0   5  -1  224.05    8.45
   0   5  -1  230.47    7.34
   0   5  -1  225.61    7.37
   0   5  -1  228.87    8.44
   0   5  -1  220.04    7.27
   0   5  -1  230.33    8.44
   0   5  -1  242.44    7.51
   0   5  -1  228.33    8.19
   0   5  -1  221.16    6.26
   0   5  -1  221.98    8.32
   0   5  -1  230.76    7.27
   0   5  -1  226.36    7.40
   0   5  -1  211.10    7.05
   0   5  -1  225.49    7.31
   0   5   0  138.98    5.71
   0   5   0  128.75    5.29
   0   5   0  125.80    5.15
   0   5   0  123.82    6.04
   0   5   0  123.26    5.11
   0   5   0  128.89    6.07
   0   5   0  127.96    5.27
   0   5   0  133.21    5.29
   0   5   0  131.11    5.60
   0   5   0  131.69    6.22
   0   5   0  118.87    4.32
   0   5   1  116.40    5.44
   0   5   1  103.24    4.74
   0   5   1  110.68    4.65
   0   5   1  120.81    5.99
   0   5   1  101.09    5.43
   0   5   1  107.29    4.72
   0   5   1  110.20    5.35
   0   5   1  114.04    6.23
   0   5   1  112.28    3.69
   0   5   2  270.75    8.15
   0   5   2  275.66    7.72
   0   5   2  275.47    9.41
   0   5   2  258.46    9.46
   0   5   2  275.95    8.32
   0   5   2  267.87    8.01
   0   5   2  285.51    9.50
   0   5   2  274.41   10.17
   0   5   3  767.00   16.75
   0   5   3  816.43   16.82
   0   5   3  822.20   15.91
   0   5   3  839.91   17.12
   0   5   3  820.18   19.04
   0   5   3  825.01   16.61
   0   5   3  841.05   19.40
   0   5   3  822.50   20.14
   0   5   4  254.41    7.05
   0   5   4  259.94    8.79
   0   5   4  268.98    7.91
   0   5   4  265.40    7.69
   0   5   4  264.15   10.51
   0   5   4  264.78    9.94
   0   5   4  270.83    8.08
   0   5   5   27.64    3.43
   0   5   5   24.60    2.41
   0   5   5   34.53    3.61
   0   5   5   25.00    2.79
   0   5   6   39.56    3.97
   0   5   6   41.75    3.73
   0   5   6   41.74    4.27
   0   5   7    9.70    1.92
   0   5   7    9.57    2.12
   0   5   7    9.95    2.18
   0   5   8   26.69    2.91
   0   5   8   23.94    3.02
   0   5   8   19.89    2.80
   0   5   9  133.64    6.06
   0   5   9  147.93    6.59
   0   5  10    9.42    1.36
   0   6  -8  133.48    5.33
   0   6  -8  131.34    5.11
   0   6  -8  132.15    4.66
   0   6  -7   30.18    2.77
   0   6  -7   31.40    3.05
   0   6  -7   29.22    3.03
   0   6  -7   34.80    3.01
   0   6  -6   75.67    4.91
   0   6  -6   76.61    4.43
   0   6  -6   88.04    5.53
   0   6  -6   80.57    5.39
   0   6  -5  143.40    6.54
   0   6  -5  152.00    7.32
   0   6  -5  137.20    6.11
   0   6  -5  140.84    7.32
   0   6  -5  146.39    7.53
   0   6  -5  139.40    5.74
   0   6  -4   71.52    3.96
   0   6  -4   71.77    4.63
   0   6  -4   78.26    5.30
   0   6  -4   67.77    4.47
   0   6  -4   76.53    4.39
   0   6  -4   81.27    5.51
   0   6  -4   72.40    3.87
   0   6  -4   71.37    5.25
   0   6  -4   80.78    4.55
   0   6  -3  201.27    7.25
   0   6  -3  213.99    9.31
   0   6  -3  189.50    7.11
   0   6  -3  211.41    8.94
   0   6  -3  185.20    7.82
   0   6  -3  190.98    6.90
   0   6  -3  199.54    8.85
   0   6  -3  191.18    8.73
   0   6  -3  201.85    7.55
   0   6  -3  206.05    7.28
   0   6  -2  120.22    5.63
   0   6  -2  133.42    7.14
   0   6  -2  131.68    6.16
   0   6  -2  132.20    5.89
   0   6  -2  134.39    6.60
   0   6  -2  122.62    5.02
   0   6  -2  129.25    6.94
   0   6  -2  129.78    5.76
   0   6  -2  132.55    6.04
   0   6  -2  130.98    6.94
   0   6  -1    1.97    0.87
   0   6  -1    2.40    0.90
   0   6  -1    2.36    1.30
   0   6  -1    2.84    0.97
   0   6  -1    2.92    1.31
   0   6  -1    3.70    1.10
   0   6  -1    4.61    1.27
   0   6  -1    2.30    1.08
   0   6  -1    3.36    1.21
   0   6  -1    3.26    0.97
   0   6  -1    2.96    0.97
   0   6   0  274.48    9.19
   0   6   0  279.93    9.11
   0   6   0  277.63   10.60
   0   6   0  270.30    8.88
   0   6   0  282.59   10.56
   0   6   0  292.73    9.35
   0   6   0  270.62   10.04
   0   6   0  290.09    9.14
   0   6   0  274.36    9.19
   0   6   0  282.65    9.26
   0   6   0  278.46    9.99
   0   6   0  284.71    8.75
   0   6   1  857.77   18.86
   0   6   1  887.04   18.41
   0   6   1  857.71   20.93
   0   6   1  898.28   18.85
   0   6   1  883.65   19.89
   0   6   1  867.80   20.32
   0   6   1  917.98   19.43
   0   6   1  877.42   17.92
   0   6   2  146.55    7.18
   0   6   2  153.37    6.48
   0   6   2  144.75    5.81
   0   6   2  151.39    5.62
   0   6   2  157.88    6.42
   0   6   2  145.85    7.12
   0   6   2  148.59    8.07
   0   6   2  154.00    6.51
   0   6   3   33.42    2.58
   0   6   3   34.29    2.96
   0   6   3   31.54    2.84
   0   6   3   38.45    4.04
   0   6   3   37.86    2.99
   0   6   4   29.18    2.61
   0   6   4   28.71    2.65
   0   6   4   25.88    2.52
   0   6   4   28.32    2.56
   0   6   4   28.56    2.52
   0   6   4   24.48    3.33
   0   6   4   27.83    3.24
   0   6   5  320.82   10.09
   0   6   5  327.38    8.73
   0   6   5  326.42   12.40
   0   6   5  310.69   11.57
   0   6   6  323.54   10.25
   0   6   6  316.84   11.37
   0   6   6  313.10   11.81
   0   6   7  215.56    7.88
   0   6   7  212.70    8.88
   0   6   7  223.08    8.90
   0   6   7  207.08    6.34
   0   6   8   59.79    3.99
   0   6   8   69.05    4.31
   0   6   9    1.58    0.57
   0   7  -7  119.93    5.04
   0   7  -7  125.31    4.79
   0   7  -6    4.55    1.29
   0   7  -6    4.64    1.12
   0   7  -6    6.71    1.42
   0   7  -5   27.43    3.09
   0   7  -5   30.70    2.96
   0   7  -5   27.12    2.95
   0   7  -4   43.19    2.89
   0   7  -4   41.72    3.94
   0   7  -4   36.45    3.51
   0   7  -4   43.33    2.82
   0   7  -4   43.90    3.21
   0   7  -3  157.91    6.33
   0   7  -3  167.25    8.22
   0   7  -3  167.17    7.86
   0   7  -3  153.64    6.78
   0   7  -3  163.97    6.79
   0   7  -3  161.05    6.26
   0   7  -2  634.63   15.34
   0   7  -2  621.45   17.52
   0   7  -2  616.33   15.65
   0   7  -2  617.77   15.23
   0   7  -2  625.63   17.23
   0   7  -2  613.44   16.02
   0   7  -2  643.27   15.07
   0   7  -2  649.50   15.22
   0   7  -2  646.79   15.71
   0   7  -1   17.11    2.71
   0   7  -1   13.59    2.03
   0   7  -1   17.39    2.28
   0   7  -1   17.02    2.69
   0   7  -1   15.75    2.17
   0   7  -1   19.64    2.35
   0   7  -1   17.54    2.35
   0   7   0   15.28    2.58
   0   7   0   14.09    2.04
   0   7   0   13.17    1.94
   0   7   0   12.65    1.99
   0   7   0   15.74    2.19
   0   7   0   15.65    2.15
   0   7   1  102.57    5.17
   0   7   1   99.91    5.52
   0   7   1  116.15    5.92
   0   7   1  106.23    6.11
   0   7   2 1175.73   24.16
   0   7   2 1199.80   24.08
   0   7   2 1209.80   23.82
   0   7   2 1182.75   25.62
   0   7   3  156.02    6.52
   0   7   3  156.13    6.48
   0   7   3  143.12    7.25
   0   7   3  154.58    6.84
   0   7   4  185.62    6.67
   0   7   4  182.24    8.16
   0   7   4  193.42    7.49
   0   7   4  189.73    6.76
   0   7   4  186.78    8.96
   0   7   5   14.61    1.92
   0   7   5   14.94    1.58
   0   7   5   14.49    2.48
   0   7   5   16.97    2.41
   0   7   6   44.11    2.81
   0   7   6   43.26    3.69
   0   7   6   39.39    3.38
   0   7   7   23.62    2.35
   0   7   8   21.81    1.82
   0   8  -6  110.77    4.14
   0   8  -6  123.04    4.13
   0   8  -5   64.69    3.59
   0   8  -5    0.08    0.25
   0   8  -4  169.92    4.93
   0   8  -4  192.17    7.29
   0   8  -4  175.70    6.41
   0   8  -4  188.85    5.66
   0   8  -3  204.95    6.44
   0   8  -3  209.81    8.20
   0   8  -3  192.99    7.48
   0   8  -3  203.76    6.32
   0   8  -3  201.97    6.73
   0   8  -2   68.79    3.90
   0   8  -2   73.08    4.70
   0   8  -2   71.79    3.88
   0   8  -2   70.06    4.07
   0   8  -1   63.74    3.89
   0   8  -1   62.35    3.81
   0   8  -1   68.35    4.72
   0   8  -1   65.07    4.08
   0   8   0    7.23    1.47
   0   8   0    9.65    1.63
   0   8   0    7.82    1.56
   0   8   1   79.91    4.64
   0   8   2   19.32    2.16
   0   8   2   20.37    2.20
   0   8   3  122.73    5.11
   0   8   3  118.03    5.02
   0   8   3  105.94    5.37
   0   8   3  116.93    5.37
   0   8   4   69.07    3.27
   0   8   4   66.04    3.24
   0   8   4   59.50    3.78
   0   8   4   66.73    3.72
   0   8   5   28.75    2.13
   0   8   5   28.99    2.43
   0   8   6    0.04    0.12
   0   8   6   51.07    2.63
   0   9  -3   53.16    2.39
   0   9  -2   56.72    2.61
   0   9  -2   48.21    2.36
   0   9  -2   57.06    2.56
   0   9  -2   56.97    2.72
   0   9  -1   13.23    1.41
   0   9  -1   12.18    1.36
   0   9  -1   10.51    1.35
   0   9   0  114.23    4.39
   0   9   0  116.01    4.35
   0   9   0  117.95    4.59
   0   9   1   33.26    2.36
   0   9   2    9.05    1.17
   0   9   2   10.32    1.24
   0   9   3   34.12    1.88
   0   9   3   34.28    1.89
   0   9   3   37.58    2.24
   0   9   4   17.68    1.30
   1  -9  -1   48.66    2.46
   1  -9  -1   61.30    2.48
   1  -9   0  143.95    4.50
   1  -9   1   43.47    2.39
   1  -9   1   35.68    1.94
   1  -9   2   15.47    1.40
   1  -9   2   13.01    1.22
   1  -9   3   75.12    2.86
   1  -8  -5   79.60    2.83
   1  -8  -4  154.05    4.95
   1  -8  -3  123.87    4.63
   1  -8  -2   82.56    4.43
   1  -8  -2   76.00    3.99
   1  -8  -1  124.43    5.72
   1  -8  -1  127.96    6.27
   1  -8   0  413.77   10.23
   1  -8   0  443.65   12.70
   1  -8   1    8.98    1.56
   1  -8   1   10.75    1.58
   1  -8   1    8.72    1.35
   1  -8   1    7.93    1.69
   1  -8   2  120.24    5.13
   1  -8   2  110.72    4.88
   1  -8   2  120.42    6.02
   1  -8   3   54.87    2.80
   1  -8   3   64.75    3.63
   1  -8   3   57.23    3.41
   1  -8   3   61.92    4.16
   1  -8   4  109.51    4.10
   1  -8   4  132.71    5.00
   1  -8   5   80.14    3.15
   1  -8   5   85.99    3.59
   1  -8   6   37.86    2.59
   1  -7  -7  156.65    4.97
   1  -7  -5  249.22    8.51
   1  -7  -4   45.21    3.27
   1  -7  -4   46.88    3.49
   1  -7  -3  146.84    6.36
   1  -7  -3  143.15    6.51
   1  -7  -2  308.88   10.18
   1  -7  -1  497.34   13.53
   1  -7   0  241.83    7.82
   1  -7   0  251.11    9.54
   1  -7   1  130.11    5.62
   1  -7   1  138.32    6.51
   1  -7   1  143.85    6.10
   1  -7   1  143.31    6.95
   1  -7   1  146.10    7.30
   1  -7   2   42.18    3.51
   1  -7   2   36.34    2.73
   1  -7   2   35.42    2.75
   1  -7   2   38.66    3.17
   1  -7   2   34.97    3.36
   1  -7   2   38.02    3.67
   1  -7   3  178.77    6.67
   1  -7   3  178.88    6.62
   1  -7   3  201.02    8.56
   1  -7   3  187.70    7.32
   1  -7   3  186.37    7.72
   1  -7   4   93.69    4.72
   1  -7   4   93.29    4.69
   1  -7   4   98.94    4.83
   1  -7   4  102.25    5.17
   1  -7   4   98.17    5.82
   1  -7   5  336.77    9.64
   1  -7   5  354.46    9.81
   1  -7   5  369.54    9.99
   1  -7   5  349.11   11.29
   1  -7   6   21.08    2.02
   1  -7   6   19.18    1.83
   1  -7   6   17.29    1.85
   1  -7   6   19.02    2.32
   1  -7   7  226.00    7.54
   1  -7   7  212.52    5.86
   1  -7   8   18.83    1.60
   1  -7   8   17.94    1.48
   1  -6  -8   41.59    2.17
   1  -6  -8   39.86    2.35
   1  -6  -7   20.08    2.13
   1  -6  -6  153.34    6.63
   1  -6  -5    2.59    0.97
   1  -6  -5    2.72    0.91
   1  -6  -5    1.35    1.03
   1  -6  -4  425.93   11.53
   1  -6  -4  437.49   12.01
   1  -6  -4  427.87   13.16
   1  -6  -3  337.68   10.47
   1  -6  -3  341.72   10.24
   1  -6  -2   97.65    5.17
   1  -6  -1   22.20    2.47
   1  -6  -1   23.81    2.12
   1  -6   0   70.60    3.79
   1  -6   0   69.36    4.36
   1  -6   0   71.31    3.93
   1  -6   1  438.96   10.81
   1  -6   1  448.71   11.45
   1  -6   1  434.11   12.24
   1  -6   1  444.01   10.69
   1  -6   1  471.26   11.97
   1  -6   1  467.75   13.16
   1  -6   2   43.34    3.08
   1  -6   2   41.36    3.01
   1  -6   2   38.19    3.03
   1  -6   2   42.88    3.37
   1  -6   2   44.05    3.04
   1  -6   2   43.86    3.33
   1  -6   2   43.59    3.63
   1  -6   2   44.18    3.87
   1  -6   3   65.99    4.02
   1  -6   3   65.23    4.04
   1  -6   3   67.72    4.16
   1  -6   3   63.55    4.06
   1  -6   3   65.46    3.94
   1  -6   3   65.53    4.23
   1  -6   3   74.01    4.76
   1  -6   3   69.92    4.93
   1  -6   4   49.42    3.55
   1  -6   4   46.14    3.47
   1  -6   4   52.88    4.36
   1  -6   4   49.20    3.63
   1  -6   4   50.80    3.65
   1  -6   4   40.36    3.16
   1  -6   4   47.66    3.49
   1  -6   4   42.06    3.60
   1  -6   5   37.49    3.16
   1  -6   5   37.17    2.97
   1  -6   5   41.84    3.33
   1  -6   5   38.96    3.17
   1  -6   5   39.58    3.21
   1  -6   5   38.73    3.22
   1  -6   5   41.77    3.54
   1  -6   5   41.56    3.85
   1  -6   6  225.80    7.98
   1  -6   6  234.00    8.15
   1  -6   6  228.49    7.62
   1  -6   6  234.43    7.97
   1  -6   6  228.05    9.29
   1  -6   7   79.94    3.96
   1  -6   7   79.31    3.67
   1  -6   7   80.42    3.99
   1  -6   7   79.52    5.01
   1  -6   8   64.14    4.08
   1  -6   8   63.17    2.98
   1  -6   8   62.83    3.13
   1  -6   8   64.29    3.88
   1  -6   9    1.97    0.65
   1  -6   9    2.70    0.71
   1  -5  -9  185.61    6.17
   1  -5  -8  110.30    5.68
   1  -5  -8  103.79    4.54
   1  -5  -7   84.83    5.31
   1  -5  -7   86.09    4.75
   1  -5  -6  181.10    7.94
   1  -5  -6  188.85    8.36
   1  -5  -6  193.80    7.75
   1  -5  -6  173.36    7.92
   1  -5  -5    5.85    1.20
   1  -5  -5    6.74    1.36
   1  -5  -5    7.69    1.83
   1  -5  -5    4.25    1.34
   1  -5  -4   93.60    4.65
   1  -5  -4   92.03    4.79
   1  -5  -4   79.49    4.62
   1  -5  -4   84.19    4.27
   1  -5  -4   86.33    5.31
   1  -5  -3   31.55    2.62
   1  -5  -2  515.20   12.46
   1  -5  -1  468.65   10.13
   1  -5  -1  461.49   11.63
   1  -5   0  233.83    6.47
   1  -5   0  230.42    6.26
   1  -5   0  239.61    6.89
   1  -5   0  254.24    7.91
   1  -5   1   40.77    2.60
   1  -5   1   38.72    2.50
   1  -5   1   41.48    2.74
   1  -5   1   39.09    2.92
   1  -5   1   37.77    2.49
   1  -5   2  232.39    7.19
   1  -5   2  235.26    7.23
   1  -5   2  239.27    7.43
   1  -5   2  232.00    7.14
   1  -5   2  222.55    7.98
   1  -5   3  325.00    9.16
   1  -5   3  306.50    8.25
   1  -5   3  323.41    9.19
   1  -5   3  313.76    9.14
   1  -5   3  315.31    9.15
   1  -5   3  306.60    9.01
   1  -5   3  331.43   10.07
   1  -5   3  316.27   10.46
   1  -5   4   40.53    3.08
   1  -5   4   40.06    2.84
   1  -5   4   38.26    3.03
   1  -5   4   37.37    3.03
   1  -5   4   36.69    2.95
   1  -5   4   37.03    2.82
   1  -5   4   40.32    3.06
   1  -5   4   36.57    3.20
   1  -5   4   39.74    3.60
   1  -5   5   91.32    4.66
   1  -5   5   90.93    4.69
   1  -5   5   91.96    5.00
   1  -5   5   79.92    4.62
   1  -5   5   91.36    4.89
   1  -5   5   95.16    5.00
   1  -5   5   91.50    5.25
   1  -5   5   94.66    4.99
   1  -5   5   89.28    5.69
   1  -5   6  436.75   11.88
   1  -5   6  431.45   11.39
   1  -5   6  457.51   12.61
   1  -5   6  474.09   12.34
   1  -5   6  461.66   11.78
   1  -5   6  450.84   12.08
   1  -5   6  454.94   13.02
   1  -5   6  477.88   14.46
   1  -5   7  669.84   15.70
   1  -5   7  695.57   15.94
   1  -5   7  664.24   14.27
   1  -5   7  666.67   14.93
   1  -5   7  674.62   17.97
   1  -5   8  135.57    6.86
   1  -5   8  135.00    7.04
   1  -5   8  130.06    5.48
   1  -5   8  133.56    5.52
   1  -5   8  134.65    6.82
   1  -5   9   37.24    3.07
   1  -5   9   39.27    2.60
   1  -5   9   35.43    2.31
   1  -5   9   37.62    3.09
   1  -5  10   78.01    2.89
   1  -4 -10   46.25    2.38
   1  -4  -9   14.27    2.04
   1  -4  -9   13.01    1.89
   1  -4  -8   20.62    2.79
   1  -4  -8   19.71    2.10
   1  -4  -8   20.73    2.75
   1  -4  -7  175.89    7.76
   1  -4  -7  189.49    8.56
   1  -4  -7  180.33    8.12
   1  -4  -7  176.37    7.05
   1  -4  -6   85.15    4.88
   1  -4  -6   85.80    5.54
   1  -4  -6   85.78    5.47
   1  -4  -6   83.00    5.22
   1  -4  -5  219.41    7.16
   1  -4  -5  225.11    8.77
   1  -4  -5  223.52    6.85
   1  -4  -5  245.38    9.14
   1  -4  -5  225.28    8.62
   1  -4  -4   53.03    3.12
   1  -4  -4   51.70    3.19
   1  -4  -4   57.40    3.88
   1  -4  -4   72.46    3.43
   1  -4  -4   76.01    4.54
   1  -4  -4   49.24    3.29
   1  -4  -3  568.98   13.06
   1  -4  -3  585.67   12.24
   1  -4  -2  786.81   13.58
   1  -4  -2  794.01   15.29
   1  -4  -1   15.55    1.24
   1  -4  -1   16.26    1.14
   1  -4  -1   16.93    1.38
   1  -4   0  579.18   11.22
   1  -4   0  586.12   11.05
   1  -4   0  592.42   11.58
   1  -4   1  389.90    8.76
   1  -4   1  397.13    8.78
   1  -4   1  397.58    9.04
   1  -4   2  246.10    6.80
   1  -4   2  246.08    6.82
   1  -4   2  242.00    6.87
   1  -4   2  256.79    7.74
   1  -4   2  262.20    7.91
   1  -4   3  398.39    9.72
   1  -4   3  371.70    9.09
   1  -4   3  387.73    9.06
   1  -4   3  394.41    9.71
   1  -4   3  385.10    9.66
   1  -4   3  406.58   10.43
   1  -4   3  420.73   10.99
   1  -4   4  235.81    7.32
   1  -4   4  218.59    6.99
   1  -4   4  237.96    8.35
   1  -4   4  232.70    7.27
   1  -4   4  222.74    6.93
   1  -4   4  238.01    7.47
   1  -4   4  223.02    7.24
   1  -4   4  233.45    7.84
   1  -4   4  213.46    6.33
   1  -4   5   11.07    1.63
   1  -4   5   12.06    1.64
   1  -4   5   10.06    1.40
   1  -4   5   13.37    1.78
   1  -4   5   12.72    1.66
   1  -4   5    8.94    1.61
   1  -4   5   11.79    1.96
   1  -4   5   10.53    1.33
   1  -4   6  231.96    8.08
   1  -4   6  237.77    8.10
   1  -4   6  224.87    8.09
   1  -4   6  236.19    7.86
   1  -4   6  249.47    8.30
   1  -4   6  228.43    7.68
   1  -4   6  220.12    7.35
   1  -4   6  239.26    8.79
   1  -4   6  234.28    7.71
   1  -4   6  252.00    9.70
   1  -4   6  228.75    7.61
   1  -4   7  157.82    6.60
   1  -4   7  158.90    6.67
   1  -4   7  170.00    6.80
   1  -4   7  155.62    6.71
   1  -4   7  153.97    6.22
   1  -4   7  161.49    5.71
   1  -4   7  168.75    6.77
   1  -4   7  156.64    6.03
   1  -4   7  150.20    7.04
   1  -4   7  162.59    8.07
   1  -4   7  158.70    6.41
   1  -4   8   81.77    4.48
   1  -4   8   82.45    5.80
   1  -4   8   81.97    4.47
   1  -4   8   83.06    4.48
   1  -4   8   85.99    5.73
   1  -4   9    4.81    1.10
   1  -4   9    5.86    1.53
   1  -4   9    9.74    1.87
   1  -4   9    6.83    1.33
   1  -4   9    7.15    1.22
   1  -4   9    5.23    1.44
   1  -4   9    6.12    1.12
   1  -4  10  210.11    6.55
   1  -3 -11   27.28    1.77
   1  -3 -10  100.94    4.23
   1  -3 -10   99.80    4.54
   1  -3  -9  163.42    6.95
   1  -3  -9  167.55    7.43
   1  -3  -8  108.91    6.53
   1  -3  -8  107.81    6.04
   1  -3  -8  111.34    6.37
   1  -3  -7  748.83   19.42
   1  -3  -7  761.36   18.53
   1  -3  -7  743.72   17.86
   1  -3  -7  734.14   16.36
   1  -3  -6  417.39   12.94
   1  -3  -6  392.72   10.83
   1  -3  -6  419.08   12.32
   1  -3  -6  392.98   11.69
   1  -3  -5  375.84    9.10
   1  -3  -5  389.54   11.24
   1  -3  -5  377.67   10.87
   1  -3  -4   71.50    3.17
   1  -3  -4   72.63    3.32
   1  -3  -4   78.30    3.78
   1  -3  -4   67.23    2.88
   1  -3  -4   80.74    4.23
   1  -3  -3 1598.98   27.13
   1  -3  -3 1638.59   24.53
   1  -3  -2 3725.11   51.79
   1  -3  -2 3660.87   53.13
   1  -3  -1  887.98   13.92
   1  -3  -1  863.62   14.57
   1  -3   0  371.30    6.14
   1  -3   0  390.64    7.47
   1  -3   0  370.67    6.57
   1  -3   1  740.49   12.30
   1  -3   1  747.77   13.22
   1  -3   2  595.75   11.23
   1  -3   2  590.30   10.64
   1  -3   2  588.22   11.19
   1  -3   2  579.75   11.18
   1  -3   2  552.14   10.45
   1  -3   2  592.91   12.19
   1  -3   2  546.63   10.16
   1  -3   3  267.29    6.86
   1  -3   3  261.40    6.58
   1  -3   3  265.86    6.87
   1  -3   3  247.09    6.32
   1  -3   3  256.49    7.27
   1  -3   3  264.73    7.61
   1  -3   3  252.87    6.18
   1  -3   4 1194.03   20.96
   1  -3   4 1187.15   21.34
   1  -3   4 1221.87   21.53
   1  -3   4 1238.06   21.69
   1  -3   4 1241.13   21.43
   1  -3   4 1276.09   22.53
   1  -3   4 1223.73   22.96
   1  -3   5  614.34   13.47
   1  -3   5  588.57   13.29
   1  -3   5  587.96   13.10
   1  -3   5  617.60   13.63
   1  -3   5  594.46   13.05
   1  -3   5  633.49   13.66
   1  -3   5  627.40   13.12
   1  -3   5  622.39   13.47
   1  -3   5  633.67   14.43
   1  -3   5  646.06   14.97
   1  -3   5  585.95   12.02
   1  -3   5  638.77   13.44
   1  -3   6  165.99    6.24
   1  -3   6  180.67    6.66
   1  -3   6  165.20    6.16
   1  -3   6  174.54    6.82
   1  -3   6  167.71    6.31
   1  -3   6  190.23    6.78
   1  -3   6  161.80    5.91
   1  -3   6  180.29    6.51
   1  -3   6  171.51    5.97
   1  -3   6  173.60    7.08
   1  -3   6  172.26    7.62
   1  -3   6  169.10    6.40
   1  -3   7  277.88    8.75
   1  -3   7  286.82    9.20
   1  -3   7  270.28    8.43
   1  -3   7  278.43    8.98
   1  -3   7  276.17    8.91
   1  -3   7  278.00    8.21
   1  -3   7  297.82    8.99
   1  -3   7  288.67    8.01
   1  -3   7  290.33    9.95
   1  -3   7  292.13   10.84
   1  -3   7  300.10    9.44
   1  -3   8  365.68   12.90
   1  -3   8  366.87   10.25
   1  -3   8  371.74   10.25
   1  -3   8  352.11   10.36
   1  -3   8  356.59   10.93
   1  -3   8  363.89   11.69
   1  -3   8  389.70   13.09
   1  -3   8  378.54   11.17
   1  -3   9   92.30    4.95
   1  -3   9   89.06    5.65
   1  -3   9   85.73    4.12
   1  -3   9   89.74    4.15
   1  -3   9   88.82    4.54
   1  -3   9   95.07    6.00
   1  -3   9  101.52    6.21
   1  -3  10  111.20    5.21
   1  -3  10  127.65    5.14
   1  -3  10  111.99    5.96
   1  -3  11   25.70    1.71
   1  -2 -11  169.86    5.36
   1  -2 -10   93.04    4.40
   1  -2 -10   88.15    4.57
   1  -2 -10   96.14    5.08
   1  -2  -9   55.15    4.50
   1  -2  -9   66.86    4.44
   1  -2  -9   66.49    4.73
   1  -2  -8  113.76    6.46
   1  -2  -8  106.61    5.89
   1  -2  -8   98.01    5.69
   1  -2  -8   97.03    5.44
   1  -2  -7 1706.49   32.60
   1  -2  -7 1602.51   30.82
   1  -2  -7 1656.63   31.93
   1  -2  -6 1121.74   20.82
   1  -2  -6 1154.04   22.77
   1  -2  -6 1181.86   23.47
   1  -2  -6 1154.87   21.28
   1  -2  -5   54.64    2.83
   1  -2  -5   58.98    2.47
   1  -2  -5   60.79    3.76
   1  -2  -5   55.55    3.09
   1  -2  -5   62.96    3.63
   1  -2  -4  349.49    7.54
   1  -2  -4  345.20    7.45
   1  -2  -4  332.40    6.67
   1  -2  -4  359.19    7.11
   1  -2  -4  368.20    9.45
   1  -2  -4  372.04    9.20
   1  -2  -3  977.74   15.97
   1  -2  -3 1019.44   16.23
   1  -2  -2  222.58    5.37
   1  -2  -2  192.08    3.78
   1  -2  -1 1543.64   21.45
   1  -2   0 2159.18   30.86
   1  -2   0 2232.03   31.74
   1  -2   1 2701.56   38.29
   1  -2   1 2630.40   38.82
   1  -2   1 2679.25   39.03
   1  -2   2 1476.09   22.22
   1  -2   2 1472.84   22.54
   1  -2   2 1427.48   23.04
   1  -2   2 1451.19   23.15
   1  -2   2 1391.03   22.00
   1  -2   3   82.58    3.05
   1  -2   3   77.04    2.92
   1  -2   3   76.35    2.94
   1  -2   3   84.15    3.47
   1  -2   3   80.15    2.98
   1  -2   4  289.94    7.23
   1  -2   4  294.63    7.36
   1  -2   4  291.23    7.28
   1  -2   4  310.92    7.37
   1  -2   4  295.17    6.97
   1  -2   4  293.30    7.25
   1  -2   4  287.86    7.82
   1  -2   4  298.07    8.15
   1  -2   4  282.75    6.59
   1  -2   4  288.43    7.21
   1  -2   5  548.04   11.46
   1  -2   5  548.67   11.68
   1  -2   5  504.85   11.55
   1  -2   5  523.68   11.42
   1  -2   5  522.45   10.91
   1  -2   5  545.07   12.58
   1  -2   5  541.68   13.05
   1  -2   5  560.40   12.03
   1  -2   5  522.40   10.36
   1  -2   5  548.58   11.85
   1  -2   6  466.93   11.16
   1  -2   6  455.49   11.23
   1  -2   6  483.31   11.81
   1  -2   6  452.67   11.30
   1  -2   6  482.14   11.08
   1  -2   6  441.79   10.16
   1  -2   6  431.33    9.23
   1  -2   6  468.05   10.89
   1  -2   6  480.22   12.34
   1  -2   6  481.81   13.05
   1  -2   6  482.27   10.94
   1  -2   6  473.60   11.62
   1  -2   7   71.12    4.13
   1  -2   7   69.74    3.73
   1  -2   7   69.31    3.92
   1  -2   7   71.36    4.24
   1  -2   7   69.07    3.84
   1  -2   7   67.48    3.34
   1  -2   7   70.85    3.78
   1  -2   7   69.58    4.57
   1  -2   7   72.91    5.09
   1  -2   7   75.42    4.40
   1  -2   8  109.96    6.55
   1  -2   8  104.09    4.66
   1  -2   8   95.86    5.15
   1  -2   8  115.82    4.90
   1  -2   8  112.80    5.46
   1  -2   8  106.23    5.49
   1  -2   8   99.26    4.77
   1  -2   8  102.87    4.89
   1  -2   8  103.69    5.97
   1  -2   8  110.42    6.68
   1  -2   8  104.29    5.51
   1  -2   8  110.31    5.69
   1  -2   9  408.85   12.90
   1  -2   9  421.23   11.61
   1  -2   9  375.88   13.24
   1  -2   9  395.34   12.45
   1  -2   9  376.95   10.98
   1  -2   9  411.30   13.68
   1  -2   9  435.85   12.23
   1  -2  10   84.06    4.60
   1  -2  10   77.81    4.13
   1  -2  10   85.02    4.30
   1  -2  10   81.30    5.34
   1  -2  11   27.94    2.36
   1  -2  11   28.95    1.93
   1  -2  11   26.01    1.83
   1  -1 -11  231.45    6.07
   1  -1 -11  263.41    7.23
   1  -1 -10    8.83    1.50
   1  -1 -10    9.91    1.79
   1  -1 -10    9.69    1.80
   1  -1 -10    7.73    1.72
   1  -1 -10   13.11    1.85
   1  -1  -9   69.30    4.46
   1  -1  -9   63.18    4.82
   1  -1  -9   67.81    4.54
   1  -1  -9   68.45    4.85
   1  -1  -8  198.13    7.69
   1  -1  -8  222.05    9.44
   1  -1  -8  228.85    8.78
   1  -1  -8  224.05    9.15
   1  -1  -8  209.69    8.35
   1  -1  -8  235.30    9.33
   1  -1  -7  478.07   12.39
   1  -1  -7  483.83   13.22
   1  -1  -7  472.71   13.03
   1  -1  -7  521.36   14.17
   1  -1  -7  469.04   12.52
   1  -1  -6   64.29    3.62
   1  -1  -6   60.25    2.96
   1  -1  -6   60.72    3.82
   1  -1  -6   58.68    4.01
   1  -1  -5  405.44    9.75
   1  -1  -5  430.09    8.92
   1  -1  -5  415.40   10.39
   1  -1  -5  402.97    9.99
   1  -1  -5  422.22    9.15
   1  -1  -4  252.86    6.36
   1  -1  -4  251.86    5.83
   1  -1  -4  257.77    6.94
   1  -1  -4  253.81    6.68
   1  -1  -4  240.76    6.03
   1  -1  -3  145.67    3.88
   1  -1  -3  136.04    3.20
   1  -1  -3  136.80    2.84
   1  -1  -3  139.71    3.61
   1  -1  -3  127.64    2.46
   1  -1  -3  152.47    4.47
   1  -1  -3  145.71    4.29
   1  -1  -2 3727.29   52.22
   1  -1  -2 3621.38   52.90
   1  -1  -1 2758.11   37.99
   1  -1   1  722.12   11.31
   1  -1   1  724.36   11.78
   1  -1   2 1727.71   25.43
   1  -1   2 1739.43   25.25
   1  -1   2 1676.47   25.82
   1  -1   2 1669.24   25.37
   1  -1   3  982.90   16.03
   1  -1   3  953.37   16.05
   1  -1   3  991.16   15.75
   1  -1   3  962.26   15.37
   1  -1   3  964.75   15.90
   1  -1   3  972.31   16.49
   1  -1   3  969.14   15.44
   1  -1   3  977.95   16.01
   1  -1   4   35.24    1.87
   1  -1   4   30.49    1.93
   1  -1   4   30.52    1.93
   1  -1   4   31.74    1.82
   1  -1   4   34.49    1.71
   1  -1   4   30.57    1.93
   1  -1   4   31.35    1.68
   1  -1   4   33.65    2.25
   1  -1   4   32.08    1.98
   1  -1   5 1287.36   21.02
   1  -1   5 1270.57   21.18
   1  -1   5 1243.76   20.30
   1  -1   5 1251.32   22.73
   1  -1   5 1212.34   21.56
   1  -1   5 1248.10   23.30
   1  -1   5 1256.93   20.42
   1  -1   5 1267.10   22.17
   1  -1   6  591.76   11.99
   1  -1   6  584.96   12.79
   1  -1   6  649.11   13.21
   1  -1   6  585.25   13.46
   1  -1   6  588.73   13.28
   1  -1   6  598.44   13.39
   1  -1   6  637.45   13.66
   1  -1   6  587.07   12.19
   1  -1   6  590.30   11.21
   1  -1   6  582.98   11.99
   1  -1   6  645.71   14.59
   1  -1   6  583.91   13.03
   1  -1   6  614.12   14.88
   1  -1   6  579.26   11.16
   1  -1   7   53.14    4.13
   1  -1   7   60.08    3.08
   1  -1   7   57.45    3.49
   1  -1   7   59.96    3.63
   1  -1   7   59.46    3.75
   1  -1   7   61.63    3.85
   1  -1   7   56.50    3.16
   1  -1   7   56.39    3.01
   1  -1   7   52.35    3.95
   1  -1   7   65.31    4.65
   1  -1   7   59.49    3.94
   1  -1   7   57.46    3.80
   1  -1   8   84.48    4.97
   1  -1   8   86.75    4.58
   1  -1   8   83.41    4.50
   1  -1   8   80.93    4.74
   1  -1   8   79.14    4.74
   1  -1   8   82.66    5.32
   1  -1   8   79.54    5.59
   1  -1   8   81.29    4.85
   1  -1   8   80.51    4.87
   1  -1   9   47.99    3.79
   1  -1   9   48.46    3.78
   1  -1   9   47.97    4.12
   1  -1   9   45.36    4.33
   1  -1   9   44.15    3.46
   1  -1  10   32.25    2.55
   1  -1  10   27.65    2.69
   1  -1  10   25.75    2.31
   1  -1  10   32.39    3.53
   1  -1  11   77.12    3.65
   1  -1  11   72.08    3.91
   1  -1  12    8.36    1.04
   1   0 -11   99.29    3.72
   1   0 -11  105.04    4.43
   1   0 -11  110.06    4.48
   1   0 -10    8.95    1.56
   1   0 -10    8.63    1.71
   1   0 -10    9.71    1.82
   1   0 -10    6.17    1.34
   1   0 -10    7.79    1.61
   1   0  -9  115.41    5.79
   1   0  -9  112.01    6.12
   1   0  -9  101.92    5.96
   1   0  -9  111.61    5.87
   1   0  -9  119.70    6.42
   1   0  -8  246.47    8.97
   1   0  -8  259.41    9.21
   1   0  -8  249.50    9.77
   1   0  -8  254.22    9.24
   1   0  -8  240.47    9.29
   1   0  -8  237.08    8.86
   1   0  -8  255.91    9.80
   1   0  -7  236.67    8.37
   1   0  -7  236.76    7.27
   1   0  -7  238.55    8.55
   1   0  -7  243.22    8.98
   1   0  -7  226.60    8.21
   1   0  -7  250.06    9.17
   1   0  -7  233.73    7.86
   1   0  -6  241.94    7.83
   1   0  -6  249.10    7.05
   1   0  -6  252.40    8.11
   1   0  -6  253.09    8.54
   1   0  -6  233.74    8.24
   1   0  -6  233.96    7.69
   1   0  -6  235.42    7.36
   1   0  -5  868.60   16.92
   1   0  -5  874.07   15.94
   1   0  -5  859.66   16.93
   1   0  -5  885.48   16.83
   1   0  -5  869.65   17.48
   1   0  -5  860.15   16.26
   1   0  -4 6900.32   95.87
   1   0  -4 6798.43   94.93
   1   0  -4 6699.42   95.65
   1   0  -4 6669.11   96.44
   1   0  -3 1519.38   23.05
   1   0  -3 1438.22   21.13
   1   0  -3 1471.31   22.49
   1   0  -3 1415.43   20.57
   1   0  -3 1464.05   22.72
   1   0  -3 1467.80   22.35
   1   0  -3 1476.81   21.95
   1   0  -2 2906.08   40.83
   1   0  -2 2867.53   40.50
   1   0  -2 2885.41   41.47
   1   0  -2 2876.66   41.15
   1   0  -2 2943.53   41.05
   1   0  -1    5.23    0.43
   1   0  -1    5.36    0.43
   1   0  -1    6.42    0.41
   1   0  -1    5.77    0.35
   1   0  -1    6.86    0.51
   1   0  -1    4.40    0.48
   1   0   0 2183.02   30.93
   1   0   0 2197.57   31.31
   1   0   2 1042.27   15.98
   1   0   2 1045.71   16.11
   1   0   3   93.61    2.67
   1   0   3   95.25    2.35
   1   0   3   99.58    3.32
   1   0   3   96.05    3.29
   1   0   3  102.69    2.88
   1   0   4  183.72    4.19
   1   0   4  177.31    4.90
   1   0   4  178.84    4.33
   1   0   4  179.15    3.77
   1   0   4  181.83    3.57
   1   0   4  171.05    5.32
   1   0   4  178.20    5.19
   1   0   4  187.91    5.63
   1   0   4  190.36    4.57
   1   0   5  772.83   13.06
   1   0   5  785.86   14.87
   1   0   5  822.38   14.81
   1   0   5  769.37   13.32
   1   0   5  748.12   12.18
   1   0   5  747.64   14.40
   1   0   5  761.31   15.12
   1   0   5  773.26   15.96
   1   0   5  767.52   13.50
   1   0   5  763.08   14.73
   1   0   6    5.80    1.12
   1   0   6    4.92    0.75
   1   0   6    5.82    1.00
   1   0   6    8.84    1.32
   1   0   6    5.83    1.06
   1   0   6    6.76    1.24
   1   0   6    6.34    1.18
   1   0   6    5.72    0.83
   1   0   6    5.93    1.21
   1   0   6    7.32    1.29
   1   0   6    5.16    1.20
   1   0   6    6.48    1.39
   1   0   6    7.10    0.93
   1   0   7  161.25    6.42
   1   0   7  142.98    5.41
   1   0   7  143.36    6.34
   1   0   7  147.59    6.15
   1   0   7  147.65    6.07
   1   0   7  147.98    6.41
   1   0   7  151.49    5.98
   1   0   7  164.22    7.16
   1   0   7  144.64    5.97
   1   0   7  146.21    6.33
   1   0   7  155.11    7.30
   1   0   7  141.01    6.23
   1   0   8   48.51    3.57
   1   0   8   51.70    3.91
   1   0   8   49.25    3.52
   1   0   8   44.83    3.35
   1   0   8   45.57    3.54
   1   0   8   41.93    3.52
   1   0   8   46.97    3.65
   1   0   8   42.94    3.84
   1   0   8   50.48    4.45
   1   0   9    4.67    1.29
   1   0   9    1.60    0.77
   1   0   9    3.09    1.13
   1   0   9    2.73    1.09
   1   0   9    2.79    1.16
   1   0   9    3.44    1.36
   1   0  10  150.16    6.42
   1   0  10  147.15    6.54
   1   0  10  136.30    6.98
   1   0  10  141.47    5.63
   1   0  11    7.11    1.30
   1   0  11    6.72    1.33
   1   0  12  143.88    4.22
   1   0  12  133.15    4.60
   1   1 -11   22.68    1.69
   1   1 -11   21.79    1.95
   1   1 -10   93.25    4.56
   1   1 -10   88.24    4.86
   1   1 -10   91.01    4.94
   1   1 -10   83.05    4.81
   1   1  -9  108.45    5.57
   1   1  -9  120.12    5.92
   1   1  -9  132.65    6.60
   1   1  -9  125.46    6.59
   1   1  -9  122.85    6.08
   1   1  -9  108.06    5.31
   1   1  -9  127.92    6.61
   1   1  -8  254.94    9.21
   1   1  -8  256.15    9.47
   1   1  -8  266.38    9.36
   1   1  -8  282.12   10.02
   1   1  -8  262.71   10.01
   1   1  -8  258.47    9.52
   1   1  -8  262.24    8.40
   1   1  -8  271.60    9.49
   1   1  -8  255.73    9.23
   1   1  -8  256.37    9.07
   1   1  -8  274.93   10.13
   1   1  -7   84.72    4.98
   1   1  -7   92.98    5.08
   1   1  -7   90.78    4.53
   1   1  -7   92.46    5.10
   1   1  -7   90.21    5.06
   1   1  -7   86.58    4.81
   1   1  -7   92.19    5.34
   1   1  -7   88.36    4.50
   1   1  -6  502.47   12.68
   1   1  -6  491.07   12.31
   1   1  -6  498.39   11.66
   1   1  -6  513.53   12.60
   1   1  -6  508.96   12.83
   1   1  -6  530.76   12.43
   1   1  -6  513.83   13.16
   1   1  -6  483.16   11.49
   1   1  -5  218.86    7.02
   1   1  -5  228.55    6.50
   1   1  -5  217.42    6.84
   1   1  -5  230.35    7.28
   1   1  -5  217.88    6.62
   1   1  -5  227.10    7.28
   1   1  -5  213.01    6.22
   1   1  -4 1931.15   30.05
   1   1  -4 1817.49   27.38
   1   1  -4 1891.63   29.35
   1   1  -4 1840.10   29.61
   1   1  -4 1913.18   30.61
   1   1  -4 1885.52   29.34
   1   1  -4 1755.22   30.01
   1   1  -4 1837.86   28.79
   1   1  -3  595.10   11.11
   1   1  -3  574.58    9.76
   1   1  -3  578.94   10.66
   1   1  -3  560.12    9.41
   1   1  -3  597.90   11.48
   1   1  -3  579.70   10.49
   1   1  -3  574.95   11.11
   1   1  -3  572.58   10.56
   1   1  -3  573.54   10.11
   1   1  -2 6411.54   88.42
   1   1  -2 6365.29   88.20
   1   1  -2 6206.81   88.45
   1   1  -2 6372.15   89.01
   1   1  -2 6345.10   88.14
   1   1  -1 6238.85   87.86
   1   1  -1 6259.93   86.43
   1   1  -1 6257.11   86.35
   1   1   0 3053.13   43.58
   1   1   0 3120.89   43.60
   1   1   0 3139.27   44.22
   1   1   0 3071.83   43.43
   1   1   0 3058.06   43.79
   1   1   1 3957.60   55.64
   1   1   1 4004.20   55.26
   1   1   1 3895.67   55.52
   1   1   1 3925.87   56.07
   1   1   2  233.65    5.27
   1   1   2  226.53    4.67
   1   1   2  225.80    4.19
   1   1   2  238.83    4.45
   1   1   2  232.52    5.21
   1   1   2  232.15    5.13
   1   1   3  143.04    3.20
   1   1   3  150.13    3.63
   1   1   3  143.47    2.90
   1   1   3  146.12    2.98
   1   1   3  143.54    4.28
   1   1   3  142.27    4.25
   1   1   3  147.82    3.77
   1   1   3  144.70    3.67
   1   1   4  232.64    5.38
   1   1   4  254.53    5.74
   1   1   4  245.07    6.38
   1   1   4  237.68    4.64
   1   1   4  237.67    4.33
   1   1   4  235.60    6.68
   1   1   4  237.64    6.57
   1   1   4  236.85    6.75
   1   1   4  242.14    4.57
   1   1   4  245.70    5.80
   1   1   4  240.73    5.88
   1   1   5 1745.29   28.48
   1   1   5 1733.53   27.22
   1   1   5 1720.33   25.08
   1   1   5 1681.85   28.83
   1   1   5 1705.98   27.25
   1   1   5 1651.73   29.08
   1   1   5 1683.62   28.98
   1   1   5 1730.47   27.86
   1   1   5 1683.31   29.59
   1   1   5 1663.90   26.96
   1   1   6   41.74    3.09
   1   1   6   50.17    3.21
   1   1   6   48.23    2.77
   1   1   6   44.71    2.85
   1   1   6   44.04    3.18
   1   1   6   45.62    3.26
   1   1   6   41.61    3.39
   1   1   6   43.70    2.46
   1   1   6   46.50    2.92
   1   1   7  178.75    7.26
   1   1   7  187.09    6.44
   1   1   7  187.75    6.82
   1   1   7  179.37    7.24
   1   1   7  180.76    6.73
   1   1   7  178.66    7.35
   1   1   7  192.71    7.98
   1   1   7  184.27    7.56
   1   1   7  200.64    8.43
   1   1   7  186.28    7.07
   1   1   8  743.80   18.02
   1   1   8  787.55   17.69
   1   1   8  744.05   16.30
   1   1   8  751.39   17.94
   1   1   8  789.10   19.45
   1   1   8  802.11   18.93
   1   1   8  767.53   19.98
   1   1   8  789.73   17.65
   1   1   9    9.05    1.81
   1   1   9    8.85    1.60
   1   1   9    7.46    1.59
   1   1   9    7.78    1.90
   1   1   9   12.37    1.91
   1   1  10   13.35    1.85
   1   1  10   16.10    2.21
   1   1  10   11.99    2.12
   1   1  10    9.78    1.56
   1   1  11    4.12    1.06
   1   1  11    5.63    1.41
   1   1  11    5.07    1.12
   1   1  12   63.56    2.70
   1   1  12   60.47    2.92
   1   2 -11    4.99    0.89
   1   2 -10  138.67    5.12
   1   2 -10  138.45    5.68
   1   2  -9   31.82    3.06
   1   2  -9   36.69    3.48
   1   2  -9   32.73    3.25
   1   2  -9   35.25    3.44
   1   2  -9   34.91    3.36
   1   2  -9   37.14    3.54
   1   2  -8   85.09    4.86
   1   2  -8   86.21    5.37
   1   2  -8   95.62    5.36
   1   2  -8   97.11    5.73
   1   2  -8   99.53    5.91
   1   2  -8   90.17    4.83
   1   2  -8   78.52    4.52
   1   2  -8   90.29    5.58
   1   2  -7   17.58    2.21
   1   2  -7   19.23    2.46
   1   2  -7   21.03    2.52
   1   2  -7   18.36    2.49
   1   2  -7   18.12    2.53
   1   2  -7   20.19    2.25
   1   2  -7   19.34    2.41
   1   2  -7   17.73    2.25
   1   2  -7   12.93    1.88
   1   2  -7   18.79    2.26
   1   2  -7   16.73    2.40
   1   2  -6  264.93    8.60
   1   2  -6  252.12    8.47
   1   2  -6  255.14    8.84
   1   2  -6  265.17    9.20
   1   2  -6  276.48    8.30
   1   2  -6  253.12    8.48
   1   2  -6  257.95    8.52
   1   2  -6  273.85    8.39
   1   2  -6  265.95    9.07
   1   2  -6  243.09    7.53
   1   2  -5 1935.36   31.24
   1   2  -5 1772.41   30.84
   1   2  -5 1783.47   31.38
   1   2  -5 1840.58   32.04
   1   2  -5 1920.45   30.57
   1   2  -5 1858.35   31.09
   1   2  -5 1795.91   31.13
   1   2  -5 1757.50   30.37
   1   2  -5 1782.90   31.60
   1   2  -5 1776.17   29.45
   1   2  -4  161.90    5.55
   1   2  -4  152.41    4.35
   1   2  -4  158.69    5.76
   1   2  -4  172.80    5.30
   1   2  -4  159.38    5.71
   1   2  -4  154.78    5.29
   1   2  -4  169.34    5.70
   1   2  -4  156.44    5.08
   1   2  -4  162.36    5.66
   1   2  -4  162.12    5.33
   1   2  -4  154.51    4.77
   1   2  -3  167.30    5.28
   1   2  -3  178.68    5.16
   1   2  -3  176.79    4.52
   1   2  -3  166.54    5.34
   1   2  -3  169.65    4.35
   1   2  -3  170.69    5.02
   1   2  -3  173.66    5.36
   1   2  -3  170.91    4.76
   1   2  -3  165.72    5.15
   1   2  -3  168.45    5.00
   1   2  -3  163.94    4.43
   1   2  -2  180.78    5.09
   1   2  -2  178.32    4.46
   1   2  -2  176.39    4.56
   1   2  -2  174.93    4.35
   1   2  -2  170.26    5.00
   1   2  -2  170.74    4.96
   1   2  -2  176.08    4.26
   1   2  -2  170.85    4.36
   1   2  -2  183.15    4.87
   1   2  -2  182.28    4.84
   1   2  -1 4636.39   66.59
   1   2  -1 4593.48   65.74
   1   2  -1 4579.24   65.45
   1   2  -1 4637.80   65.67
   1   2  -1 4607.44   66.64
   1   2  -1 4741.64   66.04
   1   2   1 3285.01   47.49
   1   2   1 3154.18   46.67
   1   2   1 3160.45   46.11
   1   2   1 3212.60   44.76
   1   2   1 3276.97   46.24
   1   2   1 3270.69   47.53
   1   2   1 3260.59   47.62
   1   2   1 3212.94   46.62
   1   2   1 3212.09   46.25
   1   2   2  565.89   11.14
   1   2   2  558.82    8.78
   1   2   2  558.85    9.34
   1   2   2  561.44   10.58
   1   2   2  558.84    9.54
   1   2   2  572.20    9.74
   1   2   2  564.20   11.18
   1   2   2  574.03   11.20
   1   2   2  554.54    9.79
   1   2   3   54.49    1.38
   1   2   3   61.47    3.03
   1   2   3   57.01    2.03
   1   2   3   60.11    1.90
   1   2   3   55.04    2.70
   1   2   3   57.37    2.00
   1   2   3   56.50    2.80
   1   2   3   54.63    2.75
   1   2   3   56.13    2.93
   1   2   3   54.53    2.18
   1   2   3   55.50    2.52
   1   2   3   54.89    2.03
   1   2   4  532.61    9.60
   1   2   4  513.40    8.77
   1   2   4  522.82   11.59
   1   2   4  512.35    9.36
   1   2   4  509.84   11.69
   1   2   4  518.54   10.52
   1   2   4  506.67    9.82
   1   2   5   67.45    3.05
   1   2   5   65.48    2.74
   1   2   5   62.78    2.07
   1   2   5   68.82    3.89
   1   2   5   68.03    3.81
   1   2   5   62.12    3.09
   1   2   5   59.63    3.48
   1   2   6   56.90    3.85
   1   2   6   60.98    3.78
   1   2   6   60.76    2.91
   1   2   6   59.51    3.69
   1   2   6   56.07    3.15
   1   2   6   63.88    4.12
   1   2   6   61.00    3.18
   1   2   6   50.82    3.57
   1   2   6   63.56    3.33
   1   2   7    8.12    1.36
   1   2   7    5.46    1.43
   1   2   7    6.92    1.43
   1   2   7    5.68    0.98
   1   2   7    6.11    1.47
   1   2   7    7.83    1.58
   1   2   7    5.94    1.48
   1   2   7    5.45    1.50
   1   2   8  160.81    7.64
   1   2   8  178.13    7.63
   1   2   8  183.17    7.59
   1   2   8  191.21    8.16
   1   2   8  182.04    8.21
   1   2   8  180.51    8.56
   1   2   8  173.62    7.50
   1   2   8  176.93    6.80
   1   2   9  325.28    9.72
   1   2   9  333.33   10.56
   1   2   9  324.96   11.07
   1   2   9  346.50   11.16
   1   2   9  318.65   10.23
   1   2   9  323.78   11.72
   1   2  10   74.55    4.55
   1   2  10   78.90    4.61
   1   2  10   66.64    4.54
   1   2  10   69.35    5.18
   1   2  11   25.77    2.23
   1   2  11   21.86    2.47
   1   2  12   11.63    1.22
   1   3 -10   13.60    1.60
   1   3 -10   14.25    1.77
   1   3  -9   89.91    4.78
   1   3  -9   98.23    5.42
   1   3  -9   90.16    4.57
   1   3  -9   87.30    5.21
   1   3  -9   84.26    5.08
   1   3  -8    8.80    1.89
   1   3  -8   10.81    1.94
   1   3  -8   10.81    2.15
   1   3  -8   10.61    2.02
   1   3  -8    9.71    1.79
   1   3  -8   13.38    2.31
   1   3  -8    9.84    1.72
   1   3  -7   83.35    4.66
   1   3  -7   80.65    5.04
   1   3  -7   91.19    5.26
   1   3  -7   89.32    5.48
   1   3  -7   87.49    5.59
   1   3  -7   86.42    5.36
   1   3  -7   85.20    5.50
   1   3  -7   89.01    4.91
   1   3  -7   85.26    5.38
   1   3  -7   68.80    4.11
   1   3  -6   41.20    3.20
   1   3  -6   43.93    3.51
   1   3  -6   43.10    3.47
   1   3  -6   47.06    3.94
   1   3  -6   41.44    3.57
   1   3  -6   46.91    3.77
   1   3  -6   39.03    3.59
   1   3  -6   48.33    3.41
   1   3  -6   41.63    3.24
   1   3  -6   41.80    3.13
   1   3  -6   42.38    3.21
   1   3  -5  644.87   14.32
   1   3  -5  605.44   14.34
   1   3  -5  625.98   14.54
   1   3  -5  627.08   15.49
   1   3  -5  594.95   14.73
   1   3  -5  612.76   12.25
   1   3  -5  612.24   15.24
   1   3  -5  597.72   13.77
   1   3  -5  601.33   14.06
   1   3  -5  620.97   13.96
   1   3  -5  615.23   13.80
   1   3  -5  644.75   15.15
   1   3  -4  223.17    7.02
   1   3  -4  213.57    6.84
   1   3  -4  217.08    7.04
   1   3  -4  198.45    7.03
   1   3  -4  217.13    6.05
   1   3  -4  211.72    7.41
   1   3  -4  208.85    5.34
   1   3  -4  225.19    7.09
   1   3  -4  210.41    6.83
   1   3  -4  224.92    7.39
   1   3  -4  210.81    6.55
   1   3  -4  221.55    7.02
   1   3  -3  245.82    7.19
   1   3  -3  256.65    6.93
   1   3  -3  238.10    6.42
   1   3  -3  257.68    7.67
   1   3  -3  254.03    6.75
   1   3  -3  248.06    6.38
   1   3  -3  250.22    6.14
   1   3  -3  245.79    7.21
   1   3  -3  246.13    7.17
   1   3  -3  263.33    7.51
   1   3  -3  250.26    7.09
   1   3  -2  865.37   16.21
   1   3  -2  849.35   15.19
   1   3  -2  866.41   15.31
   1   3  -2  840.32   15.06
   1   3  -2  862.53   15.20
   1   3  -2  870.46   15.08
   1   3  -2  877.58   16.25
   1   3  -2  821.17   15.99
   1   3  -2  845.37   16.04
   1   3  -1 2097.19   33.22
   1   3  -1 2099.42   32.18
   1   3  -1 2103.94   31.41
   1   3  -1 2043.09   32.05
   1   3  -1 2075.33   32.16
   1   3  -1 2056.75   33.18
   1   3  -1 2117.82   33.26
   1   3  -1 2083.01   32.74
   1   3  -1 2130.31   32.32
   1   3   0   25.66    1.91
   1   3   0   25.38    1.28
   1   3   0   24.20    1.61
   1   3   0   22.61    1.85
   1   3   0   25.68    1.73
   1   3   0   24.02    1.89
   1   3   0   25.39    1.80
   1   3   0   25.41    1.62
   1   3   1  734.62   12.90
   1   3   1  708.30   10.93
   1   3   1  744.11   12.99
   1   3   1  727.04   12.65
   1   3   2  815.46   16.07
   1   3   2  826.20   13.39
   1   3   2  818.50   12.93
   1   3   2  835.39   15.30
   1   3   2  842.56   14.18
   1   3   2  835.66   14.34
   1   3   2  809.92   14.91
   1   3   2  855.78   14.89
   1   3   2  824.46   16.18
   1   3   2  799.71   14.95
   1   3   2  786.49   13.90
   1   3   3  322.17    8.89
   1   3   3  314.75    5.99
   1   3   3  315.70    5.93
   1   3   3  321.12    8.24
   1   3   3  319.86    6.69
   1   3   3  315.10    6.87
   1   3   3  331.62    7.53
   1   3   3  311.33    8.11
   1   3   3  324.23    8.94
   1   3   3  307.72    7.75
   1   3   3  317.35    6.78
   1   3   4  160.76    3.81
   1   3   4  155.61    3.82
   1   3   4  163.79    5.84
   1   3   4  156.82    4.73
   1   3   4  160.18    4.24
   1   3   4  161.76    5.94
   1   3   4  163.85    6.42
   1   3   4  172.33    5.60
   1   3   4  152.11    4.32
   1   3   5  157.91    6.22
   1   3   5  138.73    4.25
   1   3   5  151.82    4.49
   1   3   5  152.53    4.40
   1   3   5  150.49    6.11
   1   3   5  157.60    6.38
   1   3   5  159.74    5.66
   1   3   6  155.74    7.04
   1   3   6  156.72    6.20
   1   3   6  163.29    6.84
   1   3   6  164.19    7.90
   1   3   6  159.81    6.88
   1   3   6  163.46    6.90
   1   3   6  172.27    7.23
   1   3   6  157.68    7.24
   1   3   6  163.24    5.25
   1   3   7   22.88    2.01
   1   3   7   16.80    2.16
   1   3   7   23.04    2.64
   1   3   7   18.09    2.42
   1   3   7   19.14    2.69
   1   3   7   18.76    2.59
   1   3   7   18.29    2.79
   1   3   7   17.31    2.34
   1   3   8  269.86    9.41
   1   3   8  272.59    9.80
   1   3   8  272.87   10.12
   1   3   8  276.42   10.43
   1   3   8  273.19   10.67
   1   3   9  115.84    6.31
   1   3   9  109.93    5.59
   1   3  10    5.56    1.37
   1   3  10    5.57    1.22
   1   3  10    7.34    1.79
   1   3  11    0.57    0.70
   1   3  11    0.45    0.47
   1   3  11    0.36    0.58
   1   4 -10   15.59    1.50
   1   4  -9   22.32    2.40
   1   4  -9   22.91    2.53
   1   4  -9   18.25    2.04
   1   4  -8   56.15    3.98
   1   4  -8   64.73    4.54
   1   4  -8   56.91    3.83
   1   4  -8   58.97    4.47
   1   4  -8   59.36    4.35
   1   4  -7    6.90    1.52
   1   4  -7    5.95    1.59
   1   4  -7    8.65    1.88
   1   4  -7    6.66    1.51
   1   4  -7    5.06    1.64
   1   4  -7    6.14    1.64
   1   4  -7    4.95    1.31
   1   4  -6  635.09   15.33
   1   4  -6  671.45   16.37
   1   4  -6  690.65   16.97
   1   4  -6  712.59   18.13
   1   4  -6  694.70   17.10
   1   4  -6  703.57   17.99
   1   4  -6  702.05   17.63
   1   4  -5  893.16   19.15
   1   4  -5  926.76   19.54
   1   4  -5  933.75   20.28
   1   4  -5  968.14   21.62
   1   4  -5  930.17   17.90
   1   4  -5  964.70   20.82
   1   4  -5  932.44   21.22
   1   4  -5  995.17   19.46
   1   4  -5  959.64   21.09
   1   4  -5  903.26   18.85
   1   4  -5  892.56   19.18
   1   4  -4  142.01    5.87
   1   4  -4  144.54    5.71
   1   4  -4  137.24    6.05
   1   4  -4  138.40    6.56
   1   4  -4  146.96    5.39
   1   4  -4  144.51    6.40
   1   4  -4  131.30    5.75
   1   4  -4  151.14    6.60
   1   4  -4  135.24    4.71
   1   4  -4  147.08    6.74
   1   4  -4  141.88    5.59
   1   4  -4  142.69    5.77
   1   4  -4  141.67    5.92
   1   4  -4  136.47    5.64
   1   4  -3  153.38    5.91
   1   4  -3  153.21    5.43
   1   4  -3  158.20    6.16
   1   4  -3  158.09    5.59
   1   4  -3  139.08    5.76
   1   4  -3  150.77    6.40
   1   4  -3  151.79    6.43
   1   4  -3  151.46    5.17
   1   4  -3  159.92    5.55
   1   4  -3  158.19    5.97
   1   4  -3  150.30    5.92
   1   4  -3  153.49    6.22
   1   4  -2  928.85   17.87
   1   4  -2  912.35   16.36
   1   4  -2  891.90   18.11
   1   4  -2  874.37   17.06
   1   4  -2  870.05   18.54
   1   4  -2  908.32   16.49
   1   4  -2  923.41   16.96
   1   4  -2  900.10   17.04
   1   4  -2  906.62   18.19
   1   4  -2  882.27   17.92
   1   4  -2  917.93   18.13
   1   4  -2  871.12   17.24
   1   4  -1 1195.09   21.45
   1   4  -1 1120.88   18.76
   1   4  -1 1156.99   20.32
   1   4  -1 1074.85   18.86
   1   4  -1 1099.29   20.12
   1   4  -1 1106.47   21.03
   1   4  -1 1174.56   20.31
   1   4  -1 1209.00   21.62
   1   4  -1 1191.21   21.60
   1   4  -1 1136.09   21.19
   1   4  -1 1115.92   20.04
   1   4   0 1089.95   20.53
   1   4   0 1075.76   17.38
   1   4   0 1064.42   20.19
   1   4   0 1123.66   19.62
   1   4   0 1081.32   20.70
   1   4   0 1076.94   20.75
   1   4   0 1084.49   18.89
   1   4   1 1137.42   21.85
   1   4   1 1205.15   19.80
   1   4   1 1199.03   20.34
   1   4   1 1174.87   20.35
   1   4   1 1089.45   19.21
   1   4   1 1174.59   22.20
   1   4   1 1212.03   22.39
   1   4   1 1142.03   19.58
   1   4   2 1342.02   21.22
   1   4   2 1374.25   22.30
   1   4   2 1332.80   22.30
   1   4   2 1299.14   22.89
   1   4   2 1266.31   22.26
   1   4   2 1272.42   24.59
   1   4   2 1270.45   21.30
   1   4   3  324.10    6.96
   1   4   3  318.45    9.87
   1   4   3  344.42    7.85
   1   4   3  320.62    8.77
   1   4   3  358.06    8.75
   1   4   3  332.26    7.99
   1   4   3  312.77    8.68
   1   4   3  326.14    7.25
   1   4   4  288.41    8.71
   1   4   4  297.36    7.90
   1   4   4  306.20    9.02
   1   4   4  296.18   10.00
   1   4   4  298.48   10.25
   1   4   4  281.82    6.47
   1   4   5   12.06    1.92
   1   4   5   13.68    2.32
   1   4   5    9.39    1.23
   1   4   5   10.89    1.69
   1   4   5   10.55    1.74
   1   4   6  249.80    9.62
   1   4   6  269.05    8.09
   1   4   6  261.38   10.67
   1   4   6  262.29    9.31
   1   4   6  280.07    9.85
   1   4   7  494.71   12.49
   1   4   7  494.77   14.05
   1   4   7  504.60   16.04
   1   4   7  509.51   14.65
   1   4   8  269.78    8.65
   1   4   8  286.26   10.04
   1   4   8  256.71    9.94
   1   4   9  105.60    5.81
   1   4   9   90.54    4.43
   1   4   9   96.22    5.27
   1   4  10   38.52    2.99
   1   4  10   36.74    3.09
   1   4  11   31.36    2.14
   1   5  -9   27.84    2.20
   1   5  -8   21.11    2.43
   1   5  -8   20.21    2.24
   1   5  -8   19.76    1.88
   1   5  -7   22.29    2.71
   1   5  -7   26.18    3.00
   1   5  -7   21.20    2.41
   1   5  -7   22.72    2.46
   1   5  -7   18.34    2.44
   1   5  -6  198.86    7.61
   1   5  -6  218.49    9.23
   1   5  -6  208.10    8.33
   1   5  -6  210.56    7.83
   1   5  -6  208.39    8.55
   1   5  -6  214.23    8.89
   1   5  -5  451.68   12.07
   1   5  -5  451.99   12.07
   1   5  -5  449.82   13.72
   1   5  -5  480.86   14.45
   1   5  -5  489.97   13.86
   1   5  -5  481.75   12.57
   1   5  -5  479.92   13.80
   1   5  -4   92.19    4.88
   1   5  -4   83.14    4.34
   1   5  -4   96.17    5.88
   1   5  -4   92.37    4.63
   1   5  -4   90.67    4.89
   1   5  -4   86.33    5.31
   1   5  -4   97.55    4.82
   1   5  -4   85.86    5.25
   1   5  -4   92.96    4.76
   1   5  -4   80.45    4.65
   1   5  -4   91.54    5.47
   1   5  -3   91.68    4.87
   1   5  -3   79.66    3.90
   1   5  -3   83.11    4.19
   1   5  -3   85.30    4.44
   1   5  -3   89.69    4.88
   1   5  -3   88.20    5.27
   1   5  -3   91.42    4.36
   1   5  -3   88.03    4.27
   1   5  -3   89.97    5.22
   1   5  -3   86.89    4.66
   1   5  -3   84.41    4.76
   1   5  -3   81.70    5.02
   1   5  -3   85.45    4.65
   1   5  -3   91.98    4.84
   1   5  -2  230.48    8.07
   1   5  -2  208.22    6.18
   1   5  -2  232.60    7.45
   1   5  -2  234.46    7.75
   1   5  -2  232.82    8.27
   1   5  -2  237.90    8.88
   1   5  -2  237.04    7.52
   1   5  -2  223.83    6.77
   1   5  -2  237.51    8.54
   1   5  -2  253.45    8.36
   1   5  -2  229.82    8.26
   1   5  -2  239.09    7.46
   1   5  -2  241.98    8.60
   1   5  -2  229.51    7.59
   1   5  -2  233.71    7.36
   1   5  -2  242.54    7.95
   1   5  -1  751.69   16.76
   1   5  -1  709.84   17.20
   1   5  -1  720.57   15.46
   1   5  -1  731.95   15.60
   1   5  -1  768.03   15.79
   1   5  -1  700.08   16.58
   1   5  -1  715.35   17.35
   1   5  -1  768.02   15.90
   1   5  -1  701.16   13.74
   1   5  -1  716.96   16.78
   1   5  -1  768.88   16.90
   1   5  -1  756.09   16.97
   1   5  -1  750.30   15.55
   1   5  -1  761.05   17.16
   1   5  -1  716.36   15.21
   1   5   0  517.76   13.41
   1   5   0  543.40   14.00
   1   5   0  508.64   11.89
   1   5   0  510.94   12.27
   1   5   0  531.89   14.11
   1   5   0  536.12   12.34
   1   5   0  513.35   12.22
   1   5   0  505.97   13.48
   1   5   0  527.67   14.10
   1   5   0  533.84   12.47
   1   5   0  527.83   13.54
   1   5   0  530.35   12.24
   1   5   0  507.62   13.54
   1   5   0  510.45   11.57
   1   5   1  629.51   15.23
   1   5   1  601.88   15.12
   1   5   1  602.12   12.75
   1   5   1  604.37   15.41
   1   5   1  618.02   13.38
   1   5   1  584.86   13.29
   1   5   1  597.36   13.28
   1   5   1  596.97   15.01
   1   5   1  579.49   12.30
   1   5   2  512.05   13.96
   1   5   2  528.38   11.12
   1   5   2  527.81   12.45
   1   5   2  528.96   11.93
   1   5   2  501.29   14.02
   1   5   2  523.93   12.57
   1   5   2  479.42   13.80
   1   5   2  507.62   13.97
   1   5   2  525.90   12.17
   1   5   2  508.41   14.10
   1   5   2  506.22   10.66
   1   5   2  514.19   11.85
   1   5   3  502.37   11.59
   1   5   3  500.34   14.19
   1   5   3  500.06   10.36
   1   5   3  505.22   12.18
   1   5   3  516.41   11.48
   1   5   3  521.14   12.51
   1   5   3  494.28   11.97
   1   5   3  505.71   11.89
   1   5   3  531.87   14.61
   1   5   3  514.61   14.34
   1   5   3  500.26   13.21
   1   5   4   36.90    3.20
   1   5   4   40.85    2.93
   1   5   4   41.22    2.96
   1   5   4   35.75    2.95
   1   5   4   40.82    3.10
   1   5   4   35.62    3.48
   1   5   4   37.00    3.35
   1   5   5  339.22   11.11
   1   5   5  330.31    9.07
   1   5   5  356.15   10.53
   1   5   5  357.18   10.82
   1   5   5  343.18   11.74
   1   5   5  345.87   11.53
   1   5   6  748.77   18.56
   1   5   6  737.85   17.40
   1   5   6  753.38   18.02
   1   5   6  687.54   18.37
   1   5   6  747.91   18.86
   1   5   7   45.81    3.66
   1   5   7   45.40    3.87
   1   5   7   41.16    3.83
   1   5   7   47.27    4.10
   1   5   7   46.42    4.12
   1   5   8   96.92    5.66
   1   5   8   95.69    5.36
   1   5   8  102.92    5.91
   1   5   9   14.88    2.06
   1   5   9   16.14    2.13
   1   5  10   31.87    2.38
   1   6  -8   15.90    1.72
   1   6  -8   14.64    1.67
   1   6  -8   15.03    1.33
   1   6  -7   76.37    4.43
   1   6  -7   66.42    4.20
   1   6  -7   65.60    3.88
   1   6  -7   73.40    4.00
   1   6  -6    8.34    1.83
   1   6  -6    8.28    1.60
   1   6  -6    6.64    1.60
   1   6  -6    8.33    1.68
   1   6  -5   61.93    4.84
   1   6  -5   59.11    4.30
   1   6  -5   56.06    3.73
   1   6  -5   63.45    4.56
   1   6  -5   57.82    4.47
   1   6  -4  229.90    7.41
   1   6  -4  260.57   10.23
   1   6  -4  262.51   10.39
   1   6  -4  234.06    9.31
   1   6  -4  239.23    7.99
   1   6  -4  247.32    9.51
   1   6  -4  233.95    9.39
   1   6  -3  297.56    9.74
   1   6  -3  311.60    9.30
   1   6  -3  334.13   11.71
   1   6  -3  303.73   10.03
   1   6  -3  315.46   11.61
   1   6  -3  311.58    9.76
   1   6  -3  309.22    9.31
   1   6  -3  296.69    9.68
   1   6  -3  322.20   11.21
   1   6  -3  312.36   11.01
   1   6  -3  301.30    8.82
   1   6  -3  292.27   10.67
   1   6  -3  301.18    9.49
   1   6  -3  319.78    9.30
   1   6  -3  323.72   10.24
   1   6  -2   16.59    2.27
   1   6  -2   21.30    2.87
   1   6  -2   20.64    2.30
   1   6  -2   21.83    2.48
   1   6  -2   20.62    2.33
   1   6  -2   20.83    2.54
   1   6  -2   21.63    2.86
   1   6  -2   16.30    2.08
   1   6  -2   21.57    2.32
   1   6  -2   18.54    2.34
   1   6  -2   22.40    2.66
   1   6  -1   28.91    2.98
   1   6  -1   34.36    3.49
   1   6  -1   26.28    2.62
   1   6  -1   36.34    3.02
   1   6  -1   28.71    2.77
   1   6  -1   33.61    2.93
   1   6  -1   29.36    3.28
   1   6  -1   30.86    2.81
   1   6  -1   30.59    3.03
   1   6  -1   26.99    2.50
   1   6  -1   35.02    2.97
   1   6   0   12.89    2.10
   1   6   0   17.13    2.55
   1   6   0   12.97    1.92
   1   6   0   17.72    2.08
   1   6   0   17.36    2.08
   1   6   0   16.42    2.53
   1   6   0   14.43    1.96
   1   6   0   13.02    2.13
   1   6   0   15.31    2.06
   1   6   0   13.15    1.65
   1   6   0   23.56    2.48
   1   6   0   15.36    2.00
   1   6   1 1303.11   26.77
   1   6   1 1239.43   23.41
   1   6   1 1245.05   27.28
   1   6   1 1299.27   24.30
   1   6   1 1271.48   27.34
   1   6   1 1330.68   26.73
   1   6   1 1260.87   24.22
   1   6   2 2495.96   43.33
   1   6   2 2278.55   38.21
   1   6   2 2338.33   40.57
   1   6   2 2374.36   43.83
   1   6   2 2477.94   39.78
   1   6   2 2469.04   40.90
   1   6   2 2501.30   43.47
   1   6   2 2325.39   39.53
   1   6   3   76.73    4.28
   1   6   3   85.57    4.70
   1   6   3   83.75    4.75
   1   6   3   88.32    5.79
   1   6   3   88.01    5.82
   1   6   3   78.18    4.12
   1   6   4   93.73    4.75
   1   6   4   92.06    4.84
   1   6   4   88.72    5.86
   1   6   4   93.10    5.53
   1   6   4   87.54    4.91
   1   6   5   20.04    2.01
   1   6   5   21.73    2.58
   1   6   5   18.77    2.11
   1   6   5   20.34    2.83
   1   6   5   20.27    2.67
   1   6   6   27.82    2.93
   1   6   6   27.12    2.53
   1   6   6   25.78    3.02
   1   6   6   26.49    3.01
   1   6   7   74.08    4.59
   1   6   7   62.30    4.26
   1   6   7   70.22    4.62
   1   6   8    7.15    1.44
   1   6   8    5.96    1.37
   1   6   9   32.14    2.30
   1   7  -7  112.92    4.21
   1   7  -7  110.44    4.20
   1   7  -7  119.37    4.10
   1   7  -6    6.00    1.33
   1   7  -6    4.89    1.25
   1   7  -5   32.47    3.11
   1   7  -5   36.14    3.30
   1   7  -5   29.96    2.63
   1   7  -4   24.08    2.08
   1   7  -4   21.22    2.76
   1   7  -4   23.97    2.96
   1   7  -4   21.16    2.54
   1   7  -3  213.58    7.29
   1   7  -3  210.04    9.00
   1   7  -3  194.47    8.90
   1   7  -3  194.47    8.33
   1   7  -3  214.46    7.25
   1   7  -2  681.90   16.16
   1   7  -2  717.75   18.76
   1   7  -2  716.76   19.11
   1   7  -2  739.57   18.58
   1   7  -2  715.69   16.28
   1   7  -1  186.53    7.74
   1   7  -1  193.91    7.57
   1   7  -1  196.69    8.91
   1   7  -1  191.84    7.47
   1   7  -1  191.50    7.65
   1   7  -1  207.73    9.04
   1   7  -1  208.40    7.81
   1   7  -1  180.80    7.48
   1   7  -1  200.18    7.78
   1   7   0  130.06    6.56
   1   7   0  126.03    6.05
   1   7   0  113.88    5.44
   1   7   0  121.43    6.04
   1   7   0  111.92    6.72
   1   7   0  117.39    5.73
   1   7   0  123.02    6.35
   1   7   0  130.18    6.18
   1   7   1   47.82    3.47
   1   7   1   44.02    4.24
   1   7   1   47.37    3.70
   1   7   1   39.04    3.70
   1   7   2  114.43    5.73
   1   7   2  109.80    5.73
   1   7   2  120.03    6.67
   1   7   2  113.10    5.86
   1   7   2  116.96    5.28
   1   7   3  123.84    5.79
   1   7   3  106.62    4.77
   1   7   4   51.97    3.47
   1   7   4   53.59    3.93
   1   7   5   21.69    1.95
   1   7   5   21.87    2.01
   1   7   5   22.72    2.55
   1   7   6    0.10    0.30
   1   7   6    6.61    1.38
   1   7   7   66.50    3.21
   1   7   7   62.87    3.48
   1   7   8    1.82    0.54
   1   8  -6    1.57    0.53
   1   8  -5   50.75    2.97
   1   8  -5   62.75    3.24
   1   8  -4   70.55    4.09
   1   8  -3   86.37    3.79
   1   8  -3   89.39    5.03
   1   8  -3   87.80    3.72
   1   8  -3   80.67    3.56
   1   8  -2  287.10    8.38
   1   8  -2  285.95   10.09
   1   8  -2  298.26    8.37
   1   8  -2  287.19    8.30
   1   8  -1    4.08    1.44
   1   8  -1    5.45    1.30
   1   8  -1    5.42    1.27
   1   8   0   98.90    4.96
   1   8   0   90.89    4.79
   1   8   1  199.58    7.45
   1   8   2   64.95    3.90
   1   8   2   59.75    3.88
   1   8   3   17.27    1.94
   1   8   3   13.67    1.76
   1   8   4    6.76    1.12
   1   8   4    6.01    1.11
   1   8   4    5.77    1.27
   1   8   5   98.23    4.32
   1   8   6   29.84    1.97
   1   9  -3   11.81    1.19
   1   9  -2   23.54    1.59
   1   9  -2   22.75    1.51
   1   9  -1   14.44    1.43
   1   9  -1   13.98    1.36
   1   9  -1   13.55    1.33
   1   9   0    5.08    0.97
   1   9   0    6.49    1.06
   1   9   0    6.36    1.04
   1   9   1   24.07    1.96
   1   9   2   15.35    1.49
   1   9   2   13.47    1.40
   1   9   2   13.37    1.46
   1   9   3   43.21    2.17
   1   9   3   41.49    2.42
   1   9   3   38.68    2.09
   1   9   4  173.13    4.87
   2  -9   1  204.75    5.08
   2  -9   2    0.83    0.40
   2  -8  -2   19.01    1.73
   2  -8  -1  129.03    5.80
   2  -8   0    0.58    0.48
   2  -8   0    1.41    0.81
   2  -8   1   63.86    3.40
   2  -8   1   64.63    3.24
   2  -8   1   65.38    4.17
   2  -8   2    6.41    1.17
   2  -8   2    4.93    1.01
   2  -8   2    6.07    1.33
   2  -8   3   40.58    2.70
   2  -8   3   36.73    2.55
   2  -8   4  153.73    5.13
   2  -8   4  143.89    5.00
   2  -8   5  398.67    8.07
   2  -8   5  432.08    8.82
   2  -8   6    1.34    0.52
   2  -8   6    1.72    0.54
   2  -7  -3  165.86    6.25
   2  -7  -3  174.47    6.73
   2  -7  -2   12.38    1.88
   2  -7  -1  153.67    7.19
   2  -7   0  514.55   12.23
   2  -7   0  546.54   14.88
   2  -7   0  527.17   14.74
   2  -7   1  365.27   10.22
   2  -7   1  365.76   11.80
   2  -7   2   55.76    3.39
   2  -7   2   59.48    3.38
   2  -7   2   59.09    3.34
   2  -7   2   64.40    3.98
   2  -7   2   67.55    4.67
   2  -7   2   59.58    4.42
   2  -7   3  196.32    6.87
   2  -7   3  187.79    6.63
   2  -7   3  199.36    7.71
   2  -7   3  194.07    6.65
   2  -7   3  215.41    7.61
   2  -7   3  203.26    8.38
   2  -7   4   25.59    2.40
   2  -7   4   27.65    2.62
   2  -7   4   28.71    2.47
   2  -7   4   29.25    2.47
   2  -7   4   26.47    2.55
   2  -7   4   29.69    3.07
   2  -7   5  223.28    7.14
   2  -7   5  228.50    7.30
   2  -7   5  220.89    7.04
   2  -7   5  217.31    8.22
   2  -7   6   63.16    3.34
   2  -7   6   63.18    3.19
   2  -7   6   64.48    3.39
   2  -7   7   97.51    3.68
   2  -7   7   89.84    4.24
   2  -6  -6  140.87    5.62
   2  -6  -4   27.81    2.62
   2  -6  -3  120.44    5.69
   2  -6  -3  108.64    5.25
   2  -6  -2   27.96    2.75
   2  -6  -1  811.57   18.17
   2  -6   0   28.21    2.47
   2  -6   0   36.50    3.19
   2  -6   0   32.43    3.29
   2  -6   1  158.35    5.95
   2  -6   1  162.48    6.39
   2  -6   1  154.15    5.72
   2  -6   1  166.37    7.52
   2  -6   1  153.41    7.29
   2  -6   2   75.30    4.19
   2  -6   2   69.46    3.96
   2  -6   2   78.59    4.44
   2  -6   2   78.99    4.75
   2  -6   2   73.10    4.05
   2  -6   2   78.25    5.11
   2  -6   3   22.67    2.36
   2  -6   3   19.37    2.23
   2  -6   3   21.49    2.40
   2  -6   3   20.80    2.45
   2  -6   3   20.65    2.27
   2  -6   3   15.55    2.34
   2  -6   3   21.50    2.72
   2  -6   4  194.00    7.34
   2  -6   4  184.23    6.31
   2  -6   4  201.98    7.81
   2  -6   4  178.22    7.12
   2  -6   4  178.14    7.25
   2  -6   4  174.72    7.08
   2  -6   4  189.09    7.15
   2  -6   4  195.26    8.22
   2  -6   4  185.35    8.22
   2  -6   4  182.36    7.05
   2  -6   5  297.54    9.45
   2  -6   5  283.25    8.40
   2  -6   5  285.41    9.41
   2  -6   5  298.90    9.41
   2  -6   5  313.56    9.73
   2  -6   5  300.66   10.43
   2  -6   5  310.65   10.82
   2  -6   6  592.53   14.18
   2  -6   6  589.83   13.28
   2  -6   6  607.01   14.29
   2  -6   6  629.91   13.91
   2  -6   6  621.69   14.30
   2  -6   6  601.98   14.08
   2  -6   6  612.26   15.98
   2  -6   7   13.61    2.14
   2  -6   7    9.77    1.27
   2  -6   7   11.31    1.49
   2  -6   7   10.87    1.81
   2  -6   8  102.99    4.72
   2  -6   8   98.55    3.81
   2  -6   8  108.66    4.18
   2  -6   8  104.03    4.97
   2  -6   8   99.53    4.07
   2  -6   9   61.13    2.90
   2  -5  -8   77.57    3.77
   2  -5  -6   25.75    2.58
   2  -5  -5  367.41   11.93
   2  -5  -5  352.66   11.43
   2  -5  -4  192.92    6.99
   2  -5  -4  203.04    8.30
   2  -5  -3   93.84    4.58
   2  -5  -2  465.70   11.84
   2  -5  -1   59.98    3.26
   2  -5   0  476.50   10.83
   2  -5   0  461.85   11.16
   2  -5   1  242.54    7.40
   2  -5   1  222.07    6.90
   2  -5   1  243.95    7.63
   2  -5   1  244.35    8.64
   2  -5   2  523.71   12.08
   2  -5   2  475.65   11.70
   2  -5   2  489.13   12.21
   2  -5   2  495.07   13.41
   2  -5   2  480.45   13.31
   2  -5   3   13.96    1.81
   2  -5   3   12.33    1.57
   2  -5   3   10.78    1.62
   2  -5   3   14.19    1.84
   2  -5   3   11.70    1.94
   2  -5   4  355.22   10.21
   2  -5   4  328.51    9.39
   2  -5   4  344.37   10.58
   2  -5   4  349.16   10.23
   2  -5   4  351.97   10.18
   2  -5   4  340.23   11.11
   2  -5   4  329.42   11.08
   2  -5   4  312.93    9.65
   2  -5   5  304.36    9.59
   2  -5   5  298.60    9.13
   2  -5   5  296.08    9.74
   2  -5   5  298.20    9.69
   2  -5   5  284.84    9.35
   2  -5   5  309.55    9.67
   2  -5   5  297.88   10.46
   2  -5   5  313.74   10.92
   2  -5   5  276.06    8.74
   2  -5   6   30.14    2.75
   2  -5   6   26.46    2.68
   2  -5   6   28.09    2.83
   2  -5   6   24.26    2.52
   2  -5   6   29.17    2.73
   2  -5   6   23.41    2.87
   2  -5   6   30.50    3.29
   2  -5   7  229.53    8.02
   2  -5   7  248.43    8.11
   2  -5   7  220.58    7.71
   2  -5   7  229.45    7.12
   2  -5   7  248.97    8.26
   2  -5   7  235.69    7.70
   2  -5   7  239.64    9.45
   2  -5   7  245.49    9.89
   2  -5   8  140.90    6.52
   2  -5   8  143.52    5.50
   2  -5   8  143.06    6.85
   2  -5   8  145.45    5.55
   2  -5   8  139.61    6.53
   2  -5   9   11.52    1.46
   2  -5   9   13.40    1.52
   2  -5   9   12.04    1.33
   2  -5   9   11.92    1.78
   2  -5   9   10.77    1.32
   2  -4  -8   77.61    4.29
   2  -4  -8   70.96    4.52
   2  -4  -7   90.31    5.61
   2  -4  -7   93.42    5.64
   2  -4  -6  491.12   14.55
   2  -4  -6  494.92   12.63
   2  -4  -6  508.45   14.23
   2  -4  -6  514.31   13.78
   2  -4  -5  109.26    6.07
   2  -4  -5  122.93    6.36
   2  -4  -5  118.19    6.03
   2  -4  -4  150.75    5.62
   2  -4  -4  151.17    6.72
   2  -4  -4  149.33    6.67
   2  -4  -3   16.99    1.73
   2  -4  -2  989.97   20.30
   2  -4  -2 1117.43   18.74
   2  -4  -1  151.36    4.42
   2  -4  -1  153.75    5.13
   2  -4   0  186.68    5.44
   2  -4   0  202.84    6.15
   2  -4   1  237.31    6.58
   2  -4   1  238.58    6.95
   2  -4   2   79.16    3.79
   2  -4   2   73.18    2.97
   2  -4   2   78.50    3.72
   2  -4   2   74.21    3.77
   2  -4   2   73.08    3.26
   2  -4   2   73.36    4.15
   2  -4   2   78.75    4.19
   2  -4   3   76.35    3.89
   2  -4   3   71.44    3.33
   2  -4   3   81.41    4.02
   2  -4   3   72.54    3.83
   2  -4   3   64.68    3.29
   2  -4   3   80.17    4.40
   2  -4   3   75.40    4.24
   2  -4   3   70.95    3.22
   2  -4   4   33.25    2.68
   2  -4   4   37.00    2.64
   2  -4   4   35.29    2.91
   2  -4   4   36.76    2.86
   2  -4   4   32.45    2.64
   2  -4   4   37.90    3.18
   2  -4   4   36.01    2.71
   2  -4   4   33.12    2.37
   2  -4   5   71.10    4.08
   2  -4   5   72.73    4.32
   2  -4   5   70.26    4.00
   2  -4   5   69.39    3.75
   2  -4   5   73.33    4.27
   2  -4   5   70.41    4.05
   2  -4   5   70.94    4.63
   2  -4   5   73.09    4.75
   2  -4   5   69.10    3.87
   2  -4   5   66.11    3.68
   2  -4   6  184.06    7.08
   2  -4   6  180.83    7.02
   2  -4   6  179.81    7.17
   2  -4   6  186.33    7.20
   2  -4   6  169.61    6.47
   2  -4   6  169.37    6.64
   2  -4   6  186.04    7.10
   2  -4   6  172.10    7.70
   2  -4   6  186.38    8.17
   2  -4   6  163.70    6.07
   2  -4   6  181.89    6.74
   2  -4   7  209.07    7.59
   2  -4   7  193.32    7.23
   2  -4   7  223.81    7.97
   2  -4   7  206.13    7.69
   2  -4   7  199.84    7.20
   2  -4   7  194.23    7.62
   2  -4   7  180.17    6.83
   2  -4   7  210.08    7.61
   2  -4   7  202.92    7.03
   2  -4   7  183.25    8.16
   2  -4   7  223.43    9.21
   2  -4   7  201.83    9.21
   2  -4   8  480.52   13.98
   2  -4   8  457.18   11.88
   2  -4   8  514.16   12.78
   2  -4   8  425.01   11.56
   2  -4   8  478.14   12.10
   2  -4   8  475.41   11.88
   2  -4   8  505.41   15.00
   2  -4   8  487.72   12.13
   2  -4   8  448.61   13.87
   2  -4   8  472.26   12.05
   2  -4   9    2.68    0.80
   2  -4   9    2.92    1.10
   2  -4   9    2.94    1.34
   2  -4   9    4.23    1.17
   2  -4  10    1.42    0.49
   2  -3 -10   15.94    1.50
   2  -3  -9   69.81    3.71
   2  -3  -8    7.09    1.65
   2  -3  -8    7.73    1.54
   2  -3  -8    5.99    1.51
   2  -3  -7  802.33   20.51
   2  -3  -7  846.56   19.22
   2  -3  -7  853.20   20.22
   2  -3  -6  420.41   12.33
   2  -3  -6  422.83   11.81
   2  -3  -5  387.72   11.31
   2  -3  -5  359.97   10.64
   2  -3  -4  418.27    9.57
   2  -3  -4  433.11   11.35
   2  -3  -4  445.56   11.37
   2  -3  -3   44.60    2.96
   2  -3  -2  144.91    3.82
   2  -3  -1  814.12   13.97
   2  -3   0  481.98    8.42
   2  -3   0  528.02   10.01
   2  -3   1   93.88    2.99
   2  -3   1   89.75    3.20
   2  -3   2 2123.73   32.83
   2  -3   2 2219.75   34.01
   2  -3   2 2194.90   34.17
   2  -3   2 2039.71   32.82
   2  -3   2 2253.32   35.11
   2  -3   2 2158.14   34.56
   2  -3   2 2149.04   33.06
   2  -3   3   48.20    2.56
   2  -3   3   41.60    2.59
   2  -3   3   36.68    2.30
   2  -3   3   43.17    2.50
   2  -3   3   38.15    2.78
   2  -3   3   40.82    2.74
   2  -3   3   37.94    2.28
   2  -3   4  336.16    8.60
   2  -3   4  329.14    9.08
   2  -3   4  305.14    8.25
   2  -3   4  333.59    8.79
   2  -3   4  333.30    8.64
   2  -3   4  312.00    8.32
   2  -3   4  317.87    8.40
   2  -3   4  326.62    9.48
   2  -3   4  330.10    9.34
   2  -3   4  328.58    8.58
   2  -3   4  343.23    8.53
   2  -3   5  449.75   11.08
   2  -3   5  427.79   10.53
   2  -3   5  453.37   11.22
   2  -3   5  441.17   11.39
   2  -3   5  427.76   10.78
   2  -3   5  442.69   10.74
   2  -3   5  432.08   10.83
   2  -3   5  465.25   12.15
   2  -3   5  434.94   10.80
   2  -3   6  430.92   11.01
   2  -3   6  417.26   11.22
   2  -3   6  417.11   11.41
   2  -3   6  411.98   11.29
   2  -3   6  404.19   10.90
   2  -3   6  423.38   11.19
   2  -3   6  388.40   10.28
   2  -3   6  416.11   12.23
   2  -3   6  419.62   12.51
   2  -3   6  412.15   10.17
   2  -3   7  464.49   11.81
   2  -3   7  466.90   12.37
   2  -3   7  463.49   12.51
   2  -3   7  432.18   12.42
   2  -3   7  458.99   12.18
   2  -3   7  419.82   11.72
   2  -3   7  422.11   10.83
   2  -3   7  459.11   11.84
   2  -3   7  443.91   13.34
   2  -3   7  468.47   13.99
   2  -3   7  450.16   14.43
   2  -3   7  460.51   12.34
   2  -3   8  833.52   20.08
   2  -3   8  845.05   17.77
   2  -3   8  845.92   17.86
   2  -3   8  851.12   18.64
   2  -3   8  892.16   19.04
   2  -3   8  823.25   18.24
   2  -3   8  899.55   18.14
   2  -3   8  855.47   20.57
   2  -3   8  936.84   21.42
   2  -3   8  870.15   21.83
   2  -3   8  863.46   19.09
   2  -3   9  291.96    9.03
   2  -3   9  266.84    7.77
   2  -3   9  281.49    8.90
   2  -3   9  278.46   10.36
   2  -3   9  290.04    9.49
   2  -3   9  301.98   11.09
   2  -3   9  293.28    9.24
   2  -3  10  146.64    5.38
   2  -3  11   46.42    2.21
   2  -2 -10  240.98    6.92
   2  -2 -10  233.60    7.27
   2  -2 -10  225.91    7.08
   2  -2  -9    1.03    0.83
   2  -2  -9    1.27    0.68
   2  -2  -8   17.91    2.71
   2  -2  -8   21.53    2.48
   2  -2  -8   15.96    2.36
   2  -2  -7    3.10    1.23
   2  -2  -7    0.92    0.74
   2  -2  -7    1.50    0.89
   2  -2  -6  242.46    8.47
   2  -2  -6  248.75    9.23
   2  -2  -5  371.62    9.94
   2  -2  -5  385.53    8.90
   2  -2  -5  378.24   10.50
   2  -2  -4  205.92    5.67
   2  -2  -4  214.92    5.92
   2  -2  -4  226.14    7.17
   2  -2  -4  219.08    6.76
   2  -2  -3 1024.23   17.15
   2  -2  -3 1101.52   19.22
   2  -2  -2  717.77   11.90
   2  -2  -1  620.37   10.29
   2  -2   0  704.53   11.67
   2  -2   1 2820.37   40.38
   2  -2   1 2857.13   41.63
   2  -2   2 1499.66   23.44
   2  -2   2 1469.67   23.85
   2  -2   2 1466.60   23.70
   2  -2   2 1427.70   23.48
   2  -2   3  856.65   15.36
   2  -2   3  851.41   15.91
   2  -2   3  865.96   15.54
   2  -2   3  879.98   15.44
   2  -2   3  830.83   15.32
   2  -2   3  835.50   15.05
   2  -2   3  853.01   15.44
   2  -2   3  857.03   16.24
   2  -2   3  858.28   15.76
   2  -2   3  860.13   15.53
   2  -2   3  840.24   15.43
   2  -2   4  213.38    6.24
   2  -2   4  202.89    6.15
   2  -2   4  204.03    5.88
   2  -2   4  200.46    6.11
   2  -2   4  204.98    6.12
   2  -2   4  216.07    6.89
   2  -2   4  211.95    6.64
   2  -2   4  208.62    6.05
   2  -2   4  213.61    6.26
   2  -2   5   24.00    2.00
   2  -2   5   22.25    2.05
   2  -2   5   21.93    2.01
   2  -2   5   23.86    2.18
   2  -2   5   21.44    2.02
   2  -2   5   20.21    1.89
   2  -2   5   22.72    1.84
   2  -2   5   21.16    1.98
   2  -2   5   21.83    2.02
   2  -2   5   22.19    2.27
   2  -2   5   23.59    2.30
   2  -2   5   22.80    1.91
   2  -2   5   23.59    2.08
   2  -2   6 2033.14   32.52
   2  -2   6 2024.28   33.22
   2  -2   6 2019.78   33.76
   2  -2   6 1848.66   33.17
   2  -2   6 1895.81   33.79
   2  -2   6 1990.86   33.42
   2  -2   6 2010.13   32.94
   2  -2   6 1860.68   31.54
   2  -2   6 1968.93   33.33
   2  -2   6 2012.14   35.10
   2  -2   6 1920.73   36.08
   2  -2   6 1945.60   31.93
   2  -2   6 2027.95   33.66
   2  -2   7   55.60    3.33
   2  -2   7   58.87    3.78
   2  -2   7   57.70    3.92
   2  -2   7   51.09    3.62
   2  -2   7   61.84    4.05
   2  -2   7   57.52    3.83
   2  -2   7   53.68    3.51
   2  -2   7   50.84    2.89
   2  -2   7   61.48    3.55
   2  -2   7   50.90    4.11
   2  -2   7   66.27    4.71
   2  -2   7   57.37    4.68
   2  -2   7   57.33    3.88
   2  -2   8  134.42    5.32
   2  -2   8  146.10    6.29
   2  -2   8  144.14    6.44
   2  -2   8  147.57    6.55
   2  -2   8  128.11    5.53
   2  -2   8  136.60    5.41
   2  -2   8  133.08    7.02
   2  -2   8  139.26    7.32
   2  -2   8  139.89    6.89
   2  -2   8  133.44    6.36
   2  -2   8  144.65    7.78
   2  -2   9  239.42    8.35
   2  -2   9  250.07    8.25
   2  -2   9  221.89    8.62
   2  -2   9  221.95    7.93
   2  -2   9  247.12    8.69
   2  -2   9  240.87    9.56
   2  -2   9  245.47    9.84
   2  -2   9  235.41   10.01
   2  -2   9  253.67    8.86
   2  -2  10  325.34    9.10
   2  -2  10  305.40   10.50
   2  -2  10  325.31    9.43
   2  -2  10  319.46    9.58
   2  -2  11   91.79    3.39
   2  -2  11   89.02    3.39
   2  -1 -10  187.51    6.23
   2  -1 -10  178.02    6.51
   2  -1 -10  165.87    6.29
   2  -1  -9  111.50    5.81
   2  -1  -9  103.80    4.92
   2  -1  -9  104.41    5.51
   2  -1  -8   41.40    3.22
   2  -1  -8   40.90    3.36
   2  -1  -8   48.76    3.99
   2  -1  -7  145.80    6.15
   2  -1  -7  155.91    6.65
   2  -1  -7  162.52    7.84
   2  -1  -7  135.55    6.77
   2  -1  -6  347.63    9.78
   2  -1  -6  347.23    9.08
   2  -1  -6  360.10   10.24
   2  -1  -6  355.53    9.94
   2  -1  -6  362.59   10.99
   2  -1  -5  339.07    8.93
   2  -1  -5  351.21    8.65
   2  -1  -5  338.71    9.10
   2  -1  -5  351.35   10.08
   2  -1  -5  342.57    8.60
   2  -1  -4  358.62    8.27
   2  -1  -4  343.25    8.41
   2  -1  -4  376.78    8.55
   2  -1  -4  362.23    8.76
   2  -1  -3 1303.76   21.52
   2  -1  -3 1342.52   20.21
   2  -1  -3 1322.71   21.86
   2  -1  -3 1313.52   21.38
   2  -1  -2 1522.05   22.68
   2  -1  -2 1749.81   25.41
   2  -1  -1 1142.65   17.43
   2  -1  -1 1013.49   15.79
   2  -1   0   36.63    1.67
   2  -1   1 3214.14   46.32
   2  -1   1 3325.07   46.46
   2  -1   1 3336.83   46.56
   2  -1   2 1781.81   27.90
   2  -1   2 1796.37   28.15
   2  -1   2 1867.55   28.21
   2  -1   2 1856.56   28.08
   2  -1   3  999.91   16.63
   2  -1   3  967.15   16.78
   2  -1   3  940.82   16.31
   2  -1   3  954.13   16.89
   2  -1   3  902.90   16.15
   2  -1   3  925.08   16.33
   2  -1   3  986.13   16.62
   2  -1   4   79.23    3.41
   2  -1   4   70.13    3.08
   2  -1   4   71.83    2.89
   2  -1   4   67.84    3.15
   2  -1   4   74.98    3.26
   2  -1   4   75.02    3.58
   2  -1   4   65.97    2.96
   2  -1   4   73.71    3.39
   2  -1   4   74.68    3.17
   2  -1   4   76.43    3.36
   2  -1   5  156.75    5.00
   2  -1   5  158.85    5.59
   2  -1   5  161.11    5.70
   2  -1   5  156.12    5.75
   2  -1   5  165.90    5.26
   2  -1   5  158.97    5.58
   2  -1   5  160.93    4.68
   2  -1   5  158.51    5.49
   2  -1   5  166.64    6.16
   2  -1   5  156.65    5.29
   2  -1   5  164.66    6.02
   2  -1   5  161.80    5.23
   2  -1   5  161.90    5.59
   2  -1   6   87.21    3.69
   2  -1   6   90.21    3.92
   2  -1   6   87.53    4.44
   2  -1   6   83.22    4.35
   2  -1   6   84.08    4.24
   2  -1   6   79.54    3.70
   2  -1   6   77.02    3.14
   2  -1   6   74.47    3.93
   2  -1   6   88.89    4.84
   2  -1   6   77.48    3.92
   2  -1   6   84.04    5.06
   2  -1   6   83.77    4.69
   2  -1   6   85.61    4.32
   2  -1   7  961.66   18.11
   2  -1   7 1031.77   19.91
   2  -1   7 1057.60   20.89
   2  -1   7 1003.73   20.33
   2  -1   7 1000.29   20.82
   2  -1   7 1023.50   20.61
   2  -1   7 1004.03   18.93
   2  -1   7  993.95   18.43
   2  -1   7  966.77   19.76
   2  -1   7 1021.73   22.24
   2  -1   7  934.38   18.31
   2  -1   7 1018.42   23.12
   2  -1   7 1022.65   21.79
   2  -1   7 1031.58   20.86
   2  -1   8  511.73   12.87
   2  -1   8  559.42   14.29
   2  -1   8  537.27   14.01
   2  -1   8  505.61   13.85
   2  -1   8  509.26   13.67
   2  -1   8  541.65   13.92
   2  -1   8  509.34   14.52
   2  -1   8  502.87   15.04
   2  -1   8  537.44   15.46
   2  -1   8  541.46   16.15
   2  -1   9   13.98    2.10
   2  -1   9   11.64    1.71
   2  -1   9   12.97    1.91
   2  -1   9   12.84    1.95
   2  -1   9   12.36    2.22
   2  -1   9   13.82    2.40
   2  -1   9   14.37    2.19
   2  -1  10   85.12    4.69
   2  -1  10   83.22    5.34
   2  -1  10   85.87    4.70
   2  -1  11    2.67    0.81
   2  -1  11    2.02    0.63
   2   0 -10   46.88    3.07
   2   0 -10   48.43    3.32
   2   0 -10   43.34    3.17
   2   0  -9   63.91    4.43
   2   0  -9   67.96    3.76
   2   0  -9   66.99    4.26
   2   0  -9   71.88    4.68
   2   0  -9   66.86    4.52
   2   0  -9   61.99    4.22
   2   0  -8   20.79    2.47
   2   0  -8   19.10    2.29
   2   0  -8   22.07    2.81
   2   0  -8   17.53    2.22
   2   0  -8   20.87    2.80
   2   0  -8   19.70    2.57
   2   0  -7  533.01   14.07
   2   0  -7  570.32   13.78
   2   0  -7  563.16   13.27
   2   0  -7  571.99   14.06
   2   0  -7  586.17   15.95
   2   0  -7  581.30   15.13
   2   0  -6   11.09    1.71
   2   0  -6    7.20    1.32
   2   0  -6    7.78    1.32
   2   0  -6   10.76    1.61
   2   0  -6    7.19    1.50
   2   0  -6    7.69    1.65
   2   0  -5  298.48    8.68
   2   0  -5  324.79    8.41
   2   0  -5  304.09    8.36
   2   0  -5  303.75    7.97
   2   0  -5  309.55    9.06
   2   0  -4  107.03    4.29
   2   0  -4   99.48    3.11
   2   0  -4  106.85    4.08
   2   0  -4  103.82    3.95
   2   0  -4  106.15    4.89
   2   0  -4  103.17    3.73
   2   0  -4  107.84    4.39
   2   0  -4  106.42    3.40
   2   0  -3  392.89    7.20
   2   0  -3  367.24    7.55
   2   0  -3  395.72    8.59
   2   0  -3  391.17    7.21
   2   0  -3  406.36    9.74
   2   0  -3  390.03    7.74
   2   0  -3  394.47    8.62
   2   0  -3  382.83    7.55
   2   0  -2   98.38    3.05
   2   0  -2   96.65    2.85
   2   0  -2  106.52    3.97
   2   0  -2   94.43    2.60
   2   0  -2  102.44    2.32
   2   0  -2   96.88    2.21
   2   0  -2   96.83    2.87
   2   0  -1 2030.51   28.83
   2   0  -1 2017.34   28.91
   2   0  -1 2071.54   30.17
   2   0  -1 1899.52   27.25
   2   0  -1 1909.93   27.43
   2   0  -1 1935.13   27.09
   2   0  -1 1912.03   28.19
   2   0  -1 1968.26   28.68
   2   0   0  531.97    8.56
   2   0   0  514.01    9.22
   2   0   0  506.71    8.47
   2   0   0  508.27    9.13
   2   0   0  523.35    9.39
   2   0   0  498.97    8.05
   2   0   0  506.03    8.88
   2   0   0  510.99    9.07
   2   0   1  290.09    5.94
   2   0   1  289.01    5.66
   2   0   1  304.71    5.83
   2   0   1  307.18    6.18
   2   0   2  964.76   15.63
   2   0   2  931.97   15.57
   2   0   2  945.64   15.36
   2   0   2  978.03   15.57
   2   0   3   73.21    3.01
   2   0   3   79.38    3.12
   2   0   3   73.59    3.04
   2   0   3   70.24    2.70
   2   0   4  431.88    9.76
   2   0   4  422.41    8.75
   2   0   4  417.34    8.11
   2   0   4  417.78    9.33
   2   0   4  439.00    8.36
   2   0   4  440.16    9.25
   2   0   4  436.47    9.97
   2   0   4  424.88    9.65
   2   0   4  438.53    9.61
   2   0   4  464.93    9.40
   2   0   5  515.63    9.97
   2   0   5  528.45   11.34
   2   0   5  510.11   11.74
   2   0   5  521.80   10.41
   2   0   5  492.73    9.19
   2   0   5  508.52   11.55
   2   0   5  526.99   11.32
   2   0   5  516.25    9.51
   2   0   5  533.34   11.18
   2   0   5  534.95   12.38
   2   0   5  505.43   11.68
   2   0   5  520.87   12.05
   2   0   5  517.93   11.04
   2   0   5  540.76   11.49
   2   0   6  128.58    4.01
   2   0   6  124.05    5.15
   2   0   6  134.29    5.30
   2   0   6  131.84    5.56
   2   0   6  123.69    5.41
   2   0   6  122.34    5.12
   2   0   6  126.85    4.37
   2   0   6  129.18    5.46
   2   0   6  126.34    5.14
   2   0   6  140.39    6.19
   2   0   6  128.64    5.46
   2   0   6  132.34    5.89
   2   0   6  129.69    4.83
   2   0   6  124.70    6.14
   2   0   6  129.95    5.84
   2   0   6  131.61    5.33
   2   0   7  128.57    5.60
   2   0   7  135.56    5.22
   2   0   7  126.32    5.90
   2   0   7  133.71    5.66
   2   0   7  130.61    6.07
   2   0   7  124.21    5.59
   2   0   7  119.55    4.36
   2   0   7  127.36    5.87
   2   0   7  138.23    6.67
   2   0   7  122.96    5.75
   2   0   7  126.49    6.38
   2   0   7  127.04    4.97
   2   0   7  125.24    6.73
   2   0   7  127.54    6.27
   2   0   7  140.13    5.97
   2   0   8  292.61    8.52
   2   0   8  284.70    9.82
   2   0   8  301.98   10.09
   2   0   8  288.39    9.29
   2   0   8  285.65    9.49
   2   0   8  294.34    9.88
   2   0   8  278.33    9.66
   2   0   8  289.73   10.81
   2   0   8  286.08   10.24
   2   0   8  306.55    9.90
   2   0   9  468.70   13.27
   2   0   9  433.36   12.51
   2   0   9  421.03   11.97
   2   0   9  448.00   13.20
   2   0   9  457.32   12.59
   2   0   9  442.96   14.06
   2   0   9  446.72   14.16
   2   0   9  440.63   12.58
   2   0  10    6.18    1.37
   2   0  10    9.21    1.69
   2   0  10    6.39    1.44
   2   0  11    0.22    0.55
   2   0  11    0.43    0.46
   2   0  12   57.10    2.95
   2   1 -10   16.43    1.80
   2   1 -10   14.90    1.90
   2   1 -10   16.26    1.95
   2   1  -9   39.56    3.35
   2   1  -9   36.20    2.74
   2   1  -9   41.53    3.33
   2   1  -9   44.99    3.68
   2   1  -9   37.06    3.34
   2   1  -9   37.48    3.17
   2   1  -9   42.76    3.46
   2   1  -8  279.27   10.08
   2   1  -8  271.66    8.84
   2   1  -8  279.82    9.74
   2   1  -8  292.99   10.50
   2   1  -8  279.11    8.79
   2   1  -8  293.85   10.45
   2   1  -8  271.50    8.88
   2   1  -8  268.01    9.66
   2   1  -7  352.70   11.74
   2   1  -7  362.31   11.32
   2   1  -7  366.48   10.52
   2   1  -7  370.78   11.34
   2   1  -7  369.40   11.94
   2   1  -7  387.00   10.68
   2   1  -7  372.75   11.96
   2   1  -7  355.65   10.41
   2   1  -7  357.41   11.82
   2   1  -7  368.54   11.40
   2   1  -6  345.69   10.57
   2   1  -6  346.85    9.72
   2   1  -6  359.00    9.96
   2   1  -6  367.57   11.22
   2   1  -6  345.09    9.75
   2   1  -6  354.19   11.24
   2   1  -6  355.54   10.57
   2   1  -5  920.66   18.96
   2   1  -5  938.73   18.24
   2   1  -5  912.56   19.36
   2   1  -5  919.72   17.82
   2   1  -5  987.77   19.97
   2   1  -5  934.49   18.77
   2   1  -4  604.98   12.95
   2   1  -4  573.40   10.84
   2   1  -4  612.01   12.46
   2   1  -4  601.58   13.23
   2   1  -4  583.61   11.77
   2   1  -4  587.11   11.16
   2   1  -4  590.16   12.50
   2   1  -4  561.88   11.62
   2   1  -3  481.62    9.15
   2   1  -3  455.11   10.27
   2   1  -3  484.19    9.97
   2   1  -3  466.95    8.72
   2   1  -3  455.27   10.83
   2   1  -3  439.58    8.42
   2   1  -3  458.16    9.62
   2   1  -3  498.45    9.66
   2   1  -2  545.88    9.84
   2   1  -2  577.67    9.73
   2   1  -2  582.37   11.38
   2   1  -2  494.76    8.12
   2   1  -2  491.50    7.87
   2   1  -2  543.61    9.55
   2   1  -2  563.35   10.13
   2   1  -1   24.52    1.73
   2   1  -1   22.14    1.38
   2   1  -1   24.09    1.40
   2   1  -1   24.01    1.71
   2   1  -1   23.93    1.15
   2   1   0  457.32    8.93
   2   1   0  440.48    8.39
   2   1   0  444.59    8.38
   2   1   0  476.50    9.12
   2   1   0  442.55    9.00
   2   1   0  437.47    8.05
   2   1   0  443.12    8.57
   2   1   1 3360.75   48.60
   2   1   1 3251.71   47.74
   2   1   1 3293.98   47.92
   2   1   1 3296.97   47.21
   2   1   1 3356.90   48.63
   2   1   1 3387.43   48.12
   2   1   1 3399.80   48.43
   2   1   2  127.81    3.91
   2   1   2  130.12    3.86
   2   1   2  132.62    3.91
   2   1   2  129.66    3.50
   2   1   2  131.24    3.62
   2   1   2  131.22    3.71
   2   1   2  130.04    4.15
   2   1   2  132.21    3.91
   2   1   2  138.98    3.96
   2   1   3  217.00    5.74
   2   1   3  227.39    5.64
   2   1   3  220.13    5.96
   2   1   3  223.72    4.93
   2   1   3  230.23    5.27
   2   1   3  228.16    5.96
   2   1   3  228.50    6.21
   2   1   3  224.06    5.83
   2   1   3  221.84    5.52
   2   1   3  229.06    5.55
   2   1   4  471.23    8.05
   2   1   4  480.51    9.82
   2   1   4  485.98   10.56
   2   1   4  456.66    8.17
   2   1   4  438.35    7.71
   2   1   4  473.24    8.84
   2   1   4  480.20   10.00
   2   1   4  479.33    9.46
   2   1   4  491.33   10.75
   2   1   4  474.15   10.70
   2   1   4  456.57   10.01
   2   1   4  466.73   10.26
   2   1   4  471.35    9.96
   2   1   4  490.15    9.93
   2   1   5  333.28    8.10
   2   1   5  309.68    8.62
   2   1   5  307.30    6.76
   2   1   5  311.74    8.82
   2   1   5  335.95    8.09
   2   1   5  305.80    6.44
   2   1   5  320.18    8.26
   2   1   5  338.08    9.30
   2   1   5  332.83    9.10
   2   1   5  307.71    8.79
   2   1   5  331.78    8.24
   2   1   5  326.19    8.19
   2   1   6   84.15    4.73
   2   1   6   89.51    4.62
   2   1   6   94.05    4.17
   2   1   6   83.81    4.45
   2   1   6   90.04    4.21
   2   1   6   80.30    4.47
   2   1   6   83.04    3.95
   2   1   6   91.29    4.94
   2   1   6   86.44    4.65
   2   1   6   86.66    4.75
   2   1   6   86.33    3.99
   2   1   6   88.20    4.25
   2   1   7   66.71    4.29
   2   1   7   74.95    4.56
   2   1   7   67.43    3.81
   2   1   7   71.49    4.05
   2   1   7   65.93    4.33
   2   1   7   72.12    4.83
   2   1   7   78.09    4.74
   2   1   7   70.26    4.71
   2   1   7   64.87    3.62
   2   1   7   70.45    4.64
   2   1   7   67.41    4.04
   2   1   8  918.03   20.49
   2   1   8  958.78   20.80
   2   1   8  886.29   19.03
   2   1   8  925.18   19.77
   2   1   8  974.98   21.08
   2   1   8  931.43   22.18
   2   1   8  989.64   21.33
   2   1   8  911.75   21.96
   2   1   8  951.81   21.50
   2   1   8  943.90   20.00
   2   1   9  400.92   11.84
   2   1   9  412.04   12.25
   2   1   9  407.12   11.51
   2   1   9  389.36   12.30
   2   1   9  413.11   12.62
   2   1   9  409.48   11.64
   2   1  10  103.88    4.93
   2   1  10   88.12    4.83
   2   1  10   98.37    5.24
   2   1  10  101.80    4.98
   2   1  11   74.05    3.98
   2   1  11   82.22    4.91
   2   1  12   12.78    1.18
   2   1  12   11.26    1.35
   2   2 -10    9.35    1.32
   2   2 -10   10.27    1.53
   2   2  -9  469.66   12.34
   2   2  -9  507.41   13.43
   2   2  -8   37.00    3.40
   2   2  -8   39.44    3.13
   2   2  -8   41.23    3.90
   2   2  -8   42.82    3.60
   2   2  -8   37.29    3.61
   2   2  -8   34.77    3.00
   2   2  -8   40.58    3.72
   2   2  -8   35.37    3.21
   2   2  -8   38.17    3.43
   2   2  -7  264.66    9.67
   2   2  -7  277.70    9.86
   2   2  -7  254.72    8.64
   2   2  -7  270.88    9.47
   2   2  -7  274.24   10.16
   2   2  -7  268.16    8.93
   2   2  -7  267.88   10.05
   2   2  -7  250.24    9.59
   2   2  -7  276.03    9.69
   2   2  -7  261.86    9.40
   2   2  -6  274.27    9.60
   2   2  -6  262.05    9.25
   2   2  -6  253.58    8.31
   2   2  -6  256.61    8.85
   2   2  -6  248.24    9.31
   2   2  -6  272.02    8.63
   2   2  -6  271.91    9.66
   2   2  -6  254.49    9.38
   2   2  -6  255.60    9.23
   2   2  -6  249.88    8.77
   2   2  -5   52.07    3.74
   2   2  -5   49.47    3.51
   2   2  -5   42.97    2.99
   2   2  -5   48.06    3.36
   2   2  -5   53.67    3.76
   2   2  -5   54.86    3.40
   2   2  -5   50.22    3.69
   2   2  -5   47.09    3.61
   2   2  -5   51.88    3.44
   2   2  -4  511.63   12.52
   2   2  -4  476.05   11.38
   2   2  -4  496.39   10.29
   2   2  -4  493.22   12.12
   2   2  -4  531.26   11.59
   2   2  -4  495.19   12.24
   2   2  -4  482.08    9.74
   2   2  -4  507.20   12.61
   2   2  -4  509.58   11.56
   2   2  -4  488.50   11.26
   2   2  -3    7.63    1.24
   2   2  -3    7.13    0.91
   2   2  -3    6.48    1.22
   2   2  -3    7.42    1.09
   2   2  -3    6.77    1.06
   2   2  -2  449.38    9.38
   2   2  -2  451.96    9.53
   2   2  -2  477.02   10.29
   2   2  -2  481.83    9.39
   2   2  -2  461.68    9.19
   2   2  -2  453.85    9.80
   2   2  -1 1745.93   27.65
   2   2  -1 1655.66   26.27
   2   2  -1 1642.99   26.02
   2   2  -1 1678.22   26.18
   2   2  -1 1753.40   27.82
   2   2  -1 1661.02   27.76
   2   2  -1 1659.36   25.26
   2   2  -1 1715.74   26.80
   2   2   0 2634.66   40.21
   2   2   0 2492.03   37.89
   2   2   0 2650.74   38.97
   2   2   0 2566.79   38.28
   2   2   0 2596.81   38.92
   2   2   0 2800.38   40.47
   2   2   0 2695.01   40.41
   2   2   0 2613.78   38.59
   2   2   0 2703.41   39.40
   2   2   1  235.55    6.35
   2   2   1  220.29    5.41
   2   2   1  239.78    5.57
   2   2   1  225.66    5.94
   2   2   1  238.21    6.50
   2   2   1  235.89    6.39
   2   2   1  237.95    5.71
   2   2   2  117.08    4.31
   2   2   2  120.67    3.96
   2   2   2  115.28    3.49
   2   2   2  111.69    4.04
   2   2   2  113.16    3.62
   2   2   2  119.33    4.20
   2   2   2  121.25    4.45
   2   2   2  124.33    4.44
   2   2   2  116.16    3.92
   2   2   2  114.19    3.83
   2   2   3  307.04    8.04
   2   2   3  301.61    6.91
   2   2   3  315.00    7.73
   2   2   3  316.59    6.52
   2   2   3  309.31    6.76
   2   2   3  305.49    7.62
   2   2   3  311.75    8.12
   2   2   3  303.50    6.68
   2   2   3  297.71    7.24
   2   2   4   96.78    4.36
   2   2   4   97.03    3.57
   2   2   4   98.98    4.28
   2   2   4  102.96    2.98
   2   2   4   90.16    4.23
   2   2   4   99.32    3.50
   2   2   4   95.64    3.27
   2   2   4   92.31    3.64
   2   2   4   95.14    4.23
   2   2   4   92.02    3.09
   2   2   4   97.58    4.41
   2   2   4   99.52    4.40
   2   2   4   97.92    4.00
   2   2   4   96.80    3.54
   2   2   5  512.23   12.84
   2   2   5  525.24   11.01
   2   2   5  535.62   12.52
   2   2   5  521.91   11.98
   2   2   5  508.55   12.51
   2   2   5  520.40   10.76
   2   2   5  507.87    9.61
   2   2   5  516.84   11.30
   2   2   5  546.00   13.01
   2   2   5  540.30   12.94
   2   2   5  511.65   12.46
   2   2   5  487.70    9.99
   2   2   5  534.53   11.90
   2   2   5  516.02   11.01
   2   2   6   79.25    3.73
   2   2   6   77.30    4.31
   2   2   6   78.23    3.81
   2   2   6   85.00    4.75
   2   2   6   77.00    3.61
   2   2   6   83.78    3.96
   2   2   6   83.16    4.89
   2   2   6   81.11    4.75
   2   2   6   78.69    4.09
   2   2   7  158.53    7.17
   2   2   7  162.78    7.20
   2   2   7  159.55    5.79
   2   2   7  149.93    6.60
   2   2   7  156.36    7.20
   2   2   7  156.75    6.01
   2   2   7  166.12    7.25
   2   2   7  165.97    7.71
   2   2   7  170.58    7.51
   2   2   7  152.06    6.08
   2   2   7  155.73    6.03
   2   2   8  110.13    6.14
   2   2   8  117.90    6.19
   2   2   8  100.11    4.96
   2   2   8  106.92    6.00
   2   2   8  111.77    6.29
   2   2   8  105.62    6.08
   2   2   8  105.48    5.11
   2   2   9   62.11    4.47
   2   2   9   60.92    4.29
   2   2   9   59.61    4.32
   2   2   9   60.54    4.52
   2   2   9   56.86    3.67
   2   2   9   69.61    4.84
   2   2   9   63.46    4.56
   2   2  10   10.73    1.76
   2   2  10   11.44    1.80
   2   2  10    6.82    1.49
   2   2  10    8.84    1.96
   2   2  11  127.34    5.00
   2   2  11  132.14    6.05
   2   2  12   36.82    2.14
   2   3 -10   13.57    1.53
   2   3  -9  213.64    7.35
   2   3  -9  221.18    7.87
   2   3  -8  104.34    5.38
   2   3  -8  108.73    5.06
   2   3  -8  114.99    5.98
   2   3  -8  121.37    6.26
   2   3  -8  113.94    5.30
   2   3  -8  109.57    5.57
   2   3  -7  152.19    6.92
   2   3  -7  148.63    7.05
   2   3  -7  136.46    6.19
   2   3  -7  158.54    7.83
   2   3  -7  155.60    7.46
   2   3  -7  154.98    6.60
   2   3  -7  132.04    6.63
   2   3  -7  149.75    6.74
   2   3  -7  144.88    6.75
   2   3  -6  260.88    9.45
   2   3  -6  255.65    9.47
   2   3  -6  263.02    8.77
   2   3  -6  261.81   10.22
   2   3  -6  258.30    9.20
   2   3  -6  274.62   10.01
   2   3  -6  280.17    9.03
   2   3  -6  274.90   10.01
   2   3  -6  253.85    9.42
   2   3  -6  260.66    9.30
   2   3  -6  265.25    9.26
   2   3  -5  528.36   14.08
   2   3  -5  551.75   14.04
   2   3  -5  520.10   12.97
   2   3  -5  531.95   14.82
   2   3  -5  544.72   13.81
   2   3  -5  548.17   11.70
   2   3  -5  544.40   14.45
   2   3  -5  530.09   14.37
   2   3  -5  532.12   14.24
   2   3  -5  560.22   14.26
   2   3  -5  532.34   13.52
   2   3  -4  572.01   13.92
   2   3  -4  551.35   13.31
   2   3  -4  526.73   12.51
   2   3  -4  558.91   14.36
   2   3  -4  558.14   11.99
   2   3  -4  553.14   13.80
   2   3  -4  553.58   12.68
   2   3  -4  539.75   11.48
   2   3  -4  573.73   14.10
   2   3  -4  550.31   13.80
   2   3  -4  541.09   12.87
   2   3  -4  550.11   13.05
   2   3  -3  223.60    7.47
   2   3  -3  200.44    6.66
   2   3  -3  189.14    7.28
   2   3  -3  194.97    6.08
   2   3  -3  204.84    7.07
   2   3  -3  202.46    6.29
   2   3  -3  207.98    6.04
   2   3  -3  204.21    7.31
   2   3  -3  201.41    5.84
   2   3  -3  203.49    7.24
   2   3  -3  205.77    6.47
   2   3  -3  212.76    6.76
   2   3  -2   31.12    2.55
   2   3  -2   36.74    2.30
   2   3  -2   31.27    2.14
   2   3  -2   31.88    2.67
   2   3  -2   33.48    2.17
   2   3  -2   34.02    2.66
   2   3  -2   32.13    2.64
   2   3  -2   33.52    2.16
   2   3  -2   32.54    2.34
   2   3  -1 1274.71   21.29
   2   3  -1 1223.49   20.43
   2   3  -1 1248.20   21.14
   2   3  -1 1223.17   20.60
   2   3  -1 1248.90   21.64
   2   3   0 9999.00  137.74
   2   3   0 9472.94  134.15
   2   3   0 9556.53  135.72
   2   3   0 9630.10  137.82
   2   3   0 9650.93  135.33
   2   3   1  138.92    5.28
   2   3   1  132.02    4.33
   2   3   1  137.82    4.42
   2   3   1  134.93    3.30
   2   3   1  138.45    4.66
   2   3   1  135.76    4.65
   2   3   1  142.92    5.43
   2   3   1  138.83    5.31
   2   3   1  137.64    4.54
   2   3   1  129.06    4.45
   2   3   2  468.15   11.27
   2   3   2  447.94    8.09
   2   3   2  468.82   10.28
   2   3   2  477.48    9.75
   2   3   2  468.36   10.48
   2   3   2  493.09    9.98
   2   3   2  481.73   10.70
   2   3   2  474.34   11.49
   2   3   2  472.57   11.38
   2   3   2  484.49   10.43
   2   3   2  473.60   10.04
   2   3   3   36.08    2.79
   2   3   3   36.22    1.99
   2   3   3   36.71    2.54
   2   3   3   38.25    2.09
   2   3   3   38.43    2.69
   2   3   3   38.87    2.23
   2   3   3   36.59    2.01
   2   3   3   37.71    2.70
   2   3   3   32.92    2.70
   2   3   3   42.26    2.65
   2   3   3   38.68    2.33
   2   3   4  569.23   13.96
   2   3   4  572.96   11.16
   2   3   4  594.27   13.40
   2   3   4  596.90   10.84
   2   3   4  570.42   13.38
   2   3   4  580.54   11.36
   2   3   4  585.05   11.47
   2   3   4  595.53   13.62
   2   3   4  600.21   14.13
   2   3   4  573.64   12.00
   2   3   4  562.23   12.75
   2   3   4  551.90   10.61
   2   3   4  551.80   11.87
   2   3   5  255.91    8.95
   2   3   5  273.63    8.76
   2   3   5  258.65    6.63
   2   3   5  257.27    7.66
   2   3   5  258.39    8.61
   2   3   5  254.74    6.23
   2   3   5  252.39    6.82
   2   3   5  267.89    8.94
   2   3   5  275.67    9.20
   2   3   5  254.54    8.04
   2   3   5  268.49    9.63
   2   3   5  246.11    8.61
   2   3   5  258.52    7.25
   2   3   5  255.73    6.51
   2   3   6   53.18    3.51
   2   3   6   54.72    3.60
   2   3   6   49.79    4.37
   2   3   6   51.95    3.04
   2   3   6   52.34    2.86
   2   3   7   63.05    4.65
   2   3   7   60.79    4.45
   2   3   7   60.83    4.58
   2   3   7   58.59    3.84
   2   3   7   54.48    4.82
   2   3   8   91.93    5.75
   2   3   8   94.59    5.23
   2   3   8   85.37    5.42
   2   3   8   95.64    5.86
   2   3   8   97.57    6.57
   2   3   8   92.81    5.71
   2   3   9  402.34   12.53
   2   3   9  418.01   11.71
   2   3   9  399.69   12.24
   2   3   9  413.97   12.61
   2   3   9  411.60   12.79
   2   3   9  410.05   13.97
   2   3   9  408.22   12.41
   2   3  10   64.47    4.09
   2   3  10   66.16    3.80
   2   3  10   63.34    4.68
   2   3  11    3.80    0.77
   2   3  11    3.31    0.92
   2   3  11    2.05    0.86
   2   4  -9  247.10    7.63
   2   4  -9  218.91    6.46
   2   4  -8    3.20    1.07
   2   4  -8    5.68    1.50
   2   4  -7   48.87    3.66
   2   4  -7   56.31    3.82
   2   4  -7   55.53    4.25
   2   4  -7   54.76    4.31
   2   4  -7   50.22    3.83
   2   4  -6   11.52    1.97
   2   4  -6   10.32    1.86
   2   4  -6    8.27    1.64
   2   4  -6    9.85    2.10
   2   4  -6   10.02    2.02
   2   4  -6    9.08    1.98
   2   4  -6    8.24    1.55
   2   4  -6    7.93    1.58
   2   4  -6    7.71    1.62
   2   4  -6   12.90    2.06
   2   4  -5 1516.00   28.50
   2   4  -5 1433.09   27.90
   2   4  -5 1403.78   27.19
   2   4  -5 1464.07   30.03
   2   4  -5 1428.20   25.54
   2   4  -5 1436.40   29.51
   2   4  -5 1467.85   29.27
   2   4  -5 1521.36   27.42
   2   4  -5 1448.50   28.17
   2   4  -5 1418.44   28.50
   2   4  -5 1398.68   27.69
   2   4  -4  722.25   17.32
   2   4  -4  749.86   16.68
   2   4  -4  732.40   18.35
   2   4  -4  751.26   15.63
   2   4  -4  727.75   18.10
   2   4  -4  751.47   17.88
   2   4  -4  745.35   16.03
   2   4  -4  729.72   16.35
   2   4  -4  737.09   17.35
   2   4  -4  716.57   17.40
   2   4  -4  732.22   16.65
   2   4  -4  757.94   16.96
   2   4  -4  697.21   15.67
   2   4  -3  205.83    7.81
   2   4  -3  212.77    7.13
   2   4  -3  196.86    6.36
   2   4  -3  208.67    8.23
   2   4  -3  200.29    6.73
   2   4  -3  201.00    7.74
   2   4  -3  196.75    6.57
   2   4  -3  200.32    6.64
   2   4  -3  197.85    6.93
   2   4  -3  200.81    6.43
   2   4  -3  195.45    7.59
   2   4  -3  200.12    7.79
   2   4  -3  203.66    7.12
   2   4  -3  214.65    7.44
   2   4  -3  204.57    6.99
   2   4  -2  902.39   19.51
   2   4  -2  959.02   18.08
   2   4  -2  949.32   20.24
   2   4  -2  953.76   18.18
   2   4  -2  929.33   19.86
   2   4  -2  913.41   17.32
   2   4  -2  942.22   18.05
   2   4  -2  889.08   17.94
   2   4  -2  962.77   17.93
   2   4  -2  923.30   19.73
   2   4  -2  956.56   19.97
   2   4  -2  917.21   18.17
   2   4  -2  916.96   18.29
   2   4  -1  291.78    9.19
   2   4  -1  299.80    9.47
   2   4  -1  303.97    8.22
   2   4  -1  294.03    9.33
   2   4  -1  300.38    9.61
   2   4  -1  297.86    7.24
   2   4  -1  287.20    7.66
   2   4  -1  310.17    8.26
   2   4  -1  288.08    8.00
   2   4  -1  289.56    7.33
   2   4  -1  297.79    8.21
   2   4  -1  309.65    9.54
   2   4  -1  314.74    9.54
   2   4  -1  286.87    7.97
   2   4  -1  309.34    8.37
   2   4   0 1105.05   21.91
   2   4   0 1121.82   22.19
   2   4   0 1145.14   22.43
   2   4   0 1100.86   20.54
   2   4   0 1078.00   18.08
   2   4   0 1089.04   19.72
   2   4   0 1168.91   20.40
   2   4   0 1062.88   19.41
   2   4   0 1135.94   22.29
   2   4   0 1136.73   20.60
   2   4   0 1128.72   20.40
   2   4   1  100.94    4.98
   2   4   1  102.88    4.23
   2   4   1  101.24    5.10
   2   4   1  103.45    4.55
   2   4   1  102.49    4.31
   2   4   1   96.30    4.12
   2   4   1  101.69    4.20
   2   4   1  103.04    5.16
   2   4   1   97.35    4.16
   2   4   2  914.49   19.76
   2   4   2  915.26   18.66
   2   4   2  894.46   15.46
   2   4   2  937.97   19.41
   2   4   2  974.70   17.52
   2   4   2  893.09   19.62
   2   4   2  923.92   19.64
   2   4   2  904.24   18.31
   2   4   2  952.13   17.73
   2   4   2  920.71   18.05
   2   4   2  971.03   18.24
   2   4   2  997.53   20.30
   2   4   2 1007.75   20.16
   2   4   2  917.84   17.38
   2   4   3  400.56   11.41
   2   4   3  361.79   10.50
   2   4   3  360.60    7.75
   2   4   3  364.77   10.71
   2   4   3  388.21    8.95
   2   4   3  356.37   10.81
   2   4   3  375.94   10.28
   2   4   3  371.39    9.19
   2   4   3  379.80   10.16
   2   4   3  367.96    9.64
   2   4   3  369.88   11.26
   2   4   3  389.22   10.20
   2   4   3  359.41    8.95
   2   4   4   56.25    4.10
   2   4   4   49.77    3.72
   2   4   4   45.29    3.39
   2   4   4   50.20    2.61
   2   4   4   46.94    3.43
   2   4   4   51.30    2.86
   2   4   4   48.92    3.06
   2   4   4   54.69    3.70
   2   4   4   55.34    4.14
   2   4   4   47.66    3.92
   2   4   4   46.57    2.78
   2   4   5  268.87    9.37
   2   4   5  274.04    9.34
   2   4   5  267.01    7.71
   2   4   5  284.97    9.61
   2   4   5  285.87   10.18
   2   4   5  276.06   10.38
   2   4   5  249.88    7.20
   2   4   6   40.73    3.62
   2   4   6   39.85    3.53
   2   4   6   38.66    3.56
   2   4   6   31.14    3.59
   2   4   7   39.66    3.03
   2   4   7   32.46    3.28
   2   4   7   36.79    3.61
   2   4   7   36.48    3.97
   2   4   8  112.51    6.30
   2   4   8   91.79    4.67
   2   4   8   97.49    5.69
   2   4   8   94.43    5.77
   2   4   8  103.01    6.65
   2   4   9    5.51    1.45
   2   4   9    6.28    1.20
   2   4   9    6.25    1.46
   2   4   9    6.10    1.69
   2   4  10   79.00    4.14
   2   4  10   71.68    3.89
   2   4  10   75.16    4.53
   2   5  -9  169.27    5.08
   2   5  -8   25.44    2.18
   2   5  -7   55.29    3.88
   2   5  -6   35.62    3.12
   2   5  -6   44.46    3.38
   2   5  -6   41.04    3.73
   2   5  -6   48.32    3.51
   2   5  -5  115.67    6.04
   2   5  -5  120.06    5.83
   2   5  -5  132.29    7.25
   2   5  -5  131.08    5.44
   2   5  -5  135.55    6.42
   2   5  -5  131.95    7.04
   2   5  -5  134.07    5.94
   2   5  -5  131.90    6.22
   2   5  -5  118.21    6.18
   2   5  -5  119.31    6.04
   2   5  -4   74.59    4.86
   2   5  -4   70.87    4.27
   2   5  -4   72.16    5.27
   2   5  -4   70.20    4.12
   2   5  -4   75.08    4.91
   2   5  -4   71.43    5.12
   2   5  -4   78.97    4.34
   2   5  -4   73.35    4.74
   2   5  -4   63.50    4.57
   2   5  -4   70.64    4.53
   2   5  -4   73.36    4.65
   2   5  -4   79.95    4.54
   2   5  -3  193.74    8.09
   2   5  -3  188.81    6.90
   2   5  -3  202.14    6.92
   2   5  -3  199.25    8.79
   2   5  -3  202.17    7.32
   2   5  -3  195.85    8.20
   2   5  -3  207.17    8.81
   2   5  -3  195.16    6.84
   2   5  -3  199.50    6.84
   2   5  -3  193.90    7.41
   2   5  -3  189.46    7.94
   2   5  -3  201.01    8.33
   2   5  -3  185.84    7.41
   2   5  -3  191.63    7.41
   2   5  -2  112.35    5.92
   2   5  -2   96.69    4.43
   2   5  -2   97.38    5.46
   2   5  -2   90.65    4.61
   2   5  -2   97.58    5.86
   2   5  -2  105.27    5.03
   2   5  -2   92.93    4.89
   2   5  -2   90.49    5.47
   2   5  -2  108.05    4.47
   2   5  -2  104.22    4.94
   2   5  -2   95.02    4.78
   2   5  -2   87.89    4.74
   2   5  -2   97.08    5.56
   2   5  -2   97.90    5.65
   2   5  -2  100.60    5.12
   2   5  -2   96.93    5.01
   2   5  -1 1639.14   30.99
   2   5  -1 1554.61   26.90
   2   5  -1 1616.88   30.22
   2   5  -1 1587.33   28.61
   2   5  -1 1612.97   31.33
   2   5  -1 1600.26   28.76
   2   5  -1 1578.52   30.97
   2   5  -1 1552.89   28.04
   2   5  -1 1583.87   26.27
   2   5  -1 1587.82   28.68
   2   5  -1 1632.83   28.89
   2   5  -1 1630.53   30.94
   2   5  -1 1698.38   31.20
   2   5  -1 1665.92   28.83
   2   5  -1 1602.62   29.08
   2   5   0   80.29    4.99
   2   5   0   72.52    4.55
   2   5   0   78.13    4.29
   2   5   0   73.35    4.83
   2   5   0   77.74    4.98
   2   5   0   76.59    5.01
   2   5   0   75.74    4.03
   2   5   0   76.82    4.20
   2   5   0   76.01    4.25
   2   5   0   74.98    4.86
   2   5   0   69.96    4.75
   2   5   0   76.73    4.08
   2   5   1  422.03   11.26
   2   5   1  455.14   13.03
   2   5   1  403.12   10.80
   2   5   1  429.57    9.96
   2   5   1  432.83   12.83
   2   5   1  454.19   11.20
   2   5   1  436.63   13.04
   2   5   1  435.27   13.01
   2   5   1  439.63   11.19
   2   5   1  438.32   11.21
   2   5   1  429.84   11.46
   2   5   1  452.42   13.21
   2   5   1  436.59   10.94
   2   5   2  268.82    8.42
   2   5   2  254.88    8.50
   2   5   2  276.39    8.59
   2   5   2  255.56    9.51
   2   5   2  278.83    8.23
   2   5   2  271.36    9.93
   2   5   2  269.32    8.49
   2   5   2  262.43    8.14
   2   5   2  274.35    8.74
   2   5   2  268.15    8.00
   2   5   2  265.48    7.81
   2   5   3  310.35    9.23
   2   5   3  331.33   11.39
   2   5   3  311.75   10.04
   2   5   3  333.57    9.58
   2   5   3  321.63   10.94
   2   5   3  321.50    8.82
   2   5   3  326.30    9.85
   2   5   3  332.17    9.22
   2   5   3  332.97    9.74
   2   5   3  324.31    9.54
   2   5   3  337.95   11.54
   2   5   3  334.63    8.76
   2   5   4  285.22    8.64
   2   5   4  301.49    8.84
   2   5   4  280.43    7.62
   2   5   4  275.58    9.30
   2   5   4  264.11    8.61
   2   5   4  286.55    8.19
   2   5   4  279.42    9.25
   2   5   4  302.72   11.08
   2   5   5    7.93    1.39
   2   5   5    7.44    1.31
   2   5   5   13.08    2.01
   2   5   5    7.84    1.62
   2   5   5    6.19    1.71
   2   5   5    8.35    1.41
   2   5   6   19.44    2.65
   2   5   6   21.41    2.61
   2   5   6   17.27    2.40
   2   5   6   16.83    2.30
   2   5   7  194.20    8.48
   2   5   7  196.98    8.03
   2   5   7  195.96    8.24
   2   5   7  190.94    7.94
   2   5   8  565.57   15.05
   2   5   8  547.42   14.22
   2   5   8  550.79   14.64
   2   5   8  562.74   14.30
   2   5   9    3.08    0.94
   2   5  10   15.79    1.65
   2   5  10    9.12    1.05
   2   6  -8   66.67    3.07
   2   6  -7   37.26    2.58
   2   6  -7   35.63    2.22
   2   6  -6  208.02    7.34
   2   6  -6  212.88    7.81
   2   6  -5   60.59    4.19
   2   6  -5   55.19    4.50
   2   6  -5   51.33    3.53
   2   6  -5   65.99    4.64
   2   6  -4  101.59    5.53
   2   6  -4  104.34    5.83
   2   6  -4  115.54    6.75
   2   6  -4   98.38    4.98
   2   6  -4  102.96    5.53
   2   6  -4  104.22    6.24
   2   6  -4  103.66    4.86
   2   6  -4  105.20    5.47
   2   6  -3  435.73   13.12
   2   6  -3  457.90   13.57
   2   6  -3  439.64   11.51
   2   6  -3  474.18   14.78
   2   6  -3  451.65   12.27
   2   6  -3  481.43   13.57
   2   6  -3  440.02   14.06
   2   6  -3  439.06   12.39
   2   6  -3  430.11   12.85
   2   6  -3  435.73   13.30
   2   6  -2  930.89   21.57
   2   6  -2  979.82   21.82
   2   6  -2  957.62   19.77
   2   6  -2  899.58   19.77
   2   6  -2  987.14   23.11
   2   6  -2  992.36   20.23
   2   6  -2  957.75   21.71
   2   6  -2  933.97   22.61
   2   6  -2  909.30   19.66
   2   6  -2  927.30   21.38
   2   6  -2  891.90   21.54
   2   6  -2  880.95   19.99
   2   6  -2  959.14   20.58
   2   6  -1  399.78   12.85
   2   6  -1  411.78   12.73
   2   6  -1  400.53   11.43
   2   6  -1  406.99   11.18
   2   6  -1  402.20   13.49
   2   6  -1  417.71   11.67
   2   6  -1  367.88   12.39
   2   6  -1  418.20   11.76
   2   6  -1  397.79   12.78
   2   6  -1  378.95   12.73
   2   6  -1  393.27   11.29
   2   6  -1  414.63   11.06
   2   6  -1  408.44   11.73
   2   6   0  127.87    6.89
   2   6   0  129.85    5.53
   2   6   0  130.73    6.11
   2   6   0  129.61    7.14
   2   6   0  137.95    6.11
   2   6   0  135.04    6.25
   2   6   0  126.65    6.89
   2   6   0  133.34    7.17
   2   6   0  136.78    5.90
   2   6   1  173.77    8.14
   2   6   1  167.49    8.11
   2   6   1  166.55    6.70
   2   6   1  169.10    8.26
   2   6   1  159.22    6.15
   2   6   1  154.84    6.81
   2   6   1  165.24    6.79
   2   6   1  164.74    8.02
   2   6   1  163.57    6.32
   2   6   1  171.02    6.99
   2   6   2  409.05   13.45
   2   6   2  420.08   11.88
   2   6   2  417.09   13.54
   2   6   2  424.18   11.38
   2   6   2  431.03   13.90
   2   6   2  406.83   11.00
   2   6   2  418.03   11.99
   2   6   2  429.74   13.80
   2   6   2  400.09   10.42
   2   6   2  420.08   11.64
   2   6   3  461.64   12.41
   2   6   3  460.25   11.56
   2   6   3  451.58   12.03
   2   6   3  460.18   12.65
   2   6   3  453.05   12.05
   2   6   4   67.18    4.43
   2   6   4   64.77    4.01
   2   6   4   63.47    4.09
   2   6   4   67.03    4.21
   2   6   4   63.88    3.91
   2   6   4   66.82    3.99
   2   6   5   17.28    2.35
   2   6   5   17.73    1.96
   2   6   5   22.03    2.45
   2   6   5   16.44    2.09
   2   6   5   17.14    1.92
   2   6   6  242.69    9.19
   2   6   6  263.47    8.79
   2   6   6  246.62    8.55
   2   6   7  185.09    7.52
   2   6   7  178.54    6.76
   2   6   8   45.49    3.29
   2   6   9   20.86    1.87
   2   7  -6   41.87    2.48
   2   7  -6   76.63    3.35
   2   7  -5  221.06    7.12
   2   7  -5  232.61    7.73
   2   7  -4  227.77    8.07
   2   7  -4  236.87    9.12
   2   7  -4  236.92    8.70
   2   7  -3    7.05    1.59
   2   7  -3    8.28    1.92
   2   7  -3    7.41    1.33
   2   7  -3    8.67    1.85
   2   7  -2  108.59    5.85
   2   7  -2  114.36    5.36
   2   7  -2  122.63    6.34
   2   7  -2  116.84    6.83
   2   7  -2  117.69    5.63
   2   7  -2  116.93    6.63
   2   7  -2  104.73    5.62
   2   7  -2  115.11    5.74
   2   7  -1   14.72    2.32
   2   7  -1   14.39    2.04
   2   7  -1   16.41    2.66
   2   7  -1   13.79    2.47
   2   7  -1   11.65    2.05
   2   7  -1   16.04    2.00
   2   7   0  465.79   14.13
   2   7   0  493.47   13.11
   2   7   0  466.95   14.81
   2   7   0  471.48   12.74
   2   7   0  459.29   14.01
   2   7   0  497.46   12.80
   2   7   0  474.47   12.92
   2   7   1   16.94    2.59
   2   7   1   17.34    2.70
   2   7   1   18.83    2.25
   2   7   1   14.66    2.43
   2   7   1   15.95    2.12
   2   7   1   17.39    2.22
   2   7   2  133.48    7.16
   2   7   2  128.26    6.08
   2   7   2  122.37    6.93
   2   7   2  118.15    5.63
   2   7   3  186.96    7.29
   2   7   3  195.07    8.88
   2   7   3  200.79    7.11
   2   7   4   15.16    1.90
   2   7   4   13.15    1.67
   2   7   5   22.30    2.22
   2   7   5   24.56    2.08
   2   7   6   85.89    4.18
   2   7   7  106.55    4.31
   2   7   8    9.69    0.95
   2   8  -5   38.57    2.32
   2   8  -5   32.95    1.95
   2   8  -4  264.20    7.20
   2   8  -3  234.09    6.10
   2   8  -3  229.36    8.07
   2   8  -3  231.06    7.63
   2   8  -3  233.59    5.90
   2   8  -2   33.28    2.42
   2   8  -2   28.44    2.91
   2   8  -2   30.87    2.89
   2   8  -1   47.36    3.14
   2   8  -1   48.40    3.90
   2   8  -1   44.74    2.79
   2   8   0   23.40    2.30
   2   8   0   22.38    2.75
   2   8   0   18.76    2.24
   2   8   0   21.85    2.15
   2   8   0   23.43    2.29
   2   8   1   25.61    2.71
   2   8   1   26.14    2.42
   2   8   1   24.16    2.26
   2   8   2  124.69    5.37
   2   8   2  119.54    5.98
   2   8   2  131.60    5.59
   2   8   2  119.64    4.92
   2   8   3   61.37    3.53
   2   8   3   69.00    3.96
   2   8   3   60.58    3.11
   2   8   4   24.29    1.97
   2   8   4   27.05    2.37
   2   8   5    0.05    0.20
   2   8   6  114.38    4.07
   2   9  -1   23.66    1.59
   2   9  -1   21.02    1.48
   2   9   0   29.42    1.92
   2   9   0   29.92    1.92
   2   9   0   24.09    1.53
   2   9   1   58.32    2.77
   2   9   1   61.51    2.72
   2   9   2   49.25    2.46
   2   9   2   46.19    2.39
   2   9   2   49.37    2.49
   2   9   3   72.80    2.69
   2   9   3   73.84    3.01
   2   9   4   10.70    1.06
   3  -8   0  344.08    7.42
   3  -8   1    4.63    0.86
   3  -8   2   79.62    3.39
   3  -8   3   32.35    2.09
   3  -8   4   30.96    1.90
   3  -8   4   26.47    1.77
   3  -7  -2   28.10    2.59
   3  -7  -1   67.78    4.15
   3  -7   0  109.32    5.40
   3  -7   1   56.49    3.39
   3  -7   1   60.33    4.00
   3  -7   2   85.33    4.81
   3  -7   2   78.75    4.18
   3  -7   2   83.36    4.73
   3  -7   3   24.04    2.05
   3  -7   3   30.90    2.59
   3  -7   3   25.95    2.60
   3  -7   4  279.70    7.76
   3  -7   4  292.87    8.50
   3  -7   5   23.49    1.97
   3  -7   5   22.43    1.92
   3  -7   6  155.20    4.84
   3  -7   6  145.03    4.55
   3  -7   6  148.27    5.33
   3  -6  -3   16.73    1.96
   3  -6  -2   12.20    1.98
   3  -6  -1   33.29    3.01
   3  -6  -1   32.89    3.23
   3  -6   0  530.68   12.94
   3  -6   0  542.72   14.09
   3  -6   0  567.11   15.05
   3  -6   0  548.29   14.41
   3  -6   1  293.58    8.71
   3  -6   1  287.61    9.11
   3  -6   1  297.64   10.38
   3  -6   1  304.31   10.04
   3  -6   2  126.84    5.57
   3  -6   2  113.85    5.55
   3  -6   2  121.68    6.40
   3  -6   2  124.34    6.16
   3  -6   3   50.06    3.52
   3  -6   3   43.83    3.21
   3  -6   3   42.56    3.77
   3  -6   3   49.10    3.81
   3  -6   3   45.41    3.55
   3  -6   4  227.47    7.93
   3  -6   4  219.05    6.88
   3  -6   4  213.48    8.29
   3  -6   4  229.34    7.82
   3  -6   4  230.45    8.64
   3  -6   5  488.02   12.31
   3  -6   5  465.88   11.12
   3  -6   5  476.58   12.79
   3  -6   5  501.67   12.34
   3  -6   5  451.57   12.77
   3  -6   6  120.59    5.24
   3  -6   6  122.42    4.77
   3  -6   6  126.39    5.29
   3  -6   6  126.28    5.32
   3  -6   6  126.13    5.78
   3  -6   7  247.82    6.70
   3  -6   7  271.19    7.49
   3  -6   7  224.98    6.13
   3  -6   7  267.88    7.38
   3  -6   7  244.91    6.86
   3  -6   7  264.20    8.36
   3  -6   8   68.74    2.93
   3  -6   8   63.87    3.26
   3  -6   8   72.13    3.26
   3  -5  -4  117.80    6.05
   3  -5  -3  146.16    6.71
   3  -5  -2   37.59    2.99
   3  -5  -1  557.87   12.92
   3  -5   0  678.37   14.95
   3  -5   0  725.72   15.58
   3  -5   0  721.27   17.14
   3  -5   1  292.67    8.75
   3  -5   1  272.37    8.16
   3  -5   1  288.39    8.97
   3  -5   1  295.10    9.95
   3  -5   1  285.15    9.35
   3  -5   2  356.08   10.14
   3  -5   2  328.91    9.67
   3  -5   2  340.72   10.17
   3  -5   2  350.88   11.17
   3  -5   2  351.91   10.63
   3  -5   3   41.65    3.23
   3  -5   3   37.92    3.37
   3  -5   3   34.61    2.95
   3  -5   3   38.94    3.21
   3  -5   3   36.11    2.64
   3  -5   3   38.83    3.51
   3  -5   3   34.80    3.19
   3  -5   3   39.82    3.30
   3  -5   4  328.35   10.05
   3  -5   4  317.26    9.93
   3  -5   4  310.30   10.86
   3  -5   4  303.94   10.27
   3  -5   4  323.14   10.11
   3  -5   5    2.91    1.03
   3  -5   5    1.94    0.89
   3  -5   5    2.29    1.02
   3  -5   5    1.05    0.75
   3  -5   5    1.29    0.77
   3  -5   5    1.68    1.00
   3  -5   5    1.01    0.85
   3  -5   5    2.95    1.08
   3  -5   6   45.22    3.28
   3  -5   6   37.77    3.32
   3  -5   6   46.02    3.39
   3  -5   6   39.18    3.49
   3  -5   7   71.32    4.09
   3  -5   7   77.61    4.99
   3  -5   7   74.82    4.08
   3  -5   7   69.14    4.20
   3  -5   7   78.92    4.27
   3  -5   7   70.51    3.83
   3  -5   7   72.30    4.53
   3  -5   8   57.79    3.23
   3  -5   8   58.97    3.24
   3  -5   8   50.00    3.00
   3  -5   8   55.02    3.82
   3  -5   9   19.41    1.50
   3  -5   9   23.08    1.87
   3  -4  -7   13.83    1.92
   3  -4  -6   33.36    3.32
   3  -4  -5  482.71   13.70
   3  -4  -4   56.53    4.07
   3  -4  -3   20.60    2.36
   3  -4  -2  497.66   11.45
   3  -4  -1  846.28   17.00
   3  -4   0  876.22   16.89
   3  -4   0  927.31   18.06
   3  -4   0  928.03   18.92
   3  -4   1   80.63    3.95
   3  -4   1   85.19    4.31
   3  -4   1   82.72    4.54
   3  -4   1   86.21    4.33
   3  -4   2  149.64    5.81
   3  -4   2  145.88    5.95
   3  -4   2  141.78    5.36
   3  -4   2  151.78    6.44
   3  -4   2  148.44    5.96
   3  -4   2  149.61    5.18
   3  -4   3   49.86    3.67
   3  -4   3   52.32    3.48
   3  -4   3   54.67    3.59
   3  -4   3   49.92    2.98
   3  -4   3   59.11    3.47
   3  -4   3   60.96    4.10
   3  -4   3   60.01    3.80
   3  -4   3   60.10    3.84
   3  -4   3   60.99    3.31
   3  -4   4  210.82    7.61
   3  -4   4  200.45    6.77
   3  -4   4  207.92    6.96
   3  -4   4  215.17    7.66
   3  -4   4  205.68    7.51
   3  -4   4  202.17    6.74
   3  -4   4  209.12    7.15
   3  -4   4  224.07    8.50
   3  -4   4  205.63    7.76
   3  -4   4  202.97    7.53
   3  -4   4  206.11    6.88
   3  -4   5   91.94    4.67
   3  -4   5   83.41    5.00
   3  -4   5   79.48    4.28
   3  -4   5   87.61    4.91
   3  -4   5   87.38    4.73
   3  -4   5   78.38    5.16
   3  -4   5   85.91    5.05
   3  -4   5   86.52    4.73
   3  -4   5   87.38    4.48
   3  -4   6   78.34    4.56
   3  -4   6   81.43    4.64
   3  -4   6   83.32    5.01
   3  -4   6   71.86    4.36
   3  -4   6   80.68    4.40
   3  -4   6   72.01    4.25
   3  -4   6   85.30    5.40
   3  -4   6   85.29    5.19
   3  -4   6   74.89    4.33
   3  -4   6   78.82    4.36
   3  -4   7  633.45   14.90
   3  -4   7  649.96   15.28
   3  -4   7  646.80   15.91
   3  -4   7  612.83   14.50
   3  -4   7  661.97   15.17
   3  -4   7  623.60   16.15
   3  -4   7  632.37   17.24
   3  -4   7  620.40   14.65
   3  -4   8    8.53    1.39
   3  -4   8   11.50    1.70
   3  -4   8   11.74    1.77
   3  -4   8    8.60    1.41
   3  -4   8    9.59    1.48
   3  -4   8    8.82    1.66
   3  -4   8    9.37    1.92
   3  -4   8    9.24    1.47
   3  -4   9   94.26    4.24
   3  -4   9   92.70    3.82
   3  -4   9  100.21    4.81
   3  -4   9  101.36    5.24
   3  -4  10    3.03    0.73
   3  -3  -9    8.99    1.19
   3  -3  -8   45.58    3.08
   3  -3  -7   54.20    4.33
   3  -3  -7   61.51    4.14
   3  -3  -6  459.81   14.29
   3  -3  -6  488.07   13.46
   3  -3  -5  238.18    9.52
   3  -3  -4   49.47    2.94
   3  -3  -4   55.38    3.67
   3  -3  -3  275.95    8.32
   3  -3  -2  223.80    7.53
   3  -3  -1  271.59    8.11
   3  -3   0   60.96    3.41
   3  -3   1  263.93    6.53
   3  -3   1  272.26    7.52
   3  -3   1  291.41    8.17
   3  -3   1  270.07    7.27
   3  -3   2  112.61    4.20
   3  -3   2  119.51    4.83
   3  -3   2  123.77    5.19
   3  -3   2  113.61    4.51
   3  -3   2  126.77    5.14
   3  -3   2  111.21    4.46
   3  -3   3  595.49   12.80
   3  -3   3  625.20   14.15
   3  -3   3  606.59   13.53
   3  -3   3  607.64   12.99
   3  -3   3  583.62   12.35
   3  -3   3  623.46   13.38
   3  -3   3  615.91   14.24
   3  -3   3  610.80   13.28
   3  -3   3  612.14   13.19
   3  -3   4   46.12    3.02
   3  -3   4   44.03    2.89
   3  -3   4   51.46    3.54
   3  -3   4   50.11    3.34
   3  -3   4   50.76    3.25
   3  -3   4   46.77    3.04
   3  -3   4   44.84    3.07
   3  -3   4   46.62    3.49
   3  -3   4   46.27    3.20
   3  -3   4   45.46    3.18
   3  -3   4   43.92    3.00
   3  -3   5  427.62   11.29
   3  -3   5  420.46   11.19
   3  -3   5  409.07   10.64
   3  -3   5  395.95   10.95
   3  -3   5  396.36   10.67
   3  -3   5  432.72   11.12
   3  -3   5  420.29   11.21
   3  -3   5  437.76   12.42
   3  -3   5  410.35   11.54
   3  -3   5  413.15   11.12
   3  -3   5  436.15   11.24
   3  -3   6 1122.67   21.62
   3  -3   6  996.50   20.69
   3  -3   6 1081.06   21.98
   3  -3   6 1078.35   22.60
   3  -3   6 1091.43   21.71
   3  -3   6 1056.12   21.84
   3  -3   6 1005.87   20.52
   3  -3   6 1138.50   21.77
   3  -3   6 1073.23   23.40
   3  -3   6 1110.93   22.59
   3  -3   6 1082.05   24.00
   3  -3   6 1027.21   21.05
   3  -3   6 1071.54   21.70
   3  -3   7  204.41    7.30
   3  -3   7  196.61    8.00
   3  -3   7  194.79    7.15
   3  -3   7  200.21    7.80
   3  -3   7  202.53    7.61
   3  -3   7  191.07    7.41
   3  -3   7  179.91    6.48
   3  -3   7  205.85    7.37
   3  -3   7  197.51    8.60
   3  -3   7  197.14    8.20
   3  -3   7  186.35    6.84
   3  -3   7  209.33    9.13
   3  -3   7  206.71    7.73
   3  -3   8  183.08    6.57
   3  -3   8  189.69    7.63
   3  -3   8  192.13    7.43
   3  -3   8  195.58    7.38
   3  -3   8  193.24    6.79
   3  -3   8  187.42    7.95
   3  -3   8  202.82    8.90
   3  -3   9   15.82    1.87
   3  -3   9   16.21    1.68
   3  -3   9   15.98    1.92
   3  -3   9   14.76    1.58
   3  -3   9   13.63    2.25
   3  -3   9   18.83    2.29
   3  -3   9   17.32    2.03
   3  -3  10   52.23    3.14
   3  -2  -9   20.90    2.01
   3  -2  -8    2.50    1.00
   3  -2  -7   64.58    4.27
   3  -2  -6  259.75   10.24
   3  -2  -6  261.10    9.13
   3  -2  -5   82.71    4.04
   3  -2  -5   86.38    5.48
   3  -2  -5   79.49    4.69
   3  -2  -4  314.19    8.60
   3  -2  -4  320.41   10.48
   3  -2  -3    5.30    0.85
   3  -2  -3    5.65    1.28
   3  -2  -3    4.88    0.98
   3  -2  -2  771.86   16.07
   3  -2  -2  786.83   14.01
   3  -2  -2  739.90   15.45
   3  -2  -1  213.76    6.40
   3  -2  -1  199.96    5.30
   3  -2  -1  220.26    6.34
   3  -2   0  325.87    7.37
   3  -2   0  324.24    7.22
   3  -2   0  339.86    7.86
   3  -2   0  311.64    6.60
   3  -2   1  433.76    9.15
   3  -2   1  444.94    9.64
   3  -2   1  422.64    9.76
   3  -2   2 1193.76   20.46
   3  -2   2 1178.27   21.01
   3  -2   2 1189.32   21.00
   3  -2   2 1165.98   20.95
   3  -2   3  716.68   14.24
   3  -2   3  715.96   14.80
   3  -2   3  697.46   14.41
   3  -2   3  709.16   14.05
   3  -2   3  697.97   14.74
   3  -2   3  682.24   13.48
   3  -2   3  723.13   14.46
   3  -2   4  282.70    8.00
   3  -2   4  271.07    8.27
   3  -2   4  254.15    7.47
   3  -2   4  266.47    7.82
   3  -2   4  262.23    7.59
   3  -2   4  268.42    7.80
   3  -2   4  271.16    8.43
   3  -2   4  254.03    7.44
   3  -2   4  268.01    7.87
   3  -2   4  269.38    7.86
   3  -2   5  304.95    8.56
   3  -2   5  316.20    8.97
   3  -2   5  294.59    8.83
   3  -2   5  294.61    9.26
   3  -2   5  322.00    9.00
   3  -2   5  302.84    8.27
   3  -2   5  301.82    8.82
   3  -2   5  290.20    8.75
   3  -2   5  284.99    9.35
   3  -2   5  286.95    8.72
   3  -2   5  294.96    9.71
   3  -2   5  283.25    8.60
   3  -2   5  289.98    8.78
   3  -2   6 1421.06   25.65
   3  -2   6 1495.39   26.94
   3  -2   6 1371.22   26.44
   3  -2   6 1441.85   26.75
   3  -2   6 1391.91   26.12
   3  -2   6 1305.66   24.54
   3  -2   6 1503.62   26.70
   3  -2   6 1453.67   26.64
   3  -2   6 1499.07   28.31
   3  -2   6 1400.27   26.78
   3  -2   6 1408.53   28.63
   3  -2   6 1389.42   25.74
   3  -2   6 1508.89   27.09
   3  -2   7 1001.21   19.74
   3  -2   7 1075.25   21.15
   3  -2   7 1010.64   22.00
   3  -2   7 1036.51   21.46
   3  -2   7 1007.59   21.20
   3  -2   7 1007.37   21.28
   3  -2   7  988.35   20.37
   3  -2   7 1047.10   21.47
   3  -2   7 1050.87   23.02
   3  -2   7  959.69   19.93
   3  -2   7  992.47   21.96
   3  -2   7 1009.73   23.45
   3  -2   7 1043.11   21.58
   3  -2   8  334.74    9.17
   3  -2   8  380.89   10.74
   3  -2   8  369.33   11.43
   3  -2   8  371.74   10.98
   3  -2   8  359.76   11.11
   3  -2   8  388.41   11.21
   3  -2   8  314.32    9.62
   3  -2   8  361.11    9.58
   3  -2   8  367.83   12.33
   3  -2   8  356.85   11.60
   3  -2   8  358.63   12.51
   3  -2   8  363.51   12.02
   3  -2   8  393.75   11.42
   3  -2   9   71.93    4.07
   3  -2   9   68.10    4.34
   3  -2   9   70.39    4.28
   3  -2   9   63.75    4.44
   3  -2   9   75.59    4.84
   3  -2   9   71.15    4.36
   3  -2  10   19.29    1.91
   3  -2  10   16.97    1.90
   3  -2  10   19.77    2.21
   3  -2  10   17.88    2.01
   3  -2  11   29.08    1.91
   3  -1 -10   13.08    1.38
   3  -1  -9   78.53    4.05
   3  -1  -9   76.95    4.00
   3  -1  -8   95.58    5.61
   3  -1  -8   92.41    4.63
   3  -1  -8   97.77    5.21
   3  -1  -7  294.21    9.92
   3  -1  -7  289.79   10.88
   3  -1  -7  280.49    9.36
   3  -1  -6  346.49    9.68
   3  -1  -6  352.57   12.12
   3  -1  -6  348.22   10.55
   3  -1  -5  414.50   10.79
   3  -1  -5  433.20   10.98
   3  -1  -5  433.91   11.51
   3  -1  -4  141.35    5.31
   3  -1  -4  156.32    5.72
   3  -1  -4  149.77    6.69
   3  -1  -4  151.50    5.70
   3  -1  -3  160.97    5.01
   3  -1  -3  153.21    4.54
   3  -1  -3  167.09    6.46
   3  -1  -2  657.48   12.40
   3  -1  -2  643.76   14.03
   3  -1  -2  654.20   11.55
   3  -1  -1  258.82    5.77
   3  -1  -1  275.16    6.75
   3  -1  -1  268.23    7.18
   3  -1  -1  257.52    5.58
   3  -1  -1  268.16    6.23
   3  -1  -1  275.39    6.75
   3  -1   0  192.67    5.07
   3  -1   0  180.79    4.86
   3  -1   0  185.67    4.81
   3  -1   0  181.39    5.04
   3  -1   0  174.64    4.50
   3  -1   0  177.13    5.05
   3  -1   0  176.49    4.72
   3  -1   1 1871.57   29.77
   3  -1   1 1917.78   29.51
   3  -1   1 1905.84   29.15
   3  -1   1 1858.65   28.09
   3  -1   1 1896.35   29.92
   3  -1   2 3923.57   57.94
   3  -1   2 3771.63   57.82
   3  -1   2 3919.89   57.32
   3  -1   2 3924.64   57.70
   3  -1   2 3881.85   57.61
   3  -1   2 4036.11   58.11
   3  -1   3 1463.12   24.52
   3  -1   3 1455.77   24.64
   3  -1   3 1412.78   24.01
   3  -1   3 1414.43   24.45
   3  -1   3 1422.09   24.46
   3  -1   3 1463.31   24.52
   3  -1   4 1558.54   26.93
   3  -1   4 1577.87   27.33
   3  -1   4 1539.75   26.40
   3  -1   4 1555.66   26.78
   3  -1   4 1588.08   27.40
   3  -1   4 1541.34   26.37
   3  -1   4 1582.62   26.85
   3  -1   4 1570.99   26.99
   3  -1   5  601.98   13.09
   3  -1   5  545.91   12.93
   3  -1   5  566.72   13.45
   3  -1   5  551.76   12.35
   3  -1   5  531.75   11.37
   3  -1   5  576.33   12.92
   3  -1   5  555.84   12.80
   3  -1   5  524.34   11.55
   3  -1   5  589.43   13.65
   3  -1   5  534.10   12.27
   3  -1   5  516.64   12.26
   3  -1   5  554.06   12.70
   3  -1   5  544.43   12.86
   3  -1   6  152.63    5.41
   3  -1   6  163.92    6.49
   3  -1   6  165.17    6.62
   3  -1   6  154.48    5.80
   3  -1   6  156.70    6.28
   3  -1   6  143.21    4.85
   3  -1   6  157.18    6.31
   3  -1   6  146.50    4.97
   3  -1   6  153.94    6.13
   3  -1   6  165.84    7.10
   3  -1   6  154.42    5.93
   3  -1   6  149.25    6.25
   3  -1   6  157.71    7.17
   3  -1   6  152.59    5.99
   3  -1   6  161.84    6.46
   3  -1   7  248.37    7.25
   3  -1   7  279.36    8.57
   3  -1   7  250.17    9.15
   3  -1   7  269.57    9.22
   3  -1   7  263.00    8.81
   3  -1   7  239.81    7.74
   3  -1   7  272.02   10.05
   3  -1   7  263.22    9.25
   3  -1   7  260.28   10.12
   3  -1   7  247.67    8.10
   3  -1   7  251.46    9.66
   3  -1   7  279.49    9.24
   3  -1   8   43.91    3.23
   3  -1   8   43.75    3.71
   3  -1   8   45.74    3.66
   3  -1   8   39.69    3.40
   3  -1   8   43.84    4.03
   3  -1   8   40.13    3.65
   3  -1   8   44.20    3.56
   3  -1   9  319.66    9.15
   3  -1   9  307.50   10.24
   3  -1   9  337.85   10.46
   3  -1   9  309.16   11.22
   3  -1   9  297.33   10.35
   3  -1   9  339.54   11.21
   3  -1  10   55.49    3.62
   3  -1  10   56.62    3.86
   3  -1  11   20.02    1.80
   3  -1  11   20.31    1.78
   3   0 -10   23.53    1.87
   3   0  -9  128.62    5.35
   3   0  -9  122.20    5.32
   3   0  -9  114.59    5.44
   3   0  -8  148.98    6.00
   3   0  -8  162.70    6.91
   3   0  -8  162.59    6.98
   3   0  -7  517.95   15.07
   3   0  -7  527.36   13.23
   3   0  -7  540.76   14.46
   3   0  -7  523.13   12.91
   3   0  -7  560.01   14.66
   3   0  -7  531.54   15.46
   3   0  -6   23.67    2.50
   3   0  -6   23.73    2.39
   3   0  -6   24.96    2.77
   3   0  -6   22.06    2.90
   3   0  -5  799.80   17.44
   3   0  -5  842.49   17.19
   3   0  -5  802.75   17.94
   3   0  -5  855.69   19.48
   3   0  -5  794.42   16.86
   3   0  -4   41.16    2.92
   3   0  -4   39.92    2.30
   3   0  -4   41.18    2.98
   3   0  -4   44.25    2.97
   3   0  -4   46.15    3.54
   3   0  -3  223.87    6.04
   3   0  -3  220.12    6.53
   3   0  -3  223.01    6.75
   3   0  -3  220.10    5.60
   3   0  -3  220.55    7.59
   3   0  -2  121.12    4.16
   3   0  -2  119.67    3.97
   3   0  -2  114.38    4.80
   3   0  -2  106.24    3.58
   3   0  -1    7.23    1.10
   3   0  -1    7.58    1.04
   3   0  -1    7.62    0.98
   3   0  -1    7.20    1.11
   3   0  -1    8.48    0.86
   3   0  -1    6.77    0.86
   3   0   0  592.14   11.76
   3   0   0  583.18   10.49
   3   0   0  630.21   11.86
   3   0   0  628.72   12.09
   3   0   0  605.86   12.07
   3   0   0  622.37   11.38
   3   0   0  624.23   11.60
   3   0   0  618.16   10.58
   3   0   1 1635.06   25.38
   3   0   1 1651.84   25.24
   3   0   1 1657.28   26.16
   3   0   1 1610.68   24.53
   3   0   1 1570.24   25.47
   3   0   1 1603.27   25.66
   3   0   1 1629.31   25.90
   3   0   1 1667.85   26.11
   3   0   1 1612.15   23.98
   3   0   2  415.86    9.17
   3   0   2  405.36    8.75
   3   0   2  390.19    9.02
   3   0   2  395.89    9.20
   3   0   2  401.76    8.35
   3   0   2  387.60    7.89
   3   0   2  411.87    9.00
   3   0   3  623.37   12.66
   3   0   3  621.07   12.59
   3   0   3  587.97   12.53
   3   0   3  586.52   11.99
   3   0   3  640.43   12.46
   3   0   3  618.35   12.86
   3   0   3  634.51   12.66
   3   0   4  284.39    7.95
   3   0   4  276.70    7.69
   3   0   4  283.46    7.10
   3   0   4  261.96    7.25
   3   0   4  273.31    7.79
   3   0   4  269.51    7.83
   3   0   5  247.61    7.68
   3   0   5  259.96    8.06
   3   0   5  271.11    8.28
   3   0   5  251.13    7.07
   3   0   5  243.06    6.04
   3   0   5  237.85    6.09
   3   0   5  262.41    7.84
   3   0   5  249.81    7.61
   3   0   5  256.97    6.77
   3   0   5  255.77    7.77
   3   0   5  251.15    7.35
   3   0   5  258.29    8.26
   3   0   5  264.41    8.07
   3   0   5  266.74    7.80
   3   0   5  234.05    8.19
   3   0   5  273.44    7.86
   3   0   6 1159.68   20.32
   3   0   6 1270.72   23.06
   3   0   6 1302.19   24.08
   3   0   6 1217.98   23.62
   3   0   6 1138.15   21.29
   3   0   6 1204.14   22.76
   3   0   6 1157.68   22.84
   3   0   6 1225.73   22.79
   3   0   6 1115.44   20.09
   3   0   6 1226.60   24.48
   3   0   6 1278.46   22.50
   3   0   6 1237.68   23.54
   3   0   6 1139.46   22.69
   3   0   6 1203.78   22.44
   3   0   6 1135.58   24.27
   3   0   6 1263.89   23.01
   3   0   7   74.51    3.94
   3   0   7   68.86    4.23
   3   0   7   79.26    4.83
   3   0   7   81.25    4.55
   3   0   7   70.99    3.55
   3   0   7   82.02    4.65
   3   0   7   77.35    4.43
   3   0   7   80.33    5.19
   3   0   7   83.57    4.79
   3   0   7   74.17    4.61
   3   0   7   73.71    4.19
   3   0   7   75.21    5.05
   3   0   7   83.51    4.72
   3   0   8  445.37   11.06
   3   0   8  430.85   12.94
   3   0   8  413.90   12.03
   3   0   8  458.59   13.12
   3   0   8  437.77   12.25
   3   0   8  457.01   12.50
   3   0   8  462.40   14.11
   3   0   8  433.11   12.37
   3   0   8  407.13   12.55
   3   0   8  409.63   11.12
   3   0   8  475.87   12.81
   3   0   9   58.86    3.33
   3   0   9   64.72    4.51
   3   0   9   69.70    4.54
   3   0   9   61.92    4.09
   3   0   9   64.01    4.89
   3   0   9   60.50    4.07
   3   0   9   58.47    4.49
   3   0   9   65.62    4.27
   3   0  10  131.49    5.91
   3   0  10  121.29    5.36
   3   0  10  120.10    5.90
   3   0  10  116.83    5.38
   3   0  11    0.86    0.61
   3   0  11    0.13    0.65
   3   0  11    0.28    0.52
   3   1 -10    9.53    1.25
   3   1 -10    8.81    1.17
   3   1  -9  110.36    5.24
   3   1  -9  104.09    4.76
   3   1  -8  108.38    5.92
   3   1  -8  109.59    4.96
   3   1  -8  118.80    5.80
   3   1  -8  111.46    5.72
   3   1  -8  115.10    6.03
   3   1  -7  261.53    9.89
   3   1  -7  227.08    8.72
   3   1  -7  252.69    8.36
   3   1  -7  250.81    9.25
   3   1  -7  245.87    8.39
   3   1  -7  264.98    9.50
   3   1  -7  245.68    9.74
   3   1  -6   93.25    5.28
   3   1  -6   93.41    5.37
   3   1  -6   97.28    5.03
   3   1  -6  105.10    5.74
   3   1  -6   98.31    5.97
   3   1  -5   41.22    3.66
   3   1  -5   32.74    2.95
   3   1  -5   33.43    3.01
   3   1  -5   35.28    2.87
   3   1  -5   33.61    3.07
   3   1  -4  140.57    6.36
   3   1  -4  141.28    5.86
   3   1  -4  143.90    4.83
   3   1  -4  140.56    5.66
   3   1  -4  146.10    5.70
   3   1  -4  138.06    5.81
   3   1  -4  142.85    6.54
   3   1  -4  133.73    4.84
   3   1  -3  951.59   19.36
   3   1  -3 1024.38   17.23
   3   1  -3  938.17   18.11
   3   1  -3  900.41   17.91
   3   1  -3  971.87   16.53
   3   1  -3  912.46   19.47
   3   1  -3  874.41   16.90
   3   1  -2  163.21    5.05
   3   1  -2  161.89    5.10
   3   1  -2  159.52    4.82
   3   1  -2  163.09    6.07
   3   1  -2  163.34    5.04
   3   1  -1  151.67    5.40
   3   1  -1  158.32    4.93
   3   1  -1  147.40    4.72
   3   1  -1  148.76    5.47
   3   1  -1  154.19    5.55
   3   1  -1  146.09    3.96
   3   1  -1  160.71    4.95
   3   1   0  718.49   13.98
   3   1   0  713.94   13.39
   3   1   0  699.84   13.30
   3   1   0  706.86   13.99
   3   1   0  716.02   14.14
   3   1   0  683.92   12.63
   3   1   0  721.46   13.55
   3   1   1  123.49    4.37
   3   1   1  120.61    3.68
   3   1   1  120.42    4.17
   3   1   1  126.17    4.49
   3   1   1  123.93    4.40
   3   1   1  126.10    4.12
   3   1   1  123.24    4.36
   3   1   2  955.39   17.30
   3   1   2  976.26   17.07
   3   1   2  968.52   17.01
   3   1   2  989.85   18.02
   3   1   2  987.90   17.25
   3   1   2  949.75   16.30
   3   1   2  995.99   18.19
   3   1   2  976.21   17.54
   3   1   2  977.42   17.35
   3   1   2 1015.07   17.54
   3   1   2  994.79   17.76
   3   1   3 1208.80   21.19
   3   1   3 1290.23   21.84
   3   1   3 1317.55   21.83
   3   1   3 1215.80   20.73
   3   1   3 1252.44   22.33
   3   1   3 1265.24   21.21
   3   1   3 1300.33   21.47
   3   1   3 1293.32   22.59
   3   1   3 1250.22   21.49
   3   1   3 1206.65   21.12
   3   1   3 1222.15   21.85
   3   1   3 1252.98   21.48
   3   1   4  160.65    5.23
   3   1   4  160.73    6.08
   3   1   4  166.83    5.66
   3   1   4  168.32    5.93
   3   1   4  168.46    4.79
   3   1   4  166.00    6.00
   3   1   4  160.67    5.10
   3   1   4  162.38    5.66
   3   1   4  166.91    5.24
   3   1   4  168.98    5.87
   3   1   4  173.60    6.24
   3   1   4  173.18    5.63
   3   1   5  109.78    5.22
   3   1   5  119.19    4.90
   3   1   5  117.68    5.28
   3   1   5  111.29    5.06
   3   1   5  112.31    4.10
   3   1   5  102.26    3.42
   3   1   5  112.55    5.18
   3   1   5  113.54    4.72
   3   1   5  109.30    4.04
   3   1   5  112.52    4.85
   3   1   5  120.99    5.39
   3   1   5  105.98    4.30
   3   1   5  112.11    5.25
   3   1   5  114.81    4.97
   3   1   5  110.34    5.35
   3   1   5  115.09    4.78
   3   1   6  118.12    5.70
   3   1   6  117.78    5.22
   3   1   6  127.24    6.00
   3   1   6  108.89    5.40
   3   1   6  118.89    4.24
   3   1   6  123.81    5.21
   3   1   6  120.08    5.71
   3   1   6  123.29    5.17
   3   1   6  127.57    5.55
   3   1   6  124.19    6.04
   3   1   6  117.80    5.80
   3   1   6  120.00    5.37
   3   1   6  111.13    5.89
   3   1   6  119.34    5.21
   3   1   7  100.75    5.01
   3   1   7  100.62    5.01
   3   1   7  103.44    5.55
   3   1   7  106.11    5.00
   3   1   7  108.57    6.09
   3   1   7  106.49    5.76
   3   1   7  106.38    5.19
   3   1   7  103.66    5.96
   3   1   7   99.14    5.08
   3   1   8   20.81    2.53
   3   1   8   21.27    2.69
   3   1   8   19.43    2.27
   3   1   8   20.75    2.33
   3   1   8   19.77    2.51
   3   1   8   20.31    2.82
   3   1   8   18.99    2.51
   3   1   8   19.22    2.23
   3   1   8   24.16    2.57
   3   1   9  672.93   15.90
   3   1   9  671.00   17.04
   3   1   9  685.56   15.76
   3   1   9  651.44   17.84
   3   1   9  685.03   16.90
   3   1   9  684.81   17.58
   3   1   9  674.59   15.91
   3   1  10   44.67    3.54
   3   1  10   43.55    3.09
   3   1  11   25.22    2.46
   3   1  11   26.69    2.19
   3   2  -9   13.31    1.83
   3   2  -9   15.82    1.93
   3   2  -9   14.70    1.75
   3   2  -8  128.58    6.22
   3   2  -8  141.48    6.65
   3   2  -8  138.59    6.17
   3   2  -8  126.46    6.07
   3   2  -7   65.35    4.72
   3   2  -7   73.63    5.12
   3   2  -7   74.28    4.80
   3   2  -7   69.12    4.29
   3   2  -7   71.76    4.78
   3   2  -7   69.64    4.82
   3   2  -6   77.56    5.18
   3   2  -6   71.71    4.78
   3   2  -6   74.39    5.16
   3   2  -6   80.22    4.99
   3   2  -6   71.34    4.38
   3   2  -6   84.33    5.21
   3   2  -6   74.63    5.20
   3   2  -6   77.15    5.15
   3   2  -5  195.83    7.76
   3   2  -5  186.87    7.52
   3   2  -5  190.74    7.22
   3   2  -5  193.68    7.76
   3   2  -5  181.69    8.09
   3   2  -5  190.09    8.22
   3   2  -5  176.60    6.47
   3   2  -4  441.72   12.81
   3   2  -4  458.16   12.28
   3   2  -4  464.39   10.57
   3   2  -4  449.23   11.76
   3   2  -4  453.87   12.25
   3   2  -4  448.02   11.14
   3   2  -3   80.45    4.56
   3   2  -3   81.07    4.50
   3   2  -3   82.57    3.77
   3   2  -3   78.64    3.93
   3   2  -3   79.82    4.19
   3   2  -3   83.21    3.57
   3   2  -3   79.08    4.69
   3   2  -3   79.33    4.73
   3   2  -3   78.71    3.90
   3   2  -2   10.53    1.59
   3   2  -2   10.89    1.31
   3   2  -2    9.65    1.31
   3   2  -2    9.27    1.20
   3   2  -2    9.42    1.56
   3   2  -2    9.95    1.59
   3   2  -2    9.19    1.31
   3   2  -1  210.55    6.92
   3   2  -1  197.15    5.95
   3   2  -1  196.75    5.80
   3   2  -1  195.74    5.84
   3   2  -1  201.56    6.90
   3   2  -1  198.73    6.89
   3   2  -1  189.36    4.95
   3   2  -1  193.80    6.11
   3   2   0  864.55   17.13
   3   2   0  859.81   15.92
   3   2   0  873.91   16.00
   3   2   0  873.07   17.41
   3   2   0  849.07   17.18
   3   2   0  873.63   15.25
   3   2   0  870.47   16.37
   3   2   1    3.67    0.92
   3   2   1    3.45    0.66
   3   2   1    4.56    0.86
   3   2   1    3.54    0.92
   3   2   1    7.35    1.25
   3   2   1    4.95    1.05
   3   2   1    3.98    0.82
   3   2   1    4.52    0.91
   3   2   2   74.34    3.71
   3   2   2   75.77    3.29
   3   2   2   76.27    3.25
   3   2   2   67.82    3.64
   3   2   2   73.75    3.68
   3   2   2   80.38    3.45
   3   2   2   77.01    3.86
   3   2   2   73.72    3.74
   3   2   2   73.31    3.42
   3   2   3  337.97    9.08
   3   2   3  330.68    9.41
   3   2   3  333.99    8.35
   3   2   3  349.04    8.74
   3   2   3  337.25    7.84
   3   2   3  336.24    9.18
   3   2   3  332.00    9.12
   3   2   3  332.74    8.17
   3   2   3  320.29    8.09
   3   2   3  339.39    9.33
   3   2   3  330.09    9.06
   3   2   3  322.15    8.86
   3   2   3  337.35    8.71
   3   2   3  331.95    7.92
   3   2   4  406.49   10.41
   3   2   4  400.35   11.00
   3   2   4  404.10    9.67
   3   2   4  393.66   10.31
   3   2   4  393.89    9.96
   3   2   4  387.62    8.50
   3   2   4  404.60   10.72
   3   2   4  396.35    9.13
   3   2   4  389.66    9.70
   3   2   4  391.61   10.04
   3   2   4  381.08    8.48
   3   2   4  403.90   10.83
   3   2   4  395.15   10.31
   3   2   4  388.37   10.07
   3   2   4  402.42    9.33
   3   2   4  396.26   10.03
   3   2   5   69.72    4.38
   3   2   5   74.30    3.74
   3   2   5   73.38    4.27
   3   2   5   65.26    3.83
   3   2   5   68.33    2.85
   3   2   5   67.29    3.40
   3   2   5   68.01    4.15
   3   2   5   68.94    3.48
   3   2   5   68.40    3.17
   3   2   5   70.91    3.77
   3   2   5   63.65    4.00
   3   2   5   68.78    3.15
   3   2   5   71.28    4.38
   3   2   5   69.31    3.97
   3   2   5   68.97    3.96
   3   2   5   61.80    4.12
   3   2   5   71.07    3.58
   3   2   5   67.80    3.82
   3   2   6  122.13    6.14
   3   2   6  114.03    5.03
   3   2   6  125.51    6.11
   3   2   6  117.65    5.55
   3   2   6  117.08    4.91
   3   2   6  120.69    5.99
   3   2   6  115.68    4.84
   3   2   6  116.53    5.99
   3   2   6  127.99    6.31
   3   2   6  124.19    5.65
   3   2   6  117.95    6.14
   3   2   6  123.60    5.13
   3   2   6  116.16    5.33
   3   2   7  108.11    6.00
   3   2   7  107.16    4.96
   3   2   7  110.08    5.67
   3   2   7  104.27    4.86
   3   2   7  104.98    5.90
   3   2   7  104.30    4.71
   3   2   7  107.21    6.12
   3   2   7  113.20    6.19
   3   2   7  105.48    5.37
   3   2   7  108.44    6.12
   3   2   7  104.07    4.93
   3   2   7   97.03    5.03
   3   2   8  172.66    7.74
   3   2   8  159.87    6.28
   3   2   8  181.40    7.59
   3   2   8  167.01    6.42
   3   2   8  182.81    7.94
   3   2   8  197.18    8.34
   3   2   8  171.41    6.87
   3   2   8  177.52    6.72
   3   2   8  154.10    6.51
   3   2   9  133.82    6.39
   3   2   9  133.14    6.67
   3   2   9  132.25    5.41
   3   2   9  146.13    6.78
   3   2   9  141.56    6.82
   3   2   9  144.94    7.62
   3   2   9  131.04    6.69
   3   2   9  117.77    5.27
   3   2  10   46.38    3.20
   3   2  10   47.53    3.33
   3   2  10   52.89    4.11
   3   2  10   51.15    3.71
   3   2  11   18.64    1.74
   3   2  11   18.01    2.00
   3   3  -9    2.68    0.85
   3   3  -9    3.14    0.88
   3   3  -8   51.47    3.80
   3   3  -8   53.00    3.58
   3   3  -7   71.91    4.78
   3   3  -7   81.49    5.25
   3   3  -7   78.49    4.83
   3   3  -7   80.01    4.56
   3   3  -7   77.54    4.86
   3   3  -6    8.20    1.78
   3   3  -6    9.82    2.01
   3   3  -6    8.04    1.81
   3   3  -6    9.36    1.91
   3   3  -6    8.94    1.87
   3   3  -5  493.03   14.45
   3   3  -5  485.57   14.57
   3   3  -5  507.60   14.89
   3   3  -5  504.57   13.77
   3   3  -5  492.24   14.55
   3   3  -5  494.55   14.40
   3   3  -5  485.53   12.74
   3   3  -4 2417.33   40.84
   3   3  -4 2313.98   42.02
   3   3  -4 2403.94   38.54
   3   3  -4 2509.44   42.49
   3   3  -4 2222.32   40.24
   3   3  -4 2394.83   39.84
   3   3  -4 2356.23   42.10
   3   3  -4 2392.33   42.45
   3   3  -4 2382.51   39.84
   3   3  -3    9.21    1.82
   3   3  -3    9.74    1.45
   3   3  -3   12.28    1.98
   3   3  -3   11.14    1.71
   3   3  -3   12.15    1.62
   3   3  -3    9.96    1.36
   3   3  -3    8.56    1.30
   3   3  -3    9.88    1.57
   3   3  -2 1182.62   22.96
   3   3  -2 1093.55   22.41
   3   3  -2 1151.67   20.94
   3   3  -2 1061.64   22.81
   3   3  -2 1117.33   20.66
   3   3  -2 1129.15   20.72
   3   3  -2 1122.55   23.18
   3   3  -2 1182.44   21.64
   3   3  -1   21.97    2.34
   3   3  -1   23.01    2.29
   3   3  -1   23.58    2.05
   3   3  -1   20.96    2.34
   3   3  -1   22.41    1.82
   3   3  -1   21.10    1.93
   3   3  -1   22.23    2.43
   3   3  -1   23.24    2.45
   3   3  -1   24.35    2.20
   3   3   0  130.16    5.70
   3   3   0  120.46    4.82
   3   3   0  120.44    5.59
   3   3   0  148.09    5.93
   3   3   0  126.19    4.22
   3   3   0  128.89    4.88
   3   3   0  118.94    4.98
   3   3   0  136.01    5.87
   3   3   0  131.82    5.79
   3   3   0  120.27    4.42
   3   3   0  125.88    5.08
   3   3   1  381.38   10.65
   3   3   1  376.10    8.54
   3   3   1  401.73    9.44
   3   3   1  381.98   10.63
   3   3   1  358.05    9.94
   3   3   1  372.54    7.84
   3   3   1  375.37    9.84
   3   3   1  380.49    9.96
   3   3   1  390.29   10.78
   3   3   1  377.51   10.56
   3   3   1  374.66    9.20
   3   3   2   91.52    4.68
   3   3   2   83.37    4.49
   3   3   2   89.98    3.93
   3   3   2   90.35    3.85
   3   3   2   87.13    4.64
   3   3   2   83.68    4.27
   3   3   2   86.18    3.89
   3   3   2   85.33    4.35
   3   3   2   85.45    4.62
   3   3   2   84.23    4.58
   3   3   2   86.69    4.06
   3   3   2   92.97    4.23
   3   3   3   99.69    5.11
   3   3   3  106.01    4.32
   3   3   3  102.95    4.62
   3   3   3  102.36    4.12
   3   3   3  109.71    5.30
   3   3   3   99.91    4.78
   3   3   3  108.16    4.45
   3   3   3  106.87    5.10
   3   3   3  110.46    5.36
   3   3   3  108.61    5.28
   3   3   3  106.32    4.73
   3   3   3  101.49    3.68
   3   3   3  103.61    4.61
   3   3   4  163.78    6.79
   3   3   4  159.75    6.91
   3   3   4  170.21    5.70
   3   3   4  170.64    6.51
   3   3   4  162.29    5.78
   3   3   4  169.44    5.22
   3   3   4  163.30    6.74
   3   3   4  160.13    5.53
   3   3   4  160.26    5.58
   3   3   4  170.77    6.96
   3   3   4  155.01    6.68
   3   3   4  163.44    6.39
   3   3   4  155.69    6.52
   3   3   4  160.33    5.01
   3   3   4  161.20    6.06
   3   3   5  604.23   15.43
   3   3   5  576.00   12.60
   3   3   5  592.61   14.66
   3   3   5  565.61   13.35
   3   3   5  569.39   14.83
   3   3   5  554.43   11.87
   3   3   5  577.12   12.18
   3   3   5  577.27   12.84
   3   3   5  595.37   14.93
   3   3   5  553.34   12.66
   3   3   5  565.69   14.12
   3   3   5  592.36   15.26
   3   3   5  570.71   14.71
   3   3   5  570.60   11.95
   3   3   5  579.89   13.51
   3   3   6  238.04    9.35
   3   3   6  243.28    9.05
   3   3   6  224.24    7.07
   3   3   6  242.02    8.14
   3   3   6  228.25    8.91
   3   3   6  235.70    8.44
   3   3   6  238.11    9.53
   3   3   6  245.95    9.26
   3   3   6  218.77    6.74
   3   3   6  227.39    7.79
   3   3   7  368.91   11.94
   3   3   7  355.17   10.65
   3   3   7  380.79   11.98
   3   3   7  362.87   12.07
   3   3   7  343.18   10.70
   3   3   7  346.20   12.31
   3   3   7  353.54   11.89
   3   3   7  316.21    9.67
   3   3   8   58.89    4.48
   3   3   8   55.97    4.33
   3   3   8   58.10    4.52
   3   3   8   51.86    3.78
   3   3   8   59.95    4.90
   3   3   8   59.75    4.58
   3   3   9  249.07    9.10
   3   3   9  253.75    8.40
   3   3   9  240.17    9.10
   3   3   9  249.96    9.06
   3   3   9  239.67    9.13
   3   3   9  270.72   10.27
   3   3  10  282.29    8.56
   3   3  10  270.50    7.85
   3   3  10  287.01    9.54
   3   4  -8  366.68    8.82
   3   4  -8  364.74    8.59
   3   4  -7   64.03    4.42
   3   4  -7   56.28    3.77
   3   4  -7   59.28    4.22
   3   4  -7   50.92    3.58
   3   4  -6  182.06    7.86
   3   4  -6  189.79    8.45
   3   4  -6  189.48    7.92
   3   4  -6  182.27    7.66
   3   4  -6  188.50    7.22
   3   4  -6  182.62    7.75
   3   4  -5   31.85    3.34
   3   4  -5   32.13    3.17
   3   4  -5   31.37    3.45
   3   4  -5   29.79    3.11
   3   4  -5   28.68    2.74
   3   4  -5   31.10    3.27
   3   4  -5   30.23    3.32
   3   4  -4  383.37   12.45
   3   4  -4  362.93   11.31
   3   4  -4  393.73   12.77
   3   4  -4  397.44   10.59
   3   4  -4  412.67   13.19
   3   4  -4  381.16   11.73
   3   4  -4  380.92   10.81
   3   4  -4  389.08   12.53
   3   4  -4  377.94   12.51
   3   4  -4  384.70   11.46
   3   4  -4  393.52   10.28
   3   4  -3   43.43    3.85
   3   4  -3   46.03    3.49
   3   4  -3   47.02    3.10
   3   4  -3   45.39    3.96
   3   4  -3   40.42    3.06
   3   4  -3   46.39    4.00
   3   4  -3   43.60    3.91
   3   4  -3   43.94    3.12
   3   4  -3   46.10    3.16
   3   4  -3   41.27    2.93
   3   4  -3   34.65    2.67
   3   4  -3   49.25    4.05
   3   4  -3   44.82    3.88
   3   4  -3   37.38    3.22
   3   4  -3   45.46    3.20
   3   4  -2  477.45   13.38
   3   4  -2  463.67   11.49
   3   4  -2  468.32   11.80
   3   4  -2  453.60   13.40
   3   4  -2  457.13   11.05
   3   4  -2  463.18   11.57
   3   4  -2  435.34   11.08
   3   4  -2  474.78   13.60
   3   4  -2  463.03   11.57
   3   4  -2  454.99   12.22
   3   4  -2  452.87   11.68
   3   4  -1  361.83   10.11
   3   4  -1  374.72   11.63
   3   4  -1  362.45   11.07
   3   4  -1  365.67   10.00
   3   4  -1  380.51   10.19
   3   4  -1  387.47   11.74
   3   4  -1  359.84    8.93
   3   4  -1  362.92    9.95
   3   4  -1  359.68    9.69
   3   4  -1  368.56   10.10
   3   4  -1  367.71   10.35
   3   4   0  440.53   11.36
   3   4   0  435.90   12.64
   3   4   0  413.88   11.48
   3   4   0  452.32   12.27
   3   4   0  452.29   11.32
   3   4   0  436.99   12.82
   3   4   0  436.34   12.62
   3   4   0  434.25   11.71
   3   4   0  430.67    9.34
   3   4   0  437.56   11.29
   3   4   0  437.65   11.09
   3   4   0  432.17   11.04
   3   4   0  467.27   13.18
   3   4   0  447.43   12.87
   3   4   0  453.65   11.48
   3   4   1  508.62   13.61
   3   4   1  461.50   12.48
   3   4   1  476.17   12.59
   3   4   1  472.04   11.82
   3   4   1  490.58   11.68
   3   4   1  472.19   13.40
   3   4   1  493.10   13.40
   3   4   1  483.50   12.51
   3   4   1  498.78   12.21
   3   4   1  479.87   11.98
   3   4   1  479.09   13.53
   3   4   1  501.24   13.77
   3   4   1  486.97   11.60
   3   4   1  491.09   12.12
   3   4   2   25.16    2.75
   3   4   2   25.57    2.65
   3   4   2   19.35    2.30
   3   4   2   21.85    2.22
   3   4   2   26.54    2.25
   3   4   2   26.32    2.85
   3   4   2   22.37    2.58
   3   4   2   26.60    2.60
   3   4   2   22.62    2.15
   3   4   2   26.31    2.48
   3   4   2   28.58    2.62
   3   4   2   23.18    2.73
   3   4   2   25.88    2.82
   3   4   2   24.49    2.33
   3   4   2   26.15    2.44
   3   4   2   26.16    2.37
   3   4   3  258.55    9.40
   3   4   3  250.83    8.97
   3   4   3  238.19    6.93
   3   4   3  251.26    8.15
   3   4   3  239.70    8.26
   3   4   3  247.56    7.90
   3   4   3  248.88    7.36
   3   4   3  234.16    8.62
   3   4   3  245.90    8.64
   3   4   3  246.84    7.66
   3   4   3  242.97    6.70
   3   4   3  238.74    8.46
   3   4   3  246.88    9.35
   3   4   3  240.85    7.97
   3   4   3  242.83    8.18
   3   4   3  229.69    7.63
   3   4   4  207.80    8.53
   3   4   4  199.99    8.22
   3   4   4  193.66    6.07
   3   4   4  199.02    7.60
   3   4   4  206.14    7.03
   3   4   4  199.03    6.23
   3   4   4  208.81    8.11
   3   4   4  201.36    6.71
   3   4   4  197.93    7.90
   3   4   4  196.32    7.10
   3   4   4  212.68    8.65
   3   4   4  210.18    7.76
   3   4   4  196.21    6.98
   3   4   5    2.00    1.01
   3   4   5    3.22    0.98
   3   4   5    1.88    0.97
   3   4   5    1.36    0.64
   3   4   5    2.28    1.04
   3   4   5    0.19    0.81
   3   4   5    0.83    0.63
   3   4   5    1.47    1.01
   3   4   5    0.34    0.76
   3   4   5    1.20    0.66
   3   4   6  194.64    8.28
   3   4   6  190.11    6.72
   3   4   6  196.62    8.36
   3   4   6  199.45    8.55
   3   4   6  192.42    8.49
   3   4   6  198.42    7.94
   3   4   6  201.10    8.84
   3   4   6  201.94    8.54
   3   4   6  187.34    6.79
   3   4   7  294.71   10.91
   3   4   7  310.07   10.90
   3   4   7  309.84   11.04
   3   4   7  316.44   11.58
   3   4   8  699.61   17.59
   3   4   8  727.24   18.47
   3   4   9    0.30    0.65
   3   4   9    0.09    0.29
   3   4   9    0.85    0.82
   3   4  10   45.08    2.96
   3   5  -8   19.63    1.77
   3   5  -7   42.87    3.19
   3   5  -7   36.90    2.90
   3   5  -6   14.62    2.25
   3   5  -6   14.68    2.01
   3   5  -6   17.86    2.38
   3   5  -6   15.28    2.00
   3   5  -5  115.54    6.16
   3   5  -5  125.51    6.78
   3   5  -5  121.30    6.21
   3   5  -5  122.22    5.48
   3   5  -5  109.16    5.91
   3   5  -4  160.29    7.67
   3   5  -4  157.81    6.79
   3   5  -4  177.10    8.26
   3   5  -4  162.35    6.46
   3   5  -4  162.02    7.68
   3   5  -4  164.28    6.46
   3   5  -4  172.14    7.83
   3   5  -4  150.31    7.57
   3   5  -4  162.96    7.17
   3   5  -4  168.79    6.50
   3   5  -3  115.03    6.46
   3   5  -3  107.19    5.40
   3   5  -3  115.36    5.16
   3   5  -3  115.61    6.63
   3   5  -3  110.26    5.42
   3   5  -3  109.33    6.33
   3   5  -3  109.84    6.60
   3   5  -3  109.52    4.99
   3   5  -3  106.79    5.20
   3   5  -3  110.21    4.94
   3   5  -3  118.39    6.57
   3   5  -3  109.29    6.41
   3   5  -3  108.88    5.77
   3   5  -3  116.55    5.54
   3   5  -2    2.98    1.06
   3   5  -2    4.55    1.45
   3   5  -2    4.92    1.16
   3   5  -2    4.49    1.50
   3   5  -2    3.25    1.05
   3   5  -2    4.94    1.56
   3   5  -2    4.66    1.20
   3   5  -2    3.91    1.51
   3   5  -2    3.29    0.91
   3   5  -2    3.32    0.97
   3   5  -2    4.26    1.13
   3   5  -2    4.36    1.41
   3   5  -2    3.91    1.33
   3   5  -2    2.18    0.87
   3   5  -1  431.88   13.50
   3   5  -1  418.93   11.32
   3   5  -1  429.14   11.72
   3   5  -1  441.63   13.47
   3   5  -1  442.58   11.92
   3   5  -1  427.91   13.64
   3   5  -1  457.29   13.98
   3   5  -1  445.00   12.22
   3   5  -1  446.50   11.89
   3   5  -1  435.60   11.29
   3   5  -1  429.29   11.88
   3   5  -1  436.54   13.71
   3   5  -1  440.48   13.81
   3   5  -1  431.17   12.21
   3   5  -1  453.05   12.26
   3   5   0  819.53   18.13
   3   5   0  860.51   18.46
   3   5   0  843.22   19.99
   3   5   0  893.52   21.03
   3   5   0  845.69   18.73
   3   5   0  861.51   18.38
   3   5   0  813.35   17.59
   3   5   0  838.28   17.19
   3   5   0  861.61   18.70
   3   5   0  870.49   18.51
   3   5   0  843.05   18.55
   3   5   1  117.47    5.65
   3   5   1  120.56    6.69
   3   5   1  110.67    5.59
   3   5   1  120.84    5.68
   3   5   1  122.29    6.33
   3   5   1  115.34    5.39
   3   5   1  118.60    6.65
   3   5   1  120.29    6.64
   3   5   1  120.02    5.83
   3   5   1  117.11    5.28
   3   5   1  112.70    5.61
   3   5   1  119.44    6.77
   3   5   1  123.29    6.80
   3   5   1  118.86    5.55
   3   5   2   71.93    5.13
   3   5   2   77.49    4.74
   3   5   2   74.97    4.42
   3   5   2   67.86    4.66
   3   5   2   75.00    4.16
   3   5   2   68.13    4.88
   3   5   2   65.94    4.38
   3   5   2   71.81    4.22
   3   5   2   65.90    4.08
   3   5   2   68.39    4.36
   3   5   2   70.54    5.13
   3   5   2   75.94    5.33
   3   5   2   72.11    4.20
   3   5   3  526.73   15.29
   3   5   3  487.35   13.87
   3   5   3  513.79   13.10
   3   5   3  509.91   12.26
   3   5   3  504.65   14.56
   3   5   3  494.96   13.64
   3   5   3  505.24   12.66
   3   5   3  476.63   13.01
   3   5   3  490.55   13.23
   3   5   3  521.41   15.43
   3   5   3  496.83   12.53
   3   5   4 1122.79   24.95
   3   5   4 1088.42   23.68
   3   5   4 1078.03   21.54
   3   5   4 1045.55   20.01
   3   5   4 1092.46   23.27
   3   5   4 1080.32   21.05
   3   5   4 1081.40   21.92
   3   5   4 1078.82   22.91
   3   5   4 1092.72   24.85
   3   5   4 1049.97   21.02
   3   5   5   24.03    2.34
   3   5   5   26.16    2.90
   3   5   5   25.29    2.51
   3   5   5   26.88    2.93
   3   5   5   22.93    3.03
   3   5   6   27.67    3.02
   3   5   6   25.07    2.89
   3   5   7    5.11    1.09
   3   5   7    5.82    1.56
   3   5   7    4.66    1.35
   3   5   7    6.03    1.48
   3   5   8  115.18    5.62
   3   5   8  124.11    5.95
   3   5   9  288.74    8.68
   3   5   9  275.74    8.20
   3   5  10   26.77    1.90
   3   6  -7   59.42    3.06
   3   6  -6   71.87    3.98
   3   6  -6   73.14    3.92
   3   6  -5  280.66    9.69
   3   6  -5  277.20    8.62
   3   6  -5  275.69    9.58
   3   6  -4   26.93    2.91
   3   6  -4   25.09    2.99
   3   6  -4   29.48    2.94
   3   6  -4   22.47    2.61
   3   6  -3    4.26    1.20
   3   6  -3    6.33    1.60
   3   6  -3    4.61    1.56
   3   6  -3    4.21    1.09
   3   6  -3    5.34    1.55
   3   6  -3    5.39    1.24
   3   6  -3    5.11    1.15
   3   6  -3    3.65    1.25
   3   6  -2   89.42    5.76
   3   6  -2   89.01    4.70
   3   6  -2   76.62    5.41
   3   6  -2   87.35    4.89
   3   6  -2   88.36    5.76
   3   6  -2   85.32    5.86
   3   6  -2   81.18    4.44
   3   6  -2   80.77    5.48
   3   6  -2   80.35    4.90
   3   6  -2   90.67    5.02
   3   6  -1  308.56   11.31
   3   6  -1  303.65    9.68
   3   6  -1  298.36   11.14
   3   6  -1  303.85    9.83
   3   6  -1  309.14   11.37
   3   6  -1  294.83   11.44
   3   6  -1  293.46    9.31
   3   6  -1  295.66    9.74
   3   6  -1  313.11    9.92
   3   6  -1  322.05   11.58
   3   6  -1  285.81   11.18
   3   6  -1  297.74    9.87
   3   6  -1  310.70   10.06
   3   6   0  317.25   11.77
   3   6   0  318.23   10.17
   3   6   0  344.31   11.96
   3   6   0  330.78   10.24
   3   6   0  340.55   12.14
   3   6   0  341.90   12.23
   3   6   0  312.58    9.83
   3   6   0  324.40   10.41
   3   6   0  310.46   10.07
   3   6   0  332.07   12.02
   3   6   0  317.37   11.93
   3   6   0  318.38   10.11
   3   6   0  331.30   10.50
   3   6   1   35.24    2.98
   3   6   1   38.28    3.30
   3   6   1   41.78    3.96
   3   6   1   36.63    3.12
   3   6   1   44.92    4.23
   3   6   1   39.34    3.26
   3   6   1   40.47    3.33
   3   6   1   44.91    3.63
   3   6   1   39.65    3.97
   3   6   1   37.12    3.15
   3   6   2   77.03    5.53
   3   6   2   68.95    4.35
   3   6   2   75.88    4.66
   3   6   2   72.14    5.07
   3   6   2   70.41    4.22
   3   6   2   76.54    5.45
   3   6   2   70.98    4.43
   3   6   2   80.34    4.66
   3   6   2   69.99    4.58
   3   6   2   70.50    4.24
   3   6   2   73.01    4.58
   3   6   3  281.04    9.27
   3   6   3  282.41   11.09
   3   6   3  283.91    9.27
   3   6   3  260.35    8.37
   3   6   3  268.14    9.29
   3   6   3  262.62    9.28
   3   6   3  275.68    8.92
   3   6   3  260.33    8.44
   3   6   3  272.74   10.93
   3   6   4   14.76    2.03
   3   6   4   17.23    2.12
   3   6   4   17.11    2.29
   3   6   4   15.57    2.09
   3   6   4   15.97    2.07
   3   6   4   16.76    2.61
   3   6   5   17.19    2.07
   3   6   5   19.14    2.04
   3   6   5   19.29    2.36
   3   6   5   20.08    2.37
   3   6   5   18.83    2.78
   3   6   6   36.53    3.31
   3   6   6   33.84    3.01
   3   6   6   39.49    3.18
   3   6   6   36.57    2.62
   3   6   7   90.49    4.92
   3   6   7   90.68    4.61
   3   6   7   84.42    4.46
   3   6   8   27.98    2.39
   3   6   8   24.13    2.07
   3   6   9   19.21    1.65
   3   7  -5  123.35    5.06
   3   7  -5  116.70    4.78
   3   7  -4  162.30    6.64
   3   7  -4  158.58    6.51
   3   7  -3   89.07    3.80
   3   7  -3   83.63    5.04
   3   7  -3   83.16    4.54
   3   7  -2  207.42    8.23
   3   7  -2  215.15    7.09
   3   7  -2  219.23    8.78
   3   7  -2  227.39    7.72
   3   7  -1  418.72   12.97
   3   7  -1  460.79   11.83
   3   7  -1  448.43   13.53
   3   7  -1  453.69   13.84
   3   7  -1  407.82   12.76
   3   7  -1  453.09   12.04
   3   7   0   89.58    5.71
   3   7   0  101.18    5.12
   3   7   0   93.50    5.75
   3   7   0   92.19    4.91
   3   7   0   92.07    5.90
   3   7   0   89.12    5.67
   3   7   0  101.38    4.61
   3   7   1   33.17    3.49
   3   7   1   31.04    2.86
   3   7   1   30.15    3.26
   3   7   1   28.02    2.67
   3   7   1   31.75    3.46
   3   7   1   30.89    3.41
   3   7   1   32.80    2.77
   3   7   1   27.44    2.68
   3   7   2   37.12    3.72
   3   7   2   36.52    3.06
   3   7   2   33.38    2.80
   3   7   2   38.52    3.81
   3   7   2   38.10    3.11
   3   7   3   37.29    3.02
   3   7   3   35.65    2.91
   3   7   4   66.44    3.74
   3   7   4   77.39    4.04
   3   7   4   66.08    4.82
   3   7   4   72.60    3.91
   3   7   5    1.48    0.68
   3   7   5    2.18    0.80
   3   7   5    1.76    0.68
   3   7   5    0.10    0.30
   3   7   6   37.20    2.55
   3   7   6   -0.08    0.25
   3   7   7   20.92    1.73
   3   7   8   69.77    2.51
   3   8  -3   13.03    1.60
   3   8  -3   13.35    1.57
   3   8  -2  254.11    6.44
   3   8  -2  244.05    7.84
   3   8  -2  256.99    8.07
   3   8  -1   33.40    2.34
   3   8  -1   29.77    2.73
   3   8   0   27.43    2.26
   3   8   1  179.76    6.19
   3   8   1  169.06    5.53
   3   8   1  181.15    6.16
   3   8   2  125.22    4.99
   3   8   2  111.09    5.53
   3   8   2  121.13    4.75
   3   8   2  125.93    4.87
   3   8   3   41.95    2.65
   3   8   3   42.76    2.78
   3   8   3   36.69    2.38
   3   8   4    9.86    1.16
   3   8   4   11.08    1.43
   3   8   4    8.92    1.01
   3   8   5   60.93    2.99
   3   9   0   30.60    1.57
   3   9   0   26.49    1.43
   3   9   1  185.36    4.60
   3   9   1  167.52    4.35
   3   9   2  111.04    3.21
   3   9   2   90.11    2.93
   4  -7   1   83.99    3.49
   4  -7   2    2.08    0.70
   4  -7   3  114.13    4.41
   4  -7   4   29.21    1.83
   4  -7   4   30.64    2.15
   4  -7   5   84.55    3.03
   4  -6  -1  175.97    6.48
   4  -6   0  138.21    5.94
   4  -6   1  348.74    9.34
   4  -6   1  355.56   10.47
   4  -6   2   21.81    2.19
   4  -6   2   24.02    2.55
   4  -6   3   67.87    3.89
   4  -6   3   68.50    4.31
   4  -6   4  112.51    4.99
   4  -6   4  105.71    4.15
   4  -6   4  116.62    4.97
   4  -6   5   71.19    3.27
   4  -6   5   80.81    3.95
   4  -6   6    3.93    0.78
   4  -6   6    3.98    0.88
   4  -6   6    2.34    0.72
   4  -6   7   35.88    2.08
   4  -6   7   34.00    2.27
   4  -5  -1  228.77    7.88
   4  -5   0   53.32    3.61
   4  -5   0   52.38    3.79
   4  -5   0   56.34    3.85
   4  -5   1  102.27    5.03
   4  -5   1  100.56    5.33
   4  -5   1   94.16    5.01
   4  -5   1   98.52    5.37
   4  -5   1  102.05    5.35
   4  -5   2  259.18    8.59
   4  -5   2  253.04    8.99
   4  -5   2  230.90    7.91
   4  -5   2  245.55    8.62
   4  -5   2  236.71    7.44
   4  -5   2  249.42    9.06
   4  -5   2  251.87    8.85
   4  -5   3   19.92    2.29
   4  -5   3   17.38    2.33
   4  -5   3   16.36    1.87
   4  -5   3   16.72    2.33
   4  -5   4   25.29    2.61
   4  -5   4   25.17    2.76
   4  -5   4   24.20    2.83
   4  -5   5  384.74   10.78
   4  -5   5  380.74   10.30
   4  -5   5  351.36   11.04
   4  -5   5  362.31   10.63
   4  -5   6  105.08    4.94
   4  -5   6  108.79    4.81
   4  -5   6   97.72    5.16
   4  -5   6  107.35    4.97
   4  -5   6  101.93    5.02
   4  -5   7   74.89    3.66
   4  -5   7   73.84    3.71
   4  -5   7   69.06    3.44
   4  -5   7   68.79    3.76
   4  -5   8   56.98    2.79
   4  -5   8   56.99    2.78
   4  -5   8   53.81    2.70
   4  -5   8   61.52    3.32
   4  -5   9   19.31    1.37
   4  -4  -2   80.13    4.22
   4  -4  -1  542.28   13.25
   4  -4  -1  560.06   13.37
   4  -4   0  703.50   15.97
   4  -4   0  718.88   16.00
   4  -4   0  712.87   16.01
   4  -4   1  182.70    7.07
   4  -4   1  173.95    6.56
   4  -4   1  177.69    7.04
   4  -4   1  173.05    6.95
   4  -4   1  177.84    7.04
   4  -4   1  175.45    6.20
   4  -4   2   45.00    3.49
   4  -4   2   36.52    2.98
   4  -4   2   40.18    3.27
   4  -4   2   42.42    3.10
   4  -4   2   36.19    3.16
   4  -4   2   40.25    3.31
   4  -4   2   34.12    2.67
   4  -4   3  220.95    8.40
   4  -4   3  224.12    8.05
   4  -4   3  207.05    6.91
   4  -4   3  230.77    7.83
   4  -4   3  227.09    8.54
   4  -4   3  227.22    8.34
   4  -4   3  227.02    7.46
   4  -4   4  172.93    7.16
   4  -4   4  179.26    7.56
   4  -4   4  180.02    7.25
   4  -4   4  178.53    7.21
   4  -4   4  170.45    6.32
   4  -4   4  180.26    6.93
   4  -4   4  178.89    7.69
   4  -4   4  172.19    7.23
   4  -4   4  163.54    6.39
   4  -4   5  584.64   15.38
   4  -4   5  609.29   14.23
   4  -4   5  574.51   14.73
   4  -4   5  567.25   14.31
   4  -4   5  583.88   13.75
   4  -4   5  607.17   14.47
   4  -4   5  601.58   15.88
   4  -4   5  603.70   15.01
   4  -4   5  593.94   14.03
   4  -4   6   98.66    5.05
   4  -4   6   99.71    5.05
   4  -4   6   92.78    4.71
   4  -4   6   89.65    5.49
   4  -4   6   93.78    5.27
   4  -4   6   93.26    4.70
   4  -4   7  127.45    5.45
   4  -4   7  139.79    5.81
   4  -4   7  138.22    6.29
   4  -4   7  131.58    5.45
   4  -4   7  135.43    5.67
   4  -4   7  135.89    6.17
   4  -4   7  129.84    5.44
   4  -4   8   34.41    2.56
   4  -4   8   30.84    2.31
   4  -4   8   32.39    2.37
   4  -4   8   28.09    2.54
   4  -4   8   33.91    2.92
   4  -4   9   92.64    3.27
   4  -3  -6   16.21    2.14
   4  -3  -4  180.59    6.41
   4  -3  -4  185.32    7.78
   4  -3  -2  300.87    8.51
   4  -3  -1  336.36    9.24
   4  -3   0  512.42   12.18
   4  -3   0  513.32   12.07
   4  -3   0  538.08   12.65
   4  -3   1  547.74   13.10
   4  -3   1  558.26   13.13
   4  -3   1  545.70   12.94
   4  -3   1  569.21   13.30
   4  -3   2  840.48   17.00
   4  -3   2  931.85   18.70
   4  -3   2  912.10   18.44
   4  -3   2  836.62   16.90
   4  -3   2  877.32   18.44
   4  -3   2  924.23   18.77
   4  -3   2  914.60   18.29
   4  -3   3  265.45    8.06
   4  -3   3  276.89    9.10
   4  -3   3  285.50    9.05
   4  -3   3  266.03    8.84
   4  -3   3  272.95    8.33
   4  -3   3  270.44    7.95
   4  -3   3  256.32    8.79
   4  -3   3  291.59    9.17
   4  -3   3  276.02    8.62
   4  -3   4  147.93    6.07
   4  -3   4  155.82    6.29
   4  -3   4  168.11    7.08
   4  -3   4  160.32    6.68
   4  -3   4  161.29    6.59
   4  -3   4  165.95    6.45
   4  -3   4  157.15    6.03
   4  -3   4  154.47    6.45
   4  -3   4  165.60    7.07
   4  -3   4  163.00    6.54
   4  -3   5  362.22   10.59
   4  -3   5  325.39   10.08
   4  -3   5  332.77    9.98
   4  -3   5  360.70   11.25
   4  -3   5  357.45   10.47
   4  -3   5  340.27   10.15
   4  -3   5  368.54   10.51
   4  -3   5  345.17   10.41
   4  -3   5  332.17   11.05
   4  -3   5  338.78   10.58
   4  -3   5  371.87   10.68
   4  -3   6  527.86   13.34
   4  -3   6  528.67   13.63
   4  -3   6  549.08   13.37
   4  -3   6  529.75   14.42
   4  -3   6  519.82   13.50
   4  -3   6  528.75   13.78
   4  -3   6  482.76   12.53
   4  -3   6  557.46   13.58
   4  -3   6  489.06   12.50
   4  -3   6  546.51   13.83
   4  -3   6  511.64   14.66
   4  -3   6  506.91   14.04
   4  -3   6  525.60   13.73
   4  -3   6  576.86   14.08
   4  -3   7  119.36    5.36
   4  -3   7  119.10    5.38
   4  -3   7  125.47    5.76
   4  -3   7  116.21    6.36
   4  -3   7  112.84    5.96
   4  -3   7  120.66    5.73
   4  -3   8    9.59    1.37
   4  -3   8   11.53    1.56
   4  -3   8    9.24    1.69
   4  -3   8   13.57    1.81
   4  -3   8   10.11    1.44
   4  -3   8   10.54    1.86
   4  -3   8    9.97    1.59
   4  -3   9    3.38    0.89
   4  -3   9    3.57    0.94
   4  -3  10   93.04    3.82
   4  -2  -7   17.66    2.23
   4  -2  -6  113.90    5.99
   4  -2  -5   53.27    3.43
   4  -2  -5   53.70    4.34
   4  -2  -4  302.20    9.09
   4  -2  -4  288.21   10.23
   4  -2  -3   61.39    3.46
   4  -2  -3   57.60    4.06
   4  -2  -2   36.55    2.77
   4  -2  -2   37.23    2.61
   4  -2  -2   34.51    2.90
   4  -2  -1  833.88   16.76
   4  -2  -1  841.69   15.91
   4  -2  -1  835.10   16.84
   4  -2   0  332.39    8.79
   4  -2   0  315.45    8.23
   4  -2   0  319.63    8.23
   4  -2   0  333.46    8.81
   4  -2   1  719.31   14.61
   4  -2   1  771.83   14.84
   4  -2   1  732.18   14.93
   4  -2   1  719.48   14.91
   4  -2   1  718.22   14.42
   4  -2   1  752.22   15.46
   4  -2   2 1655.35   27.94
   4  -2   2 1610.03   28.17
   4  -2   2 1616.56   27.62
   4  -2   3  378.29   10.25
   4  -2   3  409.72   10.87
   4  -2   3  391.74   10.28
   4  -2   3  391.61   10.53
   4  -2   3  413.36   10.81
   4  -2   3  397.14   10.76
   4  -2   4  667.07   15.16
   4  -2   4  648.35   15.56
   4  -2   4  665.92   14.68
   4  -2   4  679.75   14.87
   4  -2   4  647.64   15.08
   4  -2   4  652.62   15.48
   4  -2   4  651.87   15.21
   4  -2   5   63.08    4.05
   4  -2   5   56.09    3.85
   4  -2   5   66.55    4.42
   4  -2   5   67.09    4.17
   4  -2   5   62.65    3.73
   4  -2   5   63.11    4.06
   4  -2   5   69.66    4.14
   4  -2   5   65.70    3.92
   4  -2   5   63.32    4.05
   4  -2   5   63.62    4.31
   4  -2   5   66.48    4.19
   4  -2   5   66.09    4.20
   4  -2   6  175.40    6.66
   4  -2   6  187.57    7.45
   4  -2   6  178.59    7.24
   4  -2   6  191.82    7.89
   4  -2   6  174.19    7.02
   4  -2   6  182.19    7.30
   4  -2   6  163.84    6.13
   4  -2   6  192.18    7.38
   4  -2   6  160.10    6.21
   4  -2   6  192.47    7.46
   4  -2   6  172.15    7.68
   4  -2   6  170.94    7.09
   4  -2   6  174.04    7.18
   4  -2   7  313.69    9.16
   4  -2   7  339.48   10.62
   4  -2   7  347.86   10.61
   4  -2   7  338.31   10.51
   4  -2   7  329.57    9.96
   4  -2   7  326.53   10.28
   4  -2   7  332.88   11.43
   4  -2   7  330.39   10.94
   4  -2   7  320.96   10.01
   4  -2   7  335.23   11.43
   4  -2   7  331.01   10.46
   4  -2   8  158.75    6.34
   4  -2   8  163.83    7.21
   4  -2   8  164.01    6.71
   4  -2   8  164.36    6.73
   4  -2   8  153.08    5.61
   4  -2   8  159.67    7.44
   4  -2   8  158.74    6.78
   4  -2   9   68.92    3.67
   4  -2   9   68.28    3.94
   4  -2   9   67.74    4.38
   4  -2   9   71.11    4.08
   4  -2  10    3.64    0.81
   4  -2  10    3.96    0.76
   4  -2  10    3.13    0.81
   4  -1  -8   41.01    2.71
   4  -1  -7  233.13    8.72
   4  -1  -6  139.56    6.91
   4  -1  -6  127.30    5.53
   4  -1  -5  359.13   11.64
   4  -1  -5  335.46    9.97
   4  -1  -5  333.45   11.60
   4  -1  -4    4.96    1.32
   4  -1  -4    5.21    1.20
   4  -1  -4    4.13    1.32
   4  -1  -3   99.40    5.22
   4  -1  -3   92.07    4.34
   4  -1  -3  104.39    4.51
   4  -1  -3   99.60    5.45
   4  -1  -2  531.78   13.11
   4  -1  -2  581.20   12.60
   4  -1  -2  540.30   12.06
   4  -1  -2  566.65   13.53
   4  -1  -1  114.77    4.78
   4  -1  -1  124.42    4.94
   4  -1  -1  124.64    5.18
   4  -1  -1  130.33    4.51
   4  -1   0  324.88    8.52
   4  -1   0  331.21    8.81
   4  -1   0  289.96    7.87
   4  -1   0  322.82    8.26
   4  -1   0  298.70    7.48
   4  -1   0  318.38    7.71
   4  -1   1  109.47    3.85
   4  -1   1  121.37    4.87
   4  -1   1  112.48    4.29
   4  -1   1  113.77    4.65
   4  -1   1  109.98    4.74
   4  -1   1  116.97    4.73
   4  -1   1  109.84    4.35
   4  -1   2   71.62    3.78
   4  -1   2   73.08    3.67
   4  -1   2   77.20    3.78
   4  -1   2   70.64    3.82
   4  -1   2   71.43    3.78
   4  -1   2   69.42    3.31
   4  -1   2   80.08    3.95
   4  -1   3   27.55    2.40
   4  -1   3   29.02    2.45
   4  -1   3   27.04    2.37
   4  -1   3   28.49    2.39
   4  -1   3   25.59    2.18
   4  -1   3   30.68    2.57
   4  -1   3   28.25    2.47
   4  -1   4   68.07    4.02
   4  -1   4   65.07    3.96
   4  -1   4   69.66    4.01
   4  -1   4   64.70    3.72
   4  -1   4   65.31    3.88
   4  -1   4   67.68    3.84
   4  -1   4   66.00    4.00
   4  -1   4   66.54    3.94
   4  -1   5  271.01    8.83
   4  -1   5  267.43    8.89
   4  -1   5  266.11    9.02
   4  -1   5  266.31    8.44
   4  -1   5  236.65    7.41
   4  -1   5  262.19    8.64
   4  -1   5  264.39    8.62
   4  -1   5  237.98    7.72
   4  -1   5  252.72    8.33
   4  -1   5  262.72    8.92
   4  -1   5  246.76    8.07
   4  -1   5  252.75    8.58
   4  -1   5  259.34    8.66
   4  -1   6   10.12    1.49
   4  -1   6    9.71    1.70
   4  -1   6   11.66    1.87
   4  -1   6    8.50    1.75
   4  -1   6   10.54    1.68
   4  -1   6    9.86    1.72
   4  -1   6    9.18    1.45
   4  -1   6    8.85    1.58
   4  -1   6   10.11    1.68
   4  -1   6    8.79    1.78
   4  -1   6   10.22    1.93
   4  -1   6    8.93    1.65
   4  -1   6   13.42    1.95
   4  -1   7   55.74    3.25
   4  -1   7   60.33    4.43
   4  -1   7   59.28    4.17
   4  -1   7   61.96    4.31
   4  -1   7   56.08    3.66
   4  -1   7   53.40    4.30
   4  -1   7   57.57    3.96
   4  -1   7   62.05    4.66
   4  -1   7   65.13    4.30
   4  -1   8  477.79   12.03
   4  -1   8  498.98   13.40
   4  -1   8  453.42   13.98
   4  -1   8  496.64   14.35
   4  -1   9   66.10    3.54
   4  -1   9   63.82    4.31
   4  -1   9   73.16    4.29
   4  -1   9   67.25    4.51
   4  -1  10   25.46    2.21
   4  -1  11   46.06    2.42
   4   0  -9   63.25    3.05
   4   0  -8    5.02    1.12
   4   0  -7  486.07   13.75
   4   0  -7  519.16   14.05
   4   0  -6    8.42    1.82
   4   0  -6    7.84    1.50
   4   0  -6    7.30    1.43
   4   0  -5  114.28    6.34
   4   0  -5   95.16    5.09
   4   0  -5  119.13    5.63
   4   0  -5  112.36    6.46
   4   0  -4  181.41    7.85
   4   0  -4  198.86    7.32
   4   0  -4  185.38    8.15
   4   0  -3  200.31    7.76
   4   0  -3  183.74    6.28
   4   0  -3  202.40    7.23
   4   0  -3  188.90    7.83
   4   0  -2   75.07    4.28
   4   0  -2   71.38    3.77
   4   0  -2   65.97    3.43
   4   0  -2   71.14    4.34
   4   0  -1  348.72    9.51
   4   0  -1  365.35    9.41
   4   0  -1  375.31    9.12
   4   0  -1  348.12    9.79
   4   0  -1  365.75   10.03
   4   0  -1  340.19    7.94
   4   0  -1  341.04    8.44
   4   0   0  121.45    4.72
   4   0   0  123.65    4.88
   4   0   0  108.54    4.65
   4   0   0  107.73    4.67
   4   0   0  127.46    5.04
   4   0   0  111.05    4.24
   4   0   0  112.98    4.42
   4   0   1  364.76    9.54
   4   0   1  348.96    8.14
   4   0   1  365.78    9.36
   4   0   1  361.95    9.34
   4   0   1  357.62    8.91
   4   0   1  335.14    8.54
   4   0   1  370.05    9.07
   4   0   1  379.69    9.29
   4   0   2  601.75   13.38
   4   0   2  575.70   12.35
   4   0   2  590.42   12.98
   4   0   2  580.77   13.23
   4   0   2  599.73   13.65
   4   0   2  621.10   13.15
   4   0   2  576.47   12.99
   4   0   3  912.81   18.69
   4   0   3  961.57   18.81
   4   0   3  929.91   18.14
   4   0   3  944.34   17.81
   4   0   3  893.56   17.96
   4   0   3  907.74   18.39
   4   0   3  928.93   18.11
   4   0   3  892.24   17.21
   4   0   3  951.30   19.04
   4   0   3  944.71   18.54
   4   0   4  119.90    5.44
   4   0   4  138.88    5.79
   4   0   4  125.22    5.52
   4   0   4  136.53    5.06
   4   0   4  128.77    5.38
   4   0   4  133.35    5.67
   4   0   4  126.03    5.20
   4   0   4  130.46    5.40
   4   0   4  139.62    5.95
   4   0   4  131.05    5.61
   4   0   4  131.15    5.75
   4   0   5  141.85    6.01
   4   0   5  143.14    6.25
   4   0   5  143.11    6.31
   4   0   5  137.94    5.61
   4   0   5  134.77    4.91
   4   0   5  125.69    4.73
   4   0   5  139.59    5.83
   4   0   5  134.61    5.37
   4   0   5  149.59    6.21
   4   0   5  140.48    5.77
   4   0   5  145.82    6.23
   4   0   5  144.48    6.27
   4   0   5  137.96    6.44
   4   0   5  145.90    6.13
   4   0   6  422.39   10.33
   4   0   6  508.58   13.59
   4   0   6  475.65   12.96
   4   0   6  457.40   11.54
   4   0   6  463.25   12.33
   4   0   6  468.96   12.20
   4   0   6  496.92   12.69
   4   0   6  437.53   10.83
   4   0   6  479.48   12.77
   4   0   6  464.89   13.13
   4   0   6  471.44   12.04
   4   0   6  449.03   12.63
   4   0   6  476.19   12.70
   4   0   6  476.77   13.66
   4   0   6  477.85   12.68
   4   0   7  530.15   14.84
   4   0   7  543.46   14.13
   4   0   7  536.60   14.49
   4   0   7  562.07   14.00
   4   0   7  517.05   13.33
   4   0   7  547.27   13.90
   4   0   7  530.63   15.00
   4   0   7  519.94   13.92
   4   0   7  523.28   13.80
   4   0   7  557.28   15.41
   4   0   7  540.08   14.07
   4   0   8  435.76   10.84
   4   0   8  459.41   12.98
   4   0   8  452.24   12.29
   4   0   8  437.81   11.69
   4   0   8  444.10   12.07
   4   0   8  424.67   13.37
   4   0   8  429.06   12.03
   4   0   8  438.82   13.48
   4   0   8  454.30   12.44
   4   0   9  293.72    7.88
   4   0   9  329.91   10.60
   4   0   9  355.38   10.54
   4   0   9  321.32    9.57
   4   0   9  347.40   11.03
   4   0   9  314.39    9.66
   4   0  10   50.51    3.08
   4   0  10   51.05    3.50
   4   0  11   65.90    2.94
   4   0  11   63.34    3.01
   4   1  -9   79.57    3.41
   4   1  -8    9.36    1.48
   4   1  -8   10.46    1.73
   4   1  -7   52.61    4.02
   4   1  -7   52.76    3.79
   4   1  -6  130.53    6.87
   4   1  -6  138.69    6.53
   4   1  -6  130.86    5.99
   4   1  -6  137.96    7.08
   4   1  -5   85.74    5.52
   4   1  -5   77.64    4.77
   4   1  -5   88.09    5.11
   4   1  -5   91.25    4.99
   4   1  -5   78.95    4.59
   4   1  -5   83.92    5.60
   4   1  -5   83.63    5.56
   4   1  -4    6.29    1.60
   4   1  -4    6.60    1.45
   4   1  -4    5.85    1.46
   4   1  -4    6.11    1.16
   4   1  -4    7.23    1.45
   4   1  -4   10.04    2.00
   4   1  -3  167.31    7.33
   4   1  -3  176.28    6.16
   4   1  -3  169.42    5.69
   4   1  -3  172.17    7.56
   4   1  -3  168.87    7.54
   4   1  -3  152.76    5.51
   4   1  -2  447.98   12.25
   4   1  -2  444.97   10.93
   4   1  -2  444.68   10.61
   4   1  -2  461.85   12.45
   4   1  -2  450.71   12.48
   4   1  -2  427.65   10.43
   4   1  -1  294.24    9.06
   4   1  -1  298.21    8.39
   4   1  -1  291.45    8.18
   4   1  -1  302.35    9.32
   4   1  -1  303.37    9.38
   4   1  -1  294.71    8.21
   4   1   0    5.58    1.15
   4   1   0    5.57    1.14
   4   1   0    4.44    0.97
   4   1   0    6.10    1.27
   4   1   0    4.14    1.04
   4   1   0    4.24    0.87
   4   1   0    4.13    0.95
   4   1   1 2278.56   37.92
   4   1   1 2332.44   38.03
   4   1   1 2372.56   39.24
   4   1   1 2444.69   38.48
   4   1   1 2387.23   38.15
   4   1   1 2302.10   37.29
   4   1   1 2384.44   38.29
   4   1   2  230.63    6.94
   4   1   2  236.77    7.47
   4   1   2  231.07    6.63
   4   1   2  234.84    7.02
   4   1   2  252.55    7.84
   4   1   2  228.36    7.65
   4   1   2  242.06    7.94
   4   1   2  236.68    7.27
   4   1   2  216.61    6.83
   4   1   2  228.45    7.11
   4   1   2  239.71    7.55
   4   1   3  939.74   19.63
   4   1   3  927.86   17.95
   4   1   3  898.67   17.57
   4   1   3  921.35   18.96
   4   1   3  995.08   19.24
   4   1   3  911.45   18.10
   4   1   3  905.71   19.17
   4   1   3  926.82   18.44
   4   1   3  939.19   18.84
   4   1   4   27.30    2.75
   4   1   4   28.52    2.55
   4   1   4   29.42    2.60
   4   1   4   28.10    2.18
   4   1   4   31.53    2.77
   4   1   4   27.75    2.36
   4   1   4   27.11    2.33
   4   1   4   30.76    2.86
   4   1   4   29.82    2.63
   4   1   4   28.98    2.64
   4   1   4   33.59    2.64
   4   1   4   29.58    2.67
   4   1   5   25.84    2.69
   4   1   5   24.07    2.43
   4   1   5   27.57    2.70
   4   1   5   29.49    2.78
   4   1   5   23.82    1.92
   4   1   5   24.62    2.58
   4   1   5   26.14    2.26
   4   1   5   27.15    2.59
   4   1   5   24.25    2.47
   4   1   5   25.72    2.26
   4   1   5   30.36    2.91
   4   1   5   19.97    2.44
   4   1   5   26.46    2.48
   4   1   6  485.88   13.47
   4   1   6  482.49   12.90
   4   1   6  513.53   13.93
   4   1   6  513.61   13.70
   4   1   6  457.13   11.11
   4   1   6  489.42   12.48
   4   1   6  498.27   13.40
   4   1   6  517.14   12.81
   4   1   6  464.03   11.09
   4   1   6  528.12   13.36
   4   1   6  478.50   13.38
   4   1   6  493.47   11.99
   4   1   6  513.61   14.09
   4   1   6  510.79   13.40
   4   1   6  509.73   14.17
   4   1   6  509.44   12.84
   4   1   7  164.16    7.52
   4   1   7  149.70    6.58
   4   1   7  173.88    6.76
   4   1   7  166.69    7.22
   4   1   7  163.04    6.58
   4   1   7  157.93    7.40
   4   1   7  167.11    7.46
   4   1   7  157.40    6.88
   4   1   7  168.68    7.83
   4   1   7  156.18    6.64
   4   1   8  157.53    6.76
   4   1   8  162.40    7.52
   4   1   8  174.70    6.78
   4   1   8  172.55    7.24
   4   1   8  170.96    6.67
   4   1   8  162.51    7.67
   4   1   8  171.99    7.49
   4   1   8  178.11    7.99
   4   1   8  171.80    6.89
   4   1   9   27.38    2.45
   4   1   9   30.46    2.74
   4   1   9   28.32    2.75
   4   1   9   30.04    3.07
   4   1   9   24.95    2.85
   4   1   9   21.74    2.32
   4   1  10  141.68    5.89
   4   1  11   23.19    1.65
   4   1  11   43.74    2.47
   4   2  -8   72.22    3.73
   4   2  -8   86.39    4.37
   4   2  -7   10.12    1.76
   4   2  -7    6.32    1.59
   4   2  -7    8.35    1.69
   4   2  -6   90.23    5.55
   4   2  -6   93.63    5.33
   4   2  -6   90.53    4.90
   4   2  -5   23.19    2.95
   4   2  -5   17.24    2.37
   4   2  -5   28.06    2.98
   4   2  -5   22.85    2.55
   4   2  -5   18.99    2.73
   4   2  -4  424.16   13.21
   4   2  -4  421.96   12.47
   4   2  -4  435.39   12.39
   4   2  -4  421.47   10.74
   4   2  -4  410.78   13.32
   4   2  -4  453.45   13.75
   4   2  -3    4.93    1.45
   4   2  -3    3.48    1.08
   4   2  -3    4.75    1.07
   4   2  -3    4.51    1.16
   4   2  -3    5.13    1.05
   4   2  -3    5.46    1.53
   4   2  -3    5.59    1.51
   4   2  -3    5.42    1.15
   4   2  -2  106.09    5.67
   4   2  -2  108.41    4.89
   4   2  -2  105.97    5.50
   4   2  -2  101.63    4.82
   4   2  -2   98.21    4.54
   4   2  -2  100.35    5.67
   4   2  -2   99.18    5.60
   4   2  -2  100.40    4.81
   4   2  -1   78.27    4.64
   4   2  -1   78.94    4.10
   4   2  -1   82.23    4.57
   4   2  -1   79.65    4.01
   4   2  -1   71.99    3.92
   4   2  -1   81.63    4.89
   4   2  -1   83.45    4.90
   4   2  -1   79.10    4.21
   4   2   0  192.18    7.21
   4   2   0  172.28    6.23
   4   2   0  182.05    6.05
   4   2   0  163.11    6.09
   4   2   0  177.69    7.13
   4   2   0  179.96    7.12
   4   2   0  178.73    5.66
   4   2   0  185.13    6.60
   4   2   1 1230.38   23.38
   4   2   1 1208.88   23.44
   4   2   1 1238.52   23.62
   4   2   1 1208.43   23.36
   4   2   1 1169.22   22.19
   4   2   1 1227.95   23.80
   4   2   1 1165.00   23.30
   4   2   1 1175.23   21.73
   4   2   1 1264.57   22.88
   4   2   2  279.21    8.75
   4   2   2  293.75    8.62
   4   2   2  278.31    7.57
   4   2   2  282.61    8.77
   4   2   2  284.17    8.12
   4   2   2  290.40    9.17
   4   2   2  289.15    9.06
   4   2   2  285.90    9.21
   4   2   2  280.38    8.91
   4   2   2  274.71    8.75
   4   2   2  283.28    8.28
   4   2   2  302.86    8.93
   4   2   3  163.98    6.34
   4   2   3  167.47    7.10
   4   2   3  177.75    6.51
   4   2   3  155.44    5.89
   4   2   3  167.02    5.80
   4   2   3  168.51    6.88
   4   2   3  167.94    6.81
   4   2   3  171.68    6.18
   4   2   3  166.71    6.93
   4   2   3  169.68    6.59
   4   2   3  153.06    6.21
   4   2   3  176.21    6.51
   4   2   3  169.99    5.95
   4   2   3  175.95    6.65
   4   2   4   86.30    4.46
   4   2   4   84.91    5.04
   4   2   4   87.19    4.50
   4   2   4   84.11    4.55
   4   2   4   77.95    3.76
   4   2   4   87.19    4.95
   4   2   4   90.51    4.36
   4   2   4   79.48    3.66
   4   2   4   88.89    5.09
   4   2   4   81.66    4.44
   4   2   4   85.85    4.62
   4   2   4   85.48    4.64
   4   2   4   89.28    4.28
   4   2   5    6.11    1.23
   4   2   5    4.97    1.35
   4   2   5    7.68    1.48
   4   2   5    6.01    1.27
   4   2   5    4.86    1.31
   4   2   5    8.24    1.33
   4   2   5    6.32    1.04
   4   2   5    6.59    1.52
   4   2   5    5.52    1.23
   4   2   5    6.12    1.17
   4   2   5    7.21    1.17
   4   2   5    8.43    1.68
   4   2   5    5.45    1.40
   4   2   5    5.66    1.35
   4   2   5    5.83    1.34
   4   2   6  199.58    8.33
   4   2   6  182.80    7.07
   4   2   6  189.51    7.92
   4   2   6  190.37    7.56
   4   2   6  174.60    6.45
   4   2   6  193.81    8.05
   4   2   6  187.98    6.81
   4   2   6  186.66    7.19
   4   2   6  184.85    8.15
   4   2   6  199.56    7.83
   4   2   6  191.83    8.10
   4   2   6  185.27    6.80
   4   2   6  182.50    7.49
   4   2   7   96.07    5.71
   4   2   7   76.45    4.44
   4   2   7   90.01    5.17
   4   2   7   84.59    4.36
   4   2   7   91.95    5.50
   4   2   7   88.72    4.47
   4   2   7   94.05    5.69
   4   2   7   85.18    5.04
   4   2   7   91.94    5.47
   4   2   7   88.40    5.54
   4   2   7   80.75    4.39
   4   2   7   82.46    4.91
   4   2   8  259.50    9.43
   4   2   8  274.09   10.02
   4   2   8  293.00    9.65
   4   2   8  262.58    8.07
   4   2   8  267.22    9.61
   4   2   8  289.52   10.21
   4   2   8  272.27    9.89
   4   2   8  293.69   10.36
   4   2   8  259.58    8.25
   4   2   9    3.29    1.01
   4   2   9    4.57    1.22
   4   2   9    3.06    0.78
   4   2   9    3.95    1.16
   4   2   9    2.58    1.02
   4   2   9    4.16    1.25
   4   2   9    4.35    1.34
   4   2  10    2.55    0.74
   4   2  10    3.93    0.98
   4   2  10    2.19    0.86
   4   2  10    2.77    1.00
   4   3  -8   80.64    3.57
   4   3  -8   79.01    3.56
   4   3  -8   84.78    3.92
   4   3  -7  103.57    5.01
   4   3  -7  110.62    5.49
   4   3  -7   99.01    5.09
   4   3  -6   58.59    4.35
   4   3  -6   57.55    4.14
   4   3  -6   65.26    4.65
   4   3  -6   60.12    4.39
   4   3  -5  127.21    6.46
   4   3  -5  134.39    7.03
   4   3  -5  141.85    6.22
   4   3  -5  127.33    6.83
   4   3  -4  173.68    8.10
   4   3  -4  178.95    7.67
   4   3  -4  160.97    6.22
   4   3  -4  175.87    8.14
   4   3  -4  174.43    6.98
   4   3  -4  159.27    7.94
   4   3  -4  166.83    6.77
   4   3  -3  633.26   17.07
   4   3  -3  618.78   15.69
   4   3  -3  637.91   14.12
   4   3  -3  654.01   14.81
   4   3  -3  641.93   16.90
   4   3  -3  632.19   14.85
   4   3  -3  613.24   14.01
   4   3  -3  610.82   17.00
   4   3  -3  639.39   17.14
   4   3  -3  614.42   15.09
   4   3  -2  110.78    6.13
   4   3  -2  105.22    5.38
   4   3  -2  105.32    4.97
   4   3  -2  108.41    5.11
   4   3  -2  106.24    5.93
   4   3  -2  102.86    4.87
   4   3  -2  105.24    4.94
   4   3  -2  106.58    6.08
   4   3  -2   97.48    5.89
   4   3  -2   96.20    5.09
   4   3  -1  187.72    6.74
   4   3  -1  206.82    8.38
   4   3  -1  202.63    7.14
   4   3  -1  194.50    8.25
   4   3  -1  206.14    8.14
   4   3  -1  198.83    6.68
   4   3  -1  188.39    6.95
   4   3  -1  194.34    7.53
   4   3  -1  221.54    8.72
   4   3  -1  193.90    8.26
   4   3  -1  208.33    7.56
   4   3   0   77.27    4.84
   4   3   0   74.31    4.14
   4   3   0   70.05    4.73
   4   3   0   71.17    4.45
   4   3   0   70.07    3.53
   4   3   0   72.38    4.43
   4   3   0   78.99    4.25
   4   3   0   72.22    4.38
   4   3   0   78.37    4.95
   4   3   0   76.77    4.92
   4   3   0   72.69    3.61
   4   3   0   77.37    4.41
   4   3   1   43.54    3.63
   4   3   1   41.86    3.00
   4   3   1   42.49    3.58
   4   3   1   38.78    3.17
   4   3   1   41.24    3.35
   4   3   1   38.99    2.40
   4   3   1   43.85    3.41
   4   3   1   42.10    3.08
   4   3   1   41.28    3.33
   4   3   1   46.43    3.71
   4   3   1   46.61    3.73
   4   3   1   36.07    2.69
   4   3   1   44.73    3.30
   4   3   2  334.56   10.60
   4   3   2  341.92    9.34
   4   3   2  329.07   10.54
   4   3   2  326.66   10.40
   4   3   2  321.50    9.45
   4   3   2  338.78   10.44
   4   3   2  317.80   10.52
   4   3   2  312.89   10.43
   4   3   2  328.57    9.51
   4   3   3  190.99    7.75
   4   3   3  201.63    8.26
   4   3   3  194.84    7.04
   4   3   3  206.42    7.07
   4   3   3  206.52    6.85
   4   3   3  200.84    7.88
   4   3   3  210.35    8.10
   4   3   3  203.79    7.12
   4   3   3  201.56    8.01
   4   3   3  200.02    8.00
   4   3   3  194.42    7.85
   4   3   3  209.66    7.53
   4   3   3  196.73    6.22
   4   3   3  195.61    7.45
   4   3   4   21.65    2.55
   4   3   4   23.09    2.77
   4   3   4   23.50    2.31
   4   3   4   23.21    2.44
   4   3   4   23.84    2.33
   4   3   4   22.47    2.35
   4   3   4   24.11    2.13
   4   3   4   23.69    2.71
   4   3   4   22.45    2.25
   4   3   4   26.19    2.42
   4   3   4   25.07    2.78
   4   3   4   24.00    2.55
   4   3   4   28.95    2.79
   4   3   4   25.60    2.11
   4   3   4   26.52    2.67
   4   3   5  287.38   10.40
   4   3   5  259.13    8.43
   4   3   5  277.62    9.52
   4   3   5  269.65    8.70
   4   3   5  267.62    8.27
   4   3   5  282.35   10.01
   4   3   5  264.16    7.81
   4   3   5  260.27    8.05
   4   3   5  286.61    8.71
   4   3   5  264.45    9.31
   4   3   5  272.14    9.43
   4   3   5  266.52    9.43
   4   3   5  271.90    7.74
   4   3   5  268.06    9.15
   4   3   6   45.50    4.01
   4   3   6   43.94    3.71
   4   3   6   38.02    2.98
   4   3   6   36.10    3.08
   4   3   6   42.38    3.75
   4   3   6   36.01    2.61
   4   3   6   43.58    3.20
   4   3   6   43.86    3.90
   4   3   6   43.72    3.64
   4   3   6   43.26    3.78
   4   3   6   37.42    3.23
   4   3   7  287.75   10.23
   4   3   7  272.16    9.04
   4   3   7  261.82    9.89
   4   3   7  279.07   10.39
   4   3   7  260.74    9.41
   4   3   7  280.79    9.81
   4   3   7  275.12   10.04
   4   3   8  743.94   18.29
   4   3   8  761.13   18.51
   4   3   8  813.69   17.14
   4   3   8  758.05   18.34
   4   3   8  790.74   18.94
   4   3   8  771.20   18.14
   4   3   8  813.76   18.70
   4   3   9  279.31    8.94
   4   3   9  281.92    8.26
   4   3   9  276.44    8.98
   4   3   9  282.11    9.32
   4   3   9  271.08    8.77
   4   3   9  286.17    9.34
   4   3  10   16.96    1.71
   4   3  10   18.89    1.63
   4   4  -7   38.95    2.76
   4   4  -7   36.80    2.64
   4   4  -7   38.60    2.91
   4   4  -6   78.00    4.57
   4   4  -6   83.28    4.77
   4   4  -6   82.74    4.95
   4   4  -6   79.64    4.69
   4   4  -5  173.67    7.74
   4   4  -5  171.11    7.40
   4   4  -5  176.86    7.82
   4   4  -5  171.35    7.83
   4   4  -5  157.20    7.45
   4   4  -4  236.98    9.07
   4   4  -4  210.91    7.38
   4   4  -4  238.34    9.62
   4   4  -4  227.24    7.85
   4   4  -4  207.61    7.27
   4   4  -4  223.60    9.34
   4   4  -3  220.73    9.35
   4   4  -3  206.22    8.26
   4   4  -3  211.15    7.16
   4   4  -3  214.27    8.62
   4   4  -3  205.13    7.55
   4   4  -3  212.24    9.11
   4   4  -3  212.45    7.47
   4   4  -3  203.48    7.22
   4   4  -3  194.88    7.32
   4   4  -3  205.01    8.03
   4   4  -3  217.41    7.09
   4   4  -2   34.49    3.59
   4   4  -2   34.62    3.32
   4   4  -2   33.29    2.86
   4   4  -2   32.87    2.91
   4   4  -2   40.14    3.91
   4   4  -2   30.34    3.36
   4   4  -2   37.85    2.86
   4   4  -2   32.83    2.89
   4   4  -2   33.03    2.92
   4   4  -2   32.83    3.53
   4   4  -2   38.59    3.86
   4   4  -2   32.44    2.84
   4   4  -2   38.02    3.33
   4   4  -2   32.66    2.78
   4   4  -1   56.05    4.52
   4   4  -1   57.05    4.07
   4   4  -1   55.20    3.79
   4   4  -1   50.11    3.61
   4   4  -1   47.41    4.21
   4   4  -1   54.35    4.36
   4   4  -1   53.21    3.19
   4   4  -1   49.56    3.76
   4   4  -1   54.32    3.70
   4   4  -1   50.09    3.70
   4   4  -1   53.35    4.48
   4   4  -1   50.70    4.35
   4   4  -1   52.39    3.72
   4   4  -1   49.36    3.77
   4   4  -1   52.84    3.63
   4   4   0  107.23    5.31
   4   4   0  102.95    6.16
   4   4   0  104.86    5.71
   4   4   0  104.77    5.32
   4   4   0  104.29    6.20
   4   4   0   98.78    5.80
   4   4   0  102.73    5.69
   4   4   0  106.86    5.60
   4   4   0  106.38    5.25
   4   4   0  105.20    5.44
   4   4   0  107.25    6.33
   4   4   0  101.69    6.16
   4   4   0   99.10    5.35
   4   4   1  149.81    7.41
   4   4   1  145.32    6.92
   4   4   1  145.59    6.32
   4   4   1  151.24    6.24
   4   4   1  146.61    7.38
   4   4   1  142.78    6.83
   4   4   1  154.89    7.00
   4   4   1  141.49    6.54
   4   4   1  153.46    6.36
   4   4   1  142.66    6.52
   4   4   1  145.64    7.37
   4   4   1  135.64    7.16
   4   4   1  133.50    5.69
   4   4   2  277.52   10.27
   4   4   2  266.90    9.85
   4   4   2  260.42    8.38
   4   4   2  272.97    9.07
   4   4   2  267.79    8.58
   4   4   2  269.58   10.11
   4   4   2  268.88    9.48
   4   4   2  272.29    9.44
   4   4   2  279.85    8.94
   4   4   2  286.60    9.74
   4   4   2  281.96   10.49
   4   4   2  271.35   10.26
   4   4   2  255.60    8.61
   4   4   2  272.87    9.24
   4   4   3  335.44   11.57
   4   4   3  346.24   11.58
   4   4   3  315.20    9.38
   4   4   3  349.62   10.35
   4   4   3  348.24    9.75
   4   4   3  328.00   10.42
   4   4   3  331.14    9.91
   4   4   3  354.84   11.28
   4   4   3  338.24   11.65
   4   4   3  348.43   10.57
   4   4   3  338.85   10.45
   4   4   4 1647.81   32.19
   4   4   4 1593.79   28.79
   4   4   4 1704.20   30.42
   4   4   4 1737.69   30.21
   4   4   4 1602.83   28.42
   4   4   4 1648.76   29.54
   4   4   4 1615.81   28.42
   4   4   4 1725.60   32.10
   4   4   4 1701.22   32.73
   4   4   4 1543.92   30.06
   4   4   4 1716.26   31.14
   4   4   4 1629.98   30.47
   4   4   5  195.71    7.92
   4   4   5  190.83    6.88
   4   4   5  176.89    6.54
   4   4   5  186.11    6.39
   4   4   5  197.48    8.46
   4   4   5  164.13    6.77
   4   4   5  195.40    8.36
   4   4   5  204.76    8.12
   4   4   5  190.51    7.43
   4   4   6   11.97    1.60
   4   4   6    9.35    1.82
   4   4   6   12.15    2.08
   4   4   6    8.99    1.91
   4   4   6   11.05    1.94
   4   4   6    8.82    1.59
   4   4   7  274.19    9.67
   4   4   7  244.51    7.61
   4   4   7  271.56    9.74
   4   4   8  587.95   12.72
   4   4   8  606.19   12.65
   4   4   9   35.12    2.80
   4   4   9   39.13    2.91
   4   4   9   32.96    2.77
   4   4  10   20.52    1.65
   4   5  -6   93.90    4.38
   4   5  -6   94.40    4.31
   4   5  -6   88.69    4.53
   4   5  -6   84.25    3.59
   4   5  -5  109.53    5.43
   4   5  -5  114.05    5.57
   4   5  -5  106.80    5.67
   4   5  -5  102.45    4.74
   4   5  -5  105.00    5.40
   4   5  -4  154.83    7.31
   4   5  -4  177.06    7.44
   4   5  -4  175.54    7.73
   4   5  -4  170.22    7.79
   4   5  -4  148.89    5.64
   4   5  -4  147.59    7.19
   4   5  -3   47.07    4.15
   4   5  -3   49.18    3.16
   4   5  -3   46.19    3.89
   4   5  -3   47.53    3.45
   4   5  -3   47.18    4.14
   4   5  -3   49.45    4.31
   4   5  -3   49.45    3.77
   4   5  -3   45.64    3.25
   4   5  -3   52.05    4.37
   4   5  -3   52.96    3.38
   4   5  -2  193.15    7.16
   4   5  -2  204.48    7.37
   4   5  -2  202.43    8.39
   4   5  -2  190.76    7.48
   4   5  -2  192.31    8.77
   4   5  -2  204.15    8.14
   4   5  -2  191.03    7.36
   4   5  -2  197.27    7.39
   4   5  -2  196.55    7.99
   4   5  -2  206.47    7.46
   4   5  -1  100.54    6.26
   4   5  -1  101.61    5.31
   4   5  -1  109.47    5.44
   4   5  -1  104.72    5.87
   4   5  -1  109.56    5.51
   4   5  -1  104.83    6.43
   4   5  -1  105.33    6.33
   4   5  -1   98.02    5.58
   4   5  -1  102.71    5.33
   4   5  -1   97.99    5.18
   4   5  -1   92.65    4.72
   4   5  -1  101.13    5.37
   4   5  -1   97.06    6.31
   4   5  -1   97.17    5.48
   4   5  -1  111.99    5.52
   4   5   0  164.41    8.19
   4   5   0  172.70    7.33
   4   5   0  173.26    7.12
   4   5   0  165.17    7.31
   4   5   0  172.01    8.34
   4   5   0  185.03    8.42
   4   5   0  175.27    7.61
   4   5   0  167.38    6.98
   4   5   0  169.71    7.05
   4   5   0  157.56    6.55
   4   5   0  154.88    6.91
   4   5   0  167.05    8.36
   4   5   0  173.61    8.51
   4   5   0  171.25    7.35
   4   5   0  171.07    7.15
   4   5   1  194.86    7.77
   4   5   1  198.38    9.04
   4   5   1  192.35    8.01
   4   5   1  185.43    7.52
   4   5   1  194.19    7.79
   4   5   1  192.81    7.50
   4   5   1  188.33    8.73
   4   5   1  212.77    8.96
   4   5   1  199.42    8.21
   4   5   1  195.13    7.59
   4   5   1  191.56    7.81
   4   5   1  212.82    9.38
   4   5   1  193.82    9.04
   4   5   1  190.36    7.74
   4   5   2   20.56    2.49
   4   5   2   19.15    2.76
   4   5   2   19.54    2.56
   4   5   2   20.60    2.31
   4   5   2   20.91    2.74
   4   5   2   23.24    2.76
   4   5   2   21.69    2.43
   4   5   2   21.44    2.50
   4   5   2   21.46    2.95
   4   5   2   18.87    2.79
   4   5   2   19.69    2.39
   4   5   3   98.10    6.17
   4   5   3   97.95    5.83
   4   5   3  104.18    5.38
   4   5   3   98.34    4.88
   4   5   3   97.21    5.71
   4   5   3   92.74    4.96
   4   5   3   93.02    5.41
   4   5   3   94.71    5.33
   4   5   3  101.41    6.29
   4   5   3  100.04    5.33
   4   5   4  610.25   16.77
   4   5   4  619.80   16.49
   4   5   4  613.44   14.59
   4   5   4  563.50   13.14
   4   5   4  624.05   16.14
   4   5   4  588.00   14.07
   4   5   4  552.64   14.52
   4   5   4  603.37   15.68
   4   5   4  611.22   16.92
   4   5   4  575.69   14.46
   4   5   5  289.59   10.53
   4   5   5  284.07    8.63
   4   5   5  291.01   10.22
   4   5   5  272.55    9.93
   4   5   5  281.29   10.53
   4   5   6  143.92    6.82
   4   5   6  145.86    6.82
   4   5   7    9.56    1.41
   4   5   7   10.13    1.75
   4   5   7   11.39    1.84
   4   5   8   14.52    1.37
   4   5   8   16.07    2.00
   4   5   8   16.11    1.95
   4   5   8   18.30    2.08
   4   5   9   22.14    1.92
   4   6  -5  140.02    5.26
   4   6  -5  139.96    5.10
   4   6  -5  150.12    5.79
   4   6  -4    9.47    1.60
   4   6  -4    9.36    1.61
   4   6  -4   12.28    1.88
   4   6  -3  115.12    6.00
   4   6  -3  109.95    4.32
   4   6  -3  108.35    5.57
   4   6  -3  118.63    6.00
   4   6  -3  118.26    6.20
   4   6  -3  109.28    4.81
   4   6  -3  104.74    5.68
   4   6  -3  120.93    4.88
   4   6  -2   12.35    2.15
   4   6  -2   11.06    1.59
   4   6  -2   12.80    2.06
   4   6  -2   11.88    1.79
   4   6  -2    8.46    1.81
   4   6  -2    9.58    2.00
   4   6  -2   10.82    1.67
   4   6  -2   10.24    1.98
   4   6  -2   10.59    1.66
   4   6  -1    9.73    1.67
   4   6  -1   10.70    1.93
   4   6  -1    9.73    1.66
   4   6  -1   10.23    2.08
   4   6  -1    8.14    1.56
   4   6  -1    8.46    1.91
   4   6  -1   12.10    1.84
   4   6   0  120.11    6.81
   4   6   0  105.02    4.98
   4   6   0  129.89    5.90
   4   6   0  127.76    6.32
   4   6   0  120.01    5.72
   4   6   0  118.48    6.74
   4   6   0  123.68    6.81
   4   6   0  123.58    5.92
   4   6   0  107.89    5.49
   4   6   0  120.00    5.79
   4   6   1   37.59    3.84
   4   6   1   39.28    3.18
   4   6   1   46.92    3.57
   4   6   1   35.86    3.28
   4   6   1   41.48    3.30
   4   6   1   42.70    3.94
   4   6   1   44.47    3.55
   4   6   1   44.51    4.23
   4   6   1   46.31    3.57
   4   6   2    8.16    1.63
   4   6   2    6.13    1.69
   4   6   2    7.65    1.56
   4   6   2    6.78    1.37
   4   6   2    6.58    1.67
   4   6   2    6.92    1.55
   4   6   2    5.01    1.29
   4   6   2    6.86    1.82
   4   6   3  137.60    6.21
   4   6   3  123.32    6.87
   4   6   3  126.68    6.14
   4   6   3  128.93    5.86
   4   6   3  115.96    5.19
   4   6   3  131.55    6.27
   4   6   3  111.83    5.32
   4   6   3  133.71    7.18
   4   6   4   62.55    3.96
   4   6   4   58.52    3.67
   4   6   4   57.00    4.02
   4   6   4   56.14    3.73
   4   6   4   51.01    4.30
   4   6   5  101.65    4.83
   4   6   5   94.21    4.26
   4   6   5   98.38    5.15
   4   6   5   94.52    4.81
   4   6   5   91.63    5.51
   4   6   6   16.82    1.79
   4   6   6   17.79    2.17
   4   6   6   15.96    2.00
   4   6   6   14.02    1.81
   4   6   7   79.46    4.13
   4   6   7   80.62    3.96
   4   6   7   70.84    2.94
   4   6   8   45.51    2.64
   4   6   8   43.99    2.45
   4   7  -4   40.33    2.56
   4   7  -3   26.82    2.23
   4   7  -3   28.86    2.53
   4   7  -2   93.31    3.78
   4   7  -2   87.60    4.39
   4   7  -2   91.37    4.92
   4   7  -2   92.81    4.06
   4   7  -1  229.87    7.06
   4   7  -1  228.33    7.75
   4   7  -1  218.08    8.28
   4   7  -1  216.58    8.19
   4   7  -1  238.72    7.41
   4   7   0  179.02    5.94
   4   7   0  170.93    6.22
   4   7   0  161.38    6.77
   4   7   0  154.61    6.67
   4   7   0  184.28    6.15
   4   7   1   20.34    2.12
   4   7   1   20.02    2.15
   4   7   2   46.33    3.83
   4   7   2   44.13    2.92
   4   7   2   51.85    4.05
   4   7   2   45.97    2.85
   4   7   3    7.46    1.36
   4   7   3    8.01    1.37
   4   7   3    5.97    1.11
   4   7   3    6.73    1.53
   4   7   4  163.67    5.11
   4   7   4  149.20    4.96
   4   7   4  152.06    6.38
   4   7   4  168.86    5.41
   4   7   5   18.87    1.75
   4   7   5   16.19    1.40
   4   7   5   14.69    1.53
   4   7   5   20.94    1.76
   4   7   6   21.86    1.70
   4   7   6   15.77    1.17
   4   8  -1  171.24    4.53
   4   8   0   58.86    2.74
   4   8   0   61.17    2.86
   4   8   1   73.38    3.21
   4   8   2  116.96    4.14
   4   8   2  113.14    4.04
   4   8   3   29.84    1.85
   4   8   3   33.17    1.93
   4   8   4   24.08    1.35
   4   8   4   22.59    1.43
   4   8   4   27.52    1.48
   5  -6   2   33.81    2.10
   5  -6   3    6.17    0.96
   5  -6   4   27.11    1.93
   5  -6   5   40.95    2.20
   5  -5   0  117.12    4.83
   5  -5   1   69.59    3.84
   5  -5   2   14.91    1.86
   5  -5   2   11.57    1.70
   5  -5   3  370.40   10.09
   5  -5   3  348.87    9.00
   5  -5   4   70.26    3.92
   5  -5   5   16.79    1.71
   5  -5   6    6.56    1.07
   5  -5   6    5.70    1.04
   5  -5   6    7.67    1.25
   5  -5   7   61.03    2.63
   5  -5   7   60.14    2.90
   5  -4  -2    6.42    1.19
   5  -4   0  647.12   15.01
   5  -4   1   63.19    4.06
   5  -4   2  173.49    6.88
   5  -4   2  178.15    7.14
   5  -4   2  189.39    6.99
   5  -4   2  178.55    6.48
   5  -4   3    8.92    1.47
   5  -4   3   10.11    1.72
   5  -4   3   10.35    1.64
   5  -4   4  269.55    8.90
   5  -4   4  262.70    8.98
   5  -4   4  263.48    8.28
   5  -4   4  247.57    7.51
   5  -4   4  267.18    8.51
   5  -4   4  253.31    7.96
   5  -4   5  153.43    6.23
   5  -4   5  142.23    6.35
   5  -4   5  146.27    5.77
   5  -4   5  137.84    5.30
   5  -4   5  150.45    6.01
   5  -4   5  139.12    5.57
   5  -4   6   65.15    3.71
   5  -4   6   70.96    3.85
   5  -4   6   62.61    3.48
   5  -4   6   59.39    3.82
   5  -4   7  120.76    4.71
   5  -4   7  116.99    4.43
   5  -4   7  115.42    4.52
   5  -4   7  124.10    5.21
   5  -4   8   70.06    3.04
   5  -4   8   63.30    2.67
   5  -4   8   73.84    3.42
   5  -3  -3  334.27    9.49
   5  -3  -2   36.69    2.93
   5  -3  -1   77.98    4.30
   5  -3   0  111.10    5.17
   5  -3   0  110.17    5.19
   5  -3   1  887.37   19.14
   5  -3   1  929.74   19.78
   5  -3   1  904.25   19.39
   5  -3   1  955.80   19.68
   5  -3   2  274.97    8.87
   5  -3   2  268.53    9.06
   5  -3   2  283.51    9.34
   5  -3   2  270.80    9.17
   5  -3   2  294.38    9.30
   5  -3   3  212.16    7.89
   5  -3   3  206.94    7.89
   5  -3   3  203.84    7.91
   5  -3   3  221.38    7.62
   5  -3   3  204.19    6.96
   5  -3   3  218.20    7.98
   5  -3   3  206.01    8.00
   5  -3   3  217.62    7.91
   5  -3   4  188.59    7.21
   5  -3   4  192.02    7.64
   5  -3   4  184.54    7.44
   5  -3   4  178.54    7.18
   5  -3   4  194.10    7.15
   5  -3   4  170.63    7.06
   5  -3   4  190.39    7.45
   5  -3   4  182.00    7.50
   5  -3   4  193.24    7.42
   5  -3   5  234.95    8.18
   5  -3   5  207.37    7.56
   5  -3   5  222.70    8.42
   5  -3   5  225.39    8.01
   5  -3   5  219.04    7.73
   5  -3   5  200.00    7.50
   5  -3   5  223.09    8.03
   5  -3   5  224.93    8.02
   5  -3   6   28.35    2.59
   5  -3   6   28.20    2.89
   5  -3   6   24.87    2.37
   5  -3   6   26.82    2.57
   5  -3   6   29.15    2.62
   5  -3   6   31.52    2.78
   5  -3   6   28.54    2.86
   5  -3   6   27.82    2.65
   5  -3   7   43.69    2.89
   5  -3   7   51.23    3.32
   5  -3   7   51.29    3.64
   5  -3   7   46.11    3.22
   5  -3   8  188.50    6.00
   5  -3   8  188.52    6.09
   5  -3   8  197.48    6.84
   5  -3   9  125.26    4.00
   5  -3   9  130.02    4.17
   5  -3   9  129.15    4.60
   5  -2  -5    8.46    1.57
   5  -2  -4  146.07    5.97
   5  -2  -4  150.47    6.53
   5  -2  -3  305.81    9.50
   5  -2  -2  145.83    6.03
   5  -2  -1  622.01   14.43
   5  -2  -1  574.31   13.90
   5  -2   0  676.11   15.36
   5  -2   0  614.63   14.21
   5  -2   1  362.52    9.91
   5  -2   1  375.10   10.82
   5  -2   1  370.82   10.39
   5  -2   1  349.86   10.26
   5  -2   2  284.24    8.87
   5  -2   2  292.48    8.88
   5  -2   2  295.00    9.58
   5  -2   2  297.61    9.48
   5  -2   2  314.97    9.91
   5  -2   3  393.24   11.03
   5  -2   3  379.19   11.00
   5  -2   3  399.26   11.55
   5  -2   3  409.96   11.17
   5  -2   3  395.19   11.51
   5  -2   3  404.60   11.67
   5  -2   4  118.99    5.70
   5  -2   4  114.63    5.74
   5  -2   4  113.82    5.52
   5  -2   4  110.56    5.43
   5  -2   4  113.84    5.58
   5  -2   4  119.52    5.84
   5  -2   4  111.16    5.76
   5  -2   4  129.86    6.10
   5  -2   4   99.92    5.15
   5  -2   5  479.96   12.89
   5  -2   5  489.68   13.19
   5  -2   5  502.00   13.55
   5  -2   5  450.79   12.69
   5  -2   5  445.30   11.89
   5  -2   5  502.82   13.09
   5  -2   5  456.39   12.29
   5  -2   5  484.55   12.71
   5  -2   5  480.87   12.94
   5  -2   5  468.89   13.09
   5  -2   5  498.76   13.23
   5  -2   6   23.20    2.34
   5  -2   6   25.70    2.84
   5  -2   6   26.86    2.71
   5  -2   6   24.41    2.59
   5  -2   6   30.63    2.86
   5  -2   6   21.18    2.24
   5  -2   6   23.98    2.53
   5  -2   6   25.40    2.79
   5  -2   6   27.34    2.75
   5  -2   7  111.51    4.76
   5  -2   7  127.13    6.18
   5  -2   7  115.34    5.49
   5  -2   7  122.21    5.65
   5  -2   7  130.72    5.78
   5  -2   7  124.55    6.09
   5  -2   7  126.09    5.81
   5  -2   8   38.58    2.68
   5  -2   8   37.77    2.79
   5  -2   8   36.97    2.79
   5  -2   8   37.61    3.08
   5  -2   8   28.18    2.54
   5  -2   9   11.71    1.28
   5  -2   9   13.91    1.53
   5  -2   9   10.58    1.51
   5  -2  10   46.07    2.29
   5  -1  -7    0.46    0.49
   5  -1  -6   24.11    2.55
   5  -1  -5  233.79    8.39
   5  -1  -5  236.96    8.73
   5  -1  -4   90.19    5.09
   5  -1  -4   93.04    4.93
   5  -1  -4   97.74    5.53
   5  -1  -3  110.84    5.60
   5  -1  -3  119.90    5.21
   5  -1  -3  133.14    6.09
   5  -1  -3  118.54    6.05
   5  -1  -2  216.03    7.55
   5  -1  -2  216.70    7.17
   5  -1  -2  213.28    7.98
   5  -1  -1  488.01   12.44
   5  -1  -1  496.76   12.22
   5  -1   0   28.75    2.59
   5  -1   0   35.88    3.00
   5  -1   0   37.53    3.01
   5  -1   0   34.07    2.89
   5  -1   1  111.40    5.24
   5  -1   1  101.88    5.20
   5  -1   1  102.05    4.99
   5  -1   1  105.22    5.21
   5  -1   1  103.82    5.36
   5  -1   1  104.84    4.95
   5  -1   2  133.96    5.94
   5  -1   2  134.94    5.89
   5  -1   2  139.06    5.79
   5  -1   2  132.84    6.01
   5  -1   2  145.17    6.31
   5  -1   2  144.06    6.10
   5  -1   2  125.26    5.45
   5  -1   3  118.49    5.66
   5  -1   3  113.77    5.30
   5  -1   3  116.86    5.42
   5  -1   3  115.12    5.53
   5  -1   3  110.34    5.52
   5  -1   3  125.42    5.94
   5  -1   3  102.22    5.16
   5  -1   4  297.78    9.75
   5  -1   4  309.99    9.76
   5  -1   4  300.21    9.11
   5  -1   4  311.48    9.88
   5  -1   4  294.23    9.39
   5  -1   4  299.70    9.59
   5  -1   4  297.87    9.40
   5  -1   4  300.76    9.87
   5  -1   4  285.55    9.19
   5  -1   4  304.14    9.99
   5  -1   4  283.07    9.41
   5  -1   5  151.79    6.75
   5  -1   5  148.42    6.79
   5  -1   5  138.82    6.51
   5  -1   5  136.29    6.22
   5  -1   5  137.24    5.59
   5  -1   5  124.65    5.44
   5  -1   5  160.10    6.86
   5  -1   5  135.63    5.98
   5  -1   5  143.77    6.49
   5  -1   5  143.88    6.36
   5  -1   5  144.98    6.62
   5  -1   5  143.03    6.55
   5  -1   5  143.49    6.54
   5  -1   5  136.19    6.40
   5  -1   6   36.86    2.86
   5  -1   6   42.88    3.55
   5  -1   6   43.71    3.67
   5  -1   6   40.85    3.48
   5  -1   6   50.92    3.74
   5  -1   6   35.35    2.85
   5  -1   6   43.31    3.46
   5  -1   6   41.64    3.33
   5  -1   6   44.75    3.63
   5  -1   6   45.33    3.72
   5  -1   6   45.25    3.58
   5  -1   7  244.54    9.07
   5  -1   7  255.29    8.94
   5  -1   7  237.56    8.40
   5  -1   7  249.87    9.17
   5  -1   7  236.12    8.49
   5  -1   8   39.16    2.71
   5  -1   8   38.75    3.32
   5  -1   8   41.89    3.22
   5  -1   8   46.71    3.59
   5  -1   9   38.00    2.23
   5  -1   9   43.68    2.89
   5  -1   9   45.60    2.87
   5  -1   9   44.23    3.16
   5  -1  10   71.28    3.00
   5  -1  10   72.79    2.99
   5  -1  10   76.89    3.37
   5   0  -7   11.05    1.46
   5   0  -6  272.62    9.16
   5   0  -5  100.76    5.55
   5   0  -5  109.76    5.94
   5   0  -4    4.01    1.28
   5   0  -4    3.36    1.09
   5   0  -4    3.77    1.34
   5   0  -3    2.58    1.07
   5   0  -3    3.16    0.99
   5   0  -3    1.55    0.76
   5   0  -3    1.96    0.92
   5   0  -3    2.45    1.09
   5   0  -3    1.42    0.95
   5   0  -2  118.37    5.84
   5   0  -2  122.64    5.54
   5   0  -2  118.94    5.19
   5   0  -2  120.28    6.12
   5   0  -2  125.72    6.26
   5   0  -1  318.87    9.60
   5   0  -1  344.14    9.96
   5   0  -1  308.58    9.35
   5   0  -1  314.47   10.02
   5   0   0   10.76    1.70
   5   0   0   12.45    1.86
   5   0   0   11.22    1.71
   5   0   0   11.02    1.70
   5   0   0   13.90    1.68
   5   0   1  200.18    7.42
   5   0   1  193.80    7.10
   5   0   1  197.40    7.53
   5   0   1  190.03    7.14
   5   0   1  195.42    7.74
   5   0   1  184.90    6.65
   5   0   1  179.82    6.64
   5   0   2  205.46    7.63
   5   0   2  199.32    7.19
   5   0   2  198.68    7.11
   5   0   2  202.24    7.57
   5   0   2  188.95    7.23
   5   0   2  193.63    7.72
   5   0   2  183.77    6.97
   5   0   2  185.90    7.03
   5   0   3  475.03   12.90
   5   0   3  474.31   12.72
   5   0   3  448.53   11.56
   5   0   3  471.06   12.01
   5   0   3  486.91   12.75
   5   0   3  449.52   12.15
   5   0   3  463.56   12.96
   5   0   3  461.63   12.36
   5   0   3  449.53   12.33
   5   0   4  174.60    7.20
   5   0   4  176.94    7.26
   5   0   4  167.28    6.81
   5   0   4  173.54    6.49
   5   0   4  171.10    6.83
   5   0   4  186.26    7.42
   5   0   4  168.88    7.24
   5   0   4  170.40    7.09
   5   0   4  176.59    7.13
   5   0   4  161.97    6.99
   5   0   5  132.82    6.06
   5   0   5  125.70    6.16
   5   0   5  116.99    5.91
   5   0   5  131.03    6.34
   5   0   5  130.74    5.85
   5   0   5  117.04    5.05
   5   0   5  122.60    5.59
   5   0   5  135.61    6.35
   5   0   5  129.56    5.83
   5   0   5  124.13    6.20
   5   0   5  126.88    6.19
   5   0   5  121.39    5.94
   5   0   5  124.40    6.01
   5   0   5  122.61    6.13
   5   0   6  184.98    7.82
   5   0   6  196.83    8.02
   5   0   6  172.88    6.76
   5   0   6  200.89    7.57
   5   0   6  197.76    7.65
   5   0   6  175.10    6.56
   5   0   6  192.07    7.69
   5   0   6  201.38    7.34
   5   0   6  186.49    7.60
   5   0   6  185.38    7.68
   5   0   6  186.04    7.82
   5   0   6  201.58    7.76
   5   0   6  184.23    7.72
   5   0   7  191.20    7.94
   5   0   7  178.48    7.53
   5   0   7  180.07    7.09
   5   0   7  190.70    7.35
   5   0   7  179.46    7.14
   5   0   7  190.13    7.94
   5   0   7  203.76    7.70
   5   0   8   96.20    4.08
   5   0   8  103.30    5.53
   5   0   8  105.73    5.32
   5   0   8  105.52    4.96
   5   0   8  102.86    4.95
   5   0   8  110.46    5.65
   5   0   8   99.76    5.01
   5   0   9   33.70    2.64
   5   0   9   31.11    2.38
   5   0   9   32.10    2.77
   5   0  10   30.19    2.08
   5   0  10   24.83    1.71
   5   0  10   28.52    2.13
   5   1  -7   20.08    1.92
   5   1  -6  161.06    6.43
   5   1  -6  151.02    6.67
   5   1  -5  120.54    6.17
   5   1  -5  119.34    5.86
   5   1  -5  113.56    6.15
   5   1  -4   66.35    4.68
   5   1  -4   64.44    4.37
   5   1  -4   67.57    4.29
   5   1  -4   62.25    4.67
   5   1  -3  451.12   13.29
   5   1  -3  430.16   12.44
   5   1  -3  455.97   11.62
   5   1  -3  452.47   12.54
   5   1  -3  412.99   13.17
   5   1  -3  435.77   13.37
   5   1  -2  248.55    9.23
   5   1  -2  264.81    8.55
   5   1  -2  266.81    8.99
   5   1  -2  242.79    7.98
   5   1  -2  240.53    9.34
   5   1  -2  269.02    9.90
   5   1  -1  223.68    8.31
   5   1  -1  237.88    8.10
   5   1  -1  230.33    8.10
   5   1  -1  224.26    7.71
   5   1  -1  224.61    8.63
   5   1  -1  215.49    8.43
   5   1  -1  210.42    7.28
   5   1   0   61.62    4.02
   5   1   0   61.20    4.07
   5   1   0   62.39    3.93
   5   1   0   65.35    4.01
   5   1   0   65.13    4.45
   5   1   0   58.41    4.05
   5   1   0   62.15    4.11
   5   1   0   61.86    3.82
   5   1   1  415.77   11.97
   5   1   1  456.74   12.45
   5   1   1  446.35   12.64
   5   1   1  469.58   11.90
   5   1   1  455.86   12.94
   5   1   1  427.36   11.73
   5   1   1  424.91   10.96
   5   1   1  442.39   11.79
   5   1   2  450.86   12.28
   5   1   2  451.99   11.51
   5   1   2  429.24   12.11
   5   1   2  426.68   12.35
   5   1   2  427.88   11.73
   5   1   2  450.26   12.77
   5   1   2  421.25   11.36
   5   1   2  419.87   11.80
   5   1   3  131.99    6.55
   5   1   3  138.48    6.32
   5   1   3  134.16    5.79
   5   1   3  133.67    6.24
   5   1   3  136.11    6.41
   5   1   3  135.32    5.99
   5   1   3  142.45    6.77
   5   1   3  139.54    6.16
   5   1   3  143.16    6.16
   5   1   3  135.40    6.26
   5   1   4  557.87   15.13
   5   1   4  554.95   13.87
   5   1   4  564.96   13.31
   5   1   4  570.76   14.52
   5   1   4  576.01   13.97
   5   1   4  578.82   13.53
   5   1   4  577.85   15.48
   5   1   4  588.06   14.72
   5   1   4  578.26   14.23
   5   1   4  576.05   14.84
   5   1   5  191.24    7.95
   5   1   5  168.16    7.28
   5   1   5  185.84    7.51
   5   1   5  197.37    7.92
   5   1   5  167.26    6.06
   5   1   5  193.07    7.60
   5   1   5  171.26    6.71
   5   1   5  178.09    6.64
   5   1   5  190.49    8.03
   5   1   5  180.11    7.52
   5   1   5  183.96    7.34
   5   1   5  188.57    7.40
   5   1   5  178.98    7.61
   5   1   6  359.50   11.16
   5   1   6  360.46   11.01
   5   1   6  363.21   11.30
   5   1   6  380.47   11.42
   5   1   6  346.47   10.16
   5   1   6  353.97   10.78
   5   1   6  367.96   10.73
   5   1   6  313.91    9.26
   5   1   6  343.57    9.69
   5   1   6  361.35   11.61
   5   1   6  354.01   11.11
   5   1   6  361.85   10.67
   5   1   6  344.33   11.08
   5   1   7   77.15    4.93
   5   1   7   83.60    4.98
   5   1   7   89.42    4.62
   5   1   7   88.74    4.82
   5   1   7   88.17    4.64
   5   1   7   84.51    5.09
   5   1   7   82.96    5.07
   5   1   7   81.33    4.56
   5   1   8  457.25   12.77
   5   1   8  461.50   11.30
   5   1   8  450.89   11.40
   5   1   8  453.75   11.32
   5   1   8  458.25   12.23
   5   1   8  472.87   12.85
   5   1   8  446.00   11.50
   5   1   9   70.13    3.35
   5   1   9   70.77    4.06
   5   1  10   62.69    3.16
   5   2  -7  105.81    4.45
   5   2  -7  100.14    4.17
   5   2  -6   61.22    3.81
   5   2  -6   60.03    4.01
   5   2  -5   42.17    3.62
   5   2  -5   49.13    3.76
   5   2  -5   47.03    3.89
   5   2  -4   69.44    4.84
   5   2  -4   68.24    4.62
   5   2  -4   67.19    4.22
   5   2  -4   68.83    4.91
   5   2  -3  995.54   22.55
   5   2  -3  995.41   21.77
   5   2  -3  983.97   19.31
   5   2  -3  979.43   20.01
   5   2  -3  980.46   21.61
   5   2  -3 1006.51   20.86
   5   2  -3  934.94   22.52
   5   2  -2  136.98    6.88
   5   2  -2  140.18    6.09
   5   2  -2  137.30    6.43
   5   2  -2  136.76    6.06
   5   2  -2  122.40    5.55
   5   2  -2  152.20    7.42
   5   2  -2  130.01    6.91
   5   2  -2  127.08    5.71
   5   2  -1   16.33    2.34
   5   2  -1   13.38    2.19
   5   2  -1   15.76    2.06
   5   2  -1   14.01    1.91
   5   2  -1   13.38    1.87
   5   2  -1   17.65    2.50
   5   2  -1   13.19    2.19
   5   2  -1   13.20    1.87
   5   2   0  100.71    5.58
   5   2   0  102.70    5.20
   5   2   0  103.19    5.71
   5   2   0  105.82    5.76
   5   2   0  103.34    4.95
   5   2   0  100.58    5.71
   5   2   0  103.66    5.21
   5   2   0  104.25    5.83
   5   2   0   92.04    5.49
   5   2   0   99.51    5.21
   5   2   1  679.69   16.59
   5   2   1  700.02   16.81
   5   2   1  713.71   17.27
   5   2   1  698.90   15.20
   5   2   1  732.94   17.63
   5   2   1  733.75   16.20
   5   2   1  718.83   17.76
   5   2   1  703.13   17.18
   5   2   1  675.57   16.70
   5   2   1  690.55   15.18
   5   2   1  700.29   16.49
   5   2   2  550.66   13.90
   5   2   2  577.73   15.55
   5   2   2  570.48   13.74
   5   2   2  568.51   15.01
   5   2   2  558.25   14.92
   5   2   2  583.99   15.45
   5   2   2  545.57   14.31
   5   2   2  536.76   13.45
   5   2   2  558.60   14.40
   5   2   3  152.27    7.32
   5   2   3  143.72    6.52
   5   2   3  139.96    5.93
   5   2   3  150.85    6.97
   5   2   3  155.70    7.10
   5   2   3  147.20    6.30
   5   2   3  164.20    7.49
   5   2   3  136.34    6.24
   5   2   3  147.49    6.12
   5   2   3  154.32    6.84
   5   2   4  796.08   18.93
   5   2   4  701.59   17.00
   5   2   4  688.97   16.06
   5   2   4  700.71   15.60
   5   2   4  770.10   18.07
   5   2   4  736.28   16.51
   5   2   4  758.65   17.15
   5   2   4  702.88   14.98
   5   2   4  743.07   18.51
   5   2   4  754.51   17.30
   5   2   4  731.68   16.32
   5   2   4  729.06   17.47
   5   2   5  144.16    7.20
   5   2   5  160.14    6.81
   5   2   5  131.83    6.25
   5   2   5  150.66    6.68
   5   2   5  147.39    5.82
   5   2   5  154.53    7.16
   5   2   5  136.49    5.89
   5   2   5  163.85    6.82
   5   2   5  148.38    5.44
   5   2   5  158.83    7.49
   5   2   5  145.63    6.79
   5   2   5  134.33    6.20
   5   2   5  151.95    6.17
   5   2   6  727.94   17.99
   5   2   6  730.42   17.37
   5   2   6  736.58   17.08
   5   2   6  691.00   14.88
   5   2   6  735.95   15.53
   5   2   6  743.42   17.71
   5   2   6  729.28   16.02
   5   2   6  725.33   16.87
   5   2   6  731.11   18.35
   5   2   6  725.64   17.23
   5   2   6  708.50   15.85
   5   2   6  688.28   17.10
   5   2   7  129.90    6.32
   5   2   7  131.05    6.09
   5   2   7  121.95    5.02
   5   2   7  144.49    6.53
   5   2   7  126.63    5.29
   5   2   7  130.27    6.51
   5   2   7  141.52    6.50
   5   2   7  125.34    5.34
   5   2   8   26.84    2.52
   5   2   8   26.07    2.47
   5   2   8   29.53    2.63
   5   2   8   27.51    2.72
   5   2   8   26.36    2.68
   5   2   9  113.05    4.35
   5   2   9  129.41    5.00
   5   2   9  119.24    4.72
   5   2   9  125.31    5.30
   5   2  10   20.65    1.55
   5   3  -7   29.55    2.01
   5   3  -6   31.97    2.63
   5   3  -5  106.15    5.58
   5   3  -5  104.74    5.33
   5   3  -5   88.05    4.36
   5   3  -5  104.57    5.57
   5   3  -4   31.37    3.27
   5   3  -4   35.36    3.48
   5   3  -4   34.50    3.25
   5   3  -4   30.22    2.80
   5   3  -4   32.53    3.34
   5   3  -3   54.81    4.41
   5   3  -3   52.10    3.24
   5   3  -3   49.87    3.47
   5   3  -3   56.37    4.51
   5   3  -3   52.05    4.07
   5   3  -3   54.86    3.70
   5   3  -3   55.47    4.03
   5   3  -3   58.57    4.60
   5   3  -2  154.87    7.57
   5   3  -2  160.94    6.44
   5   3  -2  162.10    6.66
   5   3  -2  165.76    7.95
   5   3  -2  167.77    7.41
   5   3  -2  158.67    6.40
   5   3  -2  157.12    6.36
   5   3  -2  156.87    7.17
   5   3  -2  160.24    7.90
   5   3  -2  144.75    7.56
   5   3  -2  159.95    6.74
   5   3  -1   44.89    4.00
   5   3  -1   48.66    3.59
   5   3  -1   49.92    3.65
   5   3  -1   57.02    4.52
   5   3  -1   47.22    3.81
   5   3  -1   48.10    3.32
   5   3  -1   50.61    4.02
   5   3  -1   51.86    3.66
   5   3  -1   51.42    4.02
   5   3  -1   46.11    4.14
   5   3  -1   38.24    3.81
   5   3  -1   44.78    3.58
   5   3   0  242.03    8.08
   5   3   0  248.03    9.62
   5   3   0  245.86    8.52
   5   3   0  243.78    9.59
   5   3   0  255.65    9.55
   5   3   0  236.01    7.52
   5   3   0  250.97    8.62
   5   3   0  259.23    9.49
   5   3   0  243.17    9.73
   5   3   0  234.88    9.53
   5   3   0  241.24    8.79
   5   3   1   29.86    3.20
   5   3   1   35.64    3.03
   5   3   1   34.33    3.38
   5   3   1   33.84    3.34
   5   3   1   32.17    2.95
   5   3   1   35.32    3.45
   5   3   1   27.76    3.11
   5   3   1   32.69    3.37
   5   3   1   34.13    3.18
   5   3   2  643.81   16.34
   5   3   2  652.69   17.25
   5   3   2  640.90   15.65
   5   3   2  666.27   15.25
   5   3   2  666.26   16.44
   5   3   2  670.98   16.96
   5   3   2  616.20   16.37
   5   3   2  663.34   16.92
   5   3   2  617.79   16.42
   5   3   2  621.76   16.31
   5   3   2  601.58   14.73
   5   3   2  615.53   14.02
   5   3   2  635.62   15.95
   5   3   3  254.71    9.22
   5   3   3  269.62   10.26
   5   3   3  267.96    9.15
   5   3   3  263.94    8.60
   5   3   3  277.23   10.04
   5   3   3  277.80    9.10
   5   3   3  281.56    9.85
   5   3   3  270.44    9.16
   5   3   3  258.99    7.94
   5   3   3  273.57    9.55
   5   3   4  436.94   13.56
   5   3   4  419.92   11.80
   5   3   4  429.46   11.51
   5   3   4  444.14   11.94
   5   3   4  407.79   10.79
   5   3   4  439.16   13.19
   5   3   4  414.11   11.55
   5   3   4  436.45   11.82
   5   3   4  423.94   12.28
   5   3   4  402.02   10.39
   5   3   5   75.73    5.23
   5   3   5   72.49    4.43
   5   3   5   81.08    4.52
   5   3   5   73.28    4.21
   5   3   5   83.98    5.25
   5   3   5   78.11    4.05
   5   3   5   68.71    4.05
   5   3   5   77.89    4.41
   5   3   5   77.93    5.24
   5   3   5   79.98    4.94
   5   3   5   65.63    4.48
   5   3   6  176.24    7.88
   5   3   6  164.36    7.03
   5   3   6  165.54    5.79
   5   3   6  182.96    6.88
   5   3   6  176.39    7.66
   5   3   6  154.62    5.66
   5   3   6  177.12    6.65
   5   3   6  181.48    7.98
   5   3   6  173.37    7.07
   5   3   7   95.15    5.22
   5   3   7  103.77    4.88
   5   3   7  103.25    5.45
   5   3   7   98.72    5.57
   5   3   7   96.25    5.13
   5   3   8   63.01    3.90
   5   3   8   56.97    3.29
   5   3   8   61.08    3.78
   5   3   8   64.09    4.08
   5   3   9   19.10    1.77
   5   3   9   17.39    1.52
   5   3   9   18.83    1.81
   5   4  -6    1.77    0.68
   5   4  -6    0.87    0.57
   5   4  -6    2.41    0.68
   5   4  -5   14.07    1.86
   5   4  -5   15.58    1.83
   5   4  -5   15.10    1.64
   5   4  -4   20.73    2.57
   5   4  -4   19.84    2.04
   5   4  -4   22.05    2.61
   5   4  -4   24.24    2.64
   5   4  -4   26.06    2.43
   5   4  -3  265.08    9.89
   5   4  -3  270.17    8.88
   5   4  -3  273.10    7.63
   5   4  -3  290.74   10.34
   5   4  -3  274.83    9.71
   5   4  -3  277.16    9.51
   5   4  -3  275.74    9.11
   5   4  -3  255.55    8.32
   5   4  -3  268.52   10.09
   5   4  -2    8.81    1.90
   5   4  -2    6.63    1.52
   5   4  -2    7.27    1.36
   5   4  -2    4.09    1.45
   5   4  -2    6.99    1.41
   5   4  -2    8.53    1.79
   5   4  -2    6.42    1.45
   5   4  -2    7.34    1.47
   5   4  -2    7.85    1.85
   5   4  -1   31.00    3.40
   5   4  -1   31.39    3.23
   5   4  -1   33.25    2.91
   5   4  -1   30.59    2.89
   5   4  -1   32.31    3.50
   5   4  -1   28.54    3.08
   5   4  -1   28.61    2.95
   5   4  -1   30.55    2.87
   5   4  -1   33.54    3.13
   5   4  -1   31.46    3.47
   5   4  -1   26.13    2.45
   5   4   0  193.07    7.26
   5   4   0  200.04    8.76
   5   4   0  189.19    8.21
   5   4   0  200.60    7.70
   5   4   0  189.13    7.44
   5   4   0  198.41    8.76
   5   4   0  185.69    7.75
   5   4   0  192.64    7.99
   5   4   0  186.17    7.41
   5   4   0  196.52    8.04
   5   4   0  188.52    8.71
   5   4   0  172.83    8.34
   5   4   0  168.31    7.34
   5   4   0  192.48    7.86
   5   4   1  281.59    9.27
   5   4   1  269.44   10.32
   5   4   1  268.57   10.16
   5   4   1  260.05    9.06
   5   4   1  294.81    9.62
   5   4   1  266.50    9.02
   5   4   1  280.05   10.50
   5   4   1  283.58   10.03
   5   4   1  272.30    9.24
   5   4   1  279.59    9.91
   5   4   1  287.47   10.78
   5   4   1  258.17   10.35
   5   4   1  275.37    9.68
   5   4   2   24.78    3.00
   5   4   2   31.48    3.37
   5   4   2   25.72    2.66
   5   4   2   29.91    2.76
   5   4   2   29.40    3.18
   5   4   2   32.86    3.37
   5   4   2   29.56    2.87
   5   4   2   30.05    3.12
   5   4   2   29.71    3.35
   5   4   2   27.62    3.20
   5   4   3  427.65   13.02
   5   4   3  416.01   11.55
   5   4   3  440.33   12.29
   5   4   3  437.09   11.53
   5   4   3  449.74   13.29
   5   4   3  427.21   11.90
   5   4   3  418.07   11.07
   5   4   3  450.34   13.32
   5   4   3  433.12   13.34
   5   4   3  405.93   11.78
   5   4   3  393.74   12.15
   5   4   3  431.11   12.48
   5   4   4  466.49   13.32
   5   4   4  494.70   12.79
   5   4   4  450.66   11.47
   5   4   4  513.75   14.34
   5   4   4  477.62   12.44
   5   4   4  472.69   11.76
   5   4   4  507.10   14.32
   5   4   4  475.61   13.63
   5   4   5   55.62    4.38
   5   4   5   53.54    3.46
   5   4   5   66.23    4.58
   5   4   5   50.85    3.18
   5   4   5   51.56    4.12
   5   4   6  306.86   10.42
   5   4   6  276.55    7.55
   5   4   6  309.29   10.15
   5   4   7    9.98    1.66
   5   4   8   57.66    3.51
   5   4   8   61.44    3.55
   5   4   8   56.31    3.57
   5   4   9   73.95    3.21
   5   4   9   75.08    3.25
   5   5  -5   14.65    1.59
   5   5  -5   13.73    1.57
   5   5  -4   15.19    1.95
   5   5  -4   17.93    1.83
   5   5  -3  102.56    5.46
   5   5  -3   97.31    5.15
   5   5  -3   97.39    4.79
   5   5  -3   88.79    4.17
   5   5  -2    1.45    0.65
   5   5  -2    0.71    0.76
   5   5  -2    0.23    0.53
   5   5  -2    1.03    0.70
   5   5  -2    0.52    0.78
   5   5  -2    1.43    0.92
   5   5  -2   -0.14    0.64
   5   5  -2    0.36    0.54
   5   5  -2    1.63    1.02
   5   5  -1   18.02    2.59
   5   5  -1   15.92    2.08
   5   5  -1   19.05    2.15
   5   5  -1   18.26    2.19
   5   5  -1   19.62    2.66
   5   5  -1   16.21    2.30
   5   5  -1   17.87    2.36
   5   5  -1   16.84    2.10
   5   5  -1   16.29    1.91
   5   5  -1   22.13    2.83
   5   5  -1   20.23    2.11
   5   5   0  195.24    8.58
   5   5   0  196.98    7.77
   5   5   0  203.26    7.50
   5   5   0  198.05    8.56
   5   5   0  200.51    8.08
   5   5   0  192.18    7.93
   5   5   0  197.73    7.60
   5   5   0  186.34    7.14
   5   5   0  196.84    8.74
   5   5   0  217.12    7.53
   5   5   1   47.30    4.09
   5   5   1   46.32    3.75
   5   5   1   49.17    3.61
   5   5   1   47.89    3.48
   5   5   1   48.50    4.12
   5   5   1   44.22    3.59
   5   5   1   44.21    3.71
   5   5   1   42.20    3.39
   5   5   1   47.20    4.19
   5   5   1   48.85    3.57
   5   5   2  137.33    6.17
   5   5   2  130.83    6.87
   5   5   2  131.97    6.58
   5   5   2  121.96    5.58
   5   5   2  139.67    6.75
   5   5   2  127.33    6.12
   5   5   2  136.74    7.10
   5   5   3  112.54    5.53
   5   5   3   99.23    5.80
   5   5   3  103.17    5.83
   5   5   3  115.81    5.47
   5   5   3   98.34    4.79
   5   5   3  120.02    6.14
   5   5   3  110.58    5.72
   5   5   3  108.71    6.17
   5   5   4  158.98    6.59
   5   5   4  146.51    6.97
   5   5   4  152.33    6.21
   5   5   4  151.23    6.78
   5   5   4  148.71    6.96
   5   5   5   15.99    1.99
   5   5   5   17.92    2.32
   5   5   5   15.89    1.79
   5   5   5   16.82    2.20
   5   5   5   17.88    2.23
   5   5   6    7.06    1.30
   5   5   6    7.98    1.49
   5   5   7   52.96    2.90
   5   5   7   53.01    3.42
   5   5   8   23.88    1.95
   5   5   8   23.79    1.88
   5   5   8   17.77    1.24
   5   6  -4  168.22    5.16
   5   6  -3   57.04    3.30
   5   6  -3   50.65    2.62
   5   6  -2    5.56    0.91
   5   6  -2    4.21    0.84
   5   6  -2    7.67    1.48
   5   6  -2    4.50    1.13
   5   6  -2    5.08    1.01
   5   6  -1   45.56    2.84
   5   6  -1   44.66    3.52
   5   6  -1   44.60    3.32
   5   6  -1   35.97    2.75
   5   6  -1   42.31    3.51
   5   6  -1   44.27    2.75
   5   6   0   26.86    2.32
   5   6   0   27.93    2.65
   5   6   0   26.27    2.43
   5   6   0   25.81    2.85
   5   6   0   29.04    2.39
   5   6   1   10.64    1.90
   5   6   1   11.74    1.63
   5   6   1   13.83    1.80
   5   6   1   10.09    1.67
   5   6   1   10.60    1.69
   5   6   1   10.68    1.95
   5   6   1   10.29    1.62
   5   6   2   57.31    3.61
   5   6   2   55.54    3.71
   5   6   2   56.55    4.19
   5   6   2   59.25    3.65
   5   6   3    8.30    1.47
   5   6   3    8.76    1.54
   5   6   3    9.26    1.46
   5   6   3    7.58    1.45
   5   6   3    6.87    1.52
   5   6   4   66.15    3.47
   5   6   4   65.62    3.88
   5   6   4   61.59    4.06
   5   6   5   14.61    1.42
   5   6   5   17.26    1.90
   5   6   5   18.94    1.86
   5   6   6   21.14    1.93
   5   6   6   18.39    1.78
   5   6   6   21.17    1.68
   5   6   7   68.20    3.02
   5   7  -1    0.27    0.35
   5   7   0   67.36    3.03
   5   7   0   71.49    3.12
   5   7   1    8.29    1.17
   5   7   1   10.67    1.30
   5   7   2   47.22    2.52
   5   7   2   62.05    3.05
   5   7   3   61.34    2.88
   5   7   4   27.87    1.70
   5   7   4   34.69    2.07
   5   7   5   34.97    1.76
   6  -5   3   88.72    3.04
   6  -5   4   77.04    2.73
   6  -4   0   89.28    3.89
   6  -4   1  173.79    5.86
   6  -4   2    9.74    1.38
   6  -4   3  167.58    5.79
   6  -4   4   30.43    2.17
   6  -4   4   30.86    2.29
   6  -4   5    5.30    0.90
   6  -4   6   52.06    2.54
   6  -4   6   45.82    2.20
   6  -3  -1  129.72    5.17
   6  -3   0   75.99    4.06
   6  -3   1  270.69    8.64
   6  -3   1  289.13    8.67
   6  -3   2   86.88    4.09
   6  -3   2   81.31    4.40
   6  -3   2   82.76    4.39
   6  -3   3   41.74    2.85
   6  -3   3   41.46    3.10
   6  -3   3   42.87    3.13
   6  -3   4   78.71    4.06
   6  -3   4   79.46    3.94
   6  -3   4   77.81    4.18
   6  -3   4   76.96    4.12
   6  -3   5   46.74    2.92
   6  -3   5   50.81    3.19
   6  -3   5   46.89    2.93
   6  -3   5   55.04    3.33
   6  -3   6    1.37    0.57
   6  -3   6    1.11    0.62
   6  -3   6    1.26    0.58
   6  -3   7  129.82    4.34
   6  -3   7  106.41    3.67
   6  -2  -3  140.00    5.57
   6  -2  -2   82.24    4.33
   6  -2  -1  139.94    5.84
   6  -2  -1  147.55    6.02
   6  -2   0  135.86    5.93
   6  -2   1   54.02    3.73
   6  -2   1   51.43    3.35
   6  -2   1   55.68    3.82
   6  -2   2  189.86    6.84
   6  -2   2  192.48    7.44
   6  -2   3  171.25    6.72
   6  -2   3  168.23    6.43
   6  -2   3  184.22    7.15
   6  -2   3  186.12    7.25
   6  -2   4   26.07    2.63
   6  -2   4   23.08    2.30
   6  -2   4   27.98    2.61
   6  -2   4   21.76    2.23
   6  -2   4   23.92    2.45
   6  -2   4   24.57    2.53
   6  -2   5    0.79    0.66
   6  -2   5    1.44    0.81
   6  -2   5    0.87    0.75
   6  -2   6    6.26    1.23
   6  -2   6    7.34    1.37
   6  -2   6    8.24    1.39
   6  -2   6    7.66    1.34
   6  -2   6    6.09    1.12
   6  -2   7    9.18    1.26
   6  -2   7   11.29    1.45
   6  -2   7   10.16    1.40
   6  -2   7    9.26    1.33
   6  -2   7    7.57    1.15
   6  -2   8   23.42    1.59
   6  -2   8   19.00    1.50
   6  -2   8   23.80    1.77
   6  -2   8   18.88    1.50
   6  -1  -3  150.15    5.79
   6  -1  -2  203.05    7.05
   6  -1  -2  222.99    7.51
   6  -1  -2  226.16    8.20
   6  -1  -1   42.89    3.26
   6  -1  -1   45.15    3.24
   6  -1  -1   47.01    3.66
   6  -1   0  334.47   10.06
   6  -1   0  323.85    9.53
   6  -1   0  317.71    9.73
   6  -1   0  337.21   10.48
   6  -1   1  126.32    5.88
   6  -1   1  121.76    5.79
   6  -1   1  122.85    5.93
   6  -1   2   69.16    4.19
   6  -1   2   55.92    3.85
   6  -1   2   57.75    3.98
   6  -1   2   59.57    4.03
   6  -1   2   62.89    4.22
   6  -1   3   87.26    4.72
   6  -1   3   96.64    5.09
   6  -1   3   86.49    4.76
   6  -1   3   98.21    5.30
   6  -1   4  136.91    5.76
   6  -1   4  138.40    6.13
   6  -1   4  139.34    6.11
   6  -1   4  146.78    6.47
   6  -1   5   86.05    4.88
   6  -1   5   89.62    4.80
   6  -1   5   79.84    4.51
   6  -1   5   78.74    4.40
   6  -1   5   87.92    4.82
   6  -1   6    8.59    1.51
   6  -1   6   10.52    1.68
   6  -1   6    8.25    1.45
   6  -1   6    9.49    1.50
   6  -1   6    8.37    1.34
   6  -1   7  119.61    5.16
   6  -1   7  119.63    4.98
   6  -1   7  107.43    4.52
   6  -1   8   65.66    2.73
   6  -1   8   65.69    3.30
   6  -1   8   66.66    3.20
   6  -1   8   64.02    3.09
   6   0  -3   66.58    3.73
   6   0  -2  206.19    7.18
   6   0  -2  205.34    7.14
   6   0  -2  206.28    7.77
   6   0  -2  211.08    8.21
   6   0  -1  253.45    8.37
   6   0  -1  247.63    8.57
   6   0  -1  232.10    8.47
   6   0  -1  255.27    9.23
   6   0   0  222.36    7.98
   6   0   0  215.79    8.10
   6   0   0  200.89    7.57
   6   0   0  221.32    8.59
   6   0   1   64.76    4.17
   6   0   1   64.57    4.23
   6   0   1   54.26    3.84
   6   0   1   63.49    4.44
   6   0   2  370.18   11.27
   6   0   2  322.56   10.08
   6   0   2  335.77   10.37
   6   0   2  328.59   10.35
   6   0   2  366.16   11.39
   6   0   3  154.34    6.80
   6   0   3  152.36    6.32
   6   0   3  156.95    6.80
   6   0   3  155.16    6.94
   6   0   3  144.50    6.56
   6   0   4  112.08    5.47
   6   0   4  103.17    4.96
   6   0   4  105.25    5.31
   6   0   4  114.81    5.76
   6   0   4  103.85    5.16
   6   0   4  110.88    5.73
   6   0   4  116.53    5.72
   6   0   5   72.11    4.51
   6   0   5   64.90    4.17
   6   0   5   62.16    3.80
   6   0   5   56.25    3.91
   6   0   5   62.82    4.06
   6   0   6    7.69    1.42
   6   0   6    9.40    1.61
   6   0   6   10.94    1.60
   6   0   6    7.89    1.49
   6   0   6    9.11    1.43
   6   0   7   21.53    2.24
   6   0   7   22.74    2.12
   6   0   7   25.03    2.26
   6   0   7   22.65    2.08
   6   0   7   21.86    2.15
   6   0   8    2.05    0.78
   6   0   8    3.67    0.82
   6   0   8    2.52    0.77
   6   0   9   20.69    1.59
   6   0   9   16.93    1.28
   6   1  -5   27.92    2.24
   6   1  -5   25.32    1.99
   6   1  -5   23.57    2.06
   6   1  -4  144.81    5.82
   6   1  -4  125.82    5.67
   6   1  -3  138.48    6.01
   6   1  -3  133.39    6.20
   6   1  -3  127.51    6.01
   6   1  -2   98.90    4.86
   6   1  -2  105.47    5.29
   6   1  -2  107.65    5.39
   6   1  -2  110.65    5.68
   6   1  -2  114.75    5.93
   6   1  -2   96.63    5.29
   6   1  -1  257.31    8.54
   6   1  -1  256.36    8.84
   6   1  -1  259.76    8.67
   6   1  -1  260.06    9.29
   6   1  -1  269.94    9.66
   6   1  -1  244.91    8.70
   6   1   0   35.54    3.08
   6   1   0   39.62    3.31
   6   1   0   34.68    3.00
   6   1   0   33.94    3.21
   6   1   0   33.37    2.99
   6   1   0   36.86    3.45
   6   1   1   35.09    3.41
   6   1   1   33.51    3.05
   6   1   1   29.65    2.74
   6   1   1   35.52    3.30
   6   1   1   33.20    3.02
   6   1   1   38.13    3.54
   6   1   2  285.67   10.22
   6   1   2  280.42    9.10
   6   1   2  288.70    9.40
   6   1   2  269.66    9.63
   6   1   2  261.65    9.09
   6   1   2  285.27   10.22
   6   1   2  287.39    9.39
   6   1   3  202.32    8.31
   6   1   3  179.26    6.95
   6   1   3  195.53    7.45
   6   1   3  192.11    7.48
   6   1   3  204.03    8.32
   6   1   3  191.14    7.48
   6   1   4  379.13   11.56
   6   1   4  346.41    9.88
   6   1   4  366.36   10.51
   6   1   4  362.82   10.63
   6   1   4  364.31   10.04
   6   1   4  371.30   11.65
   6   1   4  393.38   11.04
   6   1   5  158.99    6.82
   6   1   5  175.99    7.20
   6   1   5  161.49    6.28
   6   1   5  170.29    6.72
   6   1   5  151.77    5.83
   6   1   5  162.33    7.13
   6   1   5  175.15    6.75
   6   1   6   81.33    4.34
   6   1   6   86.19    4.74
   6   1   6   75.33    3.59
   6   1   6   89.57    4.30
   6   1   6   91.08    4.55
   6   1   6   81.08    4.70
   6   1   6   84.02    4.37
   6   1   7   30.57    2.63
   6   1   7   29.16    2.22
   6   1   7   30.78    2.41
   6   1   7   26.66    2.45
   6   1   7   26.54    2.19
   6   1   8   42.47    2.74
   6   1   8   37.76    2.16
   6   1   8   39.70    2.43
   6   2  -5   42.25    2.70
   6   2  -5   44.32    2.62
   6   2  -4    2.87    0.98
   6   2  -4    3.65    1.01
   6   2  -4    1.96    0.82
   6   2  -4    1.93    0.77
   6   2  -3  192.27    7.39
   6   2  -3  211.37    7.53
   6   2  -3  192.30    7.30
   6   2  -3  203.26    7.50
   6   2  -3  190.01    7.58
   6   2  -2  413.21   11.97
   6   2  -2  448.29   10.97
   6   2  -2  454.23   12.43
   6   2  -2  476.02   12.61
   6   2  -2  432.61   12.37
   6   2  -2  432.02   12.44
   6   2  -2  437.22   12.59
   6   2  -1  154.51    6.38
   6   2  -1  155.73    6.78
   6   2  -1  170.73    7.22
   6   2  -1  159.60    7.13
   6   2  -1  154.14    6.99
   6   2   0  150.54    6.42
   6   2   0  151.00    6.52
   6   2   0  161.33    7.11
   6   2   0  145.68    5.95
   6   2   0  155.71    7.08
   6   2   0  151.42    6.41
   6   2   0  167.92    7.51
   6   2   0  156.74    6.92
   6   2   1  232.63    9.28
   6   2   1  246.13    8.97
   6   2   1  225.65    7.40
   6   2   1  243.60    9.11
   6   2   1  224.19    8.19
   6   2   1  245.10    9.33
   6   2   2  392.63   12.56
   6   2   2  381.98   10.95
   6   2   2  392.83   11.82
   6   2   2  385.35   11.99
   6   2   2  381.75   11.19
   6   2   2  399.69   12.48
   6   2   2  404.18   11.08
   6   2   3   50.55    4.10
   6   2   3   46.52    3.35
   6   2   3   51.32    3.88
   6   2   3   43.97    3.45
   6   2   3   44.07    2.91
   6   2   3   53.63    4.19
   6   2   3   49.60    3.46
   6   2   4   12.87    2.11
   6   2   4   12.78    1.92
   6   2   4   14.25    1.78
   6   2   4   10.90    1.84
   6   2   4   12.91    1.91
   6   2   4   14.35    2.23
   6   2   4   12.94    1.79
   6   2   5  182.22    7.53
   6   2   5  177.22    6.87
   6   2   5  163.37    6.24
   6   2   5  160.47    5.70
   6   2   5  169.72    6.84
   6   2   5  177.30    6.53
   6   2   5  169.12    6.72
   6   2   5  176.42    7.53
   6   2   5  170.28    6.22
   6   2   6  147.72    5.97
   6   2   6  149.00    5.69
   6   2   6  124.09    4.20
   6   2   6  142.31    5.52
   6   2   6  137.13    4.97
   6   2   6  145.43    5.53
   6   2   6  136.86    6.00
   6   2   6  131.25    4.75
   6   2   7  153.73    5.69
   6   2   7  143.30    5.28
   6   2   7  136.47    4.78
   6   2   7  151.59    6.08
   6   2   8   27.48    2.01
   6   3  -5   69.39    3.17
   6   3  -4   27.39    2.20
   6   3  -4   29.21    2.46
   6   3  -4   34.45    2.54
   6   3  -4   28.56    2.29
   6   3  -3   56.50    3.73
   6   3  -3   54.43    3.54
   6   3  -3   57.41    3.61
   6   3  -3   53.99    3.41
   6   3  -3   49.21    3.63
   6   3  -2  186.50    7.35
   6   3  -2  172.77    5.89
   6   3  -2  174.90    7.14
   6   3  -2  175.13    7.04
   6   3  -2  172.45    6.89
   6   3  -2  170.52    7.27
   6   3  -1  234.45    8.70
   6   3  -1  259.22    9.30
   6   3  -1  270.95    8.29
   6   3  -1  259.53    9.05
   6   3  -1  268.81    9.28
   6   3  -1  263.04    9.09
   6   3  -1  255.39    9.29
   6   3   0   16.66    2.11
   6   3   0   15.63    2.02
   6   3   0   14.29    2.09
   6   3   0   15.23    2.20
   6   3   0   17.26    2.35
   6   3   0   13.05    2.05
   6   3   0   13.10    2.10
   6   3   1   29.61    2.51
   6   3   1   38.49    3.62
   6   3   1   37.36    3.12
   6   3   1   37.97    3.09
   6   3   1   35.92    3.11
   6   3   1   34.55    3.25
   6   3   1   36.28    3.34
   6   3   1   34.81    3.30
   6   3   1   30.55    3.07
   6   3   1   36.45    2.70
   6   3   2  269.69    9.93
   6   3   2  259.78    8.46
   6   3   2  266.35    9.41
   6   3   2  237.52    7.43
   6   3   3  373.80   11.99
   6   3   3  364.71    9.86
   6   3   3  375.74   10.71
   6   3   3  339.42    9.84
   6   3   3  371.31   11.39
   6   3   3  368.12   10.47
   6   3   4   18.68    2.47
   6   3   4   16.89    1.93
   6   3   4   15.52    2.01
   6   3   4   19.75    2.42
   6   3   4   15.52    1.93
   6   3   4   17.06    2.35
   6   3   5   16.98    2.26
   6   3   5   15.56    1.78
   6   3   5   13.99    1.70
   6   3   5   16.71    2.10
   6   3   5   14.53    1.61
   6   3   5   14.53    1.78
   6   3   5   13.27    2.04
   6   3   6   81.34    4.53
   6   3   6   67.97    3.06
   6   3   6   75.91    3.67
   6   3   6   83.09    4.37
   6   3   6   78.24    4.58
   6   3   7   93.86    3.70
   6   3   7   99.28    4.31
   6   3   7  101.84    4.77
   6   3   8   20.20    1.58
   6   4  -4   18.38    1.72
   6   4  -3   33.77    2.32
   6   4  -3   37.00    2.76
   6   4  -3   34.40    2.54
   6   4  -2  196.07    6.76
   6   4  -2  185.52    5.62
   6   4  -2  207.27    7.40
   6   4  -2  203.21    7.11
   6   4  -2  198.82    6.83
   6   4  -2  191.65    7.33
   6   4  -1  118.78    5.52
   6   4  -1  121.41    4.90
   6   4  -1  111.34    5.50
   6   4  -1  133.54    5.87
   6   4  -1  117.06    5.43
   6   4  -1  103.12    4.98
   6   4  -1  114.97    5.78
   6   4   0   13.71    2.03
   6   4   0   11.27    1.69
   6   4   0   11.05    1.81
   6   4   0   10.92    1.83
   6   4   0   10.46    1.75
   6   4   0   11.54    1.80
   6   4   0   10.75    1.89
   6   4   0    9.66    1.32
   6   4   1  481.67   13.27
   6   4   1  483.61   12.25
   6   4   1  463.62   12.51
   6   4   1  499.28   13.29
   6   4   1  466.73   12.77
   6   4   1  472.66   13.08
   6   4   1  489.27   11.55
   6   4   2   35.59    2.77
   6   4   2   35.37    3.15
   6   4   2   32.94    2.57
   6   4   2   37.64    3.29
   6   4   2   31.30    2.93
   6   4   3  312.02    9.11
   6   4   3  309.12    9.12
   6   4   3  299.07    9.73
   6   4   3  284.60    8.15
   6   4   3  298.02    9.87
   6   4   4    7.82    1.63
   6   4   4    5.25    1.13
   6   4   4    5.24    1.29
   6   4   4    5.01    1.00
   6   4   4    5.49    1.36
   6   4   5   91.54    4.90
   6   4   5   84.45    3.78
   6   4   5   92.50    4.72
   6   4   5   90.69    4.82
   6   4   6  183.68    6.41
   6   4   7   80.21    3.38
   6   4   7   80.23    3.69
   6   4   7   77.25    3.51
   6   4   8    1.54    0.39
   6   5  -3   58.37    2.87
   6   5  -2   23.38    2.08
   6   5  -2   24.00    1.97
   6   5  -1  175.51    5.26
   6   5  -1  167.71    6.17
   6   5  -1  164.06    5.89
   6   5   0    2.35    0.65
   6   5   0    1.99    0.79
   6   5   0    2.56    0.81
   6   5   1   88.18    4.44
   6   5   1   86.59    4.13
   6   5   1   90.41    3.90
   6   5   2   93.59    4.67
   6   5   2   81.33    4.17
   6   5   2   92.87    4.15
   6   5   3    4.41    1.03
   6   5   3    3.48    1.03
   6   5   3    3.08    0.89
   6   5   3    3.89    1.05
   6   5   3    4.38    1.05
   6   5   4   28.36    2.25
   6   5   4   27.64    2.46
   6   5   4   23.92    1.95
   6   5   4   26.54    2.38
   6   5   5    0.33    0.49
   6   5   5    0.29    0.37
   6   5   5    0.79    0.56
   6   5   6   74.23    3.35
   6   5   7    5.78    0.68
   6   6   0   64.55    2.69
   6   6   1   17.85    1.53
   6   6   1   16.70    1.56
   6   6   1   15.88    1.31
   6   6   2   11.84    1.34
   6   6   2   12.72    1.27
   6   6   3  119.71    3.95
   6   6   3  109.86    4.17
   6   6   4   53.34    2.22
   6   6   4   65.21    2.72
   7  -3   1  149.01    4.43
   7  -3   2   48.58    2.35
   7  -3   3   39.92    2.04
   7  -3   3   49.71    2.48
   7  -3   4   49.81    2.38
   7  -2   2   34.17    2.24
   7  -2   2   38.22    2.57
   7  -2   3   32.71    2.36
   7  -2   3   26.48    1.99
   7  -2   3   28.17    2.18
   7  -2   4   14.98    1.55
   7  -2   4   15.08    1.54
   7  -2   4   12.11    1.33
   7  -2   5  104.86    3.84
   7  -2   5  107.99    3.96
   7  -2   6   42.32    2.00
   7  -2   6   41.84    2.11
   7  -1  -2   89.94    3.56
   7  -1  -1   32.83    2.27
   7  -1   0   73.95    3.47
   7  -1   0   76.03    3.47
   7  -1   1    2.27    0.71
   7  -1   2   46.09    2.86
   7  -1   2   50.18    3.10
   7  -1   3    7.79    1.33
   7  -1   3    7.98    1.28
   7  -1   3    7.13    1.16
   7  -1   3    7.63    1.27
   7  -1   4   30.50    2.43
   7  -1   4   28.51    2.25
   7  -1   4   28.56    2.20
   7  -1   4   33.38    2.38
   7  -1   5  142.26    5.18
   7  -1   5  146.89    5.03
   7  -1   5  145.34    5.01
   7  -1   6  123.71    4.31
   7  -1   6  121.08    4.13
   7   0  -3   84.52    3.47
   7   0  -2   38.88    2.59
   7   0  -2   26.77    1.60
   7   0  -1   76.02    3.90
   7   0  -1   65.22    3.69
   7   0   0   28.50    2.44
   7   0   0   26.70    2.42
   7   0   1  131.36    5.42
   7   0   1  128.00    5.47
   7   0   2  102.84    4.64
   7   0   2  108.49    4.82
   7   0   2  106.77    4.91
   7   0   2  110.60    4.94
   7   0   3   40.05    2.84
   7   0   3   39.26    2.68
   7   0   3   38.63    2.83
   7   0   3   43.59    3.01
   7   0   4   98.46    4.40
   7   0   4   96.41    4.37
   7   0   4   93.55    4.03
   7   0   5    1.40    0.70
   7   0   5    2.15    0.70
   7   0   5    1.85    0.67
   7   0   6   67.87    3.26
   7   0   6   65.01    2.89
   7   0   6   64.03    3.03
   7   0   7   26.36    1.74
   7   1  -3   34.17    2.22
   7   1  -2  104.45    4.38
   7   1  -2   73.65    2.68
   7   1  -1   75.73    4.06
   7   1  -1   75.17    3.38
   7   1  -1   75.59    3.77
   7   1  -1   71.10    3.96
   7   1   0   43.09    3.15
   7   1   0   43.22    2.95
   7   1   0   43.75    3.19
   7   1   1   88.08    4.59
   7   1   1   83.23    4.55
   7   1   2   35.57    2.84
   7   1   2   34.58    2.68
   7   1   2   29.82    2.25
   7   1   2   34.84    2.91
   7   1   3   51.75    3.31
   7   1   3   52.96    3.30
   7   1   3   48.50    3.17
   7   1   3   42.63    2.60
   7   1   3   42.36    3.15
   7   1   4  279.24    7.93
   7   1   4  309.21    8.52
   7   1   4  300.35    8.21
   7   1   4  290.95    8.30
   7   1   4  269.74    8.34
   7   1   5  159.38    5.50
   7   1   5  129.75    4.45
   7   1   5  140.36    4.55
   7   1   5  146.48    5.09
   7   1   5  147.07    5.28
   7   1   6    3.24    0.79
   7   1   6    0.10    0.16
   7   1   7    4.78    0.77
   7   2  -2   90.45    4.01
   7   2  -1  119.97    4.18
   7   2  -1  110.32    4.32
   7   2  -1  115.63    4.75
   7   2   0   48.56    3.29
   7   2   0   44.30    2.77
   7   2   0   44.78    2.79
   7   2   0   42.43    2.95
   7   2   0   41.93    3.08
   7   2   1   13.19    1.86
   7   2   1   11.86    1.60
   7   2   1   10.17    1.42
   7   2   1   10.67    1.65
   7   2   2   73.54    4.17
   7   2   2   64.89    3.38
   7   2   2   66.55    3.61
   7   2   2   64.68    3.41
   7   2   2   62.16    3.52
   7   2   2   62.47    3.88
   7   2   3   23.93    1.79
   7   2   3   26.53    2.45
   7   2   3   26.43    2.16
   7   2   3   27.80    2.26
   7   2   3   23.43    1.99
   7   2   3   23.99    2.17
   7   2   3   28.38    2.57
   7   2   4   69.60    3.73
   7   2   4   70.94    3.43
   7   2   4   70.76    3.41
   7   2   4   64.74    3.24
   7   2   4   71.21    3.57
   7   2   4   70.03    3.90
   7   2   5   31.20    2.25
   7   2   5   34.05    2.02
   7   2   5   33.22    2.18
   7   2   5   34.46    2.31
   7   2   6   65.13    2.76
   7   3  -2   41.07    2.30
   7   3  -1  147.51    4.26
   7   3  -1  156.98    5.06
   7   3   0   38.29    2.33
   7   3   0   37.55    2.49
   7   3   1   39.90    2.92
   7   3   1   39.49    2.56
   7   3   1   38.52    2.62
   7   3   1   39.78    2.52
   7   3   2   36.05    2.77
   7   3   2   36.52    2.45
   7   3   2   34.04    2.45
   7   3   2   36.51    2.42
   7   3   3  339.99    9.19
   7   3   3  325.37    8.18
   7   3   3  324.64    8.33
   7   3   4  152.01    4.70
   7   3   4  162.69    5.70
   7   3   4  154.15    4.88
   7   3   4  148.81    4.99
   7   3   5  169.63    4.74
   7   3   5  129.75    3.82
   7   3   6   24.25    1.54
   7   4   0    6.59    0.99
   7   4   0    5.74    0.82
   7   4   0    5.62    0.91
   7   4   1   53.76    2.90
   7   4   1   53.81    2.60
   7   4   1   50.19    2.71
   7   4   2    4.49    0.86
   7   4   2    3.63    0.81
   7   4   3    4.21    0.67
   7   4   3    6.77    1.11
   7   4   3    5.27    0.88
   7   4   3    4.57    0.86
   7   4   4   80.83    3.46
   7   4   4   72.12    2.73
   7   4   4   76.11    2.77
   7   4   5    7.75    0.82
   7   5   2   24.02    1.33
   0   0   0    0.00    0.00


TITL wangr_39_190419 in P1
REM P1 (#1 in standard setting)
CELL 1.54184   6.306159   7.684775   9.718298  87.9041  80.1982  87.6940
ZERR    2.00   0.000099   0.000109   0.000156   0.0012   0.0013   0.0012
LATT -1
SFAC C H N O
UNIT 22.00 20.00 2.00 2.00
TREF
HKLF 4
END
_computing_structure_solution     'SHELXT 2018/2 (Sheldrick, 2018)'
;
_shelx_hkl_checksum              9039
_olex2_submission_special_instructions 'No special instructions were received'
_oxdiff_exptl_absorpt_empirical_details
;
Empirical correction (ABSPACK) includes:
- Absorption correction using spherical harmonics
- Frame scaling
;
_oxdiff_exptl_absorpt_empirical_full_max 1.777
_oxdiff_exptl_absorpt_empirical_full_min 0.725
loop_
_space_group_symop_operation_xyz
'x, y, z'
loop_
_atom_site_label
_atom_site_type_symbol
_atom_site_fract_x
_atom_site_fract_y
_atom_site_fract_z
_atom_site_U_iso_or_equiv
_atom_site_adp_type
_atom_site_occupancy
_atom_site_site_symmetry_order
_atom_site_calc_flag
_atom_site_refinement_flags_posn
O17 O 0.4082(2) 0.22670(17) 0.30916(15) 0.0258(3) Uani 1 1 d .
O16 O 0.3680(2) 0.69413(17) 0.49994(14) 0.0244(3) Uani 1 1 d .
O11 O 0.7657(2) 0.71578(18) 0.16148(15) 0.0263(3) Uani 1 1 d .
O24 O 0.1006(2) 0.88801(19) 0.93480(15) 0.0287(3) Uani 1 1 d .
O19 O 0.5350(2) 0.5697(2) 0.06232(16) 0.0344(4) Uani 1 1 d .
C15 C 0.4060(3) 0.6924(2) 0.6191(2) 0.0192(4) Uani 1 1 d .
C14 C 0.6067(3) 0.6049(2) 0.65849(19) 0.0191(4) Uani 1 1 d .
H14A H 0.577987 0.574129 0.757440 0.023 Uiso 1 1 calc R
H14B H 0.719870 0.688760 0.644227 0.023 Uiso 1 1 calc R
C3 C 0.7305(3) 0.3676(2) 0.3227(2) 0.0183(4) Uani 1 1 d .
C22 C 0.2567(3) 0.7819(2) 0.7290(2) 0.0201(4) Uani 1 1 d .
C7 C 0.6916(3) 0.4397(2) 0.57809(19) 0.0176(4) Uani 1 1 d .
C26 C 0.0610(3) 0.8757(3) 0.7115(2) 0.0236(4) Uani 1 1 d .
H26 H 0.005989 0.892541 0.628920 0.028 Uiso 1 1 calc R
C5 C 0.5819(3) 0.1480(2) 0.50975(19) 0.0209(4) Uani 1 1 d .
H5A H 0.715803 0.096564 0.531381 0.025 Uiso 1 1 calc R
H5B H 0.473149 0.060677 0.529720 0.025 Uiso 1 1 calc R
C6 C 0.5141(3) 0.3030(2) 0.60213(19) 0.0193(4) Uani 1 1 d .
H6 H 0.386933 0.358130 0.571010 0.023 Uiso 1 1 calc R
C8 C 0.7605(3) 0.4777(2) 0.42113(19) 0.0172(4) Uani 1 1 d .
C2 C 0.8185(3) 0.4113(3) 0.16774(19) 0.0224(4) Uani 1 1 d .
C10 C 0.9552(3) 0.6680(3) 0.2262(2) 0.0243(4) Uani 1 1 d .
H10 H 1.064525 0.756653 0.205381 0.029 Uiso 1 1 calc R
C12 C 1.0356(3) 0.4974(3) 0.1602(2) 0.0244(4) Uani 1 1 d .
H12A H 1.129632 0.432002 0.214134 0.029 Uiso 1 1 calc R
H12B H 1.108663 0.514117 0.064725 0.029 Uiso 1 1 calc R
C9 C 0.8815(3) 0.6444(2) 0.3821(2) 0.0220(4) Uani 1 1 d .
H9A H 0.788818 0.743150 0.415524 0.026 Uiso 1 1 calc R
H9B H 1.006118 0.642644 0.428561 0.026 Uiso 1 1 calc R
C1 C 0.6853(3) 0.5675(3) 0.1237(2) 0.0253(4) Uani 1 1 d .
C4 C 0.6122(3) 0.2000(2) 0.35548(19) 0.0199(4) Uani 1 1 d .
H4 H 0.694260 0.106642 0.301797 0.024 Uiso 1 1 calc R
C20 C 0.8952(3) 0.3754(3) 0.6365(2) 0.0211(4) Uani 1 1 d .
H20A H 0.999653 0.464596 0.621409 0.032 Uiso 1 1 calc GR
H20B H 0.954828 0.272283 0.589452 0.032 Uiso 1 1 calc GR
H20C H 0.857570 0.349307 0.734755 0.032 Uiso 1 1 calc GR
C25 C -0.0269(3) 0.9342(3) 0.8371(2) 0.0284(4) Uani 1 1 d .
H25 H -0.156769 0.997653 0.855782 0.034 Uiso 1 1 calc R
C23 C 0.2719(3) 0.7949(3) 0.8667(2) 0.0241(4) Uani 1 1 d .
H23 H 0.384023 0.746609 0.908178 0.029 Uiso 1 1 calc R
C13 C 0.8228(4) 0.2623(3) 0.0685(2) 0.0310(5) Uani 1 1 d .
H13A H 0.909430 0.166678 0.097280 0.047 Uiso 1 1 calc GR
H13B H 0.882979 0.300943 -0.024519 0.047 Uiso 1 1 calc GR
H13C H 0.678835 0.225341 0.070034 0.047 Uiso 1 1 calc GR
C21 C 0.4445(3) 0.2439(3) 0.7544(2) 0.0284(5) Uani 1 1 d .
H21A H 0.560442 0.177870 0.786097 0.043 Uiso 1 1 calc GR
H21B H 0.321319 0.172518 0.761874 0.043 Uiso 1 1 calc GR
H21C H 0.408040 0.344038 0.811023 0.043 Uiso 1 1 calc GR
C18 C 0.3162(4) 0.0681(3) 0.2811(3) 0.0388(6) Uani 1 1 d .
H18A H 0.406846 0.012846 0.204401 0.058 Uiso 1 1 calc GR
H18B H 0.176030 0.092651 0.257663 0.058 Uiso 1 1 calc GR
H18C H 0.303920 -0.007957 0.362472 0.058 Uiso 1 1 calc GR
loop_
_atom_site_aniso_label
_atom_site_aniso_U_11
_atom_site_aniso_U_22
_atom_site_aniso_U_33
_atom_site_aniso_U_23
_atom_site_aniso_U_13
_atom_site_aniso_U_12
O17 0.0270(7) 0.0190(7) 0.0356(8) 0.0035(6) -0.0169(6) -0.0057(6)
O16 0.0262(8) 0.0238(7) 0.0245(7) -0.0014(6) -0.0089(6) 0.0018(6)
O11 0.0238(7) 0.0257(7) 0.0291(7) 0.0088(6) -0.0053(6) -0.0012(6)
O24 0.0285(8) 0.0295(8) 0.0253(7) 0.0013(6) 0.0012(6) 0.0058(6)
O19 0.0285(8) 0.0420(9) 0.0350(8) 0.0147(7) -0.0141(7) -0.0040(7)
C15 0.0203(9) 0.0133(8) 0.0242(9) 0.0011(7) -0.0036(7) -0.0035(7)
C14 0.0187(9) 0.0196(9) 0.0196(9) 0.0000(7) -0.0050(7) -0.0025(7)
C3 0.0171(9) 0.0178(8) 0.0202(9) 0.0026(7) -0.0053(7) 0.0015(7)
C22 0.0195(9) 0.0138(8) 0.0261(9) 0.0038(7) -0.0023(7) -0.0025(7)
C7 0.0161(8) 0.0171(8) 0.0200(9) 0.0007(7) -0.0050(7) -0.0002(7)
C26 0.0204(9) 0.0188(9) 0.0327(10) 0.0003(8) -0.0081(8) -0.0013(7)
C5 0.0230(9) 0.0154(8) 0.0254(10) 0.0034(7) -0.0075(8) -0.0021(7)
C6 0.0165(8) 0.0189(9) 0.0230(9) 0.0032(7) -0.0051(7) -0.0028(7)
C8 0.0145(8) 0.0166(8) 0.0203(9) 0.0023(7) -0.0035(7) 0.0003(7)
C2 0.0220(10) 0.0257(10) 0.0193(9) 0.0014(7) -0.0040(7) 0.0007(8)
C10 0.0195(10) 0.0261(10) 0.0273(10) 0.0064(8) -0.0042(8) -0.0055(8)
C12 0.0186(9) 0.0331(10) 0.0209(9) 0.0039(8) -0.0024(7) -0.0001(8)
C9 0.0201(9) 0.0211(9) 0.0251(10) 0.0017(7) -0.0041(7) -0.0060(7)
C1 0.0223(10) 0.0313(10) 0.0218(9) 0.0082(8) -0.0038(8) -0.0024(8)
C4 0.0215(10) 0.0174(8) 0.0223(9) -0.0013(7) -0.0081(8) 0.0006(7)
C20 0.0185(9) 0.0230(9) 0.0225(9) 0.0006(7) -0.0059(7) 0.0011(7)
C25 0.0199(10) 0.0252(10) 0.0390(12) -0.0020(8) -0.0020(9) 0.0024(8)
C23 0.0259(10) 0.0206(9) 0.0235(10) 0.0026(7) 0.0009(8) 0.0042(8)
C13 0.0381(12) 0.0354(11) 0.0201(9) -0.0025(8) -0.0062(9) -0.0009(9)
C21 0.0295(11) 0.0281(10) 0.0265(10) 0.0039(8) -0.0008(9) -0.0087(9)
C18 0.0446(14) 0.0273(11) 0.0521(14) 0.0053(10) -0.0285(12) -0.0136(10)
loop_
_atom_type_symbol
_atom_type_description
_atom_type_scat_dispersion_real
_atom_type_scat_dispersion_imag
_atom_type_scat_source
C C 0.0181 0.0091 'International Tables Vol C Tables 4.2.6.8 and 6.1.1.4'
H H 0.0000 0.0000 'International Tables Vol C Tables 4.2.6.8 and 6.1.1.4'
O O 0.0492 0.0322 'International Tables Vol C Tables 4.2.6.8 and 6.1.1.4'
loop_
_geom_angle_atom_site_label_1
_geom_angle_atom_site_label_2
_geom_angle_atom_site_label_3
_geom_angle
C18 O17 C4 112.94(15)
C1 O11 C10 108.04(15)
C23 O24 C25 106.30(16)
O16 C15 C14 122.29(18)
O16 C15 C22 119.94(17)
C22 C15 C14 117.75(16)
C15 C14 H14A 108.3
C15 C14 H14B 108.3
C15 C14 C7 115.99(15)
H14A C14 H14B 107.4
C7 C14 H14A 108.3
C7 C14 H14B 108.3
C8 C3 C2 119.63(16)
C8 C3 C4 123.09(16)
C4 C3 C2 117.29(15)
C26 C22 C15 126.05(18)
C23 C22 C15 128.43(17)
C23 C22 C26 105.52(18)
C14 C7 C6 108.93(15)
C14 C7 C20 106.15(14)
C8 C7 C14 112.41(15)
C8 C7 C6 109.99(14)
C8 C7 C20 107.25(15)
C20 C7 C6 112.10(14)
C22 C26 H26 126.7
C25 C26 C22 106.68(19)
C25 C26 H26 126.7
H5A C5 H5B 107.9
C6 C5 H5A 109.2
C6 C5 H5B 109.2
C4 C5 H5A 109.2
C4 C5 H5B 109.2
C4 C5 C6 111.94(15)
C7 C6 H6 106.8
C5 C6 C7 110.13(15)
C5 C6 H6 106.8
C5 C6 C21 111.10(15)
C21 C6 C7 114.82(15)
C21 C6 H6 106.8
C3 C8 C7 123.26(16)
C3 C8 C9 120.84(16)
C9 C8 C7 115.77(15)
C12 C2 C3 107.96(15)
C1 C2 C3 107.26(16)
C1 C2 C12 99.42(15)
C13 C2 C3 115.54(16)
C13 C2 C12 114.25(17)
C13 C2 C1 111.02(16)
O11 C10 H10 111.2
O11 C10 C12 103.42(15)
O11 C10 C9 108.25(16)
C12 C10 H10 111.2
C12 C10 C9 111.39(16)
C9 C10 H10 111.2
C2 C12 H12A 112.0
C2 C12 H12B 112.0
C10 C12 C2 98.76(16)
C10 C12 H12A 112.0
C10 C12 H12B 112.0
H12A C12 H12B 109.7
C8 C9 H9A 109.0
C8 C9 H9B 109.0
C10 C9 C8 112.78(15)
C10 C9 H9A 109.0
C10 C9 H9B 109.0
H9A C9 H9B 107.8
O11 C1 C2 109.20(16)
O19 C1 O11 121.86(19)
O19 C1 C2 128.91(19)
O17 C4 C3 106.67(14)
O17 C4 C5 111.13(15)
O17 C4 H4 108.8
C3 C4 C5 112.56(14)
C3 C4 H4 108.8
C5 C4 H4 108.8
C7 C20 H20A 109.5
C7 C20 H20B 109.5
C7 C20 H20C 109.5
H20A C20 H20B 109.5
H20A C20 H20C 109.5
H20B C20 H20C 109.5
O24 C25 H25 124.6
C26 C25 O24 110.84(18)
C26 C25 H25 124.6
O24 C23 C22 110.64(18)
O24 C23 H23 124.7
C22 C23 H23 124.7
C2 C13 H13A 109.5
C2 C13 H13B 109.5
C2 C13 H13C 109.5
H13A C13 H13B 109.5
H13A C13 H13C 109.5
H13B C13 H13C 109.5
C6 C21 H21A 109.5
C6 C21 H21B 109.5
C6 C21 H21C 109.5
H21A C21 H21B 109.5
H21A C21 H21C 109.5
H21B C21 H21C 109.5
O17 C18 H18A 109.5
O17 C18 H18B 109.5
O17 C18 H18C 109.5
H18A C18 H18B 109.5
H18A C18 H18C 109.5
H18B C18 H18C 109.5
loop_
_geom_bond_atom_site_label_1
_geom_bond_atom_site_label_2
_geom_bond_distance
O17 C4 1.438(2)
O17 C18 1.425(2)
O16 C15 1.221(2)
O11 C10 1.470(2)
O11 C1 1.353(3)
O24 C25 1.373(3)
O24 C23 1.359(3)
O19 C1 1.202(2)
C15 C14 1.509(3)
C15 C22 1.469(3)
C14 H14A 0.9700
C14 H14B 0.9700
C14 C7 1.544(3)
C3 C8 1.342(3)
C3 C2 1.543(3)
C3 C4 1.511(2)
C22 C26 1.437(3)
C22 C23 1.365(3)
C7 C6 1.548(2)
C7 C8 1.534(2)
C7 C20 1.546(2)
C26 H26 0.9300
C26 C25 1.337(3)
C5 H5A 0.9700
C5 H5B 0.9700
C5 C6 1.521(3)
C5 C4 1.519(2)
C6 H6 0.9800
C6 C21 1.528(3)
C8 C9 1.520(2)
C2 C12 1.534(3)
C2 C1 1.527(3)
C2 C13 1.520(3)
C10 H10 0.9800
C10 C12 1.512(3)
C10 C9 1.514(3)
C12 H12A 0.9700
C12 H12B 0.9700
C9 H9A 0.9700
C9 H9B 0.9700
C4 H4 0.9800
C20 H20A 0.9600
C20 H20B 0.9600
C20 H20C 0.9600
C25 H25 0.9300
C23 H23 0.9300
C13 H13A 0.9600
C13 H13B 0.9600
C13 H13C 0.9600
C21 H21A 0.9600
C21 H21B 0.9600
C21 H21C 0.9600
C18 H18A 0.9600
C18 H18B 0.9600
C18 H18C 0.9600
loop_
_geom_torsion_atom_site_label_1
_geom_torsion_atom_site_label_2
_geom_torsion_atom_site_label_3
_geom_torsion_atom_site_label_4
_geom_torsion
O16 C15 C14 C7 -33.6(2)
O16 C15 C22 C26 0.1(3)
O16 C15 C22 C23 -179.72(19)
O11 C10 C12 C2 -42.97(17)
O11 C10 C9 C8 73.3(2)
C15 C14 C7 C6 -59.15(19)
C15 C14 C7 C8 63.0(2)
C15 C14 C7 C20 179.97(15)
C15 C22 C26 C25 179.12(18)
C15 C22 C23 O24 -179.73(16)
C14 C15 C22 C26 178.43(17)
C14 C15 C22 C23 -1.4(3)
C14 C7 C6 C5 172.81(14)
C14 C7 C6 C21 -60.9(2)
C14 C7 C8 C3 -143.34(17)
C14 C7 C8 C9 40.9(2)
C3 C8 C9 C10 0.9(2)
C3 C2 C12 C10 -69.51(18)
C3 C2 C1 O11 83.49(18)
C3 C2 C1 O19 -98.3(2)
C22 C15 C14 C7 148.10(16)
C22 C26 C25 O24 1.3(2)
C7 C8 C9 C10 176.74(17)
C26 C22 C23 O24 0.4(2)
C6 C7 C8 C3 -21.8(2)
C6 C7 C8 C9 162.47(15)
C6 C5 C4 O17 -76.47(19)
C6 C5 C4 C3 43.1(2)
C8 C3 C2 C12 37.2(2)
C8 C3 C2 C1 -69.1(2)
C8 C3 C2 C13 166.50(18)
C8 C3 C4 O17 107.72(19)
C8 C3 C4 C5 -14.4(3)
C8 C7 C6 C5 49.20(19)
C8 C7 C6 C21 175.49(16)
C2 C3 C8 C7 -175.96(16)
C2 C3 C8 C9 -0.4(3)
C2 C3 C4 O17 -72.07(19)
C2 C3 C4 C5 165.80(16)
C10 O11 C1 O19 -176.53(19)
C10 O11 C1 C2 1.9(2)
C12 C2 C1 O11 -28.8(2)
C12 C2 C1 O19 149.5(2)
C12 C10 C9 C8 -39.8(2)
C9 C10 C12 C2 73.08(18)
C1 O11 C10 C12 26.65(19)
C1 O11 C10 C9 -91.60(18)
C1 C2 C12 C10 42.20(17)
C4 C3 C8 C7 4.3(3)
C4 C3 C8 C9 179.80(16)
C4 C3 C2 C12 -143.01(16)
C4 C3 C2 C1 110.67(18)
C4 C3 C2 C13 -13.7(2)
C4 C5 C6 C7 -62.13(19)
C4 C5 C6 C21 169.51(15)
C20 C7 C6 C5 -70.03(18)
C20 C7 C6 C21 56.3(2)
C20 C7 C8 C3 100.4(2)
C20 C7 C8 C9 -75.38(18)
C25 O24 C23 C22 0.3(2)
C23 O24 C25 C26 -1.0(2)
C23 C22 C26 C25 -1.0(2)
C13 C2 C12 C10 160.47(16)
C13 C2 C1 O11 -149.42(17)
C13 C2 C1 O19 28.8(3)
C18 O17 C4 C3 156.57(18)
C18 O17 C4 C5 -80.4(2)
