#------------------------------------------------------------------------------
#$Date: 2020-06-24 04:12:22 +0300 (Wed, 24 Jun 2020) $
#$Revision: 253386 $
#$URL: file:///home/coder/svn-repositories/cod/cif/1/55/83/1558399.cif $
#------------------------------------------------------------------------------
#
# This file is available in the Crystallography Open Database (COD),
# http://www.crystallography.net/
#
# All data on this site have been placed in the public domain by the
# contributors.
#
data_1558399
loop_
_publ_author_name
'Peng, Guang'
'Yang, Yi'
'Yan, Tao'
'Zhao, Dan'
'Li, Bing-Xuan'
'Zhang, Ge'
'Lin, Zheshuai'
'Ye, Ning'
_publ_section_title
;
 Helix-constructed Polar Rare-earth Iodate Fluoride as Laser Nonlinear
 Optical Multifunctional Materials
;
_journal_name_full               'Chemical Science'
_journal_paper_doi               10.1039/D0SC02789H
_journal_year                    2020
_chemical_formula_moiety         'F I2 O6 Y'
_chemical_formula_sum            'F I2 O6 Y'
_chemical_formula_weight         457.71
_chemical_name_common            Y(IO3)2F
_chemical_name_systematic        Y(IO3)2F
_space_group_crystal_system      hexagonal
_space_group_IT_number           170
_space_group_name_Hall           'P 65'
_space_group_name_H-M_alt        'P 65'
_audit_creation_method           SHELXL-2016/6
_audit_update_record
;
2019-10-30 deposited with the CCDC.	2020-06-22 downloaded from the CCDC.
;
_cell_angle_alpha                90
_cell_angle_beta                 90
_cell_angle_gamma                120
_cell_formula_units_Z            6
_cell_length_a                   6.8455(9)
_cell_length_b                   6.8455(9)
_cell_length_c                   21.807(5)
_cell_measurement_reflns_used    3245
_cell_measurement_temperature    293(2)
_cell_measurement_theta_max      27.4623
_cell_measurement_theta_min      3.5615
_cell_volume                     885.0(3)
_computing_cell_refinement       'CrystalClear (Rigaku Inc., 2008)'
_computing_data_collection       'CrystalClear (Rigaku Inc., 2008)'
_computing_data_reduction        'CrystalClear (Rigaku Inc., 2008)'
_computing_structure_refinement  'SHELXL-2016/6 (Sheldrick, 2016)'
_diffrn_ambient_temperature      293(2)
_diffrn_detector_area_resol_mean 28.5714
_diffrn_measured_fraction_theta_full 1.000
_diffrn_measured_fraction_theta_max 1.000
_diffrn_measurement_device_type
;
Saturn724+ (2x2 bin mode)
;
_diffrn_measurement_method       CCD_Profile_fitting
_diffrn_radiation_type           MoK\a
_diffrn_radiation_wavelength     0.71073
_diffrn_reflns_av_R_equivalents  0.0939
_diffrn_reflns_av_unetI/netI     0.0787
_diffrn_reflns_Laue_measured_fraction_full 1.000
_diffrn_reflns_Laue_measured_fraction_max 1.000
_diffrn_reflns_limit_h_max       8
_diffrn_reflns_limit_h_min       -7
_diffrn_reflns_limit_k_max       8
_diffrn_reflns_limit_k_min       -8
_diffrn_reflns_limit_l_max       27
_diffrn_reflns_limit_l_min       -28
_diffrn_reflns_number            7526
_diffrn_reflns_point_group_measured_fraction_full 0.977
_diffrn_reflns_point_group_measured_fraction_max 0.979
_diffrn_reflns_theta_full        25.242
_diffrn_reflns_theta_max         27.463
_diffrn_reflns_theta_min         3.437
_exptl_absorpt_coefficient_mu    20.344
_exptl_absorpt_correction_T_max  1.0000
_exptl_absorpt_correction_T_min  0.6209
_exptl_absorpt_correction_type   multi-scan
_exptl_crystal_colour            White
_exptl_crystal_density_diffrn    5.153
_exptl_crystal_density_method    'not measured'
_exptl_crystal_description       Prism
_exptl_crystal_F_000             1212
_exptl_crystal_recrystallization_method 'hydrothermal method'
_exptl_crystal_size_max          0.2000
_exptl_crystal_size_mid          0.2000
_exptl_crystal_size_min          0.1500
_refine_diff_density_max         2.762
_refine_diff_density_min         -1.827
_refine_diff_density_rms         0.366
_refine_ls_abs_structure_details
;
 Twinning involves inversion, so Flack parameter cannot be determined
;
_refine_ls_extinction_coef       0.00050(17)
_refine_ls_extinction_expression Fc^*^=kFc[1+0.001xFc^2^\l^3^/sin(2\q)]^-1/4^
_refine_ls_extinction_method     'SHELXL-2016/6 (Sheldrick 2016)'
_refine_ls_goodness_of_fit_ref   1.108
_refine_ls_hydrogen_treatment    undef
_refine_ls_matrix_type           full
_refine_ls_number_parameters     93
_refine_ls_number_reflns         1319
_refine_ls_number_restraints     31
_refine_ls_restrained_S_all      1.101
_refine_ls_R_factor_all          0.0515
_refine_ls_R_factor_gt           0.0503
_refine_ls_shift/su_max          0.000
_refine_ls_shift/su_mean         0.000
_refine_ls_structure_factor_coef Fsqd
_refine_ls_weighting_details
'w=1/[\s^2^(Fo^2^)+(0.0204P)^2^+26.2202P] where P=(Fo^2^+2Fc^2^)/3'
_refine_ls_weighting_scheme      calc
_refine_ls_wR_factor_gt          0.1078
_refine_ls_wR_factor_ref         0.1084
_reflns_Friedel_coverage         0.909
_reflns_Friedel_fraction_full    0.952
_reflns_Friedel_fraction_max     0.957
_reflns_number_gt                1284
_reflns_number_total             1319
_reflns_threshold_expression     'I > 2\s(I)'
_cod_data_source_file            d0sc02789h2.cif
_cod_data_source_block           1
_cod_depositor_comments
;
The following automatic conversions were performed:

data item '_exptl_absorpt_correction_type' value 'Multi-scan' was
changed to 'multi-scan' in accordance with the
/home/data/users/saulius/crontab/automatic-downloads/rss-feeds/RSC/lib/dictionaries/cif_core.dic
dictionary named 'cif_core.dic' version 2.4.2 last updated on
2011-04-26.

Automatic conversion script
Id: cif_fix_values 7556 2019-12-06 15:28:31Z antanas 
;
_cod_database_code               1558399
_shelx_shelxl_version_number     2016/6
_shelx_space_group_comment
;
The symmetry employed for this shelxl refinement is uniquely defined
by the following loop, which should always be used as a source of
symmetry information in preference to the above space-group names.
They are only intended as comments.
;
_shelx_res_file
;
TITL 1 in P6(5)
    1.res
    created by SHELXL-2016/6 at 21:04:33 on 07-Sep-2018
CELL 0.71073   6.8455   6.8455  21.8068  90.000  90.000 120.000
ZERR   6.00   0.0009   0.0009   0.0046   0.000   0.000   0.000
LATT -1
SYMM -Y, X-Y, 0.66667+Z
SYMM -X+Y, -X, 0.33333+Z
SYMM -X, -Y, 0.5+Z
SYMM Y, -X+Y, 0.16667+Z
SYMM X-Y, X, 0.83333+Z
SFAC O F Y I
UNIT 36 6 6 12

L.S. 500
BOND
FMAP 2
PLAN 20
ACTA
isor 0.004 O4 O1 O6 O5 O2
TWIN 0 -1 0 -1  0 0 0 0 1
WGHT    0.020400   26.220205
EXTI    0.000495
BASF   0.38623
FVAR       0.16640
Y1    3   -0.329742   -0.325464    0.123679    11.00000    0.01030    0.01451 =
         0.00876    0.00118    0.00349    0.00487
I1    4    0.340392   -0.029923    0.146758    11.00000    0.00870    0.01470 =
         0.01226   -0.00090   -0.00030    0.00588
I2    4   -0.031984    0.308619    0.102007    11.00000    0.01488    0.01898 =
         0.01574    0.00232    0.00051    0.01207
O1    1    0.021655    0.421202    0.024679    11.00000    0.02245    0.01719 =
         0.01328    0.00193    0.00061    0.00539
O2    1   -0.196398    0.416389    0.133791    11.00000    0.02118    0.01731 =
         0.01691    0.00130    0.00026    0.01127
O3    1   -0.260857    0.029344    0.078064    11.00000    0.03186    0.01539 =
         0.05039    0.00278   -0.01011    0.00732
O4    1   -0.687874   -0.298975    0.127239    11.00000    0.00990    0.00747 =
         0.00899   -0.00017    0.00178    0.00222
O5    1    0.369371   -0.028991    0.227500    11.00000    0.02018    0.01291 =
         0.01782   -0.00019    0.00065    0.00780
O6    1    0.054872   -0.098167    0.142878    11.00000    0.02818    0.03323 =
         0.04094   -0.00140    0.00009    0.02159
F1    2   -0.293570   -0.095360    0.199802    11.00000    0.01639    0.03360 =
         0.02000   -0.01291    0.00780   -0.00824

HKLF 4




REM  1 in P6(5)
REM R1 =  0.0503 for    1284 Fo > 4sig(Fo)  and  0.0515 for all    1319 data
REM     93 parameters refined using     31 restraints

END

WGHT      0.0203     26.2556

REM Highest difference peak  2.762,  deepest hole -1.827,  1-sigma level  0.366
Q1    1  -0.0468  0.2852  0.1452  11.00000  0.05    2.76
Q2    1   0.0919  0.4218  0.1021  11.00000  0.05    2.21
Q3    1   0.3471  0.0913  0.1543  11.00000  0.05    2.21
Q4    1   0.3421 -0.0267  0.1063  11.00000  0.05    2.15
Q5    1  -0.0568  0.2791  0.0527  11.00000  0.05    1.48
Q6    1  -0.6726 -0.4634  0.1652  11.00000  0.05    1.20
Q7    1   0.0395 -0.1051  0.1742  11.00000  0.05    1.12
Q8    1   0.3435 -0.0376  0.1915  11.00000  0.05    1.10
Q9    1   0.1804  0.0779  0.2095  11.00000  0.05    1.03
Q10   1   0.2697  0.5640  0.0005  11.00000  0.05    1.03
Q11   1  -0.4328 -0.3296  0.2374  11.00000  0.05    0.98
Q12   1   0.2347  0.0427  0.1876  11.00000  0.05    0.93
Q13   1   0.2157  0.4835  0.0390  11.00000  0.05    0.92
Q14   1   0.6646  0.1483  0.2118  11.00000  0.05    0.92
Q15   1  -0.0063  0.4459  0.1850  11.00000  0.05    0.91
Q16   1   0.4578  0.0615  0.1450  11.00000  0.05    0.89
Q17   1   0.1466 -0.0734  0.2139  11.00000  0.05    0.89
Q18   1  -0.6627 -0.2349  0.0727  11.00000  0.05    0.89
Q19   1  -0.7935 -0.3492  0.2018  11.00000  0.05    0.87
Q20   1   0.0348 -0.0736  0.1149  11.00000  0.05    0.84
;
_shelx_res_checksum              87755
_shelx_hkl_file
;
   0   0  -4    0.54    1.02
   0   0   4    0.56    1.70
   0   0  -4   -1.38    5.38
   0   0   4    6.15    4.39
   0   0  -5    4.81    3.00
   0   0   5    0.64    2.50
   0   0  -5    2.69   11.37
   0   0   5    7.58    7.23
   0   0  -6 5581.36  321.57
   0   0   6 8322.49  476.24
   0   0  -6 5937.25  342.10
   0   0   6 6902.14  396.66
   0   0  -7   -0.09    3.69
   0   0   7    2.01    2.14
   0   0  -7    4.31    8.01
   0   0   7    4.11    8.06
   0   0  -8   -0.38    5.05
   0   0  -8    3.37    6.91
   0   0   8    0.92    3.35
   0   0  -9    8.08    4.84
   0   0  -9    3.91   12.63
   0   0 -10    1.25    3.01
   0   0 -10   -4.71   18.05
   0   0 -11    2.29    6.14
   0   0 -11    2.74    5.85
   0   0 -12  819.26   51.14
   0   0 -12  842.79   58.03
   0   0 -13    4.23    7.52
   0   0 -13   -2.58   17.11
   0   0 -14    5.24    8.67
   0   0 -15    8.92    9.18
   0   0 -16    3.88    9.90
   0   0 -17    4.66    7.45
   0   0 -18  429.28   48.16
   0   0 -19    2.27    7.78
   0   0 -20   -1.05    8.36
   0   0 -21   -1.02    7.75
   0   0 -22    6.84    9.34
   0   0 -23    3.51   13.54
   0   0 -24  692.14  192.87
   0   0 -25    3.91    8.42
   0   0 -26   -0.24   10.26
   0   0 -27    5.16   12.10
   0   0 -28    6.73   10.27
   0  -1 -28  478.42  185.87
  -1   1 -28  425.78  164.08
   1   0 -28  597.95  229.75
   0  -1 -27    9.14   19.88
  -1   1 -27   12.29   12.26
   1   0 -27   13.77   12.66
  -1   1 -26   39.35   25.00
   1   0 -26   46.02   20.78
  -1   1 -25  442.52  126.75
   1   0 -25  346.97   99.04
  -1   1 -24   12.50   13.26
   1   0 -24    2.68   10.84
  -1   1 -23  202.94   35.49
   1   0 -23  259.92   43.20
   0  -1 -22  308.45   32.99
  -1   1 -22  291.37   24.72
   1   0 -22  346.25   35.91
   0  -1 -21   -4.78   12.94
  -1   1 -21    5.81   12.47
   1   0 -21    4.54    8.55
   1   0 -21    5.85    9.61
   0  -1 -20  513.24   41.25
  -1   1 -20  561.22   40.54
   0  -1 -19   70.34   35.55
  -1   1 -19   69.36   11.62
   1   0 -19  115.02   47.96
   0  -1 -18    6.59   15.74
  -1   1 -18    2.39    8.16
   1   0 -18   19.33   13.46
   0  -1 -17  833.89   93.59
  -1   1 -17  911.38   99.28
   1   0 -17 1447.89  131.13
   0  -1 -16   22.07   16.64
  -1   1 -16   38.79   19.18
   1   0 -16   26.91    6.85
   1   0 -16   38.07   18.85
   0  -1 -15   19.42   14.27
  -1   1 -15   10.10   10.59
   1   0 -15   20.91   11.83
   1   0 -15   21.74   14.07
   0  -1 -14 1873.60   92.82
  -1   1 -14 2003.72   93.41
   1   0 -14 1833.38  142.40
   1   0 -14 1638.49  130.96
   0  -1 -13  150.67   18.61
  -1   1 -13  185.35   15.89
   1   0 -13  163.32   13.06
   1   0 -13  206.93   25.05
   0  -1 -12   11.71    9.93
  -1   1 -12   14.55    5.54
   1   0 -12   20.23    7.24
   1   0 -12   15.56   10.66
   0  -1 -11 2111.70  125.98
  -1   1 -11 2630.89  148.45
   1   0 -11 2055.79  118.71
   1   0 -11 1866.66  111.06
   0  -1 -10  421.15   29.47
  -1   1 -10  664.73   41.13
   1   0 -10  532.18   32.05
   1   0 -10  605.01   42.33
   0  -1  -9   31.72    8.75
  -1   1  -9   33.92    9.41
   1   0  -9   25.53    3.52
   1   0  -9   32.25   12.85
   0  -1  -8  494.93   24.89
  -1   1  -8  470.01   20.94
   1   0  -8  445.79   18.63
   1  -1   8  534.99   29.37
   1   0  -8  466.96   33.54
  -1   1  -7  766.29   31.83
   1   0  -7  742.95   29.74
   1   0  -7  713.05   31.69
  -1   0   7  882.02   36.90
   0  -1  -6   20.53    7.27
   0   1   6   27.26    8.91
  -1   1  -6   15.91    2.95
   1  -1   6   21.09    4.96
   1   0  -6   19.35    2.37
  -1   0   6   17.02    2.30
   0   1   6   28.39   14.61
   1   0  -6   17.91   11.50
  -1   0   6   16.54    3.57
   0  -1  -5 1061.56   46.41
   0   1   5  885.56   36.52
  -1   1  -5  968.52   39.47
   1  -1   5  979.69   39.02
   1   0  -5  953.92   37.65
  -1   0   5  958.55   37.73
   0   1   5  964.35   43.16
   1   0  -5  941.83   39.16
  -1   0   5  976.03   39.39
   1  -1   5  934.14   38.08
   0  -1  -4 1071.23   47.14
   0   1   4  933.62   38.80
  -1   1  -4  980.99   39.39
   1  -1   4 1028.18   40.69
   1   0  -4 1005.38   39.53
  -1   0   4  967.53   38.03
   0   1   4  906.13   41.02
   1   0  -4  934.51   38.27
  -1   0   4 1013.34   40.55
   1  -1   4  965.49   37.84
   1  -1   4  978.12   39.99
   0  -1  -3   36.99   15.86
   0   1   3   34.85   13.00
  -1   1  -3   22.21    2.08
   1  -1   3   22.64    2.71
   1   0  -3   25.68    1.99
  -1   0   3   23.07    1.30
   0   1   3   31.28   14.79
   1   0  -3   32.34    9.26
  -1   0   3   30.38    4.57
   1  -1   3   25.22    1.75
   1  -1   3   27.18    4.06
  -1   1  -3   28.29    3.31
   0  -1  -2   21.44   10.92
   0   1   2   11.68    5.68
  -1   1  -2   19.45    1.57
   1  -1   2   18.03    1.20
   1   0  -2   14.34    0.99
   0   1   2    2.79    3.83
   1   0  -2   13.70    1.94
  -1   0   2   20.30    3.97
   1  -1   2   18.14    2.84
  -1   1  -2   18.59    4.31
   1  -1   1   59.66    9.94
  -1   1  -1   40.53    4.08
  -1   0   0    4.38    1.55
   1  -1   0   14.63    7.23
   1   0   1   80.16    6.48
   0  -1   1   67.84    2.91
   1  -1  -1   70.96    4.43
   1  -1  -1   87.83   11.82
  -1   0  -2   33.28   13.28
   1   0   2   19.93    4.64
   1  -1  -2   17.32    2.06
   0   1  -2   20.64    1.73
   1  -1  -2   17.88    3.57
  -1   1   2   15.23    2.52
  -1   0  -2   14.95    1.15
   1  -1  -2   23.02    9.16
  -1   1   2   15.38    7.90
   1   0   2   23.38    7.23
  -1   0  -2   15.29    2.05
  -1   0  -3   23.88    8.65
   1   0   3   40.29   13.79
   1  -1  -3   19.50    3.10
  -1   1   3   19.75    1.66
   0   1  -3   24.89    1.82
   0  -1   3   23.75    1.39
   0   1  -3   23.92    2.12
   1  -1  -3   28.48   15.10
  -1   1   3   37.41   15.23
   0  -1   3   24.69    1.82
   1   0   3   32.12    3.22
  -1   0  -3   25.91    2.46
  -1   0  -4 1037.99   44.12
   1   0   4 1003.30   41.65
   1  -1  -4 1035.47   42.26
  -1   1   4 1054.36   42.09
   0   1  -4 1023.82   40.29
   0  -1   4 1059.83   41.61
   0   1  -4 1028.91   42.09
   1  -1  -4  872.23   37.21
  -1   1   4 1028.47   42.45
   0  -1   4 1032.35   40.98
   1   0   4 1110.28   44.45
  -1   0  -5  867.64   37.85
   1  -1  -5  906.05   37.09
  -1   1   5  999.87   39.97
   0   1  -5  882.42   34.89
   0  -1   5  934.34   36.79
   0   1  -5  944.23   39.50
   1  -1  -5  876.08   44.36
  -1   1   5  890.08   37.49
   0  -1   5 1070.59   43.24
  -1   0  -6   18.55    6.09
   1   0   6   15.57    2.68
   1  -1  -6   21.80   10.97
  -1   1   6   19.73    6.67
   0   1  -6   20.06    3.19
   0  -1   6   17.72    4.07
   0   1  -6   31.78   20.74
   1  -1  -6   15.56    8.59
   0  -1   6   19.73    9.50
  -1   1   6   17.98    7.51
  -1   0  -7  677.39   30.86
   1  -1  -7  841.04   35.69
  -1   1   7  705.81   28.64
   0   1  -7  755.62   30.22
   1  -1  -7  797.99   39.34
   0  -1   7  741.10   31.13
  -1   0  -8  448.42   23.15
   1  -1  -8  415.29   19.55
   0   1  -8  436.13   18.22
   0   1  -8  420.30   21.96
   1  -1  -8  563.99   34.71
   0  -1   8  535.16   24.99
  -1   0  -9   26.21    9.09
   1  -1  -9   31.17   15.21
   0   1  -9   32.17   11.49
   0   1  -9   46.29   25.91
   1  -1  -9   38.26   20.23
   0  -1   9   28.51   10.80
  -1   0 -10  451.90   30.91
   1  -1 -10  532.36   33.72
   0   1 -10  484.59   28.94
   0   1 -10  541.20   37.87
   1  -1 -10  506.26   47.88
  -1   0 -11 1865.06  109.92
   1  -1 -11 2063.05  120.35
   0   1 -11 2189.46  126.32
   0   1 -11 2458.80  141.93
   1  -1 -11 2421.95  142.88
  -1   0 -12   13.91    7.52
   1  -1 -12   18.35    8.60
   0   1 -12   15.73    5.91
   0   1 -12   24.36   11.73
   1  -1 -12   15.95   11.81
  -1   0 -13  122.86   14.14
   1  -1 -13  143.40   13.56
   0   1 -13  139.89   11.30
   0   1 -13  112.73   13.38
   1  -1 -13  170.70   72.55
  -1   0 -14 1707.25  135.03
   1  -1 -14 1554.49  121.76
   0   1 -14 2069.86   95.01
   0   1 -14 2218.99  110.02
   1  -1 -14 1749.93  142.03
  -1   0 -15   20.95   13.92
   1  -1 -15   10.61    7.27
   0   1 -15   24.52    9.70
   1  -1 -15   29.52   29.95
  -1   0 -16   39.45   11.36
   1  -1 -16   30.11   10.12
   0   1 -16   37.80   15.34
   1  -1 -16   27.58   17.26
  -1   0 -17  804.90   89.38
   1  -1 -17  835.12   91.56
   0   1 -17  937.41  100.90
   1  -1 -17 1006.32   71.93
  -1   0 -18    3.94   11.26
   1  -1 -18    4.17    7.58
   0   1 -18    6.19    4.88
   1  -1 -18   -0.97   27.81
  -1   0 -19   55.97   26.57
   1  -1 -19   64.70   22.25
   0   1 -19   86.88   34.28
   1  -1 -19   75.77   29.45
   1  -1 -20  807.02   62.77
   0   1 -20  618.63   43.13
   1  -1 -20  740.28   68.05
  -1   0 -21    4.30   14.08
   1  -1 -21    1.87   10.03
   0   1 -21    7.23    5.83
  -1   0 -22  365.45   68.02
   1  -1 -22  377.98   34.64
   0   1 -22  373.36   29.47
  -1   0 -23  185.24   35.36
   1  -1 -23  225.70   39.10
   0   1 -23  248.75   40.57
  -1   0 -24    0.23   11.70
   1  -1 -24    3.34    6.36
   0   1 -24  108.50   37.49
  -1   0 -25  372.86  108.58
   1  -1 -25  345.71   99.86
   0   1 -25  373.74  106.88
  -1   0 -26   41.86   17.17
   1  -1 -26   31.95   12.84
   0   1 -26   43.66   19.75
  -1   0 -27    9.91   19.14
   1  -1 -27    9.17   13.32
   0   1 -27    2.79   11.28
  -1   0 -28  408.95  159.04
   1  -1 -28  316.85  127.70
   0   1 -28  417.63  160.59
  -1  -1 -27  125.59   69.12
   2  -1 -27  148.81  106.55
  -1   2 -27  131.73   68.78
  -1  -1 -26   54.15   38.74
   2  -1 -26   44.47   26.14
  -1   2 -26   30.19   17.47
   2  -1 -26   46.52   43.43
  -1  -1 -25    8.49   17.95
   2  -1 -25    0.08    7.11
  -1   2 -25    3.10    8.54
   2  -1 -25    2.93   11.89
  -1  -1 -24  205.67   67.20
   2  -1 -24  139.97   40.93
  -1   2 -24  172.08   49.80
   2  -1 -24  208.86  115.74
  -1  -1 -23   40.12   46.19
   2  -1 -23   14.48    8.30
  -1   2 -23   20.23   12.39
   2  -1 -23   24.31   25.95
  -1  -1 -22  118.14   53.98
  -1   2 -22   71.97   15.31
   2  -1 -22   66.33   41.24
  -1  -1 -21  475.58   46.12
  -1   2 -21  543.11   49.29
   2  -1 -21  566.90   53.06
  -1  -1 -20   13.85   17.51
  -1   2 -20   28.46   14.34
   2  -1 -20   20.22   16.62
  -1  -1 -19   23.99   17.64
   2  -1 -19   16.71    7.99
  -1   2 -19   21.64   12.88
   2  -1 -19   35.40   19.47
  -1  -1 -18  173.47   63.30
   2  -1 -18  188.06   16.24
  -1   2 -18  176.93   14.38
   2  -1 -18  173.15   61.61
  -1  -1 -17   15.26   18.01
   2  -1 -17    8.84    8.82
  -1   2 -17    7.25    9.75
   2  -1 -17   29.42   22.92
  -1  -1 -16   35.11   21.96
   2  -1 -16   58.62   11.54
  -1   2 -16   60.34   20.41
   2  -1 -16   86.91   49.06
  -1  -1 -15  263.40   46.07
   2  -1 -15  203.19   17.31
  -1   2 -15  195.62   15.28
   2  -1 -15  234.29   78.79
  -1  -1 -14    9.11   21.84
   2  -1 -14   16.20    7.48
  -1   2 -14   10.05    4.97
   2  -1 -14    9.34   12.16
  -1  -1 -13   11.88   18.17
   2  -1 -13   19.47   11.08
  -1   2 -13   17.19    5.98
   2  -1 -13   35.32   16.61
  -1  -1 -12   24.69   14.01
   2  -1 -12   26.87   10.94
  -1   2 -12   27.68   11.75
   2  -1 -12   29.62   13.83
  -1  -1 -11    5.62   11.38
   2  -1 -11   27.50   10.52
  -1   2 -11   16.16    3.90
   1  -2  11   22.84   12.32
   2  -1 -11   13.95    6.75
  -1  -1 -10  141.05   43.82
   2  -1 -10  140.71   10.56
  -1   2 -10  130.00    9.05
   1  -2  10  156.02   16.75
   2  -1 -10  160.61   23.43
  -1  -1  -9 2379.45  142.60
   2  -1  -9 2356.37  135.70
  -1   2  -9 2363.16  135.93
   1  -2   9 2629.62  149.62
   2  -1  -9 2448.27  140.06
  -1  -1  -8  121.38   19.00
   2  -1  -8  145.00   10.21
  -1   2  -8  117.70    7.95
   1  -2   8  141.76   15.26
   2  -1  -8  122.79   13.11
  -1  -1  -7   33.36   11.06
   2  -1  -7   33.75    2.90
  -1   2  -7   37.30    3.28
  -2   1   7   32.90    1.95
   1  -2   7   27.60    5.60
   2  -1  -7   37.75    6.75
   1  -2   7   34.32    8.84
  -1  -1  -6  697.62   37.60
   2  -1  -6  589.01   23.71
  -1   2  -6  685.79   27.58
  -2   1   6  588.87   23.38
   1  -2   6  610.49   26.10
   2  -1  -6  704.59   31.91
   1  -2   6  684.42   29.34
  -1  -1  -5  102.22   40.63
   2  -1  -5   65.86    3.51
  -1   2  -5   70.10    3.74
  -2   1   5   61.89    2.80
   1  -2   5   65.99    3.08
   2  -1  -5   76.15   16.64
   1  -2   5   62.50   10.20
  -1  -1  -4   51.50   23.38
   2  -1  -4   41.81    3.07
  -1   2  -4   38.48    2.80
  -2   1   4   34.88    1.71
   1  -2   4   37.47    1.97
   2  -1  -4   40.73    5.24
   1  -2   4   38.31    5.69
   1   1   4   42.33    2.53
  -1  -1  -3 6887.89  396.81
   1   1   3 8485.98  487.59
  -1   2  -3 6364.74  363.84
  -2   1   3 6506.73  371.87
   1  -2   3 6641.69  379.65
   2  -1  -3 5969.55  342.16
  -1   2  -3 7185.62  410.61
   1   1   3 8345.32  477.06
   1  -2   3 8203.22  470.53
  -1   2  -3 6845.62  391.93
  -1  -1  -2  153.14   12.88
   1   1   2  142.63   10.61
   2  -1  -2  142.17    5.88
  -1   2  -2  144.92    6.02
   1  -2   2  147.18    6.07
  -2   1   2  143.23    5.78
   2  -1  -2  145.94    7.73
  -2   1   2  153.55    7.11
  -1   2  -2  142.26    5.82
   1   1   2  142.95    6.23
  -2   1   2  152.62   10.40
   1  -2   2  145.13    9.41
  -1   2  -2  137.69    7.62
  -1  -1  -1   28.77   13.58
   2  -1  -1   32.22    4.65
   1   1   1   35.26   22.45
  -1   2  -1   25.48    1.57
   2  -1  -1   23.33    1.14
   1  -2   1   24.29    1.36
   1  -2   1   23.34    8.96
  -1   2  -1   25.57    1.97
   2  -1  -1   26.37    6.05
  -2   1   1   25.35    2.08
   1   1   1   26.35    3.47
  -1  -1  -1   30.23    2.69
   2  -1  -1   27.21   11.54
  -2   1   1   28.31   15.21
   1  -2   1   28.03   16.68
  -1   2  -1   23.69    6.23
  -1  -1   0 3073.65  177.66
  -2   1   0 2954.98  115.85
  -1   2   0 3459.98  199.01
   2  -1   0 2999.03  118.27
  -1   2   0 2945.64  114.87
   1  -2   0 3766.15  217.11
  -1   2   0 3137.52  180.04
   2  -1   0 3084.20  176.83
  -2   1   0 3085.69  176.67
   1   1   0 2981.21  116.37
  -1  -1   0 2945.08  114.93
   2  -1   0 3000.39  120.02
  -2   1   0 3477.67  201.24
   1  -2   0 3240.42  187.31
  -1   2   0 2979.46  117.59
   1  -2  -1   25.74    8.20
   1   1  -1   28.61   11.03
  -1   2   1   22.45    8.94
  -2   1  -1   27.99   10.72
   2  -1   1   26.44    3.57
   1   1  -1   26.56    1.88
   1  -2  -1   36.78   16.20
  -1   2   1   27.15    3.60
   2  -1   1   27.78    2.49
   1   1  -1   26.96    1.94
  -2   1  -1   24.34    1.73
  -1  -1   1   26.03    1.58
   2  -1   1   29.29   15.85
   1  -2  -1   32.71   16.46
  -2   1  -1   30.45   17.66
  -1   2   1   33.34   16.12
   1  -2  -2  126.36   13.08
  -1   2   2  139.38    9.14
  -2   1  -2  137.15    8.79
   2  -1   2  147.75    8.02
   1   1  -2  146.76    6.22
  -1  -1   2  143.12    6.14
   1  -2  -2  189.95   17.68
  -1   2   2  141.11    9.05
   1   1  -2  139.58    6.14
   2  -1   2  145.43    6.53
  -1  -1   2  135.28    5.68
  -2   1  -2  139.86    5.99
   1  -2  -2  137.25   11.37
  -1   2   2  142.51    9.28
   2  -1   2  133.86   10.87
  -2   1  -2  154.02   10.24
   1  -2  -3 6634.57  381.14
  -1   2   3 8442.81  484.58
  -2   1  -3 7130.14  409.69
   2  -1   3 7915.97  453.30
   1   1  -3 6681.53  381.99
  -1   2   3 7315.80  420.47
   1   1  -3 6616.94  378.52
  -1  -1   3 6870.86  392.80
   2  -1   3 6309.06  360.77
  -2   1  -3 6796.17  388.57
   1  -2  -3 6632.08  380.67
  -1   2   3 8467.54  485.56
   2  -1   3 6242.73  358.47
  -2   1  -3 7099.58  406.90
   1  -2  -4   55.05   30.09
  -2   1  -4   57.61    9.17
  -1   2   4   70.33   10.94
   2  -1   4   34.88    3.10
   1   1  -4   35.87    2.28
   1  -2  -4   55.82   28.36
  -1   2   4   50.38   20.58
   1   1  -4   41.84    3.50
  -1  -1   4   38.19    2.20
   2  -1   4   37.70    2.33
  -2   1  -4   36.48    2.14
  -1   2   4   35.25   11.49
   2  -1   4   37.62    7.48
  -2   1  -4   38.94    4.17
   1  -2  -5   64.80    9.60
  -2   1  -5   89.50   11.37
  -1   2   5   78.59    6.34
   2  -1   5   76.93    6.51
   1   1  -5   70.04    3.66
   1  -2  -5  124.47   55.67
   1   1  -5   83.60    5.62
  -1  -1   5   72.99    3.76
   2  -1   5   67.86    3.56
  -1   2   5   85.58    7.42
   2  -1   5   65.25    6.94
  -2   1  -5   89.02    6.19
   1  -2  -6  735.97   35.59
  -2   1  -6  719.41   32.51
  -1   2   6  687.56   28.96
   2  -1   6  692.43   28.79
   1   1  -6  687.10   27.43
   1  -2  -6  722.56   38.00
   1   1  -6  644.23   27.01
  -1  -1   6  742.40   29.76
   2  -1   6  691.96   27.60
   2  -1   6  743.56   32.52
   1  -2  -7   46.43   11.65
  -2   1  -7   42.50   16.17
   1   1  -7   34.97    2.71
   1  -2  -7   31.97   18.47
   1   1  -7   39.79    5.43
  -1  -1   7   40.11    7.30
   2  -1   7   33.07    2.35
   2  -1   7   32.44    5.05
   1  -2  -8  125.61   14.69
  -2   1  -8   95.33    9.59
   1   1  -8  119.65    7.73
   1  -2  -8  168.39   74.58
   1   1  -8  111.08   10.40
  -1  -1   8  146.04    9.85
   2  -1   8  125.25    7.79
   2  -1   8  123.03   11.12
   1  -2  -9 2399.38  141.76
  -2   1  -9 2149.33  125.50
   1   1  -9 2616.26  146.04
   1  -2  -9 2636.81  168.98
   1   1  -9 2262.84  135.20
   2  -1   9 2590.86  145.73
   1  -2 -10  114.07   14.11
  -2   1 -10  124.82   12.29
   1   1 -10  188.23   12.64
   1  -2 -10  150.65   54.48
   1   1 -10  144.62   13.95
   2  -1  10  166.14   13.91
   1  -2 -11   13.02   12.87
  -2   1 -11   19.73    8.16
   1   1 -11   19.78    7.43
   1  -2 -11   16.89   16.86
   1   1 -11   18.45    9.66
   2  -1  11   17.84    4.85
   1  -2 -12   17.73   12.74
  -2   1 -12   40.53   19.12
   1   1 -12   31.07    8.99
   1  -2 -12   36.91   16.15
   1   1 -12   41.90   19.45
   2  -1  12   28.41    5.29
   1  -2 -13   10.90   11.39
  -2   1 -13   18.84   11.53
   1   1 -13   15.63    3.87
   1  -2 -13   26.16   21.69
   1   1 -13   23.26   12.30
   2  -1  13   19.98    9.06
   1  -2 -14   13.48   19.35
  -2   1 -14   12.15   12.23
   1   1 -14    5.65    3.00
   1  -2 -14   13.15   14.91
   1   1 -14   14.84   13.89
   2  -1  14   11.84    6.69
   1  -2 -15  162.32   22.87
  -2   1 -15  190.97   23.45
   1   1 -15  157.19   10.95
   1  -2 -15  213.07   91.50
   1   1 -15  154.98   37.83
   2  -1  15  187.62   15.38
   1  -2 -16   49.58   18.50
  -2   1 -16   52.05   11.63
   1   1 -16   82.11   21.82
   1  -2 -16   63.35   33.14
   1   1 -16   70.34   38.48
   1  -2 -17    5.01   14.40
  -2   1 -17    1.92    4.78
   1   1 -17    2.91    5.44
   1  -2 -17   10.77   13.87
   1   1 -17    2.33    9.48
   1  -2 -18  149.74   21.00
  -2   1 -18  152.74   18.66
   1   1 -18  191.19   14.68
   1  -2 -18  123.97   43.88
   1   1 -18  139.93   33.66
   1  -2 -19    1.47   12.76
  -2   1 -19   14.02   11.49
   1   1 -19   19.36    7.04
   1   1 -19   27.01   19.36
   1  -2 -20   10.47   12.24
  -2   1 -20   10.74   11.68
   1   1 -20   16.39    8.03
   1   1 -20   38.02   24.42
   1  -2 -21  414.34   39.15
  -2   1 -21  538.60   47.68
   1   1 -21  478.49   33.26
   1   1 -21  546.08   45.59
   1  -2 -22   65.21   24.74
  -2   1 -22   49.01   15.94
   1   1 -22   76.33   23.09
   1   1 -22   42.53   24.86
   2  -1  22   48.35   11.07
   1  -2 -23   21.63   26.55
  -2   1 -23   14.93    8.66
   1   1 -23   24.06   15.12
   2  -1  23   16.56    8.28
   1  -2 -24  164.67   54.49
  -2   1 -24  153.93   47.08
   1   1 -24  212.21   63.81
   2  -1  24  182.85   52.66
  -2   1 -25    6.41   20.22
   1   1 -25    3.60    5.39
   2  -1  25    7.44    6.62
  -2   1 -26   26.45   18.34
   2  -1  26   30.66   19.10
   1  -2 -27   74.33   60.81
  -2   1 -27  133.95   74.48
   2  -1  27  131.08   67.89
   0  -2 -27   13.64   23.17
  -2   2 -27    5.18   10.79
   2  -2  27    9.28    9.31
   0  -2 -26   13.89   16.07
  -2   2 -26   22.20   17.56
   2   0 -26   31.52   18.73
   2   0 -26   24.31   23.49
   2  -2  26   15.29    9.89
   0  -2 -25  446.20  119.56
  -2   2 -25  613.04  285.35
   2   0 -25  504.19  234.21
   2   0 -25  759.85  355.03
   2  -2  25  432.72  111.89
   0  -2 -24   28.85   23.19
  -2   2 -24   19.65   12.55
   2   0 -24   18.73   11.98
   2   0 -24   16.38   14.89
   2  -2  24   11.78    8.90
   0  -2 -23  378.56   97.20
  -2   2 -23  334.05   84.56
   2   0 -23  425.83  102.29
   2   0 -23  479.08  118.42
   2  -2  23  346.20   83.29
   0  -2 -22  124.61   33.59
  -2   2 -22  143.20   26.38
   2   0 -22  182.43   29.52
   2   0 -22  175.40  104.21
   2  -2  22  132.75   37.25
   0  -2 -21    2.58   16.14
  -2   2 -21    2.52    7.44
   2   0 -21    6.09    4.82
   2   0 -21    2.69    7.47
   2  -2  21    0.82    6.88
   0  -2 -20  335.21   74.47
  -2   2 -20  397.96   80.58
   2   0 -20  534.71  107.28
   2   0 -20  643.08  126.34
   2  -2  20  384.60   77.91
   0  -2 -19  172.10   28.92
  -2   2 -19  180.80   16.19
   2   0 -19  208.52   17.20
   2   0 -19  277.48   72.75
   2  -2  19  164.39   16.96
   0  -2 -18    6.72   14.98
  -2   2 -18    7.23    8.48
   2   0 -18    6.92    6.00
   2   0 -18   19.98   26.44
   2  -2  18    8.17    8.01
  -2   2 -17 1329.34   59.22
   2   0 -17  919.74   98.78
   2   0 -17  883.22  115.79
   2  -2  17  869.75   94.97
  -2   2 -16   29.36    9.72
   2   0 -16   23.92    7.05
   2   0 -16   31.99   16.95
   2  -2  16   22.16   10.57
  -2   2 -15  120.23   12.33
   2   0 -15   97.99    8.23
   2   0 -15  125.16   61.70
   2  -2  15   74.91   12.08
  -2   2 -14 1821.42  142.59
   2   0 -14 1385.77  107.55
   2  -2  14 1641.47  129.35
  -2   2 -13  164.16   16.49
   2   0 -13  138.06   12.41
   2   0 -13  132.52   22.48
   2  -2  13  128.92   15.37
  -2   2 -12   55.92    7.77
   2   0 -12   56.86    6.29
   2   0 -12   65.99   28.94
   2  -2  12   55.95   10.44
   0  -2 -11 1147.06   72.29
  -2   2 -11 1563.77   89.68
   2   0 -11 1161.35   65.40
   2   0 -11 1202.05   72.64
   2  -2  11 1332.18   77.74
   0  -2 -10  208.09   25.49
  -2   2 -10  242.74   16.54
   2   0 -10  203.78   12.42
   2   0 -10  220.21   18.16
   2  -2  10  204.24   11.86
   2  -2  10  209.89   22.06
   0  -2  -9   65.43   12.58
  -2   2  -9   90.05    8.15
   2   0  -9   90.76    6.47
   2   0  -9   96.69   11.51
   2  -2   9   88.05    5.73
   2  -2   9   71.96    7.75
   0  -2  -8 1123.01   71.16
  -2   2  -8 1394.06   81.35
   2   0  -8 1213.39   69.89
   2   0  -8 1374.14   81.39
   2  -2   8 1249.18   71.79
   2  -2   8 1178.64   70.09
   0  -2  -7  418.03   31.88
  -2   2  -7  586.41   35.22
   2   0  -7  486.79   28.30
   2   0  -7  540.18   34.94
   2  -2   7  498.09   28.89
   2  -2   7  524.54   33.16
   0  -2  -6   78.19   37.20
  -2   2  -6   66.69    5.70
   2  -2   6   73.81    5.08
   2   0  -6   62.79    4.29
   2   0  -6   81.95   19.66
   2  -2   6   66.71    4.69
   2  -2   6   65.77    8.28
   0  -2  -5  188.77   17.44
  -2   2  -5  172.15    8.22
   2  -2   5  189.77    8.05
   2   0  -5  189.10    8.02
   2   0  -5  190.19   10.51
   2  -2   5  190.85    8.00
  -2   2  -5  182.92    7.51
   0   2   5  192.41    9.66
   2  -2   5  169.15   11.47
   0  -2  -4  220.27   18.26
  -2   2  -4  200.23    9.32
   2  -2   4  191.71    7.98
   2   0  -4  182.62    7.66
   0   2   4  235.55   15.60
   2   0  -4  205.38   10.31
   2  -2   4  185.42    7.87
  -2   2  -4  197.83    8.12
   0   2   4  231.04   11.40
   2  -2   4  178.60   12.11
   0  -2  -3  169.74   14.95
  -2   2  -3  166.08    7.53
   2  -2   3  158.79    6.60
   2   0  -3  169.97    7.12
  -2   0   3  170.77    7.11
   0   2   3  165.31   12.11
   2   0  -3  161.36    8.43
   2  -2   3  163.98    7.13
  -2   2  -3  161.36    6.69
   0   2   3  151.97    7.49
   2  -2   3  143.85   10.75
   0  -2  -2  216.49   15.85
   0   2   2  196.10   14.35
  -2   2  -2  192.46    8.17
   2  -2   2  190.82    7.63
   2   0  -2  201.76    8.35
  -2   0   2  193.01    7.95
   0   2   2  183.78   11.78
   2  -2   2  186.50    8.11
   2   0  -2  188.43    8.70
  -2   2  -2  193.58    8.03
   0  -2  -2  193.36   10.10
   2  -2   2  173.16   13.00
   0   2   2  194.29    8.75
   0  -2  -1  822.01   36.06
   2   0  -1  868.91   36.85
   0   2   1  969.25   43.18
  -2   2  -1  833.17   32.75
   2  -2   1  831.29   32.46
   2   0  -1  832.58   32.80
   2  -2   1  816.14   32.71
   2   0  -1  795.55   31.73
  -2   2  -1  842.02   33.26
  -2   0   1  794.60   33.19
   2  -2   1  814.01   40.49
   0  -2  -1  793.33   32.87
   0   2   1  765.46   30.81
  -2   0   0    2.92    3.44
   0   2   0    3.83    3.78
   2   0   0    2.24    3.51
  -2   2   0    2.62    1.23
   0   2   0    3.60    1.15
   2  -2   0    4.42    2.59
  -2   2   0    2.22    1.19
   2   0   0    4.04    2.17
  -2   0   0    2.23    0.86
  -2   0   0    3.45    2.80
   2  -2   0    6.65    5.67
   0  -2   0    2.06    2.57
   0   2  -1  904.83   38.71
  -2   0  -1  846.44   37.83
   2   0   1  825.90   36.05
  -2   2   1  844.83   32.92
   0   2  -1  816.11   32.20
   2  -2  -1  870.70   35.82
  -2   2   1  869.97   34.78
   2   0   1  869.58   34.56
   0   2  -1  823.78   32.25
   2   0   1  824.95   34.77
   2  -2  -1  828.41   38.17
  -2   0  -1  850.04   35.74
   0  -2   1  896.45   36.40
  -2   0  -2  227.24   15.66
   2   0   2  260.89   29.62
  -2   2   2  176.38    7.26
   0   2  -2  198.85    8.32
   2  -2  -2  179.60   10.38
  -2   2   2  204.97    9.48
   2   0   2  200.70    8.73
   0   2  -2  196.32    7.85
   2  -2  -2  211.29   15.97
   2   0   2  198.62   16.78
  -2   0  -2  200.41   10.45
   0  -2   2  205.88    9.82
  -2   0  -3  171.26   21.10
   2   0   3  200.39   13.33
   2  -2  -3  171.83    9.31
  -2   2   3  162.53    7.10
   0   2  -3  167.49    7.16
   2  -2  -3  169.32   10.86
   0   2  -3  165.81    6.72
   2   0   3  175.38    7.88
   2  -2  -3  210.51   16.22
   2   0   3  184.87   14.44
  -2   0  -3  171.20    8.72
   0  -2   3  158.33    8.22
  -2   0  -4  195.41   15.67
   2  -2  -4  176.45    9.44
  -2   2   4  176.65    7.82
   0   2  -4  194.58    8.30
   2  -2  -4  181.37   12.27
   0   2  -4  202.74    8.45
   2   0   4  179.65    7.99
   0  -2   4  215.44    8.53
   2   0   4  184.08   10.31
  -2   0  -4  197.48    9.41
  -2   0  -5  160.34   19.95
   2  -2  -5  203.06   11.16
  -2   2   5  184.37    8.09
   0   2  -5  192.41    8.26
   2  -2  -5  166.69   15.62
   0  -2   5  197.91    7.90
   2   0   5  205.55    9.00
   2   0   5  192.20   10.53
  -2   0  -5  203.34    9.47
  -2   0  -6   65.91   11.00
   2  -2  -6   51.58    5.97
  -2   2   6   66.11    4.75
   0   2  -6   66.14    4.56
   0   2  -6   62.99    5.43
   2  -2  -6   67.73   33.80
   0  -2   6   69.71    4.35
   2   0   6   64.07    4.52
   2   0   6   62.40    6.25
  -2   0  -7  542.88   37.53
   2  -2  -7  533.41   36.38
  -2   2   7  511.28   29.94
   0   2  -7  534.63   31.12
   0   2  -7  484.82   29.56
   2  -2  -7  462.40   32.81
   0  -2   7  537.13   31.27
   2   0   7  503.43   29.39
   2   0   7  555.11   33.59
  -2   0  -8 1264.62   80.49
   2  -2  -8 1228.04   73.07
   0   2  -8 1153.28   66.43
   0   2  -8 1048.14   61.76
   0  -2   8 1181.04   68.22
   2   0   8 1266.55   73.91
  -2   0  -9   83.39   23.92
   2  -2  -9   72.94    8.60
   0   2  -9   91.99    6.47
   0   2  -9  108.47   11.79
   2  -2  -9  104.26   47.65
   0  -2   9   85.71    7.05
   2   0   9  106.13    9.55
  -2   0 -10  178.71   17.99
   2  -2 -10  258.20   26.79
   0   2 -10  246.56   15.06
   0   2 -10  338.23   25.77
   2  -2 -10  288.14   30.50
   0  -2  10  247.36   15.59
   2   0  10  267.75   18.18
  -2   0 -11 1117.98   68.86
   2  -2 -11 1352.23   80.24
   2  -2 -11 1607.10  102.74
   0  -2  11 1082.19   61.52
   2   0  11 1194.29   68.05
  -2   0 -12   35.38   17.44
   2  -2 -12   60.69   12.50
   0   2 -12   48.08   10.16
   2  -2 -12   37.40   16.36
   2   0  12   52.83   17.60
  -2   0 -13  318.60   54.49
   2  -2 -13  178.80   23.77
   0   2 -13  161.80   14.42
   0   2 -13  148.20   17.55
   2  -2 -13  155.12   74.52
   2   0  13  174.52   16.29
  -2   0 -14 1461.72  121.43
   2  -2 -14 1722.18  137.24
   0   2 -14 1513.55  117.33
   0   2 -14 1314.13  104.02
   2  -2 -14 1444.44  121.45
   2   0  14 1664.03  129.65
  -2   0 -15   85.67   19.77
   2  -2 -15   97.49   48.83
   0   2 -15   99.45    8.88
   2  -2 -15  111.96   45.93
  -2   0 -16   29.01   20.42
   2  -2 -16   33.17   19.73
   0   2 -16   29.36    7.20
   2  -2 -16   24.59   14.51
  -2   0 -17  706.60   80.02
   2  -2 -17  994.96   47.81
   0   2 -17  958.35   39.49
   2  -2 -17 1176.71   71.68
  -2   0 -18    5.24   11.34
   2  -2 -18    3.98    4.44
   0   2 -18   11.08    6.70
   2  -2 -18    7.44    8.92
  -2   0 -19  129.70   20.12
   2  -2 -19  182.66   21.35
   2  -2 -19  256.14   75.66
  -2   0 -20  386.23   82.36
   2  -2 -20  381.82   79.60
   0   2 -20  567.04  113.45
   2  -2 -20  444.97   94.85
  -2   0 -21    1.92   12.66
   2  -2 -21    0.62    8.79
   0   2 -21    4.22    4.16
   2  -2 -21   22.37   26.69
  -2   0 -22  143.91   34.48
   2  -2 -22   98.82   52.61
   0   2 -22  187.86   30.83
   2  -2 -22  220.17  112.58
  -2   0 -23  378.33   95.83
   2  -2 -23  376.00   92.60
   0   2 -23  447.63  107.11
   2  -2 -23  345.38   86.33
  -2   0 -24   12.90   15.15
   2  -2 -24   16.08   10.31
   0   2 -24   23.51   12.52
   2  -2 -24   13.84   26.21
   2   0  24   14.23    9.17
  -2   0 -25  972.07  454.87
   2  -2 -25  396.75  104.37
   0   2 -25  595.14  276.32
   2   0  25  580.53  269.41
  -2   0 -26   22.30   24.86
   2  -2 -26    5.91   16.72
   0   2 -26   35.07   20.07
   2   0  26   20.07   11.42
  -2   0 -27   15.10   21.18
   2  -2 -27   14.96   12.89
   0   2 -27   25.54   16.08
   2   0  27    6.40   11.43
  -2  -1 -26   37.41   37.02
   3  -2 -26   43.98   25.74
  -1   3 -26   47.84   26.36
   3  -2 -26   48.02   37.78
   2   1  26   45.18   28.70
   1  -3  26   37.75   25.20
  -2  -1 -25  347.16  166.35
   3  -2 -25  380.62  178.23
  -1   3 -25  495.52  253.32
   3  -2 -25  617.59  334.65
   2   1  25  384.10  178.36
  -2  -1 -24    3.92   21.49
   3  -2 -24   19.90   14.78
  -1   3 -24   22.59   11.33
   3  -2 -24   21.51   14.73
   2   1  24   13.05    9.78
  -2  -1 -23  236.32   75.23
   3  -2 -23  248.54   71.96
  -1   3 -23  335.09   95.36
   3  -2 -23  233.34   82.88
   2   1  23  366.38  103.82
  -2  -1 -22  175.04   50.59
   3  -2 -22  206.84   68.66
  -1   3 -22  204.72   50.10
   3  -2 -22  152.42   65.52
   2   1  22  248.68   59.90
  -2  -1 -21    4.01   27.42
   3  -2 -21    9.25    5.78
  -1   3 -21   18.61   12.79
   3  -2 -21   14.81   18.03
  -2  -1 -20  479.77   96.60
   3  -2 -20  444.64   33.16
  -1   3 -20  518.02   35.02
   3  -2 -20  623.36   59.64
  -2  -1 -19  183.17   48.88
   3  -2 -19  141.73   30.15
  -1   3 -19  224.33   46.74
   3  -2 -19  276.50   77.94
  -2  -1 -18   42.40   21.28
   3  -2 -18   33.34    7.62
  -1   3 -18   49.42   11.04
   3  -2 -18   59.81   29.10
  -2  -1 -17  627.51   50.00
   3  -2 -17  665.07   31.34
  -1   3 -17  778.91   33.21
   3  -2 -17  610.38   82.56
  -2  -1 -16   28.18   23.51
   3  -2 -16   30.51   12.65
  -1   3 -16   46.67   19.67
   3  -2 -16   53.03   32.83
   2   1  16   61.50    7.03
  -2  -1 -15   82.55   27.77
   3  -2 -15   85.85   33.07
  -1   3 -15   78.36   11.74
   3  -2 -15  131.50   78.24
   2   1  15   86.52   11.99
  -2  -1 -14 1031.97   61.32
   3  -2 -14 1382.22   66.74
  -1   3 -14 1212.31   56.11
   3  -2 -14 1206.63   65.97
   2   1  14 1319.08   61.38
  -2  -1 -13   61.22   20.17
   3  -2 -13   84.87    9.75
  -1   3 -13   89.13    7.55
   3  -2 -13   95.60   38.64
   1  -3  13   74.41    7.10
   2   1  13   79.66   11.38
  -2  -1 -12  241.83   40.15
   3  -2 -12  212.25   20.41
  -1   3 -12  192.08   16.09
   3  -2 -12  276.95   56.62
   1  -3  12  185.84   16.14
   2   1  12  219.33   20.42
   1  -3  12  181.34   18.53
  -2  -1 -11  960.24   83.49
   3  -2 -11 1057.96   83.12
   3  -2 -11 1007.88   93.06
   1  -3  11  869.72   67.60
   2   1  11 1307.91  102.53
   1  -3  11 1094.88   86.90
  -2  -1 -10  243.26   41.28
   3  -2 -10  322.91   21.08
  -1   3 -10  338.17   20.25
   3  -2 -10  266.16   32.62
   1  -3  10  263.28   16.27
   2   1  10  262.71   16.12
   1  -3  10  223.52   21.03
  -2  -1  -9   68.91   32.42
   3  -2  -9   70.04    7.03
  -1   3  -9   75.95    5.73
   3  -2  -9   89.40   36.38
   1  -3   9   67.53    5.24
   2   1   9   79.45    8.43
   1  -3   9   70.72    9.43
  -2  -1  -8 1253.98   83.72
   3  -2  -8 1145.68   65.27
  -1   3  -8 1156.65   64.95
   3  -2  -8 1062.15   64.79
   2   1   8 1245.08   70.24
   1  -3   8 1076.04   62.86
  -2  -1  -7  236.34   24.09
   3  -2  -7  309.12   19.45
  -1   3  -7  281.95   16.78
  -3   2   7  273.51   15.95
   3  -2  -7  250.54   19.31
   2   1   7  293.02   17.56
   2   1   7  303.88   18.62
   1  -3   7  260.54   17.93
  -2  -1  -6  134.56   42.64
   3  -2  -6  111.14    7.71
  -1   3  -6  108.64    6.88
  -3   2   6  104.66    6.25
   3  -2  -6  134.83   16.63
   2   1   6  110.45    7.18
   2   1   6  138.95   12.68
  -2  -1  -5  513.77   37.23
   3  -2  -5  449.53   26.54
  -1   3  -5  429.08   25.41
  -3   2   5  412.13   23.72
   3  -2  -5  425.78   28.36
   2   1   5  419.06   24.64
   2   1   5  407.76   24.29
   1  -3   5  348.71   23.00
  -2  -1  -4  226.68   19.99
   3  -2  -4  202.10   12.11
  -1   3  -4  221.70   13.16
  -3   2   4  193.65   11.22
   3  -2  -4  250.63   18.23
   2   1   4  183.24   11.38
   2   1   4  262.98   16.48
   1  -3   4  177.13   14.72
  -1   3  -3   30.13    2.41
  -3   2   3   28.60    1.78
   3  -2  -3   43.27   18.67
  -1   3  -3   29.07    1.79
   2   1   3   32.11    3.92
   3  -2  -3   59.09   27.38
   1  -3   3   34.09    7.06
  -2  -1  -3   31.78    3.87
  -2  -1  -2  125.30   13.28
   3  -2  -2  150.61   10.22
  -1   3  -2  138.23    8.34
  -1   3  -2  136.91    8.37
   3  -2  -2  150.26   11.15
   2   1   2  143.96    8.98
   3  -2  -2  106.90   13.48
  -2  -1  -2  146.38   11.29
   1  -3   2  126.44   10.80
  -2  -1  -1  444.31   29.65
   3  -2  -1  469.79   27.90
  -1   3  -1  449.66   26.03
  -1   3  -1  398.86   23.75
   3  -2  -1  430.07   26.66
   2   1   1  544.39   31.85
   3  -2  -1  434.32   32.31
  -2  -1  -1  455.54   27.87
   1  -3   1  511.32   35.38
   3  -2   0   24.83    2.14
  -1   3   0   35.59    2.54
   2   1   0   37.73    3.12
   1  -3   0   28.86   11.15
  -1   3   0   25.00    3.58
   3  -2   0   40.56    4.30
   2   1   0   38.70    3.34
  -2  -1   0   25.23    8.57
   3  -2   0   38.29   22.01
   1  -3   0   42.14   19.15
  -1   3   0   45.61    5.06
   3  -2   1  468.07   27.27
   2   1  -1  447.74   26.05
  -1   3   1  479.39   27.71
   1  -3  -1  387.08   28.33
  -1   3   1  395.27   24.48
   3  -2   1  468.88   27.66
   2   1  -1  483.57   28.24
   3  -2   1  449.04   30.94
   1  -3  -1  429.16   29.32
  -1   3   1  528.67   31.70
   1  -3  -2  124.16   19.42
  -3   2  -2  105.56    8.11
   3  -2   2  102.90    7.36
   2   1  -2  138.56    8.55
   1  -3  -2  120.18   16.61
  -1   3   2  130.42   11.22
   3  -2   2  129.41    8.42
   2   1  -2  154.22    9.76
   1  -3  -2  115.43   17.31
   3  -2   2  131.71   14.12
  -1   3   2  125.43    9.39
   1  -3  -3   41.91   25.18
  -3   2  -3   45.85    5.68
   3  -2   3   29.83    2.84
   2   1  -3   26.64    2.35
   1  -3  -3   29.02   15.44
  -1   3   3   63.54   24.91
   2   1  -3   29.44    3.27
   3  -2   3   26.04    2.93
   1  -3  -3   39.14   13.66
   3  -2   3   36.87   16.50
  -1   3   3   33.00   20.30
   1  -3  -4  243.46   23.16
   3  -2   4  262.16   16.01
   2   1  -4  208.19   12.48
   1  -3  -4  212.50   22.22
   2   1  -4  185.44   11.61
   3  -2   4  171.87   10.88
   1  -3  -4  264.24   22.05
  -1   3   4  230.50   15.99
   3  -2   4  151.50   13.39
   1  -3  -5  415.57   28.68
   3  -2   5  468.38   27.59
   2   1  -5  379.65   22.25
   1  -3  -5  398.16   33.08
   2   1  -5  373.35   22.42
   3  -2   5  372.65   22.03
  -1   3   5  481.13   29.80
   3  -2   5  375.26   27.09
   1  -3  -6  113.73   14.63
  -3   2  -6  122.85   10.88
   3  -2   6  119.17    8.10
   2   1  -6  111.64    8.00
   1  -3  -6  103.74   49.82
   2   1  -6  129.91    9.84
   3  -2   6  111.12    7.23
   3  -2   6  125.22   14.39
   1  -3  -7  255.07   32.67
  -3   2  -7  303.23   21.64
   2   1  -7  297.30   17.68
   1  -3  -7  208.59   27.31
   2   1  -7  344.31   21.96
   3  -2   7  318.56   18.90
   3  -2   7  313.08   23.07
   1  -3  -8  997.19   64.98
  -3   2  -8 1249.17   72.98
   2   1  -8 1219.95   68.38
   1  -3  -8 1175.66   78.55
   2   1  -8 1367.38   78.26
   3  -2   8 1123.29   63.12
   3  -2   8 1202.54   71.16
   1  -3  -9   53.06   28.26
  -3   2  -9   84.33   12.05
   2   1  -9   76.96    5.56
   1  -3  -9   95.08   48.57
   2   1  -9   87.22    9.49
   3  -2   9   74.91    5.13
   3  -2   9   67.35    9.90
   1  -3 -10  257.99   28.03
  -3   2 -10  297.33   21.40
   2   1 -10  321.78   22.21
   3  -2  10  262.84   15.39
   3  -2  10  286.11   21.81
   1  -3 -11 1208.60  102.27
  -3   2 -11 1070.96   85.90
   1  -3 -11 1030.71   90.60
   2   1 -11 1126.37   89.10
   3  -2  11 1108.08   85.66
   3  -2  11 1029.17   82.25
   1  -3 -12  141.17   19.51
  -3   2 -12  200.22   20.55
   1  -3 -12  226.66   84.66
   2   1 -12  286.46   60.35
   3  -2  12  210.63   17.00
   3  -2  12  232.38   24.43
   1  -3 -13   61.67   17.36
  -3   2 -13   77.47   11.25
   2   1 -13  102.67    8.37
   1  -3 -13   65.44   46.42
   2   1 -13   90.03   24.43
   3  -2  13   74.76    4.70
   3  -2  13   92.82   16.24
   1  -3 -14 1082.64   65.70
  -3   2 -14 1239.29   62.17
   2   1 -14 1199.31   55.11
   2   1 -14 1281.38   64.82
   3  -2  14 1271.71   57.65
   3  -2  14 1098.87   54.59
   1  -3 -15   62.62   56.05
  -3   2 -15   83.42   16.69
   2   1 -15   78.80   10.20
   2   1 -15  139.75   34.44
   3  -2  15   70.65    8.42
   3  -2  15   69.35   16.48
   1  -3 -16   37.20   24.28
  -3   2 -16   27.95    9.46
   2   1 -16   30.74    7.87
   2   1 -16   38.84   16.29
   3  -2  16   48.99    3.99
   3  -2  16   47.43   12.18
  -3   2 -17  779.80   39.90
   2   1 -17  688.63   28.28
   2   1 -17  679.57   36.13
   3  -2  17  756.18   29.47
   3  -2  17  659.06   32.00
  -3   2 -18   34.97   14.59
   2   1 -18   47.29   16.20
   2   1 -18   58.72   24.86
   3  -2  18   38.98    4.06
   3  -2  18   35.35   12.86
  -3   2 -19  139.42   42.48
   2   1 -19  249.16   53.86
   2   1 -19  304.21   96.76
   3  -2  19  134.69   27.10
   3  -2  19  107.26   24.39
   1  -3 -20  348.24   38.45
  -3   2 -20  618.93   47.31
   2   1 -20  527.84   35.41
   2   1 -20  508.13   41.58
   3  -2  20  464.60   29.04
   3  -2  20  507.91   37.72
   1  -3 -21   10.14   13.74
  -3   2 -21   19.73   12.91
   2   1 -21   15.72    8.15
   2   1 -21    9.50    8.82
   3  -2  21   10.68    5.69
   3  -2  21    7.33    5.74
   1  -3 -22  127.98   51.58
  -3   2 -22  163.64   44.14
   2   1 -22  217.92   53.06
   2   1 -22  178.04   51.58
   3  -2  22  200.55   47.76
   3  -2  22  205.83   69.60
   1  -3 -23  154.39  104.19
  -3   2 -23  243.08   71.50
   2   1 -23  278.10   79.16
   2   1 -23  320.15   93.44
   3  -2  23  254.81   71.75
   3  -2  23  266.34  100.07
   1  -3 -24   15.92   22.04
  -3   2 -24    3.37   13.59
   2   1 -24   10.17    6.51
   2   1 -24   12.58   13.40
   3  -2  24    9.08    6.39
   3  -2  24   11.42    9.64
   1  -3 -25  267.92  129.11
  -3   2 -25  384.54  179.97
   2   1 -25  477.19  243.81
   2   1 -25  559.98  287.76
   3  -2  25  322.76  149.56
   3  -2  25  347.15  161.94
   1  -3 -26   40.99   28.42
  -3   2 -26   55.39   35.64
   2   1 -26   45.94   36.82
   2   1 -26   47.01   41.49
   3  -2  26   38.00   19.79
   3  -2  26   24.70   17.67
  -1  -2 -26   41.26   29.72
  -2   3 -26   49.54   27.25
   3  -1 -26   42.37   23.84
   3  -1 -26   51.21   37.80
   2  -3  26   46.03   27.50
  -1  -2 -25  287.34  139.16
  -2   3 -25  345.31  160.97
   3  -1 -25  312.64  145.81
   3  -1 -25  616.25  360.21
   2  -3  25  329.74  153.67
  -1  -2 -24    1.23   23.87
  -2   3 -24   14.22    9.95
   3  -1 -24    8.81    6.77
   3  -1 -24    7.50   13.51
   2  -3  24    3.28    8.99
  -1  -2 -23  183.90   64.96
  -2   3 -23  287.64   82.49
   3  -1 -23  281.36   82.92
   3  -1 -23  355.30  119.04
   2  -3  23  224.80   65.63
  -1  -2 -22  178.21   55.02
  -2   3 -22  335.78   81.80
   3  -1 -22  258.33   67.46
   3  -1 -22  221.27   79.25
   2  -3  22  166.36   48.16
  -1  -2 -21   35.75   32.63
  -2   3 -21   11.28    9.26
   3  -1 -21   17.48   10.39
   3  -1 -21   28.73   29.09
   2  -3  21    9.12    8.51
  -1  -2 -20  420.49   49.30
  -2   3 -20  701.67   55.80
   3  -1 -20  649.76   44.15
   3  -1 -20  743.79  171.38
   2  -3  20  523.45   38.70
  -1  -2 -19  112.44   39.17
  -2   3 -19  155.62   41.39
   3  -1 -19  115.40   25.12
   3  -1 -19  183.53   64.03
   2  -3  19  153.96   35.63
  -1  -2 -18   24.55   19.70
  -2   3 -18   52.56   16.53
   3  -1 -18   38.17    7.39
   3  -1 -18   50.38   27.98
   2  -3  18   41.38   11.65
  -1  -2 -17  600.87   48.00
  -2   3 -17  815.49   35.37
   3  -1 -17  730.74   34.29
   2  -3  17  639.25   31.87
  -1  -2 -16   30.37   20.93
  -2   3 -16   60.25   12.39
   3  -1 -16   72.49   27.30
   3  -1 -16   66.28   25.88
   2  -3  16   32.93   12.87
  -2   3 -15   47.98    8.91
   3  -1 -15   53.16    8.89
   3  -1 -15   68.45   27.15
   2  -3  15   65.29    7.44
   2  -3  15   66.67   12.37
  -1  -2 -14 1063.52   65.48
  -2   3 -14 1381.48   64.93
   3  -1 -14 1159.57   54.52
   3  -1 -14 1318.90   70.40
   2  -3  14 1240.69   55.84
   2  -3  14 1342.52   66.57
  -1  -2 -13   78.32   45.82
  -2   3 -13   77.67   12.79
   3  -1 -13   66.58    6.22
   3  -1 -13   88.74   40.81
   2  -3  13   82.91    4.56
   2  -3  13   89.90   16.82
  -1  -2 -12  169.44   74.04
  -2   3 -12  198.29   17.36
   3  -1 -12  188.91   16.35
   3  -1 -12  267.84   37.67
   2  -3  12  201.21   15.84
   2  -3  12  214.01   22.84
  -1  -2 -11  794.41   68.44
  -2   3 -11 1041.36   81.06
   3  -1 -11 1061.89   82.78
   3  -1 -11 1069.63   86.21
   2  -3  11 1132.34   87.24
   2  -3  11 1040.50   83.38
  -1  -2 -10  272.11   52.57
  -2   3 -10  277.62   17.01
   3  -1 -10  326.09   20.07
   2  -3  10  336.25   23.11
   3  -1 -10  296.36   23.10
   2  -3  10  314.75   17.88
   2  -3  10  279.34   21.67
  -1  -2  -9  110.01   62.49
  -2   3  -9   48.26    4.76
   3  -1  -9   51.24    4.29
   3  -1  -9   61.97   11.77
   2  -3   9   46.14    3.42
   2  -3   9   36.96    8.86
  -1  -2  -8 1043.72   68.80
  -2   3  -8  957.46   54.00
   3  -1  -8 1012.41   56.98
   3  -1  -8 1085.08   64.23
   2  -3   8  991.65   55.37
   2  -3   8  917.51   54.64
  -1  -2  -7  303.49   50.85
  -2   3  -7  222.54   13.60
   3  -1  -7  241.03   14.49
   3  -1  -7  277.23   20.74
   2  -3   7  214.47   12.32
   2  -3   7  242.88   22.60
  -1  -2  -6  119.15   19.45
  -2   3  -6  105.43    6.92
   3  -1  -6  106.79    6.66
   3  -1  -6  130.50   11.02
   2  -3   6  111.93    6.87
   1   2   6  110.25    7.19
   2  -3   6  125.66   14.11
  -2   3  -5  570.09   33.08
   3  -1  -5  583.87   33.72
  -3   1   5  599.29   34.52
   3  -1  -5  657.46   41.84
   2  -3   5  576.79   33.36
  -2   3  -5  642.54   36.87
   2  -3   5  621.78   39.96
  -1  -2  -4  275.96   25.53
  -2   3  -4  266.25   15.67
   3  -1  -4  283.81   16.55
   2  -3   4  327.29   18.99
  -3   1   4  317.71   18.43
   2  -3   4  280.21   16.62
   3  -1  -4  298.74   19.20
  -2   3  -4  318.69   18.41
   2  -3   4  335.53   25.65
  -1  -2  -3   61.34   33.19
  -2   3  -3   40.10    2.83
   3  -1  -3   45.00    3.01
   2  -3   3   47.57    3.07
  -3   1   3   45.96    2.95
   2  -3   3   42.33    3.85
   3  -1  -3   43.38    6.17
  -2   3  -3   47.15    3.06
   2  -3   3   45.14    8.36
  -1  -2  -2   71.64   11.16
   3  -1  -2   84.77   11.35
  -2   3  -2   82.69    5.06
   3  -1  -2   79.64    4.85
   2  -3   2   76.75    4.68
   2  -3   2   81.61    6.32
   3  -1  -2   71.41    5.88
  -2   3  -2   77.27    4.88
   1   2   2   71.35    4.68
   2  -3   2   81.50   17.79
  -1  -2  -1  354.92   24.68
  -2   3  -1  325.07   19.74
   3  -1  -1  352.81   22.45
  -2   3  -1  334.31   19.31
   3  -1  -1  337.16   19.53
   2  -3   1  304.50   19.12
  -2   3  -1  336.86   19.73
   3  -1  -1  279.71   17.49
   1   2   1  276.14   16.23
   3  -1  -1  332.04   21.59
   2  -3   1  283.31   22.03
  -2   3   0   22.30    8.62
   3  -1   0   41.52   12.62
  -2   3   0   22.10    1.59
   3  -1   0   17.80    1.48
   1   2   0   18.64    2.15
   2  -3   0   28.14   10.26
  -2   3   0   26.22    2.63
   3  -1   0   21.78    8.04
   1   2   0   18.47    2.89
   3  -1   0   33.54   22.00
  -1  -2   0   15.40    2.93
  -3   1  -1  352.77   23.69
  -2   3   1  339.35   22.28
   3  -1   1  379.34   24.04
  -2   3   1  281.76   16.29
   1   2  -1  316.09   18.58
   2  -3  -1  346.35   24.08
  -2   3   1  320.41   19.46
   3  -1   1  271.03   16.45
   1   2  -1  308.07   18.01
   3  -1   1  325.83   23.56
   2  -3  -1  348.88   24.63
  -3   1  -2   85.75   10.95
   1   2  -2   77.23    5.23
   2  -3  -2   80.01   10.33
   3  -1   2   77.64    5.70
   1   2  -2   69.27    4.61
  -1  -2   2   69.41    4.35
   2  -3  -2   88.71   11.34
   3  -1   2  138.38   44.95
   2  -3  -3   46.05   16.04
  -3   1  -3   72.07   30.83
  -2   3   3   39.05    6.77
   3  -1   3   44.90    6.86
   1   2  -3   42.85    3.35
   2  -3  -3   58.72   33.05
   1   2  -3   48.07    4.12
   3  -1   3   50.87    4.45
  -1  -2   3   49.97    3.34
   2  -3  -3   41.82   21.61
   3  -1   3   52.89   10.48
   2  -3  -4  302.32   22.01
  -3   1  -4  280.95   39.05
  -2   3   4  298.24   19.05
   3  -1   4  295.54   20.51
   1   2  -4  311.00   18.37
   2  -3  -4  328.39   30.16
   1   2  -4  324.16   19.14
   3  -1   4  358.41   21.41
  -1  -2   4  373.46   21.64
   2  -3  -4  267.39   21.59
   3  -1   4  309.75   23.09
   2  -3  -5  564.80   37.39
  -3   1  -5  511.98   34.76
  -2   3   5  507.89   30.69
   1   2  -5  601.39   34.88
   2  -3  -5  631.33   45.59
   1   2  -5  647.55   37.77
   3  -1   5  639.36   37.28
  -1  -2   5  622.80   35.87
   3  -1   5  556.23   35.38
   2  -3  -6   94.39   10.83
  -3   1  -6  137.53   15.18
  -2   3   6  119.48    8.75
   1   2  -6  121.15    7.77
   2  -3  -6  107.21   14.50
   1   2  -6  140.53    9.50
  -1  -2   6  124.67    7.58
   3  -1   6  119.03    8.77
   3  -1   6  114.89   13.52
   2  -3  -7  295.63   25.84
  -3   1  -7  282.92   22.03
   1   2  -7  232.65   14.12
   2  -3  -7  247.35   24.65
   1   2  -7  265.85   17.09
  -1  -2   7  227.58   13.48
   3  -1   7  223.14   13.76
   3  -1   7  239.09   19.69
   2  -3  -8  913.18   55.80
   1   2  -8  893.78   50.32
   2  -3  -8  820.67   53.04
   1   2  -8  951.42   54.36
  -1  -2   8  982.28   55.00
   3  -1   8  924.51   52.04
   3  -1   8  836.67   49.43
   2  -3  -9   56.04   10.24
  -3   1  -9   72.34   31.25
   1   2  -9   44.48    4.36
   2  -3  -9   52.60   34.18
   1   2  -9   55.33   15.50
  -1  -2   9   51.15    4.35
   3  -1   9   49.09    4.17
   3  -1   9   47.03    8.86
   2  -3 -10  257.33   27.71
  -3   1 -10  264.12   22.18
   1   2 -10  259.31   15.51
   2  -3 -10  249.92   27.34
   1   2 -10  298.83   20.60
   3  -1  10  329.98   19.33
   3  -1  10  289.74   21.02
   2  -3 -11 1231.59  102.56
  -3   1 -11 1077.09   87.92
   1   2 -11 1095.39   84.79
   2  -3 -11 1032.99   90.45
   1   2 -11 1064.01   88.62
   3  -1  11  989.15   76.61
   3  -1  11 1013.67   80.31
   2  -3 -12  207.74   27.65
  -3   1 -12  212.95   24.19
   1   2 -12  212.26   17.56
   2  -3 -12  162.10   49.79
   1   2 -12  325.84   32.41
   3  -1  12  193.46   15.66
   3  -1  12  216.40   21.18
   2  -3 -13   73.40   19.57
  -3   1 -13  176.96   37.28
   1   2 -13  104.79    8.49
   2  -3 -13  106.50   49.31
   1   2 -13  152.02   40.64
   3  -1  13   77.68    5.25
   3  -1  13   79.71   10.71
   2  -3 -14 1402.21   79.36
  -3   1 -14 1364.33   72.49
   1   2 -14 1368.46   62.71
   1   2 -14 1457.14   73.58
   3  -1  14 1212.90   55.19
   3  -1  14 1292.15   62.27
   2  -3 -15   99.54   37.39
  -3   1 -15   74.45   23.54
   1   2 -15   61.10   13.30
   2  -3 -15   58.34   32.36
   1   2 -15   68.40   33.26
   3  -1  15   66.60    8.26
   3  -1  15   64.92   11.49
   2  -3 -16   40.11   19.60
  -3   1 -16   48.57   15.06
   1   2 -16   65.80   18.36
   2  -3 -16   51.48   28.63
   1   2 -16   70.06   46.08
   3  -1  16   30.82    8.28
   2  -3 -17  606.38   39.10
  -3   1 -17  686.85   41.22
   1   2 -17  753.21   30.99
   2  -3 -17  662.32   92.29
   3  -1  17  693.29   32.12
   2  -3 -18   41.37   14.79
  -3   1 -18   47.30   30.58
   1   2 -18   41.52   13.12
   2  -3 -18   68.48   38.76
   1   2 -18   33.64   15.15
   3  -1  18   33.87    8.99
   2  -3 -19  103.85   47.29
  -3   1 -19  127.76   32.65
   1   2 -19  123.95   25.91
   2  -3 -19  114.25   55.13
   3  -1  19  176.40   37.63
  -3   1 -20  514.44   42.50
   1   2 -20  698.14   45.52
   2  -3 -20  874.61   84.38
   3  -1  20  646.11   45.35
   2  -3 -21   -0.44   15.54
  -3   1 -21    9.15   14.90
   1   2 -21    7.03    6.65
   1   2 -21   11.65    8.44
   2  -3 -21    7.98   14.54
   3  -1  21   15.01    9.15
   2  -3 -22  199.17   54.70
  -3   1 -22  223.68   58.84
   1   2 -22  261.74   67.29
   2  -3 -22  218.99   62.33
   3  -1  22  233.60   58.92
   2  -3 -23  343.31  105.33
  -3   1 -23  327.11  118.06
   1   2 -23  303.86   86.73
   3  -1  23  255.44   75.05
   2  -3 -24   14.68   28.02
  -3   1 -24   13.21   17.64
   1   2 -24   13.24    8.10
   3  -1  24   11.64    9.79
   2  -3 -25  292.87  139.62
  -3   1 -25  759.12  392.08
   1   2 -25  444.32  227.17
   3  -1  25  411.16  191.42
   2  -3 -26   48.78   32.17
  -3   1 -26   71.02   49.95
   1   2 -26   66.84   44.76
   3  -1  26   45.70   33.67
   0  -3 -26    4.79   21.95
  -3   3 -26    3.58    9.99
   3   0 -26    6.51   11.31
   3   0 -26    4.28   11.14
   3  -3  26    9.11    9.74
   0  -3 -25   18.91   22.49
  -3   3 -25   32.31   29.94
   3   0 -25   44.75   25.15
   3   0 -25   31.11   21.19
   3  -3  25   26.26   14.69
   3  -3  25   21.24   16.37
   0  -3 -24  196.95   59.31
  -3   3 -24  396.28  104.11
   3   0 -24  329.40   85.45
   3   0 -24  340.19  101.83
   3  -3  24  320.75   82.24
   3  -3  24  262.83   69.68
   0  -3 -23   93.61   35.79
  -3   3 -23  132.33   52.48
   3   0 -23  118.45   48.67
   3   0 -23   95.33   69.20
   3  -3  23  108.65   30.82
   3  -3  23   66.00   27.47
   0  -3 -22   30.56   33.39
  -3   3 -22    5.16    9.62
   3   0 -22    5.02    5.61
   3   0 -22    9.96   12.64
   3  -3  22    3.45    4.34
   3  -3  22    3.52    5.78
   0  -3 -21   -1.79   21.59
  -3   3 -21    1.18    6.63
   3   0 -21    0.41    6.24
   3   0 -21   23.14   20.42
   3  -3  21    2.15    4.17
   3  -3  21    5.28    6.86
   0  -3 -20    1.66   22.35
  -3   3 -20   -0.64    7.05
   3   0 -20    7.89    7.23
   3   0 -20   -0.81   15.54
   3  -3  20    4.77    2.93
   3  -3  20    3.22    9.00
   0  -3 -19  190.99   29.29
  -3   3 -19  308.00   23.93
   3   0 -19  329.54   23.25
   3   0 -19  533.25  102.32
   3  -3  19  333.05   21.06
   3  -3  19  283.92   25.78
   0  -3 -18  161.40   43.08
  -3   3 -18  188.38   39.38
   3   0 -18  222.51   45.47
   3   0 -18  358.88   83.15
   3  -3  18  214.09   42.65
   3  -3  18  177.16   38.21
   0  -3 -17    6.57   18.20
  -3   3 -17    4.96    3.91
   3   0 -17    8.26    3.18
   3   0 -17   12.26   11.57
   3  -3  17    7.19    1.90
   3  -3  17    7.78    6.95
   0  -3 -16   -3.15   23.90
  -3   3 -16   11.19   10.30
   3   0 -16    3.13    4.24
   3   0 -16    6.18   14.29
   3  -3  16    4.84    2.10
   3  -3  16    5.66    9.18
   0  -3 -15    9.61   19.86
  -3   3 -15    1.38    8.48
   3   0 -15   11.58   11.30
   3  -3  15    7.92    9.65
   0  -3 -14   10.45   18.03
  -3   3 -14   26.16   10.18
   3   0 -14   23.96   10.80
   3  -3  14   11.25    5.60
   3  -3  14    8.80   12.02
   0  -3 -13  279.20   31.13
  -3   3 -13  422.62   24.38
   3   0 -13  340.70   28.93
   3  -3  13  380.08   17.87
   3  -3  13  392.43   29.96
   0  -3 -12  166.02   72.50
  -3   3 -12  235.61   16.12
   3   0 -12  227.86   26.75
   3  -3  12  197.66    9.81
   3  -3  12  290.24   47.32
   0  -3 -11  132.38   71.19
  -3   3 -11  149.72   14.82
   3   0 -11  151.64   13.02
   3  -3  11  127.34   10.49
   3  -3  11  108.64   16.32
   0  -3 -10   40.37   29.38
  -3   3 -10   26.52   17.12
   3   0 -10   17.51    6.64
   3   0 -10   20.23    9.65
   3  -3  10   17.76    7.00
   3  -3  10   21.95   11.27
   0  -3  -9    8.28   16.17
  -3   3  -9    1.68    4.74
   3   0  -9   13.28    4.48
   3   0  -9   -2.04    4.92
   3  -3   9   -0.15    1.70
   0   3   9    3.54    2.61
   3  -3   9    1.55    8.25
   0  -3  -8   13.11   11.87
  -3   3  -8   12.05    4.31
   3   0  -8   14.24    3.00
   3   0  -8   13.31    5.90
   3  -3   8   12.00    1.88
   0   3   8   12.19    6.00
   3  -3   8   10.23    7.73
   0  -3  -7   31.64   12.58
  -3   3  -7   32.67    5.24
   3   0  -7   26.26    5.22
   3   0  -7   26.28    4.88
   3  -3   7   23.30    4.51
   0   3   7   23.50    8.41
   3  -3   7   22.03   10.21
   0  -3  -6 4802.82  375.81
  -3   3  -6 4935.46  379.98
   3   0  -6 4118.66  229.18
   3   0  -6 4698.03  362.77
   3  -3   6 3919.92  218.09
   0   3   6 4772.10  368.21
   3  -3   6 4858.98  376.87
   0  -3  -5  363.50   31.32
  -3   3  -5  395.12   23.42
   3  -3   5  363.08   20.48
   3   0  -5  350.54   19.98
   3   0  -5  360.82   22.05
   3  -3   5  332.09   19.27
   0   3   5  358.81   21.26
   3  -3   5  325.66   26.71
   0  -3  -4   38.71   19.84
  -3   3  -4   33.53    5.66
   3  -3   4   34.36    2.68
   3   0  -4   31.21    2.50
   3   0  -4   36.12    7.12
   3  -3   4   27.77    3.04
   3  -3   4   38.41   17.67
   0   3   4   33.04    3.41
   0  -3  -3    6.29    6.52
  -3   3  -3   13.14    2.72
   3  -3   3    6.21    1.41
   3   0  -3    7.95    1.61
   3  -3   3   10.86    4.98
   3   0  -3    6.95    2.25
   0  -3  -3    7.22    4.90
   3  -3   3    7.99    6.81
   0   3   3    6.48    1.74
   0  -3  -2   11.02    5.62
  -3   3  -2   12.81    2.88
   3  -3   2   10.73    0.95
   3   0  -2   10.58    1.49
   3  -3   2   12.61    5.58
   3   0  -2   13.44    4.77
   0  -3  -2   16.22    9.55
   3  -3   2   11.42    9.87
   0   3   2   16.42    2.42
  -3   3  -1  168.28   10.02
   3   0  -1  159.66    9.94
   0   3   1  146.64    9.01
   0   3   1  174.06   19.71
   3  -3   1  169.48   11.65
   3   0  -1  160.96   10.33
   3  -3   1  152.65   18.49
   0  -3  -1  145.59   14.22
   0   3   0 7875.30  439.02
   3   0   0 8060.51  447.76
   0   3   0 8354.02  469.36
   3  -3   0 7580.18  421.95
   3   0   0 8390.04  466.30
   0  -3   0 7692.18  428.26
  -3   0  -1  155.44   12.79
   0   3  -1  160.49    9.80
   0   3  -1  164.33   11.95
   3  -3  -1  175.90   13.04
   3   0   1  173.45   11.06
   0   3  -1  172.56   10.15
   3  -3  -1  162.05   22.55
  -3   0  -1  142.94   12.41
   0  -3   1  152.12   10.99
  -3   0  -2   21.45    9.72
   0   3  -2   17.21    2.18
   3  -3  -2   13.43    6.76
   3   0   2   14.23    2.35
   0   3  -2   12.15    1.36
   3   0   2   16.93    8.53
   3  -3  -2   17.53    9.63
  -3   0  -2   10.74    6.10
   0  -3   2   12.13    4.08
  -3   0  -3   35.34   14.56
  -3   3   3    5.82    1.09
   0   3  -3    7.66    1.69
   3  -3  -3   16.26    9.42
   0   3  -3   11.98    1.94
   3   0   3   10.07    4.31
   3  -3  -3   10.83    8.19
   3   0   3   12.24    7.30
   0  -3   3    8.89    3.90
  -3   0  -4   30.87   18.46
  -3   3   4   30.52    2.14
   0   3  -4   32.55    2.91
   3  -3  -4   30.23    8.36
   0   3  -4   31.03    2.19
   3   0   4   37.21    4.07
   3  -3  -4   41.08   19.84
   3   0   4   47.70   19.21
  -3   0  -4   37.40    5.31
   0  -3   4   38.82    5.81
  -3   0  -5  354.75   27.07
   3  -3  -5  305.64   19.88
  -3   3   5  346.68   19.67
   0   3  -5  347.97   19.93
   3  -3  -5  306.96   21.69
   0   3  -5  441.84   24.96
   3   0   5  355.30   20.67
   3   0   5  282.40   22.02
  -3   0  -5  396.06   23.53
  -3   0  -6 3697.61  211.72
   3  -3  -6 3389.71  190.17
  -3   3   6 3293.54  183.18
   0   3  -6 4157.49  231.46
   0   3  -6 4397.86  338.09
   3  -3  -6 3501.52  198.24
   3   0   6 3550.19  197.75
  -3   0  -6 4999.92  384.81
   0  -3   6 4246.34  327.74
  -3   0  -7   28.80   12.78
   3  -3  -7   24.23    8.02
  -3   3   7   17.30    1.70
   0   3  -7   28.51    7.53
   0   3  -7   29.93    8.23
   3  -3  -7   35.50   17.20
   3   0   7   27.20    6.39
   3   0   7   27.37   15.12
  -3   0  -8   34.60   23.91
   3  -3  -8   13.67   12.29
  -3   3   8   12.99    1.69
   0   3  -8   15.39    2.59
   0   3  -8   15.56    8.29
   3  -3  -8   10.64    9.23
   0  -3   8   13.53    1.53
   3   0   8   10.55    2.62
   3   0   8   12.26    6.57
  -3   0  -9    4.07    7.75
   3  -3  -9   10.12    7.69
   0   3  -9    4.47    3.05
   0   3  -9    2.16    2.53
   3  -3  -9   10.10   13.77
   0  -3   9    1.82    1.22
   3   0   9    1.25    2.74
   3   0   9    4.64    3.90
  -3   0 -10   11.31    8.22
   3  -3 -10   20.87    8.79
   0   3 -10   16.16    3.42
   0   3 -10   15.84    9.70
   3  -3 -10   15.31   10.19
   0  -3  10   16.32    3.02
   3   0  10   16.66    3.67
   3   0  10   19.06    6.25
  -3   0 -11  125.44   60.88
   3  -3 -11  117.22   18.38
   0   3 -11  141.43   16.19
   0   3 -11  155.46   15.30
   3  -3 -11  146.49   58.53
   0  -3  11  128.88   10.37
   3   0  11  115.88   10.04
   3   0  11  124.57   14.44
  -3   0 -12  206.54   27.96
   3  -3 -12  152.24   16.96
   0   3 -12  224.24   12.32
   3  -3 -12  287.59  130.90
   0  -3  12  188.00    9.20
   3   0  12  205.19   10.97
   3   0  12  222.84   14.52
  -3   0 -13  366.27   34.84
   3  -3 -13  306.42   24.29
   0   3 -13  487.98   28.28
   3  -3 -13  465.04   43.69
   0  -3  13  366.72   17.29
   3   0  13  381.76   21.43
  -3   0 -14   21.94   23.79
   3  -3 -14    8.14    9.39
   0   3 -14   11.99    4.02
   3  -3 -14   14.12   13.66
   3   0  14   14.65    8.00
  -3   0 -15    9.09   22.81
   3  -3 -15    4.15   10.71
   0   3 -15    2.13    2.64
   3  -3 -15   -1.17   25.15
   3   0  15    1.66    2.86
   3   0  15    2.74    6.89
  -3   0 -16   12.23   20.04
   3  -3 -16    0.92    7.23
   0   3 -16    1.17    4.12
   3  -3 -16    2.48   18.10
   3   0  16    5.82    7.20
  -3   0 -17   18.03   21.14
   3  -3 -17    4.37    7.85
   0   3 -17   10.92    4.77
   3   0  17    6.26    6.18
  -3   0 -18  210.32   52.60
   3  -3 -18  172.91   40.30
   0   3 -18  218.26   44.31
   3  -3 -18  191.45   77.30
   3   0  18  259.51   53.22
  -3   0 -19  329.31   36.92
   3  -3 -19  289.32   29.52
   0   3 -19  342.99   23.91
   3  -3 -19  365.40  154.83
   3   0  19  319.06   24.11
  -3   0 -20    6.05   12.51
   3  -3 -20   14.74   13.48
   0   3 -20    6.22    4.90
   3  -3 -20   -0.73   18.77
   3   0  20    3.93    4.58
  -3   0 -21    4.71   10.13
   3  -3 -21    5.12   10.24
   0   3 -21    1.46    5.64
   3  -3 -21    7.91    7.36
   3   0  21    5.39    5.47
  -3   0 -22    8.32   10.38
   3  -3 -22    8.75   13.16
   0   3 -22    6.05    6.79
   3  -3 -22   11.25   21.11
   3   0  22    1.62    6.05
  -3   0 -23   93.78   73.07
   3  -3 -23   83.73   29.22
   0   3 -23  143.35   52.07
   3  -3 -23  127.01   97.53
   3   0  23   98.06   29.05
  -3   0 -24  305.87   94.23
   3  -3 -24  340.95   92.99
   0   3 -24  330.89   85.82
   3  -3 -24  368.64  101.43
   3   0  24  283.25   73.40
  -3   0 -25   39.63   47.19
   3  -3 -25   33.73   25.20
   0   3 -25   41.53   26.77
   3  -3 -25   62.65   42.10
   3   0  25   17.59   20.20
  -3   0 -26   -5.38   24.33
   3  -3 -26    1.79   13.98
   0   3 -26    3.20    9.78
   3  -3 -26    6.66   14.54
   3   0  26    1.42    6.03
  -3  -1 -25  139.68  113.53
   4  -3 -25  112.90   46.44
  -1   4 -25  206.97   81.08
   4  -3 -25  125.17   91.39
   1  -4  25  145.02   62.85
  -3  -1 -24    8.45   15.04
   4  -3 -24   10.21   13.69
  -1   4 -24   25.51   18.64
   4  -3 -24   37.20   31.76
   1  -4  24   28.90   24.47
  -3  -1 -23   72.90   60.69
   4  -3 -23   54.72   39.81
  -1   4 -23  117.46   55.32
   4  -3 -23  113.62   98.19
   1  -4  23   77.03   37.65
  -3  -1 -22  207.71   97.25
   4  -3 -22  258.92   75.99
  -1   4 -22  316.70   90.18
   4  -3 -22  202.89   69.96
   3   1  22  305.59   86.59
   1  -4  22  230.37   66.56
  -3  -1 -21   13.95   17.79
   4  -3 -21    5.69    8.34
  -1   4 -21    9.93    7.41
   4  -3 -21   18.90   21.46
   3   1  21    5.36    6.04
   1  -4  21    9.12    9.30
  -3  -1 -20  355.69  114.99
   4  -3 -20  365.32   88.51
  -1   4 -20  510.96  121.50
   4  -3 -20  607.93  161.29
   3   1  20  526.85  125.38
  -3  -1 -19   63.21   31.36
   4  -3 -19   62.61   28.15
  -1   4 -19   97.36   36.21
   4  -3 -19  101.79   53.94
   3   1  19   70.79   14.37
  -3  -1 -18   34.80   17.46
   4  -3 -18   32.69   18.48
  -1   4 -18   36.14    5.74
   4  -3 -18   99.07   42.24
   3   1  18   48.50    7.77
   1  -4  18   35.28   17.76
  -3  -1 -17  346.21   89.96
   4  -3 -17  488.26   98.73
  -1   4 -17  492.77   98.10
   4  -3 -17  615.79   56.86
   3   1  17  538.69  107.54
   1  -4  17  439.46   91.30
  -3  -1 -16   53.35   25.59
   4  -3 -16   75.85   28.10
  -1   4 -16   91.44   22.17
   4  -3 -16   91.44   42.70
   3   1  16   94.45   19.27
   3   1  16  107.63   22.67
   1  -4  16  104.71   47.24
  -3  -1 -15  105.00   46.88
   4  -3 -15   77.58   24.69
  -1   4 -15   85.51    7.87
   4  -3 -15   92.37   45.79
   3   1  15   85.16    7.10
   3   1  15  103.63   10.08
   1  -4  15   80.22   37.20
  -3  -1 -14  856.62   82.56
   4  -3 -14 1012.06   67.93
  -1   4 -14  867.75   34.06
   4  -3 -14  847.77   51.87
   3   1  14  870.20   33.91
   3   1  14  870.52   35.37
   1  -4  14  816.99   37.55
  -3  -1 -13  170.94   72.34
   4  -3 -13  143.82   21.98
  -1   4 -13  142.61   25.36
   4  -3 -13  139.59   54.83
   3   1  13   94.47   11.11
   3   1  13  121.49   15.50
   1  -4  13   91.05   12.84
  -3  -1 -12  127.70   71.90
   4  -3 -12  188.56   24.52
  -1   4 -12  195.15   21.68
   4  -3 -12  146.85   35.10
   3   1  12  178.44   19.65
   3   1  12  234.54   27.17
   1  -4  12  171.44   23.39
  -3  -1 -11  863.22   67.07
   4  -3 -11  974.19   49.92
  -1   4 -11  892.30   41.16
   4  -3 -11  773.21   62.88
   3   1  11  892.43   41.11
   3   1  11  924.93   44.04
   1  -4  11  846.34   43.10
  -3  -1 -10  188.53   87.66
   4  -3 -10  247.80   18.11
  -1   4 -10  237.20   12.00
   4  -3 -10  222.28   23.08
   3   1  10  258.34   13.49
   3   1  10  273.47   20.66
   1  -4  10  245.47   18.37
  -3  -1  -9  147.96   47.37
   4  -3  -9  155.00   16.16
  -1   4  -9  133.34   11.19
   4  -3  -9  187.32   61.32
   3   1   9  118.93   10.77
   3   1   9  155.49   17.82
   1  -4   9   84.02   11.84
  -3  -1  -8  279.35   83.74
   4  -3  -8  260.46   22.70
  -1   4  -8  323.36   25.61
   4  -3  -8  304.60   29.96
   3   1   8  346.67   27.52
   3   1   8  263.22   22.12
   1  -4   8  289.50   25.31
  -3  -1  -7  213.75   54.06
   4  -3  -7  122.06   11.48
  -1   4  -7  159.17   12.94
  -4   3   7  153.60   11.97
   4  -3  -7  181.77   24.14
   3   1   7  186.72   15.72
   3   1   7  196.59   17.09
   1  -4   7  161.49   17.47
  -3  -1  -6  142.56   50.53
   4  -3  -6   76.14    7.97
  -1   4  -6  112.73    9.38
  -4   3   6   95.92    7.50
   4  -3  -6  102.43   12.88
   3   1   6  121.22   10.57
   3   1   6   88.08   10.68
   1  -4   6  112.38   13.62
  -1   4  -5  632.04   48.94
  -4   3   5  617.02   47.46
   3   1   5  647.96   37.03
   1  -4   5  575.87   47.34
  -3  -1  -5  662.75   37.47
  -3  -1  -4  577.61   41.90
  -1   4  -4  518.88   29.33
   4  -3  -4  574.80   35.62
   3   1   4  528.72   30.70
   1  -4   4  470.61   30.43
  -3  -1  -4  558.17   31.88
  -3  -1  -3   51.75   22.60
  -1   4  -3   40.90    3.28
   4  -3  -3   43.79    7.04
  -1   4  -3   41.49    2.77
   3   1   3   40.21    8.39
  -1   4  -3   35.78    2.15
   4  -3  -3   56.64   28.15
   1  -4   3   31.83    9.78
  -3  -1  -3   36.00    6.51
  -3  -1  -2  139.81   24.07
  -1   4  -2  125.93    7.86
  -1   4  -2  140.42    8.89
   4  -3  -2  137.16   11.25
   4  -3  -2  105.44   47.27
  -3  -1  -2  133.73    9.83
   1  -4   2  168.49   20.12
  -1   4  -1   91.66    5.81
   4  -3  -1   94.00    9.41
   4  -3  -1   98.29   52.22
  -3  -1  -1   91.02   11.03
   1  -4   1  133.22   24.56
  -1   4   0   50.58    3.59
   3   1   0   54.77    4.12
  -1   4   0   74.17    6.81
   4  -3   0   55.10    7.06
   3   1   0   49.29    5.80
  -3  -1   0   70.13    8.17
   1  -4   0   57.81   21.07
   3   1  -1   95.97    6.29
  -1   4   1  124.22    7.51
  -1   4   1  112.12   11.42
   4  -3   1  129.14    9.26
   3   1  -1   99.92    8.45
  -3  -1   1  103.25   13.51
   1  -4  -1   93.40   21.58
   4  -3   2  170.06    9.54
   3   1  -2  140.11    8.67
  -1   4   2  164.80   10.16
   4  -3   2  169.15   11.26
   3   1  -2  138.25    9.24
   1  -4  -2  147.62   15.86
   4  -3   2  143.00   15.81
   1  -4  -3   27.02   19.39
  -4   3  -3   43.90    4.91
   3   1  -3   38.51    3.47
   4  -3   3   35.68    4.63
   3   1  -3   33.56    3.51
   1  -4  -3   52.56   20.19
   4  -3   3   44.33   16.25
   1  -4  -4  497.37   33.76
  -4   3  -4  466.78   27.94
   4  -3   4  526.39   29.66
   3   1  -4  535.44   30.75
   3   1  -4  486.44   28.27
   4  -3   4  484.87   28.28
   1  -4  -4  577.23   37.46
   4  -3   4  417.92   38.73
   1  -4  -5  578.22   50.01
  -4   3  -5  715.83   56.83
   4  -3   5  635.40   49.17
   3   1  -5  615.22   34.82
   3   1  -5  650.08   37.76
   4  -3   5  618.44   48.49
   4  -3   5  565.82   79.77
   1  -4  -6  123.85   53.28
  -4   3  -6  107.95   12.89
   4  -3   6   84.70    7.06
   3   1  -6  115.66    9.71
   3   1  -6  119.31   11.51
   4  -3   6  106.50    9.44
   4  -3   6  119.13   48.61
   1  -4  -7  178.78   36.11
  -4   3  -7  164.69   16.07
   3   1  -7  149.85   12.21
   3   1  -7  165.38   16.26
   4  -3   7  171.65   14.35
   4  -3   7  160.09   21.25
   1  -4  -8  513.20  125.32
  -4   3  -8  384.61   34.04
   3   1  -8  319.11   25.09
   3   1  -8  328.43   27.51
   4  -3   8  347.32   27.51
   4  -3   8  344.62   56.84
   1  -4  -9  177.57   72.07
  -4   3  -9  169.80   17.50
   3   1  -9  139.92   11.67
   3   1  -9  167.79   32.82
   4  -3   9  109.74   11.38
   4  -3   9  108.55   18.10
   1  -4 -10  172.73   55.83
  -4   3 -10  276.18   19.66
   3   1 -10  250.46   12.65
   3   1 -10  253.58   16.53
   4  -3  10  255.77   13.01
   4  -3  10  213.99   19.73
  -4   3 -11  916.43   46.24
   3   1 -11  873.80   40.13
   3   1 -11 1008.39   54.62
   4  -3  11  882.34   40.67
   4  -3  11  910.65   52.44
   1  -4 -12  146.69   61.09
  -4   3 -12  167.58   22.36
   3   1 -12  172.68   18.95
   3   1 -12  196.54   24.88
   4  -3  12  178.99   19.60
   4  -3  12  205.89   32.86
   1  -4 -13   94.07   39.76
  -4   3 -13  162.69   16.49
   3   1 -13  114.33   15.89
   3   1 -13  174.41   43.40
   4  -3  13   90.57    5.67
   4  -3  13   94.71   21.59
   1  -4 -14  898.75   61.73
  -4   3 -14 1149.40   77.19
   3   1 -14 1019.49   68.17
   3   1 -14 1053.78   74.16
   4  -3  14  909.53   57.12
   4  -3  14  793.55   39.48
   1  -4 -15   64.55   31.72
  -4   3 -15  142.56   47.49
   3   1 -15   97.45   17.03
   3   1 -15  104.85   38.10
   4  -3  15   81.60    7.04
   4  -3  15   60.77   11.26
   1  -4 -16   77.23   47.78
  -4   3 -16   96.13   46.97
   3   1 -16   66.37   13.97
   3   1 -16   98.17   40.28
   4  -3  16   92.71   18.85
   4  -3  16   80.01   22.55
   1  -4 -17  289.00   67.20
  -4   3 -17  498.88  101.04
   3   1 -17  508.47  101.17
   3   1 -17  536.49  108.84
   4  -3  17  531.75  105.54
   4  -3  17  553.65  112.84
   1  -4 -18   29.77   11.91
  -4   3 -18   38.87   12.88
   3   1 -18   46.56   13.22
   3   1 -18   77.49   34.25
   4  -3  18   43.14    4.48
   4  -3  18   38.33   13.06
   1  -4 -19   39.68   28.44
  -4   3 -19   71.44   39.78
   3   1 -19   81.21   26.37
   3   1 -19   94.00   54.27
   4  -3  19   47.81    8.95
   4  -3  19   43.61   13.19
   1  -4 -20  339.56   94.57
  -4   3 -20  508.30  122.82
   3   1 -20  697.51  216.26
   4  -3  20  434.92  103.01
   4  -3  20  420.27  102.25
   1  -4 -21   10.67   21.05
  -4   3 -21    5.96   11.06
   3   1 -21   13.61    8.52
   4  -3  21    7.16    6.01
   4  -3  21    8.85   15.93
   1  -4 -22  154.91   69.95
  -4   3 -22  299.95   87.68
   3   1 -22  455.69  172.69
   4  -3  22  304.70   85.71
   4  -3  22  259.52   75.91
   1  -4 -23   54.60   33.46
  -4   3 -23   78.05   39.52
   3   1 -23   91.34   49.66
   4  -3  23  109.38   50.90
   4  -3  23   70.75   37.13
   1  -4 -24   11.15   19.37
  -4   3 -24   21.57   18.73
   3   1 -24   19.86   16.51
   3   1 -24   15.36   13.51
   4  -3  24   24.67   13.02
   4  -3  24   27.56   20.10
   1  -4 -25   86.52   81.21
  -4   3 -25  210.39   83.67
   3   1 -25  206.18   79.52
   3   1 -25  163.69   70.93
   4  -3  25  155.19   59.32
   4  -3  25  160.07   64.34
  -2  -2 -25    9.04   22.50
   4  -2 -25   15.91   10.38
  -2   4 -25   11.67   10.87
   4  -2 -25    9.05   12.30
   2  -4  25    6.29    8.13
  -2  -2 -24   55.04   39.02
   4  -2 -24   69.95   45.08
  -2   4 -24  109.68   57.66
   4  -2 -24   74.60   52.42
   2  -4  24   58.22   45.43
  -2  -2 -23   15.25   16.87
   4  -2 -23    9.81    8.06
  -2   4 -23   20.78    9.49
   4  -2 -23   13.00   15.07
   2  -4  23   14.10    9.06
  -2  -2 -22   85.14   69.58
   4  -2 -22  117.77   34.83
  -2   4 -22  144.47   42.15
   4  -2 -22  147.14   72.73
   2  -4  22   88.26   37.95
  -2  -2 -21  189.79   99.73
   4  -2 -21  297.75   84.25
  -2   4 -21  270.75   76.39
   4  -2 -21  343.14  132.99
   2  -4  21  189.90   54.56
   2   2  21  285.29   79.25
  -2  -2 -20   51.83   30.28
   4  -2 -20   56.35   26.94
  -2   4 -20   70.14   26.15
   4  -2 -20   96.77   54.43
   2  -4  20   40.76   23.99
   2   2  20   57.75   23.56
  -2  -2 -19   60.78   29.76
   4  -2 -19   61.28   13.11
  -2   4 -19   90.75   23.60
   4  -2 -19  113.40   49.15
   2  -4  19   52.10   26.16
   2   2  19   82.61   13.67
  -2  -2 -18   58.74   26.96
   4  -2 -18   55.72   26.40
  -2   4 -18   69.62   17.90
   4  -2 -18   79.10   34.74
   2  -4  18   52.52   24.25
   2   2  18   77.73    8.02
  -2  -2 -17    9.61   16.21
   4  -2 -17   12.08    6.62
  -2   4 -17    7.54    5.28
   4  -2 -17   11.70   14.50
   2  -4  17    6.35    3.55
   2  -4  17    7.11   12.89
   2   2  17    7.98    5.85
  -2  -2 -16  161.42   62.44
   4  -2 -16  213.07   17.57
  -2   4 -16  214.54   16.64
   4  -2 -16  376.71   68.50
   2  -4  16  206.92   21.47
   2   2  16  240.71   17.07
  -2  -2 -15   19.58   15.99
   4  -2 -15   38.93   15.14
  -2   4 -15   62.70   15.02
   4  -2 -15   41.26   26.27
   2  -4  15   44.20   10.39
   2   2  15   43.35    6.50
  -2  -2 -14   75.50   33.90
   4  -2 -14   55.98   18.44
  -2   4 -14   50.86    9.90
   4  -2 -14   51.09   27.49
   2  -4  14   52.66    2.69
   2  -4  14   37.47   14.66
   2   2  14   59.59    5.42
  -2  -2 -13   48.52   30.29
   4  -2 -13   42.19   14.87
  -2   4 -13   42.22    7.64
   4  -2 -13   45.96   20.96
   2  -4  13   30.10   14.10
   2   2  13   55.50   13.36
  -2  -2 -12   30.61   28.94
   4  -2 -12   24.83   12.21
  -2   4 -12   26.77    5.58
   4  -2 -12   20.84    9.73
   2   2  12   16.37    4.19
   2  -4  12    8.28    9.06
  -2  -2 -11   75.41   28.49
   4  -2 -11   60.10    5.64
  -2   4 -11   65.33    7.39
   2  -4  11   72.62    5.80
   4  -2 -11   73.51   34.34
   2   2  11   84.89    7.77
   2  -4  11   55.83   10.36
  -2  -2 -10  245.59   82.21
   4  -2 -10  254.53   13.74
  -2   4 -10  236.57   12.22
   2  -4  10  207.98   10.12
   4  -2 -10  261.17   21.45
   2   2  10  296.44   14.88
  -2  -2  -9 1411.16  123.17
   4  -2  -9 1408.86  109.42
  -2   4  -9 1492.36  115.42
   4  -2  -9 1287.50  103.61
   2   2   9 1393.63  107.74
  -2  -2  -8  318.60   35.19
   4  -2  -8  295.46   24.05
  -2   4  -8  305.35   24.10
   4  -2  -8  316.17   29.83
   2  -4   8  269.32   25.64
  -2  -2  -7   33.43   16.84
   4  -2  -7   15.18    4.51
  -2   4  -7   14.82    3.81
   4  -2  -7   15.77    8.37
   2   2   7   14.51    2.74
   2  -4   7   13.21    7.65
  -2  -2  -6  945.36   63.29
   4  -2  -6  859.66   48.52
  -2   4  -6  804.12   45.17
  -4   2   6  834.49   46.56
   4  -2  -6  819.66   49.81
   2  -4   6  838.86   51.89
  -2  -2  -5  122.32   47.95
   4  -2  -5  120.13    7.37
  -2   4  -5  100.68    6.30
  -4   2   5   98.10    5.73
   4  -2  -5  124.14   12.92
   2   2   5  109.27    7.25
   2  -4   5  104.66   14.08
  -2  -2  -4   40.30   22.69
   4  -2  -4   31.62    2.38
  -2   4  -4   26.58    2.18
   4  -2  -4   33.13    5.79
  -2   4  -4   26.24    1.72
   2   2   4   30.27    3.04
   2  -4   4   36.42   13.30
   4  -2  -3 4704.74  362.80
   4  -2  -3 3881.40  216.43
  -2   4  -3 3985.17  221.71
   2  -4   3 3564.59  200.30
   4  -2  -3 4018.58  225.21
  -2   4  -3 4314.07  331.63
   2   2   3 4010.87  223.13
   2  -4   3 3823.52  216.31
  -2  -2  -2  342.48   24.84
   4  -2  -2  346.37   22.96
   4  -2  -2  350.45   19.66
  -2   4  -2  336.77   19.07
   2  -4   2  290.19   25.94
   4  -2  -2  337.05   20.97
  -2   4  -2  337.76   19.12
   2   2   2  364.78   20.98
   4  -2  -2  411.28   51.33
   2  -4   2  331.91   26.81
   4  -2  -1   39.02   11.55
   4  -2  -1   43.25    2.68
  -2   4  -1   42.27    2.93
   2   2   1   43.14    3.96
   2  -4   1   50.54   29.93
  -2   4  -1   44.78    3.41
   4  -2  -1   45.76    6.19
   2   2   1   39.79    3.33
   4  -2  -1   65.53   26.63
  -2  -2  -1   40.37    4.03
   2  -4   1   46.79   25.28
   4  -2   0 1775.26  100.45
  -2   4   0 1598.99   89.06
   4  -2   0 1651.57   91.87
   2   2   0 1649.00   92.18
   2  -4   0 1384.58   81.96
  -2   4   0 1537.81   86.11
   4  -2   0 1463.54   83.00
   2   2   0 1565.12   87.42
   4  -2   0 1428.25   85.79
   2  -4   0 1381.83   82.38
   4  -2   1   42.36    4.79
  -2   4   1   40.49    2.80
   2   2  -1   41.97    3.65
   4  -2   1   39.16    2.50
   2  -4  -1   47.88   31.64
   4  -2   1   38.13    4.24
   2   2  -1   40.89    3.58
   4  -2   1   50.13   27.01
   2  -4  -1   54.80   18.42
  -4   2  -2  372.59   22.77
   4  -2   2  413.31   25.11
   2   2  -2  373.87   21.61
  -2   4   2  348.56   19.73
   2  -4  -2  400.11   33.99
   4  -2   2  350.85   21.09
   2   2  -2  358.10   20.67
   4  -2   2  389.86   31.56
   2  -4  -2  356.50   27.72
  -4   2  -3 4536.02  349.99
   2   2  -3 4151.01  230.94
   2  -4  -3 3490.03  201.57
   2   2  -3 4230.58  325.76
   4  -2   3 4053.88  226.11
   2  -4  -3 4682.38  366.66
   4  -2   3 4270.08  334.41
   2  -4  -4   27.89   13.59
  -4   2  -4   28.44   17.01
   4  -2   4   28.24    3.52
   2   2  -4   27.88    3.24
   2  -4  -4   19.83   12.86
   2   2  -4   32.94    8.05
   4  -2   4   29.05    9.63
   2  -4  -4   25.36   22.12
   4  -2   4   20.37   17.84
   2  -4  -5  113.59   13.26
  -4   2  -5  103.78   10.78
   2   2  -5  104.24    6.94
   2  -4  -5  115.82   60.31
   2   2  -5  107.19    7.41
   4  -2   5  109.21    7.84
   2  -4  -5  109.53   26.75
   4  -2   5  117.94   13.90
   2  -4  -6  852.91   55.91
  -4   2  -6  841.63   50.86
   2   2  -6  835.19   47.11
   2  -4  -6  817.20   59.46
   2   2  -6  925.79   53.01
   4  -2   6  892.25   50.61
   4  -2   6  844.55   53.04
   2  -4  -7   13.88   11.49
  -4   2  -7   27.91   13.72
   2   2  -7   15.15    5.23
   2  -4  -7   19.26   21.44
   2   2  -7   18.14    6.07
   4  -2   7   14.28    5.64
   4  -2   7   16.36    9.65
   2  -4  -8  278.77   33.34
  -4   2  -8  330.80   31.35
   2   2  -8  312.36   24.65
   2  -4  -8  268.79   36.35
   2   2  -8  449.13   37.63
   4  -2   8  283.35   22.64
   4  -2   8  320.42   40.06
   2  -4  -9 1296.77  108.52
  -4   2  -9 1156.83   93.08
   2   2  -9 1227.31   94.90
   2  -4  -9  906.52   80.09
   2   2  -9 1272.94   99.31
   4  -2   9 1095.54   85.13
   4  -2   9 1058.71   85.34
   2  -4 -10  243.78   50.53
  -4   2 -10  298.31   24.45
   2   2 -10  261.53   13.08
   2  -4 -10  174.50   60.61
   4  -2  10  252.41   13.02
   4  -2  10  260.25   23.43
   2  -4 -11   62.55   36.40
  -4   2 -11   68.64   12.42
   2   2 -11   65.58    4.75
   2  -4 -11   99.07   48.61
   2   2 -11   74.13    9.39
   4  -2  11   75.87   15.58
   2  -4 -12   15.70   12.56
  -4   2 -12   32.59   17.20
   2   2 -12   21.44    5.93
   2  -4 -12   33.43   19.64
   2   2 -12   18.75    7.50
   4  -2  12   14.52    5.71
   4  -2  12   10.15    6.58
   2  -4 -13   35.03   25.82
  -4   2 -13   51.43   15.05
   2   2 -13   46.41    9.17
   2  -4 -13   54.89   21.89
   2   2 -13   54.43   25.26
   4  -2  13   40.44    5.59
   4  -2  13   35.62   13.77
   2  -4 -14   52.78   25.45
  -4   2 -14   72.96   20.75
   2   2 -14   54.62    7.17
   2  -4 -14   56.62   30.61
   2   2 -14   77.74   41.41
   4  -2  14   51.16    4.46
   4  -2  14   50.24    9.17
   2  -4 -15   36.47   24.23
  -4   2 -15   40.65   14.51
   2   2 -15   35.80    4.68
   2  -4 -15   43.18   22.68
   2   2 -15   40.90   23.13
   4  -2  15   39.62    4.88
   4  -2  15   29.15   10.45
   2  -4 -16  187.64   30.29
  -4   2 -16  344.68   39.51
   2   2 -16  230.87   16.47
   2   2 -16  388.05   84.77
   4  -2  16  194.15   13.36
   4  -2  16  210.75   20.81
   2  -4 -17    5.36   17.46
  -4   2 -17    7.47   25.69
   2   2 -17    7.16    4.83
   2  -4 -17   -0.73   22.72
   4  -2  17    9.45    4.44
   4  -2  17   10.34    9.32
   2  -4 -18   27.47   16.94
  -4   2 -18  142.99   44.31
   2   2 -18   56.49    7.07
   2  -4 -18   76.51   43.51
   2   2 -18   71.31   41.30
   4  -2  18   63.14    7.78
   4  -2  18   55.15   14.40
   2  -4 -19   53.81   20.54
  -4   2 -19  149.91   45.17
   2   2 -19   92.95   46.87
   4  -2  19   76.56   12.18
   4  -2  19   70.63   16.56
   2  -4 -20   47.80   23.25
  -4   2 -20  133.56   48.81
   2   2 -20   68.41   55.24
   4  -2  20   71.66   17.70
   4  -2  20   63.74   23.03
   2  -4 -21  192.56   61.50
  -4   2 -21  544.82  161.91
   2   2 -21  255.36   72.99
   4  -2  21  261.06   72.27
   4  -2  21  242.67   69.05
   2  -4 -22   75.38   29.49
  -4   2 -22  169.74   57.70
   2   2 -22  195.44   78.06
   4  -2  22  140.34   39.88
   4  -2  22  114.58   44.20
   2  -4 -23   11.49   18.20
  -4   2 -23   25.09   17.92
   2   2 -23   22.40   10.27
   2   2 -23   27.85   21.65
   4  -2  23   18.69    5.94
   4  -2  23   15.44   12.80
   2  -4 -24   73.74   48.21
  -4   2 -24  103.67   56.80
   2   2 -24  107.38   65.76
   4  -2  24   94.88   48.66
   4  -2  24   86.88   47.50
   2  -4 -25   16.45   28.33
  -4   2 -25   -3.51   19.87
   2   2 -25   12.15    9.92
   4  -2  25   13.05    6.24
   4  -2  25   10.14    8.11
  -1  -3 -25   74.68   74.06
  -3   4 -25  162.53   63.72
   4  -1 -25  184.42   79.71
   4  -1 -25  134.74   88.28
   3  -4  25  136.94   56.07
  -1  -3 -24   31.89   27.90
  -3   4 -24   27.23   16.50
   4  -1 -24   32.26   25.27
   4  -1 -24   34.32   34.83
   3  -4  24   21.38   14.66
  -1  -3 -23   56.49   43.92
  -3   4 -23   90.98   43.82
   4  -1 -23   95.11   56.01
   4  -1 -23  105.88   84.31
   3  -4  23   51.66   26.35
  -1  -3 -22  200.41  140.49
  -3   4 -22  415.23  118.54
   4  -1 -22  310.76   88.21
   4  -1 -22  386.56  159.20
   3  -4  22  210.02   63.10
  -3   4 -21   12.49    8.62
   4  -1 -21   10.14    7.15
   4  -1 -21   10.20   13.97
   3  -4  21    1.43    9.76
  -3   4 -20  518.97  123.86
   4  -1 -20  465.06  110.73
   4  -1 -20  547.80  150.43
   3  -4  20  368.77   89.36
  -3   4 -19   44.13   11.10
   4  -1 -19   44.93   21.44
   4  -1 -19   77.09   37.10
   3  -4  19   64.71    9.96
   3  -4  19   58.37   18.03
  -1  -3 -18   57.44   32.32
  -3   4 -18   51.08   10.29
   4  -1 -18   37.67   16.63
   4  -1 -18   45.06   20.12
   3  -4  18   35.92   12.96
  -1  -3 -17  432.47  104.52
  -3   4 -17  705.78   47.18
   4  -1 -17  493.07   98.35
   4  -1 -17  755.63   91.48
   3  -4  17  478.63   94.86
   3  -4  17  497.55  101.73
  -1  -3 -16   80.00   62.99
  -3   4 -16  119.06   28.06
   4  -1 -16   92.82   19.41
   4  -1 -16  100.54   56.91
   3  -4  16   73.18   14.98
   3  -4  16   71.63   21.76
  -1  -3 -15   91.53   38.00
  -3   4 -15  137.48   12.41
   4  -1 -15  114.41   11.09
   4  -1 -15  126.36   43.13
   3  -4  15  118.71    8.05
   3  -4  15  124.30   17.79
  -1  -3 -14  762.49   52.89
  -3   4 -14  883.55   36.55
   4  -1 -14  772.90   31.78
   4  -1 -14  775.03   38.44
   3  -4  14  846.61   32.12
   3  -4  14  842.66   44.15
  -1  -3 -13   96.92   55.85
  -3   4 -13  116.46    8.37
   4  -1 -13  116.54    7.10
   4  -1 -13  176.76   41.71
   3  -4  13  135.56   14.81
   3  -4  13  110.84   19.29
  -1  -3 -12  130.32   55.89
  -3   4 -12  135.51   16.88
   4  -1 -12  108.40   12.65
   4  -1 -12  128.04   21.96
   3  -4  12  117.14   12.96
   3  -4  12   97.59   17.09
  -1  -3 -11  716.33   50.23
  -3   4 -11  889.96   41.93
   4  -1 -11  825.34   38.12
   4  -1 -11 1081.62   57.35
   3  -4  11  963.08   43.56
   1   3  11  865.48   40.43
   3  -4  11  841.96   46.15
  -1  -3 -10  307.50   88.29
  -3   4 -10  224.21   12.84
   4  -1 -10  259.00   13.43
   4  -1 -10  250.39   21.64
   3  -4  10  209.44   10.24
   1   3  10  260.73   13.45
   3  -4  10  191.48   18.46
  -1  -3  -9  183.00   33.25
  -3   4  -9  182.65   15.62
   4  -1  -9  191.17   15.49
   4  -1  -9  208.83   22.55
   3  -4   9  225.66   17.93
   1   3   9  182.05   14.82
   3  -4   9  220.25   23.90
  -1  -3  -8  304.63   51.77
  -3   4  -8  246.66   20.09
   4  -1  -8  268.15   26.42
   3  -4   8  209.68   16.73
   3  -4   8  212.97   26.04
   1   3   8  233.44   18.12
  -1  -3  -7  210.14   72.73
  -3   4  -7  143.27   11.87
   4  -1  -7  160.11   12.86
   4  -1  -7  186.01   23.44
   3  -4   7  143.39   11.86
   3  -4   7  160.42   22.96
  -1  -3  -6  123.10   49.17
  -3   4  -6   69.25    6.28
   4  -1  -6   66.93    6.12
   4  -1  -6   79.14   27.69
   3  -4   6   61.84    6.09
  -3   4  -6   54.28    4.46
   3  -4   6   64.70   32.14
  -1  -3  -5  636.66   57.14
  -3   4  -5  586.93   45.50
   4  -1  -5  643.99   36.20
   3  -4   5  649.18   50.73
   4  -1  -5  643.39   40.04
  -3   4  -5  626.65   48.35
   3  -4   5  582.71   50.38
  -1  -3  -4  449.30   32.93
  -3   4  -4  416.76   23.63
   4  -1  -4  431.60   24.36
   3  -4   4  473.56   27.99
   4  -1  -4  426.17   26.04
  -3   4  -4  423.42   23.84
   3  -4   4  467.02   33.29
  -1  -3  -3   73.04   32.94
  -3   4  -3   46.42    3.92
   4  -1  -3   51.77    3.41
   3  -4   3   53.15    3.29
   3  -4   3   44.05    8.82
   4  -1  -3   66.06   14.18
   1   3   3   52.17    3.69
   3  -4   3   64.81   30.65
  -1  -3  -2  140.94   16.02
  -3   4  -2  128.51   10.04
  -3   4  -2  130.72    7.59
   4  -1  -2  135.84    8.03
   3  -4   2  112.45   10.18
   4  -1  -2  119.82    9.30
   1   3   2  107.68    6.68
   3  -4   2  168.78   75.84
  -3   4  -1   84.79    4.99
   4  -1  -1   90.05    5.62
   3  -4   1   72.83    8.78
   4  -1  -1   72.82    6.78
   3  -4   1   77.15   23.12
  -3   4   0   61.72    7.50
  -3   4   0   73.88    4.36
   4  -1   0   76.39    4.75
   3  -4   0   74.97    8.89
   4  -1   0   81.93    6.47
   1   3   0   88.85    5.68
   3  -4   0   75.92   55.28
  -1  -3   0   90.61    6.84
  -3   4   1   65.89    7.02
  -3   4   1   53.70    3.21
   4  -1   1   56.53    3.82
   3  -4  -1   91.32   10.63
   4  -1   1   50.62    5.33
   1   3  -1   74.64    4.91
   4  -1   1  103.40   23.14
   3  -4  -1  120.37   53.47
  -1  -3   1   48.43    4.57
  -4   1  -2  163.91   17.79
  -3   4   2  140.78   11.12
  -3   4   2  113.15    6.54
   3  -4  -2  167.15   17.87
   4  -1   2  101.82    8.51
   1   3  -2  139.40    8.42
   4  -1   2  117.53   14.15
   3  -4  -2  145.81   19.01
  -1  -3   2  106.65    8.17
  -4   1  -3   74.52   22.73
  -3   4   3   57.59    5.76
  -3   4   3   50.74    3.09
   3  -4  -3   41.81   18.69
   1   3  -3   62.26    4.72
   4  -1   3   57.22    6.14
   3  -4  -3   42.61   20.25
   4  -1   3   56.52   18.26
  -1  -3   3   59.31    6.90
   3  -4  -4  398.78   24.03
  -4   1  -4  502.43   37.12
  -3   4   4  441.95   25.55
   1   3  -4  450.29   25.72
   3  -4  -4  422.95   40.37
   1   3  -4  428.99   24.43
   4  -1   4  519.57   30.25
   3  -4  -4  504.89   38.87
   4  -1   4  565.19   48.29
   3  -4  -5  657.01   53.33
  -4   1  -5  724.98   46.62
  -3   4   5  574.77   44.78
   1   3  -5  658.56   51.09
   3  -4  -5  515.87   46.02
   1   3  -5  687.61   53.30
   4  -1   5  712.40   40.77
   3  -4  -5  666.65   45.63
   4  -1   5  629.87   40.13
   3  -4  -6   68.62   17.64
  -4   1  -6   87.18   24.29
  -3   4   6   84.54    7.57
   1   3  -6   63.61    5.83
   3  -4  -6  113.86   59.92
   1   3  -6   71.38    6.75
   4  -1   6   63.55    6.62
  -1  -3   6   57.01    4.67
   4  -1   6   82.73   16.98
   3  -4  -7  146.13   19.92
  -4   1  -7  224.93   56.76
   1   3  -7  157.47   13.37
   3  -4  -7  211.76   81.65
   1   3  -7  194.54   16.24
   4  -1   7  144.58   12.07
  -1  -3   7  149.68   11.77
   4  -1   7  172.28   53.27
   3  -4  -8  304.42   29.83
  -4   1  -8  300.38   30.27
   1   3  -8  239.51   19.27
   3  -4  -8  319.02   39.28
   1   3  -8  310.40   25.38
  -1  -3   8  227.84   17.78
   4  -1   8  262.05   25.55
   3  -4  -9  157.14   44.68
  -4   1  -9  151.31   25.36
   3  -4  -9  249.14   41.31
  -1  -3   9  219.98   17.28
   4  -1   9  225.49   23.50
  -4   1 -10  262.11   24.49
   3  -4 -10  178.26   22.32
   1   3 -10  211.59   15.01
   3  -4 -10  200.65   28.77
   1   3 -10  230.73   16.69
  -1  -3  10  218.29   10.39
   4  -1  10  211.74   11.79
   4  -1  10  222.60   18.38
  -4   1 -11  841.70   52.98
   3  -4 -11  838.28   57.49
   1   3 -11  994.81   45.60
   3  -4 -11  950.70   67.52
   1   3 -11 1018.62   49.28
   4  -1  11  956.36   43.98
   4  -1  11  864.96   44.66
  -4   1 -12  194.19   47.96
   3  -4 -12  108.40   19.49
   1   3 -12  126.67   14.37
   3  -4 -12  131.07   51.33
   1   3 -12  163.44   20.92
   4  -1  12  111.44   12.89
   4  -1  12  147.93   21.91
  -4   1 -13  116.67   20.94
   3  -4 -13   91.24   20.08
   1   3 -13  138.80   16.02
   3  -4 -13  144.34   57.35
   1   3 -13  100.13   14.02
   4  -1  13  131.10   14.91
   4  -1  13  146.80   20.75
  -4   1 -14  855.13   47.70
   3  -4 -14  701.23   39.99
   1   3 -14  947.05   59.95
   1   3 -14 1014.87   67.85
   4  -1  14  918.05   60.20
   4  -1  14  897.17   40.34
  -4   1 -15  118.94   24.93
   3  -4 -15   83.56   18.78
   1   3 -15  139.14   11.20
   3  -4 -15  100.85   60.51
   1   3 -15  114.87   13.04
   4  -1  15  124.20    9.49
   4  -1  15  127.63   14.23
  -4   1 -16   79.55   29.79
   3  -4 -16   68.64   48.04
   1   3 -16  126.31   34.59
   1   3 -16   89.33   26.95
   3  -4 -16  117.67   84.25
   4  -1  16   70.33   14.67
   4  -1  16   67.06   16.32
  -4   1 -17  562.38  118.32
   3  -4 -17  338.46   72.34
   1   3 -17  489.87   97.44
   1   3 -17  503.20  101.06
   3  -4 -17  534.62  115.60
   4  -1  17  505.43  101.82
  -4   1 -18   53.29   20.83
   3  -4 -18   24.84   15.81
   1   3 -18   48.54   16.38
   1   3 -18   42.30   35.19
   3  -4 -18   25.89   13.96
   4  -1  18   36.69    5.19
   4  -1  18   37.82   14.35
  -4   1 -19   45.79   21.75
   3  -4 -19   26.43   24.70
   1   3 -19   55.98   11.57
   1   3 -19   14.55    7.87
   3  -4 -19   60.25   28.70
   4  -1  19   59.93   10.41
   4  -1  19   65.64   14.75
  -4   1 -20  635.44  181.97
   3  -4 -20  275.34   69.48
   1   3 -20  481.08  114.28
   3  -4 -20  436.01  109.06
   4  -1  20  479.74  113.69
   4  -1  20  552.59  132.35
  -4   1 -21   13.56   23.47
   3  -4 -21    6.57   11.97
   1   3 -21    7.35    6.52
   3  -4 -21    8.69   12.97
   4  -1  21    5.15    4.53
   4  -1  21   10.18    8.68
  -4   1 -22  344.77  106.19
   3  -4 -22  159.93   49.89
   1   3 -22  331.37   93.98
   3  -4 -22  215.18   96.81
   4  -1  22  255.84   72.12
   4  -1  22  262.82   75.48
  -4   1 -23  124.48   63.55
   3  -4 -23   48.03   46.28
   1   3 -23   81.42   43.31
   3  -4 -23   90.10   98.01
   4  -1  23   69.28   32.49
   4  -1  23   56.56   40.13
  -4   1 -24   38.90   39.02
   3  -4 -24   22.47   24.67
   1   3 -24   29.69   17.20
   3  -4 -24   42.04   41.35
   4  -1  24   26.20   13.90
   4  -1  24   36.16   24.93
  -4   1 -25  140.29   59.56
   3  -4 -25  126.47   54.59
   1   3 -25  188.01   75.56
   4  -1  25  183.15   70.06
   4  -1  25  212.92   82.95
   0  -4 -24   12.47   14.01
  -4   4 -24   40.65   20.36
   4   0 -24   28.04   24.00
   4   0 -24   33.58   23.22
   0  -4 -23   37.50   36.87
  -4   4 -23   42.80   24.89
   4   0 -23   51.59   34.59
   4   0 -23   47.01   48.19
   4  -4  23   35.17   21.81
   0  -4 -22  146.98  118.65
  -4   4 -22  246.56  117.09
   4   0 -22  263.00  122.40
   4   0 -22  328.45  160.61
   4  -4  22  185.87   87.93
  -4   4 -21   28.47   15.87
   4   0 -21   17.21    7.62
   4   0 -21   27.75   17.61
   4  -4  21   11.48   11.74
  -4   4 -20  508.38  144.05
   4   0 -20  408.27  115.03
   4   0 -20  474.07  135.99
   4  -4  20  382.50  105.50
   4  -4  20  359.64  101.67
   0  -4 -19   18.35   15.76
  -4   4 -19   48.93   23.79
   4   0 -19   39.34   11.16
   4   0 -19   58.43   31.75
   4  -4  19   28.02    7.54
   4  -4  19   26.18   16.60
   0  -4 -18   28.58   21.69
  -4   4 -18   36.93   14.54
   4   0 -18   39.66   12.50
   4   0 -18   48.91   30.77
   4  -4  18   37.75    6.41
   4  -4  18   29.27   11.09
   0  -4 -17  355.04   56.80
  -4   4 -17  450.57   31.58
   4   0 -17  452.10   29.21
   4   0 -17  465.45   72.26
   4  -4  17  450.97   28.07
   4  -4  17  419.31   36.06
   0  -4 -16   78.70   35.34
  -4   4 -16  103.35   12.15
   4   0 -16   92.71   19.20
   4   0 -16   95.01   47.34
   4  -4  16   90.12    6.68
   4  -4  16   75.70   14.09
   0  -4 -15  156.60   72.45
  -4   4 -15  197.14   40.42
   4   0 -15  178.72   35.91
   4   0 -15  192.37   50.63
   4  -4  15  174.29   34.79
   4  -4  15  150.28   34.44
   0  -4 -14  543.61   58.09
  -4   4 -14  596.91   40.02
   4   0 -14  670.62   43.67
   4   0 -14  677.80   48.67
   4  -4  14  630.53   39.87
   4  -4  14  615.19   47.74
   0  -4 -13   60.40   26.17
  -4   4 -13   63.69    8.94
   4   0 -13   67.69    5.49
   4   0 -13   70.32   11.15
   4  -4  13   64.27    4.12
   4  -4  13   49.70   14.67
   0  -4 -12  102.74   52.98
  -4   4 -12   90.85    8.61
   4   0 -12   89.98    5.85
   4   0 -12  129.51   22.04
   4  -4  12   92.02    5.10
   4  -4  12   77.02   16.78
   0  -4 -11  783.26   91.83
  -4   4 -11  948.84   39.40
   4   0 -11  904.85   96.08
   4   0 -11 1039.71   45.93
   4  -4  11  948.18  100.68
   4  -4  11 1052.59   53.52
   0  -4 -10  227.57  103.60
  -4   4 -10  190.96   22.41
   4   0 -10  174.46   19.09
   4   0 -10  227.30   49.13
   4  -4  10  170.90   18.81
   4  -4  10  182.71   27.58
   0  -4  -9  447.64   55.36
  -4   4  -9  612.15   30.59
   4   0  -9  563.18   59.92
   4   0  -9  620.43   68.06
   4  -4   9  570.68   60.93
   0   4   9  517.96   55.90
   4  -4   9  464.85   32.02
   0  -4  -8  107.96   41.59
  -4   4  -8  118.94    9.32
   4   0  -8  110.01    6.27
   4   0  -8  130.79   29.05
   4  -4   8  122.63    8.52
   4  -4   8   99.57   44.18
   0   4   8  112.13    7.17
   0  -4  -7  193.69   24.23
  -4   4  -7  221.74   12.69
   4   0  -7  223.45   10.96
   4   0  -7  246.58   20.39
   4  -4   7  222.45   11.72
   4  -4   7  222.24   22.63
   0   4   7  269.87   13.83
   0  -4  -6  137.91   58.63
  -4   4  -6  126.90   11.51
   4   0  -6  128.10   10.48
   4   0  -6  147.38   14.48
   4  -4   6  130.64   11.40
   4  -4   6  162.91   73.11
   0   4   6  154.82   12.87
   0  -4  -5  533.08   47.66
  -4   4  -5  560.90   43.99
   4   0  -5  577.01   44.79
   4  -4   5  595.52   45.92
   4   0  -5  560.40   44.63
   4  -4   5  575.00   45.28
   4  -4   5  585.96   52.45
   0   4   5  502.51   39.20
   0  -4  -4  350.24   33.64
  -4   4  -4  349.25   27.56
   4   0  -4  385.15   30.06
   4  -4   4  379.10   29.26
   4  -4   4  358.75   29.08
   4   0  -4  376.88   30.58
   4  -4   4  342.54   38.25
   0   4   4  382.44   29.92
   0  -4  -3  165.59   18.46
  -4   4  -3  201.02   16.22
   4   0  -3  182.12   14.52
   4  -4   3  180.77   14.01
   4  -4   3  165.59   14.34
   4   0  -3  171.39   15.31
   0  -4  -3  165.80   15.39
   4  -4   3  177.36   70.14
   4   0  -2   99.96    8.36
   0   4   2  105.29    8.83
   4  -4   2  106.29   10.80
   4   0  -2   95.16    9.82
   0  -4  -2   99.20   11.67
   4  -4   2  116.69   24.79
   4   0  -1   60.72    5.57
   0   4   1   57.52    5.14
   4  -4   1   61.13    8.21
   4   0  -1   62.90    6.96
   4  -4   1   81.92   48.68
   0  -4  -1   63.92    9.19
   4   0   0   95.23    8.96
   4  -4   0   85.23   10.96
   4   0   0   83.41    8.50
   0   4   0   83.01    6.80
   4  -4   0   88.79   48.13
   0  -4   0   92.96   11.09
   4   0   1   61.13    5.43
   0   4  -1   58.55   16.76
   4  -4  -1   58.71    8.56
   4   0   1   70.82    8.01
   0   4  -1   64.33    5.41
   4  -4  -1   61.15   25.92
   0  -4   1   66.99   19.77
  -4   0  -2  112.60   19.76
   0   4  -2  112.95    9.33
   0   4  -2  138.13   14.13
   4  -4  -2   94.31   13.17
   4   0   2  116.11   10.82
   0   4  -2  101.95    8.15
   4  -4  -2  115.99   62.90
   0  -4   2  122.42   13.47
  -4   0  -3  217.07   49.81
   0   4  -3  186.65   14.97
   0   4  -3  186.17   16.23
   4  -4  -3  191.53   20.21
   0   4  -3  204.41   15.98
   4   0   3  199.49   16.75
   4  -4  -3  168.85   31.42
   0  -4   3  209.46   20.00
  -4   0  -4  389.51   35.77
   0   4  -4  385.59   30.20
   0   4  -4  367.70   29.82
   4  -4  -4  320.13   30.13
   0   4  -4  404.24   31.28
   4   0   4  417.54   36.71
   4  -4  -4  439.91   44.40
   4   0   4  398.72   38.50
   0  -4   4  364.41   30.94
  -4   0  -5  622.43   54.09
  -4   4   5  543.48   41.84
   0   4  -5  566.65   44.04
   0   4  -5  526.72   41.36
   4  -4  -5  533.35   46.09
   0   4  -5  596.10   46.01
   4   0   5  644.19   50.57
   4   0   5  539.59   44.29
  -4   0  -6  181.96   59.78
  -4   4   6  107.68    8.43
   0   4  -6  131.95   11.04
   0   4  -6  131.46   10.61
   0   4  -6  139.00   10.95
   4  -4  -6  122.66   17.91
   4   0   6  139.57   12.17
   4   0   6  134.15   18.16
   0  -4   6  115.95   11.87
  -4   0  -7  311.13   31.41
   4  -4  -7  235.60   19.92
  -4   4   7  189.77    8.94
   0   4  -7  229.60   11.64
   4  -4  -7  232.99   24.63
   4   0   7  240.96   12.91
   4   0   7  240.46   25.66
   0  -4   7  181.98   13.12
  -4   0  -8  151.19   68.24
   4  -4  -8  111.81   16.38
  -4   4   8  101.18    5.06
   0   4  -8  108.45    6.24
   4  -4  -8  105.54   53.19
   4   0   8  103.71    6.67
   4   0   8  121.75   12.43
   0  -4   8  101.27    9.81
  -4   0  -9  612.70   54.97
   4  -4  -9  578.03   33.13
   0   4  -9  603.64   28.15
   4  -4  -9  553.95   67.95
   4   0   9  580.89   27.42
   4   0   9  598.84   66.13
   0  -4   9  462.09   24.72
  -4   0 -10  201.82   48.85
   4  -4 -10  134.25   18.79
   0   4 -10  181.89   21.96
   4  -4 -10  207.93   85.24
   4   0  10  189.88   21.07
   4   0  10  198.16   28.71
   0  -4  10  139.61   17.83
  -4   0 -11  895.73  113.44
   4  -4 -11  831.51   91.38
   0   4 -11  991.70   38.30
   4  -4 -11  734.25   94.91
   4   0  11  975.51   37.90
   4   0  11 1022.66   44.63
   0  -4  11  801.22   86.60
  -4   0 -12  107.54   37.04
   4  -4 -12   50.79   18.91
   0   4 -12   87.15    9.26
   4   0  12   92.42    8.82
   4   0  12  103.00   23.34
   0  -4  12   91.10   14.89
  -4   0 -13  104.45   32.21
   4  -4 -13   76.22   15.21
   0   4 -13   80.51   13.73
   4  -4 -13   85.50   43.16
   4   0  13   65.86    5.61
   4   0  13   63.03   21.74
  -4   0 -14  704.77   60.86
   4  -4 -14  541.14   41.67
   0   4 -14  689.46   44.04
   4  -4 -14  663.27   55.65
   4   0  14  632.01   40.42
   4   0  14  613.90   41.83
  -4   0 -15  250.11   79.54
   4  -4 -15  138.75   31.78
   0   4 -15  269.35   54.11
   4  -4 -15  325.01  154.05
   4   0  15  236.82   48.91
  -4   0 -16  113.17   52.97
   4  -4 -16   86.89   18.86
   0   4 -16  111.08    9.66
   4  -4 -16   94.74   54.87
   4   0  16  104.14   21.52
   4   0  16  122.38   27.32
  -4   0 -17  468.59   45.56
   4  -4 -17  320.21   30.62
   0   4 -17  478.83   33.50
   4  -4 -17  475.18   49.79
   4   0  17  464.69   29.55
   4   0  17  510.38   35.65
  -4   0 -18   25.57   18.95
   4  -4 -18   31.66   16.70
   0   4 -18   43.70    8.62
   4  -4 -18   53.80   31.83
   4   0  18   36.98    6.67
   4   0  18   52.17   11.96
  -4   0 -19   33.95   22.07
   4  -4 -19   25.18   20.94
   0   4 -19   39.68   17.10
   4  -4 -19   37.89   21.85
   4   0  19   31.25    8.83
   4   0  19   32.31   10.87
  -4   0 -20  372.14  108.09
   4  -4 -20  377.64  108.41
   0   4 -20  431.02  121.39
   4  -4 -20  318.01  133.94
   4   0  20  410.24  115.35
   4   0  20  418.48  118.41
  -4   0 -21   10.00   13.20
   4  -4 -21   12.96   14.74
   0   4 -21   20.94   10.26
   4  -4 -21   14.94   18.42
   4   0  21   18.23    6.55
   4   0  21   22.69   10.34
  -4   0 -22  210.53  101.55
   4  -4 -22  182.81   87.66
   0   4 -22  311.28  144.67
   4  -4 -22  190.43  117.57
   4   0  22  219.82  102.53
  -4   0 -23   26.24   38.75
   4  -4 -23   42.59   29.08
   0   4 -23   51.61   27.48
   4  -4 -23   40.32   38.33
   4   0  23   50.20   26.08
   4  -4 -24   17.52   12.76
   0   4 -24   30.65   14.53
   4  -4 -24   26.61   18.06
   4   0  24   31.63   13.10
  -4  -1 -22   99.98   94.53
  -1   5 -22  147.25   75.72
   5  -4 -22  219.58  137.59
   4   1  22  136.47   69.87
   1  -5  22  107.46   69.55
  -4  -1 -21  113.96   73.46
   5  -4 -21   90.02   44.36
  -1   5 -21  185.95   86.87
   5  -4 -21  164.35   97.61
   1  -5  21  135.00   64.59
  -4  -1 -20   58.08   31.55
   5  -4 -20   53.89   19.00
  -1   5 -20   79.61   21.72
   5  -4 -20   86.04   42.39
   4   1  20   70.58   19.12
   1  -5  20   44.65   22.44
  -4  -1 -19   77.30   44.31
   5  -4 -19   55.30   19.21
  -1   5 -19   74.33   25.87
   5  -4 -19   87.41   46.91
   4   1  19   74.34   21.56
   1  -5  19   48.07   27.70
  -4  -1 -18   35.00   23.63
   5  -4 -18   22.10   11.16
  -1   5 -18   41.20   13.61
   5  -4 -18   28.67   25.53
   4   1  18   32.25    9.95
  -4  -1 -17   22.65   25.16
   5  -4 -17    6.07   11.05
  -1   5 -17   21.48    9.49
   5  -4 -17   18.28   19.84
   4   1  17   17.40    5.92
  -4  -1 -16  272.67   73.97
   5  -4 -16  212.79   35.75
  -1   5 -16  257.60   38.53
   5  -4 -16  383.22  157.17
   4   1  16  271.77   40.66
   1  -5  16  240.66   39.48
  -4  -1 -15   21.62   18.63
   5  -4 -15    8.25    9.53
  -1   5 -15   10.25    4.74
   5  -4 -15   19.41   24.85
   4   1  15   13.42    4.12
   1  -5  15   14.85    9.71
  -4  -1 -14   29.33   15.25
   5  -4 -14   15.58    7.85
  -1   5 -14   38.83    5.53
   5  -4 -14   43.24   24.53
   4   1  14   34.15    8.79
   1  -5  14   16.34    7.16
  -4  -1 -13  163.62   76.42
   5  -4 -13   64.37   22.12
  -1   5 -13  123.89   25.27
   5  -4 -13  152.84   76.97
   4   1  13  124.37   25.33
   4   1  13  146.92   36.65
   1  -5  13   89.53   20.71
  -4  -1 -12   27.21   17.91
   5  -4 -12   22.13   11.33
  -1   5 -12   35.57    6.39
   5  -4 -12   50.60   25.00
   4   1  12   36.48   22.76
   1  -5  12   25.63    8.59
  -4  -1 -11  114.68   34.75
   5  -4 -11   78.76    9.54
  -1   5 -11   81.60   11.86
   4   1  11   78.20    6.95
   4   1  11  124.60   11.51
   1  -5  11   57.77    9.91
  -4  -1 -10  194.28   59.52
  -1   5 -10  191.83   12.15
   4   1  10  195.85   10.06
   4   1  10  180.82   11.44
   1  -5  10  184.70   16.49
  -4  -1  -9  589.24   39.49
   5  -4  -9  510.79   24.00
  -1   5  -9  556.88   22.02
   5  -4  -9  491.06   30.52
   4   1   9  555.12   23.24
   4   1   9  537.83   23.15
   1  -5   9  473.08   25.51
  -4  -1  -8  249.53   47.01
  -1   5  -8  249.78   10.97
   5  -4  -8  252.48   23.86
   4   1   8  253.62   11.76
   4   1   8  264.06   14.08
   1  -5   8  238.02   17.18
  -4  -1  -7   75.09   36.29
  -1   5  -7   53.72    8.19
   5  -4  -7   58.83   13.49
   4   1   7   69.76   16.87
   1  -5   7   55.48   12.04
  -4  -1  -6  509.88   70.17
  -1   5  -6  458.05   48.84
   5  -4  -6  433.99   50.86
   4   1   6  482.02   51.66
   1  -5   6  397.75   45.66
  -4  -1  -5  164.87   61.72
  -1   5  -5  142.06   15.59
   5  -4  -5  157.08   23.23
   4   1   5  143.59   16.16
   1  -5   5  153.81   22.14
  -4  -1  -4   28.87   18.30
  -1   5  -4   25.95    7.75
   5  -4  -4   24.17    8.44
   4   1   4   21.88    9.35
   1  -5   4   20.49    9.98
  -4  -1  -3 2119.50  101.06
  -1   5  -3 2186.18  231.28
   5  -4  -3 2313.58  246.92
  -1   5  -3 2339.79  247.46
   4   1   3 2276.29  241.10
  -1   5  -3 2188.39  231.33
   5  -4  -3 2545.18  274.33
   1  -5   3 2266.79  242.18
  -1   5  -2  409.62   19.19
   4   1   2  444.81   21.07
  -1   5  -2  457.61   21.76
   4   1   2  460.59   22.66
  -1   5  -2  448.68   20.26
   5  -4  -2  384.64   36.12
   1  -5   2  423.31   28.92
  -1   5  -1  149.53    7.90
   4   1   1  129.87    7.29
  -1   5  -1  145.00    9.66
   4   1   1  141.77    9.04
   5  -4  -1  105.39   49.23
   1  -5   1  149.89   33.73
  -1   5   0 1047.85   47.53
   5  -4   0  945.81   46.10
   4   1   0 1057.99   48.87
   5  -4   0  971.97   55.14
   1  -5   0  911.83   49.38
  -1   5   1  122.18    6.48
   5  -4   1  138.89   11.64
   4   1  -1  146.74    9.24
   5  -4   1  117.56   40.85
   1  -5  -1  127.40   15.17
  -1   5   2  393.33   18.40
   5  -4   2  379.24   20.52
   4   1  -2  396.21   20.09
   1  -5  -2  380.66   33.48
   5  -4   2  417.54   35.92
  -1   5   3 2097.66   94.25
   5  -4   3 2079.07   95.04
   4   1  -3 2287.72  242.47
   1  -5  -3 2162.63  101.81
   5  -4   3 2164.90  108.59
  -5   4  -4   28.83    9.60
  -1   5   4   22.07    3.19
   5  -4   4   23.01   10.97
   4   1  -4   25.54    6.97
   1  -5  -4   39.08   22.07
   5  -4   4   39.81   18.37
   1  -5  -5  126.00   21.03
  -5   4  -5  227.70   26.38
   4   1  -5  164.99   19.33
   5  -4   5  137.05   16.14
   5  -4   5  189.78   72.92
   1  -5  -6  388.62   46.03
  -5   4  -6  427.07   46.63
   4   1  -6  486.51   54.49
   5  -4   6  423.99   45.84
   5  -4   6  479.92   59.50
   1  -5  -7   47.62   20.12
  -5   4  -7   63.64   16.82
   4   1  -7   47.37    5.84
   4   1  -7   59.74    9.70
   5  -4   7   56.55    7.86
   5  -4   7   51.28   20.39
   1  -5  -8  220.07   23.76
  -5   4  -8  216.07   13.77
   4   1  -8  239.63   10.45
   4   1  -8  262.53   14.98
   5  -4   8  224.65   10.83
   5  -4   8  216.14   30.25
   1  -5  -9  584.14   39.99
   4   1  -9  561.10   22.20
   4   1  -9  578.58   26.75
   5  -4   9  547.17   22.40
   5  -4   9  496.25   31.82
   1  -5 -10  161.37   55.54
  -5   4 -10  209.62   15.39
   4   1 -10  186.98    8.82
   4   1 -10  223.30   15.77
   5  -4  10  174.62    8.76
   5  -4  10  162.77   62.42
   1  -5 -11   87.31   48.73
  -5   4 -11  100.74   12.27
   4   1 -11   77.74    6.44
   4   1 -11   82.72   11.28
   5  -4  11   71.70    6.37
   5  -4  11   92.71   38.92
   1  -5 -12   26.34   18.08
  -5   4 -12   41.88    9.88
   4   1 -12   33.95    7.98
   4   1 -12   39.14   12.22
   5  -4  12   31.31    7.89
   5  -4  12   33.50   16.11
   1  -5 -13  122.24   70.57
   4   1 -13  104.31   21.19
   4   1 -13  134.01   29.61
   5  -4  13  114.13   23.12
   5  -4  13  105.01   49.79
   1  -5 -14   18.38   11.70
  -5   4 -14   45.85   14.67
   4   1 -14   31.59   11.66
   4   1 -14   34.74   10.20
   5  -4  14   27.93    3.55
   5  -4  14   21.51    9.71
   1  -5 -15    9.99   14.85
  -5   4 -15    8.00    9.05
   4   1 -15    5.26    2.70
   4   1 -15    9.12    8.41
   5  -4  15   20.20    8.20
   5  -4  15   12.40   15.27
   1  -5 -16  150.45   81.10
  -5   4 -16  326.62   52.10
   4   1 -16  355.70   53.22
   4   1 -16  313.15   58.80
   5  -4  16  237.31   35.40
   5  -4  16  199.99   37.08
   1  -5 -17   16.73   15.40
  -5   4 -17   21.97   12.32
   4   1 -17   20.07    6.19
   4   1 -17   23.64   18.48
   5  -4  17   16.65    9.43
   5  -4  17   19.79   16.96
   1  -5 -18   24.75   26.15
  -5   4 -18   40.44   18.51
   4   1 -18   32.34   10.59
   4   1 -18   41.30   21.17
   5  -4  18   29.51   11.93
   5  -4  18   17.21   14.34
   1  -5 -19   47.62   38.34
  -5   4 -19   87.70   29.09
   4   1 -19   76.72   31.83
   4   1 -19   70.58   53.92
   5  -4  19   71.23   20.47
   5  -4  19   58.16   20.60
   1  -5 -20   33.39   34.27
  -5   4 -20   99.15   32.13
   4   1 -20   61.50   19.80
   4   1 -20   55.60   35.29
   5  -4  20   65.40   17.28
   5  -4  20   57.76   21.68
   1  -5 -21   62.55   59.33
  -5   4 -21  212.44  101.18
   4   1 -21  143.55   67.02
   4   1 -21  254.07  136.65
   5  -4  21  137.62   63.91
   5  -4  21  141.03   68.97
   1  -5 -22   77.48   65.94
  -5   4 -22  211.37  110.98
   4   1 -22  138.69   71.22
   4   1 -22  250.42  148.76
   5  -4  22  117.78   73.82
  -3  -2 -23  188.84  136.27
   5  -3 -23  237.23   92.09
  -2   5 -23  278.28  110.56
   5  -3 -23  386.02  176.95
   2  -5  23  182.11   71.85
  -3  -2 -22   73.26   60.55
   5  -3 -22   91.98   51.06
  -2   5 -22  110.60   64.27
   5  -3 -22  103.05  105.51
  -3  -2 -21   11.46   12.87
   5  -3 -21   17.32   10.54
  -2   5 -21   30.94   14.09
   5  -3 -21   46.74   34.59
  -3  -2 -20  162.91  108.11
   5  -3 -20  228.73   66.63
  -2   5 -20  280.54   79.78
   5  -3 -20  299.39  116.74
   3   2  20  192.01   54.28
   2  -5  20  143.13   42.68
  -3  -2 -19  114.88   56.67
   5  -3 -19  102.18   29.88
  -2   5 -19  153.17   43.14
   5  -3 -19  161.26  105.52
   3   2  19  153.73   42.87
   2  -5  19  117.61   35.78
  -3  -2 -18   44.02   24.52
   5  -3 -18   50.63   14.74
  -2   5 -18   78.63   24.18
   5  -3 -18   72.08   31.53
   3   2  18   56.44   14.34
   2  -5  18   55.73   18.57
  -3  -2 -17  428.21  113.18
   5  -3 -17  398.35   95.06
  -2   5 -17  559.05  132.64
   5  -3 -17  493.01  125.44
   3   2  17  550.59  130.73
   2  -5  17  463.87  112.10
  -3  -2 -16   34.32   17.01
   5  -3 -16   31.82    7.80
  -2   5 -16   44.57    8.77
   5  -3 -16   55.54   31.86
   3   2  16   22.08    4.45
   2  -5  16   13.99    8.56
  -3  -2 -15   71.88   29.46
   5  -3 -15   69.13    8.57
  -2   5 -15   86.13   14.74
   5  -3 -15   83.17   32.93
   3   2  15   83.62    7.10
   2  -5  15   63.84   12.75
  -3  -2 -14  420.65  121.08
   5  -3 -14  550.32  110.10
  -2   5 -14  579.59   36.57
   5  -3 -14  566.05  116.75
   3   2  14  569.56  113.02
   2  -5  14  570.12   42.73
  -3  -2 -13   50.49   32.34
   5  -3 -13   27.61   14.99
  -2   5 -13   26.17   11.06
   5  -3 -13   35.94   18.16
   3   2  13   27.91    4.27
   2  -5  13   21.26   10.16
   5  -3 -12  177.26   15.27
  -2   5 -12  187.50   14.48
   5  -3 -12  191.88   58.64
   3   2  12  237.04   16.41
   2  -5  12  180.64   19.78
  -3  -2 -11  432.36   49.15
   5  -3 -11  432.52   20.44
   5  -3 -11  400.50   28.05
   3   2  11  462.87   19.09
   2  -5  11  386.91   24.15
  -3  -2 -10  100.13   33.16
   5  -3 -10   85.07    7.43
  -2   5 -10   86.28    5.23
   5  -3 -10   97.97   17.20
   3   2  10   92.12    5.72
   2  -5  10   67.30   10.91
  -3  -2  -9  152.40   41.77
   5  -3  -9  142.46   16.80
  -2   5  -9  148.20   16.46
   5  -3  -9  139.57   23.61
   3   2   9  141.56   16.20
   2  -5   9  114.82   18.33
  -3  -2  -8  779.13   92.26
   5  -3  -8  716.96   76.73
  -2   5  -8  682.04   72.47
   5  -3  -8  806.38   89.78
   3   2   8  749.74   79.93
  -3  -2  -7  365.05  123.74
   5  -3  -7  194.39   21.29
  -2   5  -7  210.41   22.88
  -5   3   7  207.43   22.08
   5  -3  -7  206.83   27.22
   3   2   7  200.87   22.51
  -3  -2  -6  259.87   79.86
   5  -3  -6  193.24   10.22
  -2   5  -6  202.20   10.13
   5  -3  -6  237.60   19.58
   3   2   6  210.35   11.14
   2  -5   6  210.52   21.02
  -3  -2  -5  151.64   65.75
   5  -3  -5  130.78    9.26
  -2   5  -5  131.37    6.91
   5  -3  -5  133.07   14.49
   3   2   5  173.97    9.66
   2  -5   5  177.01   30.83
  -3  -2  -4   95.70   31.85
   5  -3  -4   98.27    7.16
  -2   5  -4   79.19    4.52
   5  -3  -4  102.54   39.75
   3   2   4  108.98    7.10
   2  -5   4   83.17   16.85
  -3  -2  -3  132.49   23.66
  -2   5  -3  123.61    6.38
  -2   5  -3  123.83    5.81
   3   2   3  132.67    8.17
   2  -5   3  126.22   16.07
  -2   5  -2  175.32   14.07
   5  -3  -2  197.77   14.86
  -2   5  -2  199.80   15.71
   3   2   2  168.30    9.28
   5  -3  -2  215.05   44.91
   2  -5   2  182.81   25.67
  -3  -2  -2  186.87   15.05
  -2   5  -1  320.31   25.00
  -2   5  -1  400.67   31.53
   5  -3  -1  332.19   28.31
   3   2   1  303.96   24.36
   5  -3  -1  425.26   42.78
  -3  -2  -1  363.03   29.38
   2  -5   1  296.64   30.16
   5  -3   0   65.24    5.36
   5  -3   0   78.94    6.14
  -2   5   0   80.67    6.86
   5  -3   0   76.97    9.47
   3   2   0   91.96    8.83
   5  -3   0   80.70   35.53
  -3  -2   0   85.79   11.29
   2  -5   0  106.39   43.20
   5  -3   1  311.07   24.28
  -2   5   1  323.81   25.31
   5  -3   1  269.29   23.30
   3   2  -1  309.65   24.77
  -3  -2   1  316.64   26.90
   5  -3   1  422.90   44.20
   2  -5  -1  344.41   34.82
   5  -3   2  177.37    8.71
  -2   5   2  175.50    8.52
   5  -3   2  164.29   10.75
   3   2  -2  191.04   10.21
   5  -3   2  206.99   25.60
   2  -5  -2  196.78   37.62
  -5   3  -3  125.15    8.00
   5  -3   3  105.46    5.99
   3   2  -3  136.03    7.39
  -2   5   3  120.59    6.18
   2  -5  -3   74.26   38.18
   5  -3   3  116.71    8.33
   3   2  -3  140.23    8.24
   2  -5  -3  142.64   52.11
   5  -3   3  140.25   42.80
  -5   3  -4  100.21   12.55
   5  -3   4   83.54    4.96
   3   2  -4   79.57    5.40
  -2   5   4   95.61    5.14
   2  -5  -4   61.15   31.70
   3   2  -4   87.61    6.66
   5  -3   4   95.46    7.53
   2  -5  -4  104.85   45.17
   5  -3   4  118.38   46.21
   2  -5  -5  133.44   13.86
  -5   3  -5  132.42   15.52
   5  -3   5  103.25    5.83
   3   2  -5  139.37    7.81
   2  -5  -5  103.76   44.41
   3   2  -5  151.86   11.54
   2  -5  -5  108.42   14.66
   5  -3   5  152.37   53.06
   2  -5  -6  174.24   16.96
  -5   3  -6  208.95   16.34
   3   2  -6  197.67   10.12
   2  -5  -6  178.86   73.37
   3   2  -6  213.50   12.12
   5  -3   6  199.43   25.92
   2  -5  -7  187.27   26.20
  -5   3  -7  320.21   37.77
   3   2  -7  198.77   21.64
   2  -5  -7  170.70   32.66
   3   2  -7  214.39   24.15
   5  -3   7  189.42   22.65
   5  -3   7  186.31   33.43
   2  -5  -8  661.17   75.77
  -5   3  -8  729.88   80.00
   3   2  -8  690.48   73.43
   2  -5  -8  594.50   82.82
   3   2  -8  674.81   72.64
   5  -3   8  654.66   71.31
   5  -3   8  651.93   78.21
   2  -5  -9  114.85   33.89
  -5   3  -9  174.66   23.99
   3   2  -9  132.64   14.76
   2  -5  -9  156.65   98.36
   3   2  -9  153.75   18.56
   5  -3   9  123.91   14.15
   5  -3   9  143.02   27.42
   2  -5 -10   69.33   24.23
  -5   3 -10   84.97   12.92
   3   2 -10   92.92    5.71
   2  -5 -10   57.65   39.80
   3   2 -10  100.37    9.09
   5  -3  10   90.21    6.07
   5  -3  10   87.30   37.88
   2  -5 -11  352.72   28.27
  -5   3 -11  527.23   30.79
   3   2 -11  427.92   17.71
   2  -5 -11  409.37   44.90
   3   2 -11  428.74   20.87
   5  -3  11  429.29   18.15
   5  -3  11  436.89   30.47
   2  -5 -12  107.20   53.33
  -5   3 -12  229.34   47.80
   3   2 -12  193.69   13.39
   3   2 -12  229.08   37.49
   5  -3  12  186.10   13.04
   5  -3  12  184.38   28.78
   2  -5 -13   26.82   16.73
  -5   3 -13   25.84   10.54
   3   2 -13   23.42    8.24
   3   2 -13   25.26    7.38
   5  -3  13   27.18    3.61
   5  -3  13   33.86   26.37
   2  -5 -14  346.65   73.55
  -5   3 -14  577.34   42.96
   3   2 -14  566.30  112.41
   3   2 -14  622.91   42.76
   5  -3  14  565.80  112.33
   5  -3  14  625.81   48.86
   2  -5 -15   87.37   52.67
  -5   3 -15  113.60   17.85
   3   2 -15   83.34    7.35
   3   2 -15   89.82   26.90
   5  -3  15   79.19    6.68
   5  -3  15  104.67   27.25
   2  -5 -16   34.47   16.68
  -5   3 -16   44.16   15.18
   3   2 -16   46.51   15.08
   3   2 -16   39.09   22.81
   5  -3  16   22.05    8.11
   5  -3  16   22.59   11.11
   2  -5 -17  339.44   91.89
  -5   3 -17  567.23  136.63
   3   2 -17  750.66  207.13
   3   2 -17  614.30  148.20
   5  -3  17  536.70  127.07
   5  -3  17  605.36  146.00
   2  -5 -18   25.80   26.76
  -5   3 -18   87.23   29.45
   3   2 -18   59.33   19.79
   3   2 -18   60.12   39.51
   5  -3  18   54.30   13.56
   5  -3  18   55.75   18.45
   2  -5 -19  102.38   55.71
  -5   3 -19  178.06   54.66
   3   2 -19  145.19   41.78
   3   2 -19  189.22   69.74
   5  -3  19  155.05   43.12
   5  -3  19  134.55   40.41
   2  -5 -20  132.84   83.74
  -5   3 -20  263.66   79.23
   3   2 -20  254.18   72.01
   3   2 -20  225.60   65.85
   5  -3  20  210.68   59.44
   5  -3  20  195.58   58.11
   2  -5 -21   18.38   20.09
  -5   3 -21   19.54   17.59
   3   2 -21   22.34   12.03
   3   2 -21   32.71   28.09
   5  -3  21   18.32   10.62
   5  -3  21   23.92   16.24
   2  -5 -22   38.30   35.29
  -5   3 -22  105.85   59.40
   3   2 -22  101.74   52.51
   5  -3  22   61.33   31.61
   5  -3  22   67.06   41.39
   2  -5 -23   92.68   56.06
  -5   3 -23  346.40  135.56
   3   2 -23  274.29  105.01
   5  -3  23  240.34   91.72
   5  -3  23  210.10   82.20
  -2  -3 -23  153.49  137.45
   5  -2 -23  225.84   87.09
  -3   5 -23  346.09  132.85
   5  -2 -23  231.28  138.00
   3  -5  23  193.20   77.65
  -2  -3 -22   40.55   32.74
   5  -2 -22   61.56   32.54
  -3   5 -22   64.82   34.41
   5  -2 -22   69.40   55.66
   3  -5  22   54.86   33.69
  -2  -3 -21   21.70   21.78
   5  -2 -21   18.44    8.48
  -3   5 -21   16.03   14.67
   5  -2 -21   33.62   25.87
   3  -5  21   22.24   15.46
  -2  -3 -20  136.83   69.38
   5  -2 -20  153.96   44.45
  -3   5 -20  177.96   51.23
   5  -2 -20  261.67  118.99
   3  -5  20  138.41   49.03
  -2  -3 -19  105.02   69.98
   5  -2 -19  176.27   49.86
  -3   5 -19  212.69   59.72
   5  -2 -19  217.45  124.68
   3  -5  19  120.77   39.44
  -2  -3 -18   34.54   26.86
   5  -2 -18   28.78   17.22
  -3   5 -18   39.41   18.56
   5  -2 -18   42.48   20.87
   3  -5  18   34.00   16.44
  -2  -3 -17  490.56  151.44
   5  -2 -17  670.26  185.25
  -3   5 -17  695.92  192.35
   5  -2 -17  610.08  157.47
   3  -5  17  545.28  131.96
  -2  -3 -16   14.68   21.71
   5  -2 -16   19.46   10.53
  -3   5 -16   27.50    9.10
   5  -2 -16   39.18   30.38
   3  -5  16   36.72   12.73
  -2  -3 -15   73.12   27.50
   5  -2 -15  123.12   12.67
  -3   5 -15  121.61   10.71
   5  -2 -15  132.38   62.53
   3  -5  15   81.97   15.24
  -2  -3 -14  647.83  142.85
   5  -2 -14  570.95   36.74
  -3   5 -14  516.06  102.67
   5  -2 -14  541.77  110.18
   3  -5  14  469.55   96.71
  -2  -3 -13   28.50   21.79
   5  -2 -13   21.58    3.64
  -3   5 -13   30.29   14.26
   5  -2 -13   31.48   14.90
   3  -5  13   23.38    9.38
  -2  -3 -12  102.69   45.57
   5  -2 -12  103.53    8.98
  -3   5 -12  109.81   10.17
   5  -2 -12  125.19   18.10
  -2  -3 -11  437.88   45.94
   5  -2 -11  425.40   19.21
  -3   5 -11  393.40   16.38
   5  -2 -11  515.85   32.36
  -2  -3 -10   84.40   32.34
   5  -2 -10   63.69    4.48
  -3   5 -10   81.42    5.69
   5  -2 -10   76.01   17.31
   3  -5  10   53.71   15.58
  -2  -3  -9  146.21   73.26
   5  -2  -9  157.27   17.34
  -3   5  -9  146.17   16.40
   3  -5   9   95.20   11.08
   5  -2  -9  176.29   24.65
   2   3   9  159.24   17.79
   3  -5   9  132.20   19.34
  -2  -3  -8  590.72   84.06
  -3   5  -8  656.03   69.77
   5  -2  -8  732.44   78.32
   5  -2  -8  850.28   93.10
   2   3   8  697.70   74.21
   3  -5   8  749.11   84.84
  -2  -3  -7  253.81   40.74
  -3   5  -7  320.73   34.60
   5  -2  -7  267.65   28.71
   5  -2  -7  277.08   33.03
   2   3   7  268.07   28.88
   3  -5   7  307.55   39.06
  -2  -3  -6  146.67   54.77
  -3   5  -6  123.32    6.99
   5  -2  -6  127.30    6.48
   5  -2  -6  128.59   26.21
   2   3   6  121.35    6.94
   3  -5   6  107.00   48.11
  -2  -3  -5  104.45   35.72
  -3   5  -5  100.90    5.54
   5  -2  -5   98.38    5.04
   3  -5   5   87.88    8.60
   5  -2  -5   97.57   11.72
  -3   5  -5   87.01    4.24
   2   3   5   77.59    5.15
   3  -5   5   79.54   50.45
  -2  -3  -4   85.34   38.58
  -3   5  -4   74.36    4.28
   5  -2  -4   71.18    3.79
   3  -5   4   48.39   13.38
   5  -2  -4   84.19   28.16
  -3   5  -4   66.82    3.50
   2   3   4   77.26    5.00
   3  -5   4   72.78   33.41
  -2  -3  -3  109.87   17.50
  -3   5  -3  101.47    5.24
   5  -2  -3  109.33    5.39
   3  -5   3  119.99   19.33
   5  -2  -3   97.92   10.17
  -3   5  -3  107.89    5.38
   2   3   3   97.49    5.78
   3  -5   3  146.51   57.98
  -3   5  -2  219.35   10.48
   5  -2  -2  241.50   18.83
   2   3   2  218.39   11.24
   3  -5   2  226.78   31.75
   5  -2  -2  240.96   22.48
   2   3   2  237.20   18.89
   3  -5   2  226.74   25.20
   5  -2  -1  343.09   29.50
  -3   5  -1  362.95   28.18
   5  -2  -1  410.12   31.74
   2   3   1  394.59   31.10
   3  -5   1  422.57   41.31
   5  -2  -1  386.43   34.09
   2   3   1  413.77   32.33
  -2  -3  -1  394.99   30.59
   3  -5   1  400.56   60.08
  -3   5   0   59.39    4.95
   5  -2   0   62.81    5.18
   2   3   0   60.19    5.86
   3  -5   0   59.80   30.31
   5  -2   0   60.94    7.73
   2   3   0   62.80    5.89
   5  -2   0   74.82   33.23
   3  -5   0   93.34   54.95
  -3   5   1  400.92   31.04
   2   3  -1  426.09   33.44
   5  -2   1  440.95   34.12
   3  -5  -1  387.00   52.96
   5  -2   1  431.17   34.87
   2   3  -1  404.07   31.70
   5  -2   1  354.26   46.95
  -2  -3   1  415.18   32.58
  -3   5   2  247.42   11.54
   2   3  -2  261.85   21.48
   5  -2   2  261.54   12.23
   3  -5  -2  316.15   37.60
   5  -2   2  249.49   13.98
   2   3  -2  269.85   21.81
   5  -2   2  189.05   40.49
  -5   2  -3  122.08   13.78
   2   3  -3  113.74    6.81
  -3   5   3  107.15    5.39
   3  -5  -3   89.16   36.31
   2   3  -3   98.17    5.90
   3  -5  -3  156.74   58.99
   5  -2   3  107.59   37.11
  -5   2  -4   99.79   11.93
   2   3  -4   74.27    5.21
  -3   5   4   68.21    3.77
   3  -5  -4   77.36   55.60
   2   3  -4   72.43    6.44
   3  -5  -4  102.61   52.84
   5  -2   4   71.20   24.37
  -5   2  -5  113.42   18.67
   2   3  -5   96.00    6.01
   3  -5  -5  127.38   43.10
   2   3  -5   93.21    6.50
   5  -2   5   70.24   15.40
   3  -5  -5  105.31   15.04
   5  -2   5  128.29   48.54
   3  -5  -6  107.68   10.54
  -5   2  -6  180.43   23.64
   2   3  -6  107.16    6.31
   3  -5  -6   99.68   51.12
   2   3  -6  117.33    7.37
   5  -2   6  114.05    9.32
   5  -2   6  156.18   24.12
   3  -5  -7  205.31   25.42
  -5   2  -7  297.77   36.84
   2   3  -7  282.07   30.43
   3  -5  -7  282.13  128.99
   2   3  -7  325.35   35.71
   5  -2   7  297.30   32.41
   5  -2   7  229.46   29.83
   3  -5  -8  720.11   84.07
  -5   2  -8  715.13   79.59
   2   3  -8  663.46   70.52
   3  -5  -8  761.05   93.41
   2   3  -8  763.07   81.54
   5  -2   8  722.15   77.07
   5  -2   8  735.34   82.13
   3  -5  -9  147.19   22.66
  -5   2  -9  184.76   56.86
   2   3  -9  182.32   20.09
   3  -5  -9  110.87   47.67
   2   3  -9  194.26   22.23
   5  -2   9  175.53   19.77
   5  -2   9  192.86   57.42
   3  -5 -10   84.19   45.90
  -5   2 -10  102.02   34.21
   2   3 -10   71.09    4.66
   3  -5 -10   66.91   43.59
   2   3 -10   97.51   22.22
   5  -2  10   66.95    5.50
   5  -2  10   83.64   33.41
   3  -5 -11  402.88   31.02
  -5   2 -11  532.70   32.76
   2   3 -11  479.70   19.69
   3  -5 -11  428.90   43.62
   2   3 -11  519.76   24.11
   5  -2  11  427.46   18.06
   5  -2  11  405.09   41.88
   3  -5 -12  117.10   38.68
  -5   2 -12  151.42   37.81
   2   3 -12  120.43    9.60
   2   3 -12  145.38   17.38
   5  -2  12  135.81   40.46
   3  -5 -13   18.82   12.79
  -5   2 -13   28.88   17.50
   2   3 -13   29.71   10.78
   3  -5 -13   16.01   10.07
   2   3 -13   32.43   17.72
   5  -2  13   25.08    9.70
   5  -2  13   28.94   13.33
   3  -5 -14  419.82   92.16
  -5   2 -14  769.81   59.65
   2   3 -14  521.30  103.50
   3  -5 -14  457.29  100.14
   2   3 -14  837.87   56.31
   5  -2  14  486.47   96.64
   5  -2  14  521.28  108.21
   3  -5 -15   59.96   43.57
  -5   2 -15  139.28   25.88
   2   3 -15  137.62   10.99
   3  -5 -15   99.46   42.54
   2   3 -15  100.99   28.16
   5  -2  15  100.99    8.77
   5  -2  15   91.60   48.74
   3  -5 -16   11.90   12.97
  -5   2 -16   21.12   14.27
   2   3 -16   29.41   13.43
   3  -5 -16   23.67   33.58
   2   3 -16   23.37   12.18
   5  -2  16   45.91    9.83
   5  -2  16   31.26   12.32
   3  -5 -17  442.44  113.04
  -5   2 -17  614.94  173.17
   2   3 -17  783.38  216.16
   3  -5 -17  546.89  136.91
   2   3 -17  869.95  241.46
   5  -2  17  567.61  134.61
   5  -2  17  614.51  147.95
   3  -5 -18   19.04   13.92
  -5   2 -18   34.72   14.76
   2   3 -18   40.13   10.83
   3  -5 -18   40.55   27.50
   5  -2  18   32.89   10.47
   5  -2  18   40.09   16.13
   3  -5 -19   93.36   58.40
  -5   2 -19  203.76   63.92
   2   3 -19  172.05   48.04
   3  -5 -19  163.98   95.74
   5  -2  19  147.13   41.05
   5  -2  19  161.59   47.98
   3  -5 -20   56.49   47.07
  -5   2 -20  216.40   67.15
   2   3 -20  172.89   49.30
   3  -5 -20  121.13   71.11
   5  -2  20  168.88   47.82
   5  -2  20  194.88   58.03
   3  -5 -21    5.19   10.67
  -5   2 -21   16.80   17.72
   2   3 -21   15.14    9.46
   3  -5 -21   10.81   11.49
   5  -2  21   15.84    8.93
   5  -2  21   13.81   11.48
   3  -5 -22   21.73   21.90
  -5   2 -22   57.21   37.20
   2   3 -22   49.98   32.16
   5  -2  22   77.03   39.65
   5  -2  22   61.84   37.27
   3  -5 -23   91.28   70.98
  -5   2 -23  317.89  126.46
   2   3 -23  293.10  112.19
   5  -2  23  284.22  108.46
   5  -2  23  297.50  115.02
  -1  -4 -22  117.11   84.13
   5  -1 -22  145.66   75.86
   5  -1 -22  227.64  177.48
   4  -5  22  100.12   54.54
  -1  -4 -21  118.52   89.48
  -4   5 -21  135.14   69.96
   5  -1 -21  136.64   63.94
   5  -1 -21  220.94  113.67
   4  -5  21   92.91   45.34
  -1  -4 -20   73.06   40.54
  -4   5 -20   80.75   23.11
   5  -1 -20   80.56   22.11
   5  -1 -20   88.05   56.51
   4  -5  20   58.18   38.06
  -1  -4 -19   63.82   35.80
  -4   5 -19   95.44   33.06
   5  -1 -19   89.90   26.26
   5  -1 -19  115.46   55.88
   4  -5  19   57.65   22.14
  -4   5 -18   33.44   18.17
   5  -1 -18   22.18   11.62
   5  -1 -18   35.05   28.18
   4  -5  18   25.85   11.98
  -1  -4 -17   12.36   10.47
  -4   5 -17   20.21   15.91
   5  -1 -17   17.73    8.63
   5  -1 -17   18.80   10.08
   4  -5  17   20.40   14.39
  -1  -4 -16  201.61   84.63
  -4   5 -16  287.96   44.20
   5  -1 -16  236.28   35.82
   5  -1 -16  242.39   49.54
   4  -5  16  197.52   35.66
  -1  -4 -15   17.29   15.36
  -4   5 -15   10.37    4.35
   5  -1 -15   10.08    4.33
   5  -1 -15   12.66   10.53
   4  -5  15   10.60   12.85
  -1  -4 -14   25.76   15.01
  -4   5 -14   27.46   11.51
   5  -1 -14   20.13   10.95
   5  -1 -14   11.78   10.95
   4  -5  14   16.92    4.34
   4  -5  14   19.26   15.76
  -1  -4 -13  147.90   66.20
  -4   5 -13  218.62   44.88
   5  -1 -13  146.23   29.52
   5  -1 -13  127.45   28.58
   4  -5  13   95.33   22.73
  -1  -4 -12   28.07   14.30
  -4   5 -12   40.71   13.15
   5  -1 -12   36.06    4.17
   5  -1 -12   42.72   21.32
   4  -5  12   32.59    3.25
   4  -5  12   34.49   12.54
  -1  -4 -11  108.27   54.47
  -4   5 -11  125.56   11.10
   5  -1 -11  114.76    8.50
   5  -1 -11  109.36   14.39
   4  -5  11  104.31    7.73
   4  -5  11  102.71   16.08
   5  -1 -10  153.87    8.65
   5  -1 -10  184.65   16.69
   4  -5  10  130.02    6.64
   4  -5  10  136.60   57.26
  -4   5  -9  566.54   24.37
   5  -1  -9  529.43   20.75
   5  -1  -9  643.29   31.55
   4  -5   9  566.73   23.02
   4  -5   9  556.96   60.09
  -4   5  -8  243.46   11.83
   5  -1  -8  201.82    9.30
   5  -1  -8  205.07   13.79
   4  -5   8  217.33   11.62
   4  -5   8  152.52   48.32
  -4   5  -7   65.91    8.28
   5  -1  -7   52.41    6.17
   4  -5   7   52.23    7.30
   5  -1  -7   64.77   23.95
   4  -5   7   58.77   32.20
  -4   5  -6  501.47   53.71
   5  -1  -6  449.16   47.80
   4  -5   6  423.09   45.94
   5  -1  -6  505.58   56.04
   4  -5   6  416.06   75.21
  -4   5  -5  160.33   17.59
   5  -1  -5  166.47   17.98
   4  -5   5  150.21   17.90
   5  -1  -5  161.63   19.90
   1   4   5  148.93   16.45
   4  -5   5  217.39   89.47
  -1  -4  -4   27.23   16.21
  -4   5  -4   31.05    4.22
   5  -1  -4   30.12    3.77
   4  -5   4   27.41    6.93
   5  -1  -4   36.47   11.99
   1   4   4   30.35    3.97
   4  -5   4   50.40   27.48
  -4   5  -3 2115.85   96.00
  -4   5  -3 2093.68   93.76
   5  -1  -3 2111.52   94.72
   1   4   3 2216.98  234.62
   4  -5   3 2185.50  232.59
   5  -1  -3 2268.37  241.31
   1   4   3 2288.29  242.02
  -4   5  -2  371.42   18.64
  -4   5  -2  374.33   17.25
   5  -1  -2  390.52   18.31
   1   4   2  388.22   18.60
   4  -5   2  359.08   22.42
   5  -1  -2  379.77   20.77
   1   4   2  386.26   18.08
  -4   5  -1  131.29    8.67
  -4   5  -1  130.78    6.34
   5  -1  -1  118.98    6.17
   1   4   1  116.00    6.67
   4  -5   1  117.73   11.32
   5  -1  -1  119.41    9.34
   1   4   1  114.04    6.06
   4  -5   1  117.54   48.88
  -4   5   0  862.97   40.70
  -4   5   0  913.56   41.00
   5  -1   0 1035.05   46.69
   1   4   0  979.02   44.68
   4  -5   0 1015.92   52.33
   5  -1   0 1001.23   47.18
   1   4   0  953.24   43.06
   4  -5   0  941.39   90.83
  -1  -4   0 1000.88   47.35
  -4   5   1  149.44    8.28
  -4   5   1  114.92    5.37
   1   4  -1  124.14    7.48
   5  -1   1  111.64    5.80
   4  -5  -1  108.87   18.11
   5  -1   1  116.79   15.13
   1   4  -1  114.18    6.14
   4  -5  -1  122.31   52.04
  -1  -4   1  111.56    8.76
  -4   5   2  333.69   15.64
  -4   5   2  345.98   15.57
   1   4  -2  378.90   18.11
   5  -1   2  377.60   17.56
   4  -5  -2  389.20   28.84
   5  -1   2  386.29   20.00
   1   4  -2  373.11   17.44
   4  -5  -2  381.22   37.37
  -1  -4   2  388.19   20.39
  -5   1  -3 2172.91  231.53
  -4   5   3 1704.44   78.47
  -4   5   3 2070.38   92.32
   1   4  -3 2134.63   96.09
   4  -5  -3 1768.56   89.37
   5  -1   3 2326.73  246.92
   1   4  -3 2447.12  258.80
   5  -1   3 2205.99  237.74
   4  -5  -3 1811.76   97.41
  -1  -4   3 2219.61  235.68
  -5   1  -4   31.30   17.58
  -4   5   4   25.34    4.74
   1   4  -4   30.28    4.34
  -4   5   4   25.67    2.87
   4  -5  -4   35.57   20.02
   1   4  -4   35.31    4.52
   5  -1   4   41.12   11.69
   4  -5  -4   28.25   19.57
   5  -1   4   14.45    8.25
  -1  -4   4   37.14   17.08
  -5   1  -5  185.41   24.79
  -4   5   5  141.37   15.41
   1   4  -5  163.18   17.98
  -4   5   5  159.45   16.97
   4  -5  -5  166.72   77.50
   1   4  -5  172.68   18.76
   5  -1   5  168.74   19.30
   4  -5  -5  162.22   26.98
   5  -1   5  210.85   30.31
  -1  -4   5  156.05   18.53
  -5   1  -6  548.23   63.20
  -4   5   6  386.17   41.48
   1   4  -6  432.26   46.23
   4  -5  -6  324.59   44.10
   1   4  -6  515.08   54.95
   5  -1   6  468.28   50.56
   5  -1   6  440.16   51.53
  -1  -4   6  402.56   44.19
   4  -5  -7   22.14   12.51
  -5   1  -7   79.45   27.70
   1   4  -7   53.02    6.62
   4  -5  -7   89.39   39.78
   1   4  -7   62.60    8.43
   5  -1   7   55.54   15.96
   5  -1   7   70.72   33.68
  -1  -4   7   58.62   21.91
   4  -5  -8  209.04   25.40
  -5   1  -8  309.89   62.17
   1   4  -8  196.20    8.98
   4  -5  -8  256.67   79.18
   1   4  -8  230.82   10.94
   5  -1   8  193.62    9.89
   5  -1   8  247.94   21.05
  -1  -4   8  190.68   12.51
   4  -5  -9  501.17   26.32
  -5   1  -9  614.86   35.64
   1   4  -9  600.23   23.92
   4  -5  -9  748.72   57.30
   1   4  -9  653.74   26.52
   5  -1   9  599.07   24.38
   5  -1   9  659.66   35.01
   4  -5 -10  129.73   12.19
  -5   1 -10  195.43   62.47
   1   4 -10  160.49    8.29
   1   4 -10  171.10    9.56
   5  -1  10  240.94   27.83
   4  -5 -11   59.12   32.97
  -5   1 -11  119.58   56.69
   1   4 -11  116.00    9.01
   4  -5 -11  164.93   93.70
   1   4 -11  110.21    9.78
   5  -1  11   98.22   24.71
  -5   1 -12   38.64   22.58
   4  -5 -12   25.70   20.07
   1   4 -12   43.11   14.31
   4  -5 -12   34.25   20.37
   5  -1  12   31.67    5.54
   5  -1  12   41.87   14.67
  -5   1 -13  144.45   74.44
   4  -5 -13   74.96   50.02
   1   4 -13  141.71   28.68
   4  -5 -13  132.63   65.09
   5  -1  13  139.86   28.43
   5  -1  13  159.59   35.33
  -5   1 -14   31.10   15.92
   4  -5 -14   17.10   11.22
   1   4 -14   18.79    5.76
   4  -5 -14   19.91   19.30
   5  -1  14   19.48    8.13
   5  -1  14   19.91    7.97
  -5   1 -15   13.48   14.81
   4  -5 -15    5.72    5.84
   1   4 -15   10.06    4.36
   4  -5 -15    7.61   15.68
   5  -1  15    8.69    4.83
   5  -1  15   11.93    6.67
  -5   1 -16  221.12   78.17
   4  -5 -16  123.24   40.37
   1   4 -16  265.46   39.93
   4  -5 -16  177.84   87.60
   5  -1  16  241.62   36.20
   5  -1  16  313.70   78.15
  -5   1 -17   26.00   21.80
   4  -5 -17    7.66    7.07
   1   4 -17   26.96   11.83
   4  -5 -17    8.18   10.67
   5  -1  17   20.46   10.33
   5  -1  17   22.72   15.94
  -5   1 -18   34.97   17.91
   4  -5 -18   15.78   19.13
   1   4 -18   33.12   10.48
   4  -5 -18   35.12   21.53
   5  -1  18   27.15   18.57
  -5   1 -19   82.75   60.84
   4  -5 -19   46.78   28.74
   1   4 -19   83.73   24.22
   4  -5 -19   55.62   37.06
   5  -1  19   86.86   25.04
   5  -1  19   88.69   28.15
  -5   1 -20   61.23   30.52
   4  -5 -20   50.83   21.71
   1   4 -20   84.45   22.89
   5  -1  20   68.08   18.25
   5  -1  20   63.56   34.81
  -5   1 -21  120.13   68.74
   4  -5 -21   82.18   43.84
   1   4 -21  146.58   73.50
   4  -5 -21  100.25   79.99
   5  -1  21  156.64   72.88
   5  -1  21  161.67   77.37
  -5   1 -22   94.67   87.57
   4  -5 -22   75.53   42.05
   1   4 -22  139.70   74.59
   4  -5 -22  213.15  153.13
   5  -1  22  126.87   65.27
   5  -1  22  108.67   69.08
   0  -5 -21   33.31   28.50
  -5   5 -21   37.42   18.52
   5   0 -21   28.42   19.46
   5   0 -21   35.68   25.90
   5  -5  21   20.56   14.75
   0  -5 -20   33.89   37.34
  -5   5 -20   50.14   30.55
   5   0 -20   84.02   43.34
   5   0 -20   99.65   88.25
   5  -5  20   38.54   25.69
   0  -5 -19  126.31  114.36
  -5   5 -19  180.46   84.88
   5   0 -19  150.63   70.32
   5   0 -19  166.11   82.03
   5  -5  19  127.23   62.54
   0  -5 -18   25.30   18.64
  -5   5 -18   32.01   25.44
   5   0 -18   25.47   16.21
   5   0 -18   46.89   27.37
   5  -5  18   47.71   27.24
  -5   5 -17  634.20  163.40
   5   0 -17  525.22  147.71
   5   0 -17  787.64  204.49
   5  -5  17  398.08  114.84
   0  -5 -16   33.10   22.60
  -5   5 -16   39.38   15.28
   5   0 -16   33.51   14.15
   5   0 -16   35.82   16.78
   5  -5  16   23.14   20.71
   0  -5 -15  125.62   61.43
  -5   5 -15  212.52   52.47
   5   0 -15  162.39   38.99
   5   0 -15  159.83   41.42
   5  -5  15  132.63   31.69
   5  -5  15  116.06   74.73
   0  -5 -14  278.90   85.03
  -5   5 -14  453.46   70.33
   5   0 -14  440.22   65.28
   5   0 -14  374.91   58.12
   5  -5  14  385.79   57.03
   5  -5  14  390.98   69.80
   0  -5 -13   39.61   15.65
  -5   5 -13   40.74   15.24
   5   0 -13   37.79    8.59
   5   0 -13   55.93   30.03
   5  -5  13   44.19    4.53
   5  -5  13   27.34   30.28
  -5   5 -12  173.01   14.93
   5   0 -12  124.66    9.19
   5   0 -12  108.45   21.41
   5  -5  12  110.44    8.47
   5  -5  12   95.65   44.43
  -5   5 -11  404.98   81.11
   5   0 -11  354.84   70.49
   5   0 -11  404.51   82.31
   5  -5  11  349.27   69.56
   5  -5  11  343.92   83.01
  -5   5 -10   34.69   15.09
   5   0 -10   29.95   10.06
   5   0 -10   34.94   19.19
   5  -5  10   22.38    6.37
   5  -5  10   33.15   16.82
  -5   5  -9  315.16   22.24
   5   0  -9  268.70   17.55
   5   0  -9  304.24   24.64
   5  -5   9  275.57   18.73
   0  -5  -8  519.96   42.06
  -5   5  -8  628.54   40.89
   5   0  -8  571.13   36.17
   5   0  -8  635.83   43.18
   5  -5   8  532.72   34.52
   5  -5   8  558.90   55.23
   0  -5  -7  203.95   22.09
  -5   5  -7  238.52   12.46
   5   0  -7  202.59   13.39
   5   0  -7  241.35   44.23
   5  -5   7  186.85   10.47
   5  -5   7  209.19   84.41
   0  -5  -6   84.21   41.64
  -5   5  -6  106.97    7.48
   5   0  -6   79.50    4.20
   5  -5   6   80.53    6.85
   5   0  -6   89.52   11.99
   5  -5   6   86.62   40.51
   0  -5  -5   45.88   12.68
  -5   5  -5   41.76    4.28
   5   0  -5   26.87    2.35
   5  -5   5   35.87    6.22
   5   0  -5   27.60    9.34
   5  -5   5   40.88   26.64
  -5   5  -4   21.96    4.76
   5   0  -4   25.55    2.46
   0   5   4   26.92    3.20
   5  -5   4   22.54    8.87
   5   0  -4   32.95   19.17
   5  -5   4   24.06   15.22
   5   0  -3  122.22    5.90
   0   5   3  118.67    6.16
   5  -5   3  143.18   11.88
   5   0  -3  118.72   10.23
   0  -5  -3  139.62   15.79
   5  -5   3  115.94   55.70
   5   0  -2  407.86   43.52
   0   5   2  398.34   42.59
   5  -5   2  398.03   44.38
   5   0  -2  415.00   48.93
   0   5   2  387.93   41.28
   0  -5  -2  440.37   49.15
   5  -5   2  407.38   54.84
   5   0  -1  240.80   25.95
   0   5   1  230.41   24.91
   5  -5   1  230.76   27.99
   5   0  -1  248.90   27.90
   0   5   1  241.44   25.82
   5  -5   1  199.47   30.54
   0  -5  -1  260.72   30.93
   0   5   0    9.22    2.88
   5   0   0    7.58    2.42
   5  -5   0   11.25    8.73
   5   0   0   18.65    8.85
   0   5   0   10.29    3.36
   5  -5   0    6.01    9.94
   0  -5   0   12.96    9.09
   0   5  -1  229.67   24.87
   5   0   1  239.66   25.87
   5  -5  -1  236.28   35.75
   5   0   1  241.90   27.22
   0   5  -1  233.05   24.86
   5  -5  -1  219.38   34.69
   0  -5   1  224.87   26.78
   0   5  -2  389.01   41.62
   5   0   2  408.42   43.62
   5  -5  -2  364.67   44.41
   5   0   2  423.55   45.92
   0   5  -2  430.04   45.65
   5  -5  -2  314.67   41.00
   0  -5   2  421.70   47.59
   0   5  -3  119.17    6.08
   5   0   3  119.31    5.90
   5  -5  -3  123.18   15.13
   5   0   3  139.21    8.99
   0   5  -3  133.52    5.73
   5  -5  -3  130.71   76.57
   0  -5   3  121.07   11.52
  -5   0  -4   35.03   12.45
   0   5  -4   29.56    3.40
   5  -5  -4   19.04   11.03
   0   5  -4   26.46    3.06
   5   0   4   27.48   11.91
   5  -5  -4   26.87   18.15
   0  -5   4   27.00   15.66
  -5   0  -5   34.31   24.87
   0   5  -5   29.41    3.78
   5  -5  -5   44.70   25.00
   0   5  -5   35.04    2.16
   5   0   5   42.39    5.44
   0  -5   5   39.97    9.32
  -5   0  -6   95.12   32.18
   0   5  -6   88.28    5.16
   5  -5  -6   57.35   34.08
   5   0   6   89.93    9.24
   5   0   6   58.66    5.76
   0  -5   6   67.74    8.29
  -5   0  -7  203.21   38.51
   0   5  -7  200.45    9.13
   5  -5  -7  202.61   25.81
   5   0   7  210.71   14.93
   5   0   7  256.71   21.26
   0  -5   7  175.46   12.86
  -5   0  -8  586.08   45.96
   0   5  -8  586.90   37.64
   5   0   8  607.36   39.08
   5   0   8  604.59   41.61
   0  -5   8  499.08   35.04
  -5   0  -9  292.63   52.33
   0   5  -9  285.13   18.92
   5   0   9  261.52   18.07
   5   0   9  336.54   26.84
   0  -5   9  228.79   19.30
  -5   0 -10   37.13   21.40
   0   5 -10   30.78    8.46
   5  -5 -10   14.18   17.73
   5   0  10   35.29   15.62
   5   0  10   38.48   11.43
   0  -5  10   16.30   11.25
  -5   0 -11  532.66  132.17
   0   5 -11  388.11   77.12
   5  -5 -11  296.95   64.14
   5   0  11  372.67   74.24
   5   0  11  434.79   87.78
   0  -5  11  380.92   77.21
  -5   0 -12  110.99   50.97
   0   5 -12  127.50    9.43
   5  -5 -12  128.26   56.83
   5   0  12  128.50   10.30
   5   0  12  140.02   14.75
   0  -5  12  103.51   11.83
  -5   0 -13   40.71   24.84
   0   5 -13   38.27   13.82
   5  -5 -13   38.10   21.75
   5   0  13   40.85    4.87
   5   0  13   35.88   12.15
   0  -5  13   52.25   11.75
  -5   0 -14  632.39  142.11
   0   5 -14  455.66   68.57
   5  -5 -14  560.97   99.68
   5   0  14  389.96   57.88
   5   0  14  577.84   87.77
   0  -5  14  395.48   60.80
  -5   0 -15  123.09   71.37
   0   5 -15  158.36   38.02
   5  -5 -15  204.13   95.65
   5   0  15  145.87   35.16
   5   0  15  187.68   46.79
   0  -5  15  120.73   31.22
  -5   0 -16   34.33   21.12
   0   5 -16   37.03   17.79
   5  -5 -16   25.09   17.77
   0  -5  16   29.88   13.35
  -5   0 -17  662.83  176.95
   0   5 -17  630.98  161.66
   5  -5 -17  628.97  235.20
   0  -5  17  418.04  118.51
  -5   0 -18   44.30   37.22
   0   5 -18   29.44    9.37
   5   0  18   36.71   11.32
   0  -5  18   26.85   14.82
  -5   0 -19  136.03   89.95
   0   5 -19  170.71   79.45
   5  -5 -19  157.49  103.01
   5   0  19  138.14   64.50
   0  -5  19  107.60   55.60
  -5   0 -20   73.49   50.64
   0   5 -20   71.12   39.91
   5  -5 -20   82.39   73.72
   5   0  20   58.61   30.28
   0  -5  20   35.85   31.40
  -5   0 -21   35.93   44.11
   0   5 -21   31.04   19.13
   5  -5 -21   19.93   19.59
   5   0  21   27.21   18.21
   0  -5  21   16.56   11.96
  -5  -1 -19   88.92   61.41
  -1   6 -19  120.67   52.01
   6  -5 -19  146.75  108.61
   5   1  19   85.57   33.22
   1  -6  19   51.82   23.00
  -5  -1 -18   69.86   56.30
  -1   6 -18   76.23   42.55
   6  -5 -18   94.81   77.38
   5   1  18   68.94   35.67
   1  -6  18   52.62   29.51
  -5  -1 -17  306.06  168.92
  -1   6 -17  271.21  125.81
   5   1  17  294.81  136.78
   1  -6  17  221.77  104.24
  -5  -1 -16   53.51   27.13
  -1   6 -16   47.81   16.37
   5   1  16   61.27   16.70
   1  -6  16   60.18   19.83
  -5  -1 -15  125.90   53.93
  -1   6 -15  122.87   35.10
   6  -5 -15  156.50   86.30
   5   1  15  102.83   30.02
   1  -6  15   94.84   30.15
  -5  -1 -14  300.92   95.41
  -1   6 -14  321.46   88.89
   6  -5 -14  463.52  211.74
   5   1  14  290.08   80.60
   1  -6  14  264.80   75.47
  -5  -1 -13   28.66   17.33
  -1   6 -13   22.34   11.66
   6  -5 -13   25.33   14.89
   5   1  13    9.28    6.88
   1  -6  13   26.93   14.62
  -5  -1 -12  311.23  115.56
  -1   6 -12  258.91   61.49
   6  -5 -12  253.65  107.74
   5   1  12  267.57   63.79
   1  -6  12  213.70   52.83
  -5  -1 -11  262.08   93.13
  -1   6 -11  241.52   57.41
   6  -5 -11  234.00   98.97
   5   1  11  224.69   53.56
   1  -6  11  180.91   44.89
  -5  -1 -10   46.36   20.10
  -1   6 -10   35.90    7.57
   6  -5 -10   32.15   15.47
   5   1  10   38.61   14.79
   1  -6  10   27.14   14.32
  -5  -1  -9  138.95   71.72
  -1   6  -9  123.83   15.42
   6  -5  -9   88.18   35.07
   5   1   9  125.97    9.74
   1  -6   9  105.21   12.16
  -5  -1  -8  385.77   56.42
  -1   6  -8  395.49   24.81
   6  -5  -8  448.98   40.31
   5   1   8  409.36   26.39
   1  -6   8  355.50   27.93
  -5  -1  -7   90.26   26.65
  -1   6  -7   82.24   16.79
   5   1   7   84.82   17.52
   1  -6   7   75.37   18.43
  -5  -1  -6  206.25   51.70
  -1   6  -6  182.72   36.48
   5   1   6  191.55   38.64
   1  -6   6  150.44   33.54
  -5  -1  -5  159.51   34.99
  -1   6  -5  155.17   31.02
   6  -5  -5  166.37   38.19
   5   1   5  132.40   26.88
   1  -6   5   94.94   39.94
  -1   6  -4   67.69   13.79
   5   1   4   65.47   13.42
   6  -5  -4   70.28   35.97
   5   1   4   61.49   19.30
   1  -6   4   63.33   33.10
  -1   6  -3   55.64   11.39
   5   1   3   61.53   12.62
   6  -5  -3   52.65   13.66
   5   1   3   73.60   16.00
   6  -5  -3   40.06   24.40
   1  -6   3   55.43   32.26
  -1   6  -2  159.26   10.78
   5   1   2  186.54   12.57
   6  -5  -2  133.79   13.91
   5   1   2  199.48   16.27
   6  -5  -2  160.67   46.86
   1  -6   2  170.17   17.28
  -1   6  -1  163.52   10.98
   5   1   1  202.77   13.54
   6  -5  -1  162.05   15.63
   5   1   1  203.26   14.89
  -1   6  -1  172.24   10.97
   6  -5  -1  167.64   63.01
   1  -6   1  205.99   20.34
  -1   6   0   40.26    3.73
   5   1   0   42.70    4.17
   6  -5   0   36.97   18.64
   5   1   0   40.25    6.85
  -1   6   0   40.89    3.03
   1  -6   0   43.83   33.58
   5   1  -1  168.14   11.41
  -1   6   1  196.12   12.96
   6  -5   1  172.77   14.83
   5   1  -1  170.78   13.55
   6  -5   1  220.54   64.79
   1  -6  -1  188.12   22.46
   5   1  -2  166.32   11.34
  -1   6   2  195.34   13.06
   6  -5   2  172.90   14.88
   5   1  -2  165.23   13.27
   1  -6  -2  170.24   30.88
   6  -5   2  148.95   46.98
   5   1  -3   66.13   13.94
  -1   6   3   63.42   12.94
   6  -5   3   61.30   13.98
   5   1  -3   67.02   21.15
   1  -6  -3   38.74   24.39
   6  -5   3   55.06   32.86
   5   1  -4   71.73   14.66
  -1   6   4   56.79   11.63
   6  -5   4   52.45   12.91
   5   1  -4   71.91   17.29
   6  -5   4   58.09   29.45
   5   1  -5  145.53   29.10
  -1   6   5  135.40   27.13
   6  -5   5  116.74   24.43
   5   1  -5  165.76   35.04
   6  -5   5  171.53   81.84
   5   1  -6  190.94   38.15
  -1   6   6  182.49   36.39
   6  -5   6  156.10   31.91
   5   1  -6  180.29   36.88
   6  -5   6  204.21   85.10
   1  -6  -7   75.95   20.69
   5   1  -7   73.12   14.87
   5   1  -7   90.57   20.05
   6  -5   7   75.77   16.03
   6  -5   7   81.36   37.09
   1  -6  -8  271.22   24.75
   5   1  -8  388.35   24.31
   5   1  -8  419.47   29.43
   6  -5   8  361.19   23.91
   6  -5   8  387.16   86.72
   1  -6  -9   75.90   35.09
   5   1  -9  125.40    9.06
   5   1  -9  133.72   29.93
   6  -5   9  116.10    9.55
   6  -5   9  108.17   58.23
   1  -6 -10   21.96   18.11
   5   1 -10   38.17    6.74
   5   1 -10   42.91   23.37
   6  -5  10   35.11    6.92
   6  -5  10   58.25   35.76
   1  -6 -11  197.39   51.55
   5   1 -11  235.71   56.00
   5   1 -11  267.07   78.35
   6  -5  11  195.52   46.75
   6  -5  11  187.61   49.47
   1  -6 -12  252.66   96.60
   5   1 -12  264.33   63.23
   5   1 -12  243.19   59.23
   6  -5  12  218.86   52.22
   6  -5  12  231.90   59.63
   1  -6 -13   14.22   19.87
   5   1 -13   20.87    9.02
   5   1 -13   24.20   10.85
   6  -5  13    9.76    6.65
   6  -5  13    7.62   13.69
   1  -6 -14  218.21   88.74
   5   1 -14  323.15   89.51
   5   1 -14  386.44  108.47
   6  -5  14  244.15   67.62
   6  -5  14  262.27   94.31
   1  -6 -15   73.28   40.81
   5   1 -15  105.02   31.28
   5   1 -15  125.62   38.49
   6  -5  15   93.31   26.63
   6  -5  15   68.87   42.48
   1  -6 -16   27.12   24.35
   5   1 -16   46.98   13.46
   5   1 -16   36.57   22.70
   6  -5  16   68.04   17.96
   6  -5  16   60.58   34.98
   1  -6 -17  152.20  106.78
   5   1 -17  296.00  137.34
   5   1 -17  300.68  140.70
   6  -5  17  229.81  109.36
   1  -6 -18   31.82   26.29
   5   1 -18   64.97   33.56
   5   1 -18   48.84   44.48
   6  -5  18   46.23   35.43
   1  -6 -19   42.46   41.10
   5   1 -19  105.41   40.68
   5   1 -19   80.38   57.09
   6  -5  19   80.56   59.50
  -4  -2 -20  242.60  161.33
  -2   6 -20  399.94  152.84
   6  -4 -20  264.56  150.63
   4   2  20  321.13  122.52
  -4  -2 -19   48.58   30.34
  -2   6 -19   48.71   25.67
   6  -4 -19   54.94   37.10
   4   2  19   81.57   41.99
   2  -6  19   57.04   33.21
  -4  -2 -18   69.56   45.58
  -2   6 -18   73.83   35.32
   6  -4 -18   94.17   83.73
   4   2  18   77.24   36.26
   2  -6  18   54.79   28.96
  -4  -2 -17  161.43   78.16
  -2   6 -17  260.91   67.50
   6  -4 -17  276.46   98.70
   4   2  17  223.25   57.58
   2  -6  17  233.64   63.41
  -4  -2 -16   70.18   38.73
  -2   6 -16   98.58   32.31
   6  -4 -16   97.54   71.02
   4   2  16   50.48   15.19
  -4  -2 -15   97.83   47.99
  -2   6 -15   96.39   27.19
   6  -4 -15   97.81   51.18
   4   2  15   95.48   27.01
   2  -6  15   65.21   41.83
  -4  -2 -14  296.11   86.90
  -2   6 -14  412.96   98.01
   6  -4 -14  387.32  103.50
   4   2  14  430.20  102.02
   2  -6  14  318.39   77.68
  -4  -2 -13   60.00   41.11
  -2   6 -13   61.52   23.68
   6  -4 -13   51.52   22.86
   4   2  13   61.80   15.68
   2  -6  13   51.57   17.80
  -4  -2 -12  224.49   51.30
  -2   6 -12  271.61   40.58
   6  -4 -12  193.21   52.56
   4   2  12  238.16   35.67
   2  -6  12  153.83   26.53
  -4  -2 -11  450.30   43.94
  -2   6 -11  415.96   26.15
   6  -4 -11  344.45   45.13
   4   2  11  436.78   27.83
   2  -6  11  317.11   26.85
  -4  -2 -10  124.03   48.35
  -2   6 -10   66.67    5.72
   6  -4 -10   90.83   18.89
   4   2  10   75.72   15.64
   2  -6  10   57.80   11.52
  -4  -2  -9  106.16   44.56
  -2   6  -9   96.55   20.24
   4   2   9  101.49   20.69
   2  -6   9   80.65   19.43
  -4  -2  -8  254.01   54.47
  -2   6  -8  269.44   53.72
   6  -4  -8  274.03   58.29
   4   2   8  228.61   45.74
   2  -6   8  194.49   41.93
  -4  -2  -7   54.72   33.21
  -2   6  -7   55.22   11.38
   6  -4  -7   47.90   18.10
   4   2   7   34.60    8.27
   2  -6   7   24.06   11.91
  -4  -2  -6  166.93   21.71
  -2   6  -6  159.33   11.17
   6  -4  -6  142.94   15.01
   4   2   6  162.38   11.78
   2  -6   6  148.19   28.32
  -4  -2  -5  324.07   28.70
  -2   6  -5  358.30   22.90
   6  -4  -5  380.71   30.42
   4   2   5  412.15   26.93
   2  -6   5  392.52   32.34
  -2   6  -4  171.04   11.36
   6  -4  -4  185.68   18.98
   4   2   4  223.49   15.48
   2  -6   4  230.81   24.38
  -2   6  -3   63.34    4.89
   4   2   3   64.06    5.55
   6  -4  -3   77.44   38.22
   4   2   3   73.06   12.76
   2  -6   3   63.01   40.91
  -2   6  -2  120.16    5.56
   4   2   2   94.23    5.56
   6  -4  -2  107.54   11.05
   4   2   2   94.38    9.69
   6  -4  -2  144.25   73.52
   2  -6   2   94.64   54.60
  -2   6  -1  187.98    8.06
   4   2   1  152.78    7.62
   6  -4  -1  168.78   11.58
   4   2   1  158.24   10.15
   6  -4  -1  231.05   75.74
   2  -6   1  144.70   18.36
  -2   6   0    7.52    4.47
   4   2   0    5.92    2.30
   4   2   0    4.14    2.43
   6  -4   0    7.60    6.70
   2  -6   0    6.73    8.18
  -2   6   1  153.08    6.94
   4   2  -1  215.57    9.90
   4   2  -1  191.98    9.73
   6  -4   1  139.25   52.52
   2  -6  -1  195.28   20.24
   4   2  -2  136.52    7.03
  -2   6   2   97.55    4.91
   6  -4   2   83.58    9.16
   4   2  -2  148.16   20.35
   6  -4   2  114.56   55.48
   2  -6  -2  150.10   18.07
   4   2  -3   60.29    5.12
  -2   6   3   64.80    4.88
   6  -4   3   56.89    7.40
   4   2  -3   65.25    6.89
   2  -6  -3   53.02   22.80
   6  -4   3   69.34   32.96
   4   2  -4  188.23   12.71
  -2   6   4  216.22   14.08
   6  -4   4  207.21   22.41
   4   2  -4  186.10   13.47
   2  -6  -4  181.94   18.33
   6  -4   4  203.57   68.17
   4   2  -5  372.79   24.06
  -2   6   5  401.19   25.48
   4   2  -5  368.52   24.67
   6  -4   5  373.33   25.19
   6  -4   5  437.16   40.14
  -6   4  -6  176.13   13.67
   4   2  -6  149.16   10.32
  -2   6   6  164.49   10.99
   4   2  -6  156.82   12.22
   6  -4   6  128.16   10.32
   6  -4   6  151.33   31.01
   2  -6  -7   39.50   12.89
  -6   4  -7   55.35   21.19
   4   2  -7   51.52   10.72
   4   2  -7   65.26   14.46
   6  -4   7   30.68    8.64
   6  -4   7   30.92   18.51
   2  -6  -8  223.24   49.67
  -6   4  -8  275.66   55.87
   4   2  -8  241.41   48.09
   4   2  -8  296.80   59.83
   6  -4   8  210.46   42.38
   6  -4   8  245.76   64.33
   2  -6  -9   75.36   51.12
  -6   4  -9  111.26   27.08
   4   2  -9  106.56   21.61
   4   2  -9  111.72   23.52
   6  -4   9   97.35   20.14
   6  -4   9   94.37   54.31
   2  -6 -10   48.07   27.75
  -6   4 -10   92.38   11.85
   4   2 -10   64.85    8.89
   4   2 -10   76.62   13.82
   6  -4  10   69.95    7.01
   6  -4  10   58.22   32.51
   2  -6 -11  340.44   33.01
  -6   4 -11  418.89   31.44
   4   2 -11  452.90   28.56
   4   2 -11  518.69   35.85
   6  -4  11  408.02   26.26
   6  -4  11  395.74   35.39
   2  -6 -12  232.15   62.67
  -6   4 -12  331.35   52.18
   4   2 -12  234.64   36.61
   6  -4  12  222.43   33.47
   6  -4  12  236.27   59.73
   2  -6 -13   35.63   18.77
  -6   4 -13   45.44   14.61
   4   2 -13   55.19   38.32
   6  -4  13   54.31   15.62
   6  -4  13   55.30   24.66
   2  -6 -14  302.72   76.83
  -6   4 -14  426.88  103.11
   4   2 -14  443.11  106.28
   6  -4  14  384.90   91.37
   6  -4  14  371.40  104.97
   2  -6 -15   53.46   46.12
  -6   4 -15  106.18   33.01
   4   2 -15   78.94   31.14
   6  -4  15   85.28   24.12
   6  -4  15   87.30   46.19
   2  -6 -16   49.53   31.32
  -6   4 -16   94.16   30.14
   4   2 -16   87.91   52.60
   6  -4  16   47.78   14.07
   6  -4  16   48.39   35.86
   2  -6 -17  161.87   73.04
  -6   4 -17  297.86   79.51
   4   2 -17  257.02   66.25
   4   2 -17  264.62   95.85
   6  -4  17  213.99   55.16
   6  -4  17  200.04   63.23
   2  -6 -18   38.73   27.46
  -6   4 -18   86.47   43.48
   4   2 -18   78.24   37.89
   4   2 -18   76.75   41.56
   6  -4  18   71.53   33.51
   6  -4  18   63.29   37.28
   2  -6 -19   40.65   31.78
  -6   4 -19   69.21   46.08
   4   2 -19   42.38   27.02
   4   2 -19   52.76   37.77
   6  -4  19   77.16   39.68
   6  -4  19   69.15   53.19
   2  -6 -20  158.81  111.12
  -6   4 -20  319.60  124.41
   4   2 -20  277.46  105.97
   6  -4  20  279.11  106.54
   6  -4  20  231.48  105.56
  -3  -3 -20    5.19   19.73
  -3   6 -20   11.17    9.91
   6  -3 -20   18.52   16.45
   3   3  20   10.08    7.80
   3  -6  20   11.44   12.94
  -3  -3 -19  235.55  123.44
  -3   6 -19  391.87  181.90
   6  -3 -19  300.78  152.82
   3   3  19  321.06  148.84
   3  -6  19  297.76  140.34
  -3  -3 -18   57.58   29.65
  -3   6 -18   55.30   16.37
   6  -3 -18   50.39   27.16
   3   3  18   57.69   15.67
   3  -6  18   48.65   17.23
  -3  -3 -17   30.87   31.58
  -3   6 -17   27.75    9.37
   6  -3 -17   20.29   24.39
   3   3  17   23.31    7.32
   3  -6  17   21.32   12.89
  -3  -3 -16   13.60   15.56
  -3   6 -16    4.44    5.14
   6  -3 -16    7.24   14.87
   3   3  16    8.24    4.51
   3  -6  16    5.74    9.22
  -3  -3 -15    8.80   13.91
   6  -3 -15    5.97    5.34
  -3   6 -15    7.94    5.57
   6  -3 -15   13.52   12.21
   3   3  15    7.63    5.21
   3  -6  15    6.66   10.03
  -3  -3 -14   47.63   27.42
   6  -3 -14   50.58   13.19
  -3   6 -14   64.25   16.33
   6  -3 -14   45.92   21.39
   3   3  14   54.98   13.96
   3  -6  14   52.22   20.40
  -3  -3 -13  339.61  116.33
  -3   6 -13  347.51   51.63
   6  -3 -13  454.46   79.29
   3   3  13  368.99   54.74
   3  -6  13  281.17   46.95
  -3  -3 -12  128.88   46.69
  -3   6 -12  125.70   10.34
   6  -3 -12  133.41   22.96
   3   3  12  124.53    9.26
   3  -6  12  111.50   17.18
  -3  -3 -11  164.80   89.94
  -3   6 -11  149.24   10.54
   6  -3 -11  171.75   42.13
   3   3  11  168.16   11.50
   3  -6  11  129.96   19.32
  -3  -3 -10   78.10   36.95
  -3   6 -10   64.23   15.41
   6  -3 -10   90.11   51.53
   3   3  10   59.12   12.30
   3  -6  10   55.73   20.16
  -3  -3  -9   10.20   10.61
  -3   6  -9    7.36    3.40
   6  -3  -9   -1.94    9.23
   3   3   9    5.62    3.49
  -3  -3  -8   44.11   20.99
  -3   6  -8   41.24    8.62
   6  -3  -8   46.36   15.31
   3   3   8   46.78   14.47
   3  -6   8   34.20   20.54
  -3  -3  -7   22.91   11.25
  -3   6  -7   22.71    5.73
   6  -3  -7   21.51    9.02
   3   3   7   22.17   11.61
   3  -6   7   26.20   15.05
  -3  -3  -6 1536.89  306.79
  -3   6  -6 1332.96   83.01
   6  -3  -6 1408.95   91.20
   3   3   6 1483.86  293.70
   3  -6   6 1341.13   91.43
  -3  -3  -5  318.51   37.04
  -3   6  -5  323.87   20.69
   6  -3  -5  364.17   27.79
   3   3   5  345.19   22.51
   3  -6   5  271.55   26.13
  -3   6  -4   43.36    3.33
   3   3   4   29.49    3.07
   6  -3  -4   37.66   14.40
   3   3   4   34.70    6.53
   3  -6   4   40.82   40.89
  -3   6  -3   12.29    1.80
   3   3   3   14.78    4.63
   6  -3  -3   12.20    8.76
   3   3   3   15.19    3.14
   3  -6   3   14.58   13.52
  -3   6  -2   19.78    1.94
   3   3   2   22.80    3.73
   3  -6   2   11.77    9.74
   3   3   2   19.24    2.93
   3  -6   2    9.50   14.09
  -3   6  -1  152.33    6.57
   3   3   1  158.76    7.74
   3  -6   1  153.44   21.45
   3   3   1  157.19    8.08
   3  -6   1  103.86   32.09
  -3   6   0 2209.88  137.00
   3   3   0 2546.09  158.33
   3  -6   0 1984.27  131.33
   6  -3   0 2119.85  133.23
   6  -3   0 2417.54  156.76
  -3   6   1  154.06    6.59
   3   3  -1  166.34    8.13
   3  -6  -1  115.19   35.92
   6  -3   1  152.36   11.05
   3   3  -1  156.45    7.98
   6  -3   1  195.79   62.25
   3  -6  -1  143.79   19.44
  -3   6   2   19.28    1.83
   3   3  -2   20.97    3.82
   6  -3   2   19.89    1.32
   3  -6  -2   19.60   13.80
   6  -3   2   19.30    8.23
   3   3  -2   21.43    6.10
   6  -3   2   29.35   12.57
   3  -6  -2   25.87   16.44
   3   3  -3   12.62    2.69
  -3   6   3   13.53    4.00
   6  -3   3   12.93    1.82
   3  -6  -3   14.54   11.04
   6  -3   3   19.47    4.84
   3   3  -3   14.17    4.02
   3  -6  -3    6.11    6.46
   6  -3   3   12.55   11.69
  -6   3  -4   38.21    5.19
   3   3  -4   37.65   10.05
  -3   6   4   32.66    2.27
   3  -6  -4   30.28   22.76
   6  -3   4   32.96    5.84
   3   3  -4   34.07    4.04
   3  -6  -4   36.14   22.17
   6  -3   4   41.40   20.10
  -6   3  -5  366.25   25.53
   3   3  -5  333.51   21.73
  -3   6   5  332.77   21.10
   3  -6  -5  347.93   87.98
   3   3  -5  326.44   21.64
   6  -3   5  310.12   23.80
   3  -6  -5  318.82   28.86
   6  -3   5  336.15   64.72
  -6   3  -6 1894.90  376.08
   3   3  -6 1327.58   83.01
  -3   6   6 1433.61   89.09
   3  -6  -6 1485.22  299.35
   3   3  -6 1540.42  305.04
   6  -3   6 1448.60   91.39
   6  -3   6 1589.70  317.32
  -6   3  -7   31.88   23.57
   3   3  -7   20.01    3.30
   3  -6  -7   23.89   17.74
   3   3  -7   22.24    4.46
   6  -3   7   23.20   15.42
   3  -6  -8   31.48   26.32
  -6   3  -8   58.81   26.58
   3   3  -8   41.26    8.97
   3  -6  -8   42.56   28.40
   3   3  -8   51.24   11.69
   6  -3   8   36.81    8.21
   6  -3   8   50.21   22.06
   3  -6  -9    6.77    7.12
  -6   3  -9    6.70    6.84
   3   3  -9    4.21    3.35
   3  -6  -9    8.16   10.34
   3   3  -9    6.49    6.14
   6  -3   9    1.88    3.20
   6  -3   9    2.96    7.14
   3  -6 -10   39.18   24.99
  -6   3 -10   62.26   45.47
   3  -6 -10   65.20   38.02
   3   3 -10   77.98   17.14
   6  -3  10   58.00   12.72
   6  -3  10   44.12   22.54
   3  -6 -11  132.74   48.06
  -6   3 -11  204.00   56.44
   3  -6 -11  172.91  122.04
   3   3 -11  161.28   13.11
   6  -3  11  145.72   15.43
   6  -3  11  173.41   27.55
   3  -6 -12   74.24   43.20
  -6   3 -12  155.15   19.54
   3  -6 -12  151.29   73.44
   6  -3  12  116.07    9.20
   6  -3  12  217.76   57.16
   3  -6 -13  297.85   50.55
  -6   3 -13  454.08   71.16
   3  -6 -13  240.25  142.16
   3   3 -13  452.55   68.52
   6  -3  13  354.95   52.85
   6  -3  13  318.24   51.53
   3  -6 -14   22.77   15.74
  -6   3 -14   54.19   28.16
   3  -6 -14   39.73   18.61
   3   3 -14   53.51   24.48
   6  -3  14   47.12   13.30
   6  -3  14   44.58   33.44
   3  -6 -15    2.53    6.99
  -6   3 -15   13.90   10.06
   3   3 -15    7.55    5.82
   3  -6 -15    3.70    9.60
   3   3 -15   14.15    9.44
   6  -3  15    8.47    5.00
   6  -3  15    5.95    9.79
   3  -6 -16   21.67   16.65
  -6   3 -16    7.60   14.39
   3   3 -16    4.80    6.77
   6  -3  16    9.48    5.44
   6  -3  16    9.51    7.01
   3  -6 -17   13.74   12.12
  -6   3 -17   24.75   14.29
   3   3 -17   27.76   10.92
   6  -3  17   24.96    8.98
   6  -3  17   20.04   19.28
   3  -6 -18   33.12   31.64
  -6   3 -18   68.47   52.39
   3   3 -18   65.57   18.27
   6  -3  18   55.00   14.83
   6  -3  18   64.82   26.79
   3  -6 -19  150.77   77.35
  -6   3 -19  366.17  171.81
   3   3 -19  363.39  168.55
   6  -3  19  316.10  146.58
   6  -3  19  333.62  171.61
   3  -6 -20    5.40   10.43
  -6   3 -20    9.21   14.67
   3   3 -20    8.29    8.04
   6  -3  20    8.38    7.53
   6  -3  20    9.11   11.10
  -2  -4 -20  213.33   98.30
  -4   6 -20  331.57  127.10
   6  -2 -20  223.61   85.80
   6  -2 -20  418.32  237.50
   4  -6  20  178.78   71.86
  -2  -4 -19   75.22   52.89
  -4   6 -19  123.27   71.47
   6  -2 -19  101.02   52.31
   6  -2 -19  101.36   86.02
   4  -6  19   64.10   37.95
  -2  -4 -18   66.63   46.05
  -4   6 -18  142.18   68.31
   6  -2 -18   96.96   45.51
   6  -2 -18   90.15   49.92
   4  -6  18   70.79   37.58
  -2  -4 -17  181.79   90.62
  -4   6 -17  286.67   74.32
   6  -2 -17  241.83   62.57
   6  -2 -17  268.32   76.76
   4  -6  17  211.57   59.27
  -2  -4 -16   34.94   24.99
  -4   6 -16   50.48   28.63
   6  -2 -16   40.00   12.25
   6  -2 -16   47.52   24.28
   4  -6  16   56.19   20.62
  -2  -4 -15   74.93   41.16
  -4   6 -15  116.09   32.94
   6  -2 -15   99.82   28.21
   6  -2 -15  129.60   70.00
   4  -6  15   68.51   23.29
  -2  -4 -14  344.32  103.97
  -4   6 -14  530.81  126.06
   6  -2 -14  528.79  125.48
   6  -2 -14  448.94  109.13
  -2  -4 -13   60.92   30.61
  -4   6 -13   66.76   22.18
   6  -2 -13   46.86   16.46
   6  -2 -13   49.64   18.86
   2   4  13   44.22   11.08
  -2  -4 -12  294.59  128.76
  -4   6 -12  313.46   46.86
   6  -2 -12  251.21   37.43
   6  -2 -12  329.58   77.25
   2   4  12  270.36   40.17
   4  -6  12  243.41   66.10
  -2  -4 -11  342.91   39.52
  -4   6 -11  368.70   24.25
   6  -2 -11  358.80   22.84
   6  -2 -11  358.08   30.79
   2   4  11  316.86   20.26
   4  -6  11  279.56   57.57
  -2  -4 -10   85.65   44.40
  -4   6 -10  101.99    9.92
   6  -2 -10   73.73    6.55
   6  -2 -10   63.12   11.82
   2   4  10   76.26    6.47
   4  -6  10   68.28   41.61
  -2  -4  -9   81.62   35.07
  -4   6  -9   87.20   18.09
   6  -2  -9   94.05   18.99
   6  -2  -9   97.78   26.64
   2   4   9   93.09   18.87
   4  -6   9   90.40   36.52
  -2  -4  -8  235.90   50.81
  -4   6  -8  273.37   54.43
   6  -2  -8  293.01   58.17
   6  -2  -8  292.49   60.12
   2   4   8  322.38   64.08
   4  -6   8  298.78   63.64
  -2  -4  -7   39.49   23.44
  -4   6  -7   36.01    8.01
   6  -2  -7   38.17    7.89
   6  -2  -7   42.68   21.18
   2   4   7   58.85   12.33
   4  -6   7   46.73   30.21
  -2  -4  -6  188.56   68.87
  -4   6  -6  186.85   12.48
   6  -2  -6  188.89   12.29
   6  -2  -6  212.95   17.90
   2   4   6  206.97   13.79
   4  -6   6  191.95   31.33
  -2  -4  -5  308.04   27.78
  -4   6  -5  304.97   19.48
   6  -2  -5  329.80   20.91
   4  -6   5  313.85   25.46
   2   4   5  286.98   18.68
   4  -6   5  275.66   31.43
  -4   6  -4  216.99   14.30
   6  -2  -4  167.38   10.92
   2   4   4  144.28   10.21
   4  -6   4  179.42   19.32
   6  -2  -4  158.90   19.94
   2   4   4  133.93    9.32
   4  -6   4  167.09   78.78
  -4   6  -3   63.09    5.09
   6  -2  -3   72.29    5.10
   2   4   3   73.92    6.07
   4  -6   3   74.97   34.16
   6  -2  -3   72.09   25.24
   2   4   3   70.24    5.43
   4  -6   3   80.50   54.53
   6  -2  -2   85.04    4.02
   4  -6   2  108.26   44.52
   6  -2  -2   83.09   22.51
   4  -6   2  113.67   52.91
  -4   6  -1  126.65    5.34
   6  -2  -1  145.27    6.26
   4  -6   1  112.71   21.31
   6  -2  -1  134.41   15.69
   2   4   1  173.17    7.80
  -4   6   0    7.56    1.05
   6  -2   0    7.52    2.17
   2   4   0    9.92    3.17
   4  -6   0   10.06    6.29
   6  -2   0    7.78    3.96
   2   4   0   11.03    3.00
  -4   6   1  162.56    6.54
   2   4  -1  147.13    7.32
   4  -6  -1  172.94   24.78
   6  -2   1  170.95   10.41
   2   4  -1  142.81    7.03
   4  -6  -1  153.96   80.43
  -4   6   2  108.60    4.54
   2   4  -2   91.10    5.48
   6  -2   2  122.71    5.42
   4  -6  -2   85.74   43.23
   6  -2   2  122.95    8.60
   6  -2   2  137.57   29.38
   4  -6  -2   90.55   51.15
  -2  -4   2  136.24    8.52
  -4   6   3   70.16    4.73
   2   4  -3   68.37    5.50
   6  -2   3   76.22    5.41
   4  -6  -3   58.75   36.40
   6  -2   3   71.48    7.30
   2   4  -3   69.65    5.67
   6  -2   3   87.92   38.66
   4  -6  -3   78.56   35.99
  -2  -4   3   67.31    6.36
  -6   2  -4  155.23   13.49
   2   4  -4  162.37   11.15
  -4   6   4  132.88    8.55
   4  -6  -4  149.77   24.53
   2   4  -4  170.72   11.80
   6  -2   4  134.38   11.42
   4  -6  -4  203.60   30.46
   6  -2   4  187.54   27.30
  -2  -4   4  134.93   11.20
  -6   2  -5  372.77   27.02
   2   4  -5  330.97   21.60
  -4   6   5  322.99   20.33
   4  -6  -5  288.89   45.23
   2   4  -5  313.54   20.51
   4  -6  -5  381.76   34.83
   6  -2   5  306.29   26.07
  -2  -4   5  273.57   19.65
  -6   2  -6  234.36   20.64
   2   4  -6  195.26   13.16
  -4   6   6  209.57   13.34
   4  -6  -6  119.68   57.14
   2   4  -6  216.81   14.87
   6  -2   6  194.87   14.44
   6  -2   6  178.26   39.31
  -2  -4   6  202.96   15.22
  -6   2  -7   44.88   18.46
   2   4  -7   38.40    8.68
  -4   6   7   61.64   12.36
   4  -6  -7   37.56   23.04
   2   4  -7   30.36    6.80
   6  -2   7   54.20   12.04
   6  -2   7   62.47   36.43
   2   4  -8  283.72   56.48
   4  -6  -8  244.87  130.82
   2   4  -8  296.26   59.09
   6  -2   8  331.53   66.27
   6  -2   8  314.82   72.07
   4  -6  -9   80.65   27.63
  -6   2  -9   87.26   34.90
   2   4  -9   96.03   19.67
   4  -6  -9   71.25   37.75
   2   4  -9  115.93   23.97
   6  -2   9   86.63   19.24
   6  -2   9  124.79   49.48
   4  -6 -10   43.09   18.83
  -6   2 -10   84.28   40.17
   2   4 -10   79.97    6.35
   4  -6 -10   65.90   49.03
   2   4 -10   82.47    9.88
   6  -2  10   80.56    7.83
   6  -2  10   74.08   25.94
  -6   2 -11  393.86   32.78
   2   4 -11  342.64   22.07
   4  -6 -11  262.70  104.34
   6  -2  11  312.06   20.89
   6  -2  11  321.14   48.55
   4  -6 -12  211.73   44.32
  -6   2 -12  268.00   43.77
   2   4 -12  258.03   38.48
   4  -6 -12  235.04   93.10
   6  -2  12  259.75   38.95
   6  -2  12  338.81   56.38
   4  -6 -13   33.46   23.71
  -6   2 -13   53.18   47.60
   2   4 -13   52.61   13.98
   4  -6 -13   59.29   36.99
   6  -2  13   49.29   27.81
   4  -6 -14  333.02   81.64
  -6   2 -14  434.72  116.53
   2   4 -14  378.02   89.64
   4  -6 -14  298.21  133.41
   6  -2  14  413.42  110.19
   4  -6 -15   49.02   38.01
  -6   2 -15  120.50   73.57
   2   4 -15   99.47   28.55
   4  -6 -15   69.63   40.14
   6  -2  15   87.69   26.38
   6  -2  15   98.34   49.93
   4  -6 -16   17.90   12.67
  -6   2 -16   52.21   34.35
   2   4 -16   46.12   22.10
   6  -2  16   67.01   20.46
   6  -2  16   74.54   41.66
   4  -6 -17   95.23   27.68
  -6   2 -17  265.43   73.20
   2   4 -17  246.89   63.69
   4  -6 -17  156.40   91.60
   6  -2  17  243.80   62.83
   6  -2  17  254.79   74.21
  -6   2 -18  125.11   96.77
   2   4 -18  112.43   52.57
   4  -6 -18  122.64   68.72
   6  -2  18   92.40   43.23
   6  -2  18   76.76   43.39
  -6   2 -19   79.22   74.41
   2   4 -19  100.51   51.78
   6  -2  19   51.28   28.88
   6  -2  19   52.74   40.42
  -6   2 -20  192.44  112.72
   2   4 -20  257.23   98.31
   4  -6 -20  267.89  187.82
   6  -2  20  229.43   87.71
   6  -2  20  263.94  102.54
  -1  -5 -19   53.55   37.58
  -5   6 -19   68.13   27.08
   6  -1 -19   50.76   19.95
   6  -1 -19   71.66   39.76
   5  -6  19   63.94   32.13
  -1  -5 -18   39.49   38.99
  -5   6 -18   77.52   40.58
   6  -1 -18   64.82   33.55
   6  -1 -18   84.85   66.56
   5  -6  18   74.11   45.76
  -1  -5 -17  206.77  130.92
  -5   6 -17  276.41  128.49
   6  -1 -17  253.43  117.63
   6  -1 -17  219.00  106.76
   5  -6  17  183.22   94.65
  -1  -5 -16   46.08   33.33
  -5   6 -16   78.92   21.66
   6  -1 -16   73.62   19.49
   6  -1 -16   55.64   45.72
   5  -6  16   27.18   17.25
  -1  -5 -15   59.37   44.67
  -5   6 -15   70.31   20.87
   6  -1 -15   70.11   20.59
   6  -1 -15   64.90   25.04
   5  -6  15   37.90   30.40
  -1  -5 -14  272.19   85.20
  -5   6 -14  441.93  124.79
   6  -1 -14  331.21   91.52
   6  -1 -14  288.89   82.36
   5  -6  14  234.08   88.79
  -1  -5 -13   12.54   19.52
  -5   6 -13   12.74    7.08
   6  -1 -13    7.14    5.52
   6  -1 -13    7.57   13.93
   5  -6  13    9.54    8.01
  -1  -5 -12  226.10   63.46
  -5   6 -12  382.79   91.31
   6  -1 -12  338.24   80.26
   6  -1 -12  289.29   71.07
   5  -6  12  261.06   67.00
  -1  -5 -11  191.30   96.74
  -5   6 -11  312.55   74.62
   6  -1 -11  254.97   60.52
   6  -1 -11  252.55   40.26
   5  -6  11  220.28   93.84
  -1  -5 -10   40.66   32.07
  -5   6 -10   62.25   11.33
   6  -1 -10   42.20    6.97
   6  -1 -10   52.34   15.03
   5  -6  10   40.77   22.67
  -1  -5  -9   62.62   38.83
  -5   6  -9   92.03    8.39
   6  -1  -9   73.18    5.57
   6  -1  -9   63.15   12.00
   5  -6   9   68.93   36.31
  -1  -5  -8  359.71   48.47
  -5   6  -8  470.30   30.40
   6  -1  -8  358.07   22.90
   6  -1  -8  348.90   26.21
   1   5   8  351.45   22.13
   5  -6   8  289.10   29.38
  -1  -5  -7   60.70   30.64
   6  -1  -7   64.61   13.19
   5  -6   7   39.69   10.81
   6  -1  -7   57.28   13.71
   1   5   7   49.43   10.21
   5  -6   7   67.79   31.16
  -1  -5  -6  218.42   47.84
   6  -1  -6  213.54   42.47
   5  -6   6  158.61   33.60
   6  -1  -6  267.29   63.29
   1   5   6  213.18   42.43
   5  -6   6  215.19  102.73
   6  -1  -5  203.55   40.50
   1   5   5  215.14   42.92
   5  -6   5  216.38   44.97
   6  -1  -5  213.84   44.78
   1   5   5  233.25   46.39
   6  -1  -4  102.67   20.58
   1   5   4  118.15   23.75
   5  -6   4   91.93   20.37
   6  -1  -4  110.10   38.24
   1   5   4  142.07   28.40
   6  -1  -3   42.43    8.68
   1   5   3   43.79    9.24
   5  -6   3   50.37   12.61
   6  -1  -3   45.53   25.74
   1   5   3   44.71    9.26
   5  -6   3   49.93   31.44
   6  -1  -2  185.81   12.17
   1   5   2  155.27   10.76
   5  -6   2  134.49   14.03
   6  -1  -2  177.05   14.08
   1   5   2  158.96   10.67
   5  -6   2  125.58   45.44
   6  -1  -1  230.53   14.86
   1   5   1  191.35   12.96
   5  -6   1  163.36   20.48
   6  -1  -1  230.55   17.42
   1   5   1  196.70   13.37
   5  -6   1  162.10   76.23
   6  -1   0   56.22    4.37
   1   5   0   55.21    4.81
   5  -6   0   35.66   23.97
   6  -1   0   64.50   19.31
   1   5   0   57.38    8.75
   5  -6   0   47.77   28.40
   1   5  -1  229.28   15.38
   6  -1   1  205.67   13.47
   5  -6  -1  181.14   21.39
   6  -1   1  202.17   15.93
   1   5  -1  253.72   16.47
   5  -6  -1  224.99   33.45
   1   5  -2  175.28   11.97
   6  -1   2  146.26    9.76
   5  -6  -2  145.72   18.27
   1   5  -2  201.82   13.24
   5  -6  -2  154.28   35.20
   1   5  -3   44.85   10.19
   6  -1   3   45.43    9.37
   5  -6  -3   45.98   27.09
   6  -1   3   42.90   10.78
   1   5  -3   44.30    9.10
   5  -6  -3   82.05   42.38
  -1  -5   3   43.71   11.13
   1   5  -4  103.29   20.87
   6  -1   4  128.44   25.68
   5  -6  -4   83.25   53.61
   1   5  -4  110.72   22.18
   6  -1   4  120.90   24.87
   5  -6  -4   97.12   47.40
  -1  -5   4  123.51   25.95
  -6   1  -5  240.65   62.25
   1   5  -5  186.20   37.23
   5  -6  -5  118.35   44.81
   6  -1   5  225.44   45.41
   6  -1   5  193.98   51.00
   5  -6  -5  190.43   81.89
  -1  -5   5  220.21   44.77
  -6   1  -6  247.48   51.68
   1   5  -6  204.30   40.79
   5  -6  -6  132.69   55.67
   6  -1   6  240.56   48.47
   6  -1   6  175.12   36.99
  -1  -5   6  228.66   46.87
  -6   1  -7   60.54   25.54
   1   5  -7   57.35   12.20
   5  -6  -7   61.01   37.00
   6  -1   7   51.97   17.98
   6  -1   7   84.57   37.69
  -1  -5   7   37.92    9.72
  -6   1  -8  490.74   41.08
   1   5  -8  347.41   22.27
   5  -6  -8  385.75   44.02
   6  -1   8  335.30   22.47
   6  -1   8  362.41   27.42
  -1  -5   8  264.58   19.57
  -6   1  -9   95.65   38.43
   1   5  -9   64.37    8.20
   5  -6  -9  105.74   69.37
   6  -1   9   74.46    7.82
   6  -1   9  128.16   62.69
  -1  -5   9   51.84   21.96
  -6   1 -10   58.50   47.73
   1   5 -10   48.12   11.67
   5  -6 -10   42.64   35.14
   6  -1  10   45.46   14.65
   6  -1  10   37.10   25.60
  -1  -5  10   44.15    8.93
  -6   1 -11  373.33  107.11
   1   5 -11  274.88   65.30
   5  -6 -11  384.39  193.65
   6  -1  11  292.46   46.98
  -1  -5  11  247.07   59.87
  -6   1 -12  254.45   79.45
   1   5 -12  282.29   67.38
   5  -6 -12  139.23   80.12
   6  -1  12  307.91   75.32
  -1  -5  12  262.13   63.59
  -6   1 -13   17.01   15.58
   1   5 -13    7.31    6.14
   5  -6 -13    9.60   12.59
   6  -1  13   14.20    5.66
   6  -1  13   25.41   18.28
  -1  -5  13   13.54    7.39
  -6   1 -14  356.19  127.86
   1   5 -14  334.26   92.94
   5  -6 -14  292.95  134.22
   6  -1  14  308.61   85.45
   6  -1  14  406.28  115.94
  -1  -5  14  243.13   68.06
  -6   1 -15   81.17   38.75
   1   5 -15   64.19   19.97
   5  -6 -15   67.60   42.11
   6  -1  15   66.85   20.11
   6  -1  15   72.33   46.24
  -1  -5  15   50.37   16.19
  -6   1 -16   64.94   49.32
   1   5 -16   83.60   25.61
   5  -6 -16   81.15   55.37
   6  -1  16   47.89   13.12
   6  -1  16   33.26   16.93
  -1  -5  16   30.58   23.58
  -6   1 -17  239.13  114.24
   1   5 -17  272.94  126.63
   6  -1  17  227.62  105.75
  -1  -5  17  149.87   71.11
  -6   1 -18   60.49   46.95
   1   5 -18   76.76   42.98
   5  -6 -18   57.57   43.05
   6  -1  18   68.34   35.55
  -1  -5  18   40.65   29.15
  -6   1 -19   54.41   38.00
   1   5 -19   79.79   31.29
  -1  -5  19   55.40   42.36
   0  -6 -17   11.59   17.96
   6   0 -17   10.07    6.88
   6  -6  17    8.91   13.33
   0  -6 -16    8.87   17.08
   6   0 -16   15.33   13.34
   6   0 -16   20.02   14.48
   0  -6 -15   16.60   12.72
   6   0 -15    5.81    7.22
   6   0 -15    4.60   15.33
   6  -6  15    4.10   18.14
   0  -6 -14   37.73   26.85
   6   0 -14   49.25   13.40
   6   0 -14   82.81   29.37
   6  -6  14   42.62   22.92
   0  -6 -13  249.43   84.75
   6   0 -13  361.08  101.48
   6   0 -13  417.16  118.99
   6  -6  13  352.60  103.47
   0  -6 -12   62.26   38.55
   6   0 -12   99.49   29.07
   6   0 -12   89.30   27.14
   6  -6  12  130.87   62.21
   0  -6 -11  115.56   71.77
   6   0 -11  143.21   39.80
   6   0 -11  162.90   65.17
   6  -6  11  106.64   66.12
   0  -6 -10   73.90   53.46
   6   0 -10   95.99   26.80
   6   0 -10   85.35   28.63
   6  -6  10   82.51   25.20
   6  -6  10   82.36   42.12
   0  -6  -9    2.13    6.43
   6   0  -9    0.81    3.74
   6   0  -9    1.27    5.46
   6  -6   9    1.63    4.21
   6  -6   9    4.89   16.23
   0  -6  -8   41.91   14.91
   6   0  -8   58.06   14.11
   6  -6   8   48.62   12.87
   6   0  -8   60.42   37.27
   6  -6   8   73.62   48.48
   6   0  -7   22.27    8.86
   0   6   7   24.53    4.73
   6  -6   7   15.19    5.12
   6   0  -7   26.84   18.49
   6  -6   7   26.53   20.07
   6   0  -6  880.99  129.44
   0   6   6  827.37  121.55
   6  -6   6  938.79  222.70
   6   0  -6  886.45  131.58
   6  -6   6  781.58  120.61
   6   0  -5  375.43   55.37
   0   6   5  381.83   56.38
   6  -6   5  362.09   54.85
   6   0  -5  362.63   54.66
   0   6   5  384.01   56.54
   6  -6   5  320.61   54.05
   6   0  -4   68.65    5.66
   0   6   4   67.72    5.67
   6  -6   4   75.58    9.53
   6   0  -4   75.21    8.41
   0   6   4   72.02    5.24
   6  -6   4   86.51   39.59
   6   0  -3    2.87    1.85
   0   6   3    1.55    2.02
   6  -6   3    0.16    4.82
   6   0  -3    4.21    3.70
   0   6   3    0.98    1.61
   6  -6   3   13.37   12.85
   6   0  -2    6.07    1.62
   0   6   2    9.00    2.40
   6  -6   2    5.00    5.16
   6   0  -2    8.73    5.16
   0   6   2    8.79    1.80
   6  -6   2    5.48    8.84
   6   0  -1  114.28    7.89
   0   6   1  110.52    8.03
   6  -6   1  107.47   13.04
   6   0  -1  126.32   11.20
   0   6   1  119.22    7.80
   6  -6   1  123.94   63.59
   0   6   0 1410.65  206.98
   6   0   0 1389.67   84.05
   6  -6   0 1149.96   74.68
   6   0   0 1455.82  214.20
   6  -6   0 1510.76  229.15
   0   6  -1  109.73    7.93
   6   0   1  116.41    8.19
   6  -6  -1   87.18   12.52
   6   0   1  118.88   11.09
   6  -6  -1   88.64   54.61
   0  -6   1  114.75   13.16
   0   6  -2    6.83    2.47
   6   0   2    7.30    2.32
   6  -6  -2   12.75    8.89
   6   0   2    5.79    3.57
   6  -6  -2    7.22    9.76
   0   6  -3    5.43    2.74
   6   0   3    1.22    2.29
   6  -6  -3    0.87    5.04
   6   0   3    2.74    3.33
   6  -6  -3   -2.14   15.69
   0  -6   3    3.01    5.20
   0   6  -4   65.49    5.26
   6   0   4   68.15    5.39
   6  -6  -4   64.18   37.81
   6   0   4   72.50    7.64
   0  -6   4   72.63   25.77
   0   6  -5  348.31   51.43
   6   0   5  379.16   55.95
   6  -6  -5  289.57   47.17
   6   0   5  392.89   58.61
   0  -6   5  367.19   56.68
  -6   0  -6  848.02  127.20
   0   6  -6  839.14  123.32
   6  -6  -6  880.40  135.00
   6   0   6  926.15  219.15
   0  -6   6  848.60  126.82
  -6   0  -7   26.98   18.51
   0   6  -7   24.96    9.28
   6  -6  -7   20.91   13.74
   6   0   7   24.87    8.03
   0  -6   7   28.30   10.53
  -6   0  -8   66.81   33.77
   0   6  -8   55.07   13.78
   6  -6  -8   61.28   30.73
   6   0   8   59.07   16.67
   0  -6   8   47.45   13.96
  -6   0  -9    6.96    5.78
   0   6  -9    4.16    3.87
   6  -6  -9   10.37   11.55
   6   0   9    4.29    5.26
   0  -6   9    3.71    7.11
  -6   0 -10  107.21   50.76
   0   6 -10  104.95   29.38
   6  -6 -10  132.48   69.51
   6   0  10  101.48   28.60
   0  -6  10   77.34   24.28
  -6   0 -11  214.66   70.71
   0   6 -11  149.11   41.49
   6  -6 -11  129.56   96.09
   6   0  11  131.77   36.96
   0  -6  11  136.05   39.87
  -6   0 -12  101.72   49.67
   0   6 -12  104.11   29.68
   6  -6 -12   77.11   45.64
   6   0  12  101.47   29.27
   0  -6  12  104.20   32.10
  -6   0 -13  397.36  131.89
   0   6 -13  365.02  102.63
   6  -6 -13  321.72   95.56
   6   0  13  358.56  101.01
   0  -6  13  351.95  100.72
  -6   0 -14   47.16   31.50
   0   6 -14   42.78   12.44
   6  -6 -14   39.41   24.27
   6   0  14   42.72   12.32
   0  -6  14   39.39   12.30
  -6   0 -15    8.34   10.33
   0   6 -15    5.31    7.23
   6  -6 -15   13.42   12.54
   6   0  15    5.11    7.20
   0  -6  15    1.04    8.66
  -6   0 -16   12.40   10.25
   0   6 -16   14.39   10.68
   6   0  16   14.59   10.90
   0  -6  16   12.69   11.56
  -6   0 -17   17.11   20.18
   0   6 -17   11.29    6.59
   6  -6 -17   24.62   33.62
   6   0  17   11.17    6.27
   0  -6  17    7.24   10.16
  -6  -1 -14  206.49   99.01
  -1   7 -14  222.22   84.87
   6   1  14  202.35   77.47
   1  -7  14  144.93   57.18
  -6  -1 -13   25.53   17.27
  -1   7 -13   48.79   25.29
   7  -6 -13   60.63   51.92
   6   1  13   26.84   18.65
   1  -7  13   30.96   20.34
  -6  -1 -12  118.63   67.68
  -1   7 -12  126.53   58.81
   7  -6 -12  103.78   85.61
   6   1  12  133.51   62.24
   1  -7  12  116.18   55.64
  -6  -1 -11  144.67   93.28
  -1   7 -11  177.03   82.18
   7  -6 -11  187.63  117.47
   6   1  11  194.95   90.69
   1  -7  11  113.09   54.14
  -6  -1 -10   26.12   22.18
  -1   7 -10   31.93   10.92
   7  -6 -10   14.53   13.46
   6   1  10   33.46    9.84
   1  -7  10   26.08   12.65
  -6  -1  -9  104.04   33.18
  -1   7  -9  100.14   28.45
   7  -6  -9   97.70   50.45
   6   1   9   90.38   27.12
   1  -7   9   74.73   25.33
  -6  -1  -8   83.73   47.90
  -1   7  -8  102.56   29.10
   7  -6  -8   77.82   45.85
   6   1   8  119.85   34.45
   1  -7   8  102.80   42.29
  -1   7  -7   38.42   12.70
   6   1   7   58.22   16.76
   7  -6  -7   32.73   21.64
   6   1   7   62.95   19.39
   1  -7   7   51.55   31.72
  -1   7  -6  139.47   38.69
   6   1   6  129.48   35.98
   7  -6  -6  115.47   55.48
   6   1   6  141.48   45.68
   1  -7   6  104.68   38.85
  -1   7  -5  226.16   62.47
   6   1   5  225.87   62.47
   7  -6  -5  221.55   64.31
   6   1   5  235.29   65.41
   1  -7   5  175.21   56.81
  -1   7  -4  136.99   38.25
   6   1   4  101.54   28.55
   7  -6  -4  113.60   35.33
   6   1   4  107.99   30.58
   1  -7   4   81.03   33.60
  -1   7  -3   34.02   11.17
   6   1   3   38.88   11.81
   7  -6  -3   50.04   20.39
   6   1   3   27.88   10.24
   1  -7   3   24.46   16.23
  -1   7  -2   96.77   26.99
   6   1   2  139.71   38.76
   7  -6  -2   92.08   49.41
   6   1   2  150.17   42.22
   7  -6  -2   66.94   32.70
   1  -7   2  121.08   36.00
  -1   7  -1  180.65   50.03
   6   1   1  257.58   71.19
   7  -6  -1  150.16   43.84
   6   1   1  240.28   66.75
   7  -6  -1  173.23   78.71
  -1   7   0   83.68   23.35
   6   1   0   87.87   24.57
   7  -6   0   70.34   35.10
   6   1   0   96.87   31.49
   7  -6   0   93.77   39.48
   6   1  -1  186.58   51.61
  -1   7   1  213.05   58.89
   7  -6   1  189.66   54.04
   6   1  -1  225.31   62.93
   7  -6   1  166.16   80.75
   6   1  -2  103.09   28.77
  -1   7   2  134.64   37.34
   7  -6   2  106.52   34.15
   6   1  -2  102.35   29.26
   7  -6   2  152.41   84.32
   6   1  -3   35.08   10.12
  -1   7   3   40.97   11.70
   7  -6   3   33.22   17.12
   6   1  -3   26.94   14.17
   7  -6   3   37.51   23.11
   6   1  -4  131.98   36.61
  -1   7   4  107.65   29.92
   7  -6   4  104.64   30.83
   6   1  -4  146.19   41.41
   7  -6   4  105.30   48.24
   6   1  -5  243.00   67.15
  -1   7   5  214.37   59.23
   7  -6   5  179.12   50.43
   6   1  -5  236.79   66.01
   7  -6   5  187.70  104.02
   6   1  -6  126.39   35.09
  -1   7   6  133.09   36.92
   7  -6   6  111.53   32.70
   6   1  -6  154.82   43.85
   7  -6   6   95.39   53.74
   6   1  -7   37.36   10.98
  -1   7   7   54.77   15.71
   7  -6   7   49.51   30.48
   6   1  -7   47.14   15.18
   7  -6   7   60.26   32.99
   6   1  -8  101.05   28.69
  -1   7   8   98.16   27.84
   6   1  -8  102.43   31.17
   7  -6   8   93.74   27.61
   7  -6   8   79.27   58.85
   6   1  -9  104.79   29.73
  -1   7   9  118.50   33.56
   6   1  -9   86.45   34.89
   7  -6   9   86.13   23.48
   7  -6   9   84.53   57.03
   6   1 -10   33.81   10.08
   6   1 -10   41.25   19.85
   7  -6  10   21.62    7.17
   7  -6  10   34.34   18.96
   1  -7 -11  150.39   72.29
   6   1 -11  186.38   86.49
   6   1 -11  210.63   98.74
   7  -6  11  147.67   68.81
   7  -6  11  157.68  116.91
   1  -7 -12   77.26   60.75
   6   1 -12  143.69   66.79
   6   1 -12  120.40   65.97
   7  -6  12  101.43   97.79
   1  -7 -13   30.32   26.24
   6   1 -13   28.13   21.10
   6   1 -13   33.30   19.60
   7  -6  13   31.75   30.79
   1  -7 -14  163.24   65.48
   6   1 -14  228.89   87.40
   6   1 -14  274.73  106.62
   7  -6  14  158.92   71.18
  -5  -2 -16  314.05  131.11
   7  -5 -16  239.21  117.36
   5   2  16  268.97  102.66
   2  -7  16  184.27   72.24
  -5  -2 -15   10.33   13.72
  -2   7 -15   10.79    7.78
   7  -5 -15    7.07   12.53
   5   2  15   13.47   13.63
   2  -7  15   13.33   12.54
  -5  -2 -14   47.43   31.72
  -2   7 -14   36.23   18.55
   7  -5 -14   28.47   19.52
   5   2  14   25.99   19.35
   2  -7  14   22.84   16.09
  -5  -2 -13   96.87   67.95
  -2   7 -13  131.69   61.49
   7  -5 -13   99.90   63.90
   5   2  13  119.23   55.56
   2  -7  13  117.30   57.34
  -5  -2 -12   23.59   16.94
  -2   7 -12   24.46   12.44
   7  -5 -12   25.00   24.75
   5   2  12   24.10    8.70
   2  -7  12   20.26   11.58
  -5  -2 -11  135.62   53.64
  -2   7 -11  148.96   42.14
   7  -5 -11  104.84   57.33
   5   2  11  133.78   37.99
   2  -7  11  128.46   39.72
  -5  -2 -10  137.83   55.83
  -2   7 -10  169.68   47.84
   7  -5 -10  133.63   56.15
   5   2  10  177.99   50.44
   2  -7  10  162.65   49.37
  -5  -2  -9  265.63   77.48
  -2   7  -9  268.66   74.30
   7  -5  -9  219.68   64.30
   5   2   9  257.42   71.31
   2  -7   9  221.70   64.57
  -5  -2  -8  229.68   71.29
  -2   7  -8  242.27   66.95
   7  -5  -8  216.99   63.06
   5   2   8  246.57   68.38
   2  -7   8  163.09   58.03
  -5  -2  -7   33.51   21.91
  -2   7  -7   37.52    9.46
   7  -5  -7   36.36   15.13
   5   2   7   35.40   11.25
   2  -7   7   28.04   21.05
  -2   7  -6  225.98   53.64
   5   2   6  201.66   47.97
   5   2   6  194.36   46.87
   2  -7   6  185.33   58.75
  -2   7  -5  128.24   30.57
   5   2   5  126.77   30.35
   5   2   5  136.10   32.89
   2  -7   5  109.97   68.03
  -2   7  -4   33.64   10.42
   5   2   4   28.36    7.43
   7  -5  -4   25.86   11.90
   5   2   4   34.12    8.99
   2  -7   4   22.82   15.24
  -2   7  -3  834.81  122.67
   5   2   3  893.21  131.26
   7  -5  -3  815.41  122.31
   5   2   3  889.52  130.99
   2  -7   3  768.32  116.49
  -2   7  -2  247.32   36.63
   5   2   2  264.08   39.19
   7  -5  -2  274.86   43.92
   5   2   2  279.64   41.96
   7  -5  -2  250.87   44.84
   2  -7   2  213.34   35.64
  -2   7  -1   33.25    5.49
   5   2   1   31.59    5.65
   7  -5  -1   30.68   22.73
   5   2   1   29.18    6.25
   7  -5  -1   40.23   29.36
   2  -7   1   40.03   20.17
  -2   7   0  259.72   38.45
   5   2   0  310.64   46.21
   7  -5   0  232.49   36.78
   5   2   0  271.81   41.00
   7  -5   0  296.76   50.26
   2  -7   0  260.14   43.48
  -2   7   1   34.05    6.74
   5   2  -1   36.85    6.74
   7  -5   1   30.98   13.92
   5   2  -1   31.06   11.04
   7  -5   1   31.84   14.22
   2  -7  -1   49.59   38.91
   5   2  -2  264.34   39.27
  -2   7   2  270.55   40.04
   7  -5   2  234.07   36.37
   5   2  -2  266.78   40.15
   7  -5   2  233.12   87.27
   2  -7  -2  208.86   33.83
   5   2  -3  875.40  128.68
  -2   7   3  849.95  124.83
   7  -5   3  809.19  120.34
   5   2  -3  865.45  127.84
   2  -7  -3  922.77  219.78
   7  -5   3  752.83  117.18
   5   2  -4   33.43   12.52
  -2   7   4   29.21    7.48
   7  -5   4   30.35    9.56
   5   2  -4   32.65   20.89
   2  -7  -4   18.72   18.36
   7  -5   4   20.64   22.68
   5   2  -5  123.48   29.52
  -2   7   5  124.11   29.56
   7  -5   5  112.82   27.86
   5   2  -5  131.76   32.85
   7  -5   5  101.07   58.64
   5   2  -6  194.86   46.32
  -2   7   6  209.85   49.81
   7  -5   6  173.93   42.15
   5   2  -6  201.17   48.54
   7  -5   6  191.68   89.44
   5   2  -7   35.86    9.11
  -2   7   7   36.64    9.09
   5   2  -7   40.13   17.24
   7  -5   7   28.55    9.25
   7  -5   7   40.08   23.35
   5   2  -8  236.03   65.68
  -2   7   8  257.42   71.05
   5   2  -8  272.80   76.16
   7  -5   8  225.96   62.96
   7  -5   8  245.22   91.46
   5   2  -9  266.90   73.79
  -2   7   9  263.46   72.74
   5   2  -9  271.06   75.67
   7  -5   9  218.47   61.73
   7  -5   9  226.73  102.49
   2  -7 -10  148.83   44.77
   5   2 -10  174.91   49.40
   5   2 -10  239.65   68.64
   7  -5  10  159.58   45.39
   7  -5  10  174.43   85.94
   2  -7 -11   75.09   23.80
   5   2 -11  144.96   41.00
   5   2 -11  161.65   48.62
   7  -5  11  122.79   35.16
   7  -5  11  103.50   65.32
   2  -7 -12   10.68   10.57
   5   2 -12   25.46    9.11
   5   2 -12   25.98   18.84
   7  -5  12   19.04   13.78
   7  -5  12   22.54   15.27
   2  -7 -13   50.11   48.81
   5   2 -13  123.04   57.26
   5   2 -13  147.63   69.67
   7  -5  13  104.30   48.69
   7  -5  13   65.27   60.13
   2  -7 -14   17.18   21.55
   5   2 -14   28.08   15.48
   5   2 -14   35.57   19.17
   7  -5  14   25.80   19.33
   7  -5  14   30.06   19.00
   2  -7 -15    6.82    8.51
   5   2 -15   14.72    8.27
   5   2 -15    9.58    9.92
   7  -5  15   12.64    9.68
   7  -5  15   18.15   22.52
   2  -7 -16  220.60   88.05
   5   2 -16  277.24  105.80
   5   2 -16  252.98   97.57
   7  -5  16  253.07   96.67
   7  -5  16  236.77  119.73
  -4  -3 -17  157.96   97.11
  -3   7 -17  178.10   68.26
   7  -4 -17  149.14  109.43
   4   3  17  168.39   64.52
   3  -7  17  107.08   59.27
  -4  -3 -16   69.59   56.15
  -3   7 -16   75.60   38.97
   7  -4 -16   59.10   39.46
   4   3  16   63.81   32.91
   3  -7  16   52.32   30.07
  -4  -3 -15  165.36  104.04
  -3   7 -15  189.48   88.01
   7  -4 -15  191.00  122.48
   4   3  15  184.82   85.82
   3  -7  15  113.62   54.54
  -4  -3 -14  203.66   81.10
  -3   7 -14  208.14   53.75
   7  -4 -14  158.33   82.47
   4   3  14  199.65   51.54
   3  -7  14  154.11   44.41
  -4  -3 -13   14.38   15.58
  -3   7 -13   28.65    8.71
   7  -4 -13   22.01   15.42
   4   3  13   32.90   11.68
   3  -7  13   30.33   14.25
  -4  -3 -12   57.94   27.80
  -3   7 -12   58.06   16.83
   7  -4 -12   62.02   35.74
   4   3  12   58.20   20.33
   3  -7  12   40.31   18.59
  -4  -3 -11  272.64  100.80
  -3   7 -11  376.15  105.74
   7  -4 -11  315.03   91.91
   4   3  11  310.32   87.33
   3  -7  11  236.02   68.81
  -4  -3 -10   39.23   19.96
  -3   7 -10   31.05   12.30
   7  -4 -10   33.91   24.95
   4   3  10   31.91   16.48
   3  -7  10   21.17   18.29
  -4  -3  -9  314.55   78.50
  -3   7  -9  349.99   82.93
   7  -4  -9  377.83   92.15
   4   3   9  381.61   90.48
   3  -7   9  296.23   73.58
  -4  -3  -8   56.17   35.27
  -3   7  -8   62.33   15.17
   7  -4  -8   67.72   35.23
   4   3   8   41.71   11.19
   3  -7   8   35.71   18.88
  -4  -3  -7   24.03   13.36
  -3   7  -7   32.19    8.03
   4   3   7   30.37   10.40
   3  -7   7   28.47   18.68
  -3   7  -6   66.09   10.19
   4   3   6   64.11   10.31
   7  -4  -6   71.97   30.86
   4   3   6   57.45   11.66
   3  -7   6   55.35   28.98
  -3   7  -5  282.77   41.75
   4   3   5  310.53   46.04
   7  -4  -5  315.83   49.79
   4   3   5  306.69   45.56
   3  -7   5  259.13   43.45
  -3   7  -4  110.96   16.62
   4   3   4  140.73   21.38
   7  -4  -4  102.63   18.73
   4   3   4  129.16   20.00
   3  -7   4  107.41   51.65
  -3   7  -3   98.43    6.80
   4   3   3   97.64   14.94
   7  -4  -3   89.97   29.77
   4   3   3  102.89   16.07
   3  -7   3  114.37   55.72
  -3   7  -2   97.51    6.83
   7  -4  -2   91.61   10.64
   4   3   2   82.55   15.83
   3  -7   2   84.20   32.99
  -3   7  -1  120.17    8.00
   4   3   1  109.41    8.12
   7  -4  -1  108.20   12.80
   4   3   1   95.68    7.93
   3  -7   1  117.32   49.70
  -3   7   0   90.80    6.18
   4   3   0  109.70    8.23
   7  -4   0   93.24   10.20
   4   3   0  106.99    8.46
   7  -4   0   67.33   46.78
   3  -7   0   71.37   27.69
  -3   7   1  120.32    8.27
   4   3  -1  120.80    8.76
   4   3  -1  104.44    8.58
   7  -4   1  134.24   21.58
   3  -7  -1  104.77   51.48
  -3   7   2   91.33    6.32
   4   3  -2  104.81    7.83
   4   3  -2   99.90   11.28
   7  -4   2   76.19   27.92
   3  -7  -2  124.36   61.89
   4   3  -3  106.19   16.35
  -3   7   3  105.38   15.77
   7  -4   3   86.63   14.85
   4   3  -3  106.62   16.94
   3  -7  -3   82.03   17.41
   7  -4   3   91.14   50.67
   4   3  -4  118.82   18.10
  -3   7   4  135.52   20.16
   7  -4   4  116.97   19.21
   4   3  -4  101.56   16.60
   3  -7  -4  123.77   38.65
   7  -4   4  154.64   48.99
   4   3  -5  329.65   48.92
  -3   7   5  341.99   50.40
   4   3  -5  303.15   45.31
   7  -4   5  253.30   38.50
   7  -4   5  257.87   60.44
   4   3  -6   57.33    9.15
  -3   7   6   65.45   10.00
   4   3  -6   60.96   16.37
   7  -4   6   54.37   10.13
   7  -4   6   63.25   41.95
   4   3  -7   33.14    8.70
  -3   7   7   32.61    8.03
   4   3  -7   32.89   12.53
   7  -4   7   24.73    9.96
   7  -4   7   20.83   10.08
   4   3  -8   44.94   16.43
  -3   7   8   51.79   12.53
   4   3  -8   46.55   13.80
   7  -4   8   40.78   10.89
   7  -4   8   54.61   30.00
   4   3  -9  371.26   87.99
  -3   7   9  394.60   93.36
   4   3  -9  373.24   88.96
   7  -4   9  332.56   79.24
   7  -4   9  358.23  102.67
   3  -7 -10   18.56    8.50
   4   3 -10   29.45   11.57
   4   3 -10   31.56   10.44
   7  -4  10   26.02    8.54
   7  -4  10   36.16   18.05
   3  -7 -11  211.30   61.05
   4   3 -11  326.95   91.96
   4   3 -11  414.01  117.07
   7  -4  11  293.71   83.14
   7  -4  11  318.37  103.13
   3  -7 -12   30.64   21.98
   4   3 -12   54.92   21.37
   4   3 -12   64.59   25.35
   7  -4  12   56.22   16.62
   7  -4  12   55.29   49.31
   3  -7 -13   14.08    8.44
   4   3 -13   27.23   13.11
   4   3 -13   22.51   16.57
   7  -4  13   33.06   13.31
   7  -4  13   37.64   22.78
   3  -7 -14  106.51   39.27
   4   3 -14  187.69   48.44
   7  -4  14  162.94   42.27
   7  -4  14  211.85   78.53
   3  -7 -15   75.13   62.18
   4   3 -15  188.04   87.30
   7  -4  15  175.11   81.43
   7  -4  15  166.32  115.01
   3  -7 -16   26.43   20.79
   4   3 -16   75.98   41.58
   7  -4  16   61.81   32.00
   7  -4  16   51.36   34.22
   3  -7 -17   61.73   51.88
   4   3 -17  179.84   70.22
   7  -4  17  158.33   60.72
   7  -4  17  158.87  127.16
  -3  -4 -17  140.48   90.39
  -4   7 -17  183.13   71.15
   7  -3 -17  114.94   75.56
   3   4  17  183.06   70.03
   4  -7  17  162.84   66.43
  -3  -4 -16   35.23   28.64
  -4   7 -16   49.87   30.53
   7  -3 -16   49.08   38.24
   3   4  16   70.36   36.28
   4  -7  16   47.91   28.27
  -3  -4 -15  121.57   71.10
  -4   7 -15  145.41   67.75
   7  -3 -15  131.45   81.36
   3   4  15  154.79   71.94
   4  -7  15  104.61   51.95
  -3  -4 -14  206.91  106.88
  -4   7 -14  240.50   62.00
   7  -3 -14  216.34   58.45
   3   4  14  219.74   56.58
   4  -7  14  146.20   41.71
  -3  -4 -13   45.68   28.20
  -4   7 -13   46.69   17.07
   7  -3 -13   41.78   18.65
   3   4  13   29.80    8.53
   4  -7  13   26.70   19.31
  -3  -4 -12   84.77   49.11
  -4   7 -12   87.06   24.86
   7  -3 -12   92.59   81.72
   3   4  12   99.15   28.32
  -3  -4 -11  245.83   86.76
  -4   7 -11  307.16   86.42
   7  -3 -11  352.36  123.31
   3   4  11  334.75   94.26
  -3  -4 -10   55.42   31.52
  -4   7 -10   51.59   14.69
   7  -3 -10   52.70   31.13
   3   4  10   43.01   15.60
   4  -7  10   31.81   32.34
  -3  -4  -9  270.49   67.90
  -4   7  -9  273.62   64.96
   7  -3  -9  220.39   54.63
   3   4   9  236.61   56.25
   4  -7   9  209.86   62.06
  -3  -4  -8   63.54   36.87
  -4   7  -8   72.68   17.56
   7  -3  -8   75.78   46.88
   3   4   8   92.84   22.63
   4  -7   8   85.57   57.26
  -3  -4  -7   31.47   19.97
  -4   7  -7   23.50    6.05
   7  -3  -7   25.84   10.06
   3   4   7   42.27   11.63
   4  -7   7   44.42   27.69
  -4   7  -6   87.98   13.51
   3   4   6   80.47   12.62
   7  -3  -6  102.75   34.26
   3   4   6   86.93   19.65
   4  -7   6   81.02   58.92
  -4   7  -5  315.01   46.43
   3   4   5  328.55   48.66
   7  -3  -5  328.13   50.81
   3   4   5  340.22   50.35
   4  -7   5  336.55   59.06
  -4   7  -4  162.65   24.14
   3   4   4  165.21   24.90
   7  -3  -4  176.99   29.08
   3   4   4  161.24   24.28
   4  -7   4  145.77   87.56
  -4   7  -3   80.90   12.15
   3   4   3   91.06    9.43
   7  -3  -3  101.26   37.00
   3   4   3   90.23    7.09
   4  -7   3   63.37   38.37
  -4   7  -2   91.18    6.15
   3   4   2  146.55   10.10
   7  -3  -2  108.68   13.48
   3   4   2  145.59   10.32
   4  -7   2  121.72   30.15
  -4   7  -1  152.06    9.76
   3   4   1  202.81   13.55
   7  -3  -1  172.80   15.93
   3   4   1  215.43   14.47
   4  -7   1  152.62   22.96
  -4   7   0   59.95    4.22
   3   4   0   65.61    5.60
   4  -7   0   60.10   50.74
   3   4   0   54.80    5.17
   4  -7   0   78.93   49.28
  -4   7   1  158.95   10.00
   3   4  -1  170.86   13.02
   7  -3   1  202.79   16.36
   3   4  -1  177.36   12.07
   4  -7  -1  135.71   75.05
  -4   7   2  130.93    8.38
   3   4  -2  115.74    8.69
   4  -7  -2   56.57   51.31
   7  -3   2  129.24   11.66
   3   4  -2  116.92    8.58
   7  -3   2   77.69   35.98
   4  -7  -2   91.20   46.50
  -4   7   3   82.93   12.39
   3   4  -3  102.76    8.02
   4  -7  -3   50.81   38.27
   7  -3   3   86.24   14.82
   3   4  -3   98.94    7.70
   7  -3   3   77.63   29.09
   4  -7  -3   66.06   34.82
   3   4  -4  198.14   29.61
   4  -7  -4  156.40   72.99
   7  -3   4  154.39   24.47
   3   4  -4  204.87   30.83
   4  -7  -4  155.27   29.71
   7  -3   4  128.06   28.87
   3   4  -5  393.37   58.21
   4  -7  -5  343.19   64.98
   3   4  -5  381.00   56.48
   7  -3   5  328.02   49.44
   4  -7  -5  338.16   58.80
   7  -3   5  361.38   60.76
   3   4  -6   75.71   12.02
   4  -7  -6   45.54   26.58
   3   4  -6   77.86   14.44
   7  -3   6   82.98   14.20
   7  -3   6   71.01   50.47
   3   4  -7   30.72    8.42
   4  -7  -7   13.64   16.17
   3   4  -7   26.23    7.35
   7  -3   7   36.38   10.05
   7  -3   7   41.62   26.00
   3   4  -8   73.24   17.87
   4  -7  -8   56.90   37.05
   3   4  -8   87.95   21.64
   7  -3   8   58.93   36.75
   3   4  -9  236.43   56.24
   4  -7  -9  266.43   76.06
   7  -3   9  209.22   50.11
   7  -3   9  342.15   84.87
   3   4 -10   53.35   18.62
   4  -7 -10   52.87   38.85
   7  -3  10   41.29   12.32
   7  -3  10   35.00   25.88
   3   4 -11  312.65   88.02
   4  -7 -11  203.71  125.94
   7  -3  11  305.19   86.16
   7  -3  11  355.11  103.05
   3   4 -12  107.77   30.85
   4  -7 -12   63.84   48.22
   7  -3  12   90.34   26.10
   7  -3  12   69.03   43.63
  -7   3 -13   33.36   20.25
   3   4 -13   38.17   13.54
   4  -7 -13   35.08   32.60
   7  -3  13   31.20   16.68
   7  -3  13   24.24   20.45
   3   4 -14  234.87   60.45
   4  -7 -14  216.74  113.81
   7  -3  14  203.02   52.53
   7  -3  14  217.22   60.03
   3   4 -15  126.67   59.16
   4  -7 -15   82.14   59.98
   7  -3  15  129.33   60.31
   7  -3  15  167.71   89.26
   3   4 -16   40.94   26.26
   4  -7 -16   22.83   29.27
   7  -3  16   54.00   28.84
   7  -3  16   47.39   41.94
   3   4 -17  158.68   60.86
   4  -7 -17   59.91   46.37
   7  -3  17  172.63   66.27
   7  -3  17  146.07   71.58
  -2  -5 -16  242.54  143.08
   7  -2 -16  339.62  132.33
   2   5  16  301.64  115.01
  -2  -5 -15    6.92   17.55
   7  -2 -15   16.67   15.01
   2   5  15   13.53    7.62
   7  -2 -14   37.00   21.73
   2   5  14   43.93   20.73
   5  -7  14   31.46   20.73
   7  -2 -13   83.24   40.82
   2   5  13   90.74   42.29
   5  -7  13   49.20   41.39
   7  -2 -12   31.97   16.84
   2   5  12   22.20    9.06
   5  -7  12   17.75   11.00
   7  -2 -11   75.16   29.37
   2   5  11  100.20   28.53
   5  -7  11   48.25   29.06
  -2  -5 -10  188.40   77.38
   7  -2 -10  204.33   59.88
   2   5  10  230.80   64.99
   5  -7  10  175.12   58.33
  -2  -5  -9  180.66   55.21
   7  -2  -9  250.44   71.99
   2   5   9  256.83   70.97
   5  -7   9  188.46   95.17
  -2  -5  -8  280.57   80.83
   7  -2  -8  313.65   88.22
   2   5   8  345.52   95.39
   5  -7   8  339.16   99.29
   2   5   7   28.77    7.89
   7  -2  -7   36.71   14.02
   2   5   7   26.75    6.93
   5  -7   7   29.50   19.77
   2   5   6  206.04   49.02
   7  -2  -6  210.06   58.25
   2   5   6  225.90   53.67
   5  -7   6  174.00   94.02
   2   5   5  107.36   25.88
   7  -2  -5   94.68   24.75
   2   5   5   95.56   22.92
   5  -7   5   99.38   54.66
   7  -2  -4   21.94    5.74
   2   5   4   24.84    6.76
   7  -2  -4   21.59   10.17
   2   5   4   23.29    6.10
   5  -7   4   26.11   19.49
   2   5   3  833.49  122.53
   7  -2  -3  878.08  130.34
   2   5   3  782.88  115.01
   2   5   2  296.47   43.97
   5  -7   2  251.85   42.77
   7  -2  -2  283.53   43.65
   2   5   2  277.27   41.02
   2   5   1   44.69    7.40
   5  -7   1   20.67   20.22
   7  -2  -1   40.52    9.89
   2   5   1   46.24   11.37
   5  -7   1   31.70   21.63
   2   5   0  327.92   48.56
   5  -7   0  281.00   49.32
   7  -2   0  295.30   45.64
   2   5   0  333.32   49.31
   5  -7   0  318.64  135.60
   2   5  -1   45.76    8.00
   5  -7  -1   23.43   14.59
   7  -2   1   51.10   10.53
   2   5  -1   46.06    7.44
   5  -7  -1   31.70   27.12
   2   5  -2  278.48   41.35
   7  -2   2  296.44   43.69
   5  -7  -2  293.79   54.30
   7  -2   2  261.22   39.88
   2   5  -2  278.32   41.22
   5  -7  -2  226.94   39.65
   2   5  -3  888.66  130.69
   7  -2   3  904.64  132.85
   5  -7  -3  957.11  238.10
   7  -2   3  820.11  121.29
   2   5  -3  824.56  121.17
   5  -7  -3  852.74  130.52
   2   5  -4   22.75    7.24
   7  -2   4   22.82    7.58
   5  -7  -4   21.06   13.14
   7  -2   4   23.58    8.25
   5  -7  -4   33.45   18.80
   2   5  -5   92.21   22.26
   7  -2   5  104.70   24.94
   5  -7  -5   60.67   36.10
   7  -2   5   90.37   22.55
   5  -7  -5  121.81   35.00
   7  -2   5   89.27   26.12
   2   5  -6  203.49   48.44
   7  -2   6  222.20   52.66
   5  -7  -6  117.91   82.00
   7  -2   6  264.66   65.35
  -7   2  -7   29.14   13.41
   2   5  -7   29.37    7.83
   5  -7  -7   33.09   18.21
   7  -2   7   34.97   24.63
  -7   2  -8  401.43  114.15
   2   5  -8  313.82   86.71
   5  -7  -8  190.78   58.83
   7  -2   8  285.77   79.21
   7  -2   8  287.92   85.44
  -2  -5   8  303.02   84.19
  -7   2  -9  220.35   65.02
   2   5  -9  240.13   66.44
   5  -7  -9  163.58   99.45
   7  -2   9  226.93   64.83
   7  -2   9  272.89   99.51
  -2  -5   9  181.47   50.75
  -7   2 -10  291.37   84.34
   2   5 -10  227.53   64.14
   5  -7 -10  159.94  103.40
   7  -2  10  205.78   61.45
   7  -2  10  232.69   68.50
  -2  -5  10  226.46   64.53
  -7   2 -11  112.39   48.51
   2   5 -11   85.14   29.62
   5  -7 -11   34.73   27.87
   7  -2  11   81.67   23.83
   7  -2  11  130.46   50.62
  -2  -5  11   64.24   19.51
  -7   2 -12   19.35   12.05
   2   5 -12   22.97   11.68
   5  -7 -12   16.45   14.18
   7  -2  12   19.74   10.35
   7  -2  12   30.98   17.23
  -2  -5  12   18.42   11.91
  -7   2 -13   98.27   50.77
   2   5 -13   88.97   41.54
   5  -7 -13   68.70   83.03
   7  -2  13   82.04   38.56
   7  -2  13  133.01   66.32
  -2  -5  13   46.08   35.56
  -7   2 -14   33.87   33.55
   2   5 -14   46.14   22.14
   5  -7 -14   36.59   29.93
   7  -2  14   24.53   34.53
  -2  -5  14   24.44   20.87
  -7   2 -15   13.30   11.85
   2   5 -15   14.27    9.31
   5  -7 -15   13.74   10.79
   7  -2  15   13.08    7.92
   7  -2  15   15.19   11.50
  -2  -5  15    7.86    9.10
  -7   2 -16  360.70  140.03
   2   5 -16  309.49  118.09
   5  -7 -16  199.83  120.19
   7  -2  16  294.46  112.49
  -2  -5  16  198.77   76.51
  -1  -6 -14  114.97   82.49
   7  -1 -14  193.42   76.44
   6  -7  14  149.21   90.05
   7  -1 -13   32.48   18.73
   7  -1 -13   40.08   28.59
   6  -7  13   41.06   42.60
   7  -1 -12   62.41   45.61
   1   6  12   91.88   42.77
   6  -7  12   57.98   41.17
   7  -1 -11  229.42  106.36
   7  -1 -11  239.91  112.40
   1   6  11  241.23  111.82
   6  -7  11  215.73  162.90
  -1  -6 -10   21.06   15.35
   7  -1 -10   26.86    7.46
   7  -1 -10   20.48   13.35
   1   6  10   26.60    7.39
   6  -7  10   28.47   20.08
   7  -1  -9  171.57   44.09
   7  -1  -9  201.43   53.44
   1   6   9  197.98   50.86
   6  -7   9  134.88   68.51
   7  -1  -8   61.25   17.54
   1   6   8   69.62   20.00
   7  -1  -8   73.71   23.16
   1   6   8   72.03   20.53
   6  -7   8   58.80   33.21
   7  -1  -7   47.43   13.62
   1   6   7   26.40    7.86
   7  -1  -7   40.09   32.23
   1   6   7   32.21    9.51
   6  -7   7   27.37   19.30
   7  -1  -6   93.03   25.85
   1   6   6   92.80   26.39
   7  -1  -6   86.32   31.77
   1   6   6  104.73   29.81
   7  -1  -5  242.88   67.05
   1   6   5  258.09   71.29
   7  -1  -5  258.26   72.41
   1   6   5  282.44   77.94
   6  -7   5  258.55  116.71
   7  -1  -4  106.44   29.52
   1   6   4  138.13   38.37
   7  -1  -4  108.78   31.49
   1   6   4  142.79   39.54
   6  -7   4  109.54   75.57
   7  -1  -3   63.99   17.87
   1   6   3   64.56   18.20
   6  -7   3   29.20   23.64
   7  -1  -3   58.16   20.90
   1   6   3   63.98   17.85
   6  -7   3   46.24   27.16
   7  -1  -2  112.94   31.29
   1   6   2  109.30   30.51
   6  -7   2   51.95   32.69
   7  -1  -2  124.15   47.14
   1   6   2   78.26   21.75
   6  -7   2   76.17   45.61
   7  -1  -1  170.93   47.25
   1   6   1  137.30   38.11
   6  -7   1  112.35   33.31
   7  -1  -1  158.16   46.51
   6  -7   1  110.39   58.79
   7  -1   0   89.45   24.88
   1   6   0   87.73   24.54
   6  -7   0   84.75   39.42
   7  -1   0   82.42   24.90
   6  -7   0  102.62   68.49
   1   6  -1  160.96   44.59
   7  -1   1  143.18   39.63
   6  -7  -1  145.79   43.33
   7  -1   1  133.06   44.79
   6  -7  -1  141.83   87.31
   1   6  -2  124.58   34.65
   7  -1   2   95.13   26.45
   6  -7  -2   90.18   49.35
   7  -1   2   90.51   26.37
   6  -7  -2   95.90   66.61
   1   6  -3   63.27   17.84
   7  -1   3   67.55   18.89
   6  -7  -3   38.59   21.37
   7  -1   3   72.24   27.06
   6  -7  -3   30.78   19.58
   1   6  -4   98.43   27.47
   7  -1   4  142.80   39.54
   6  -7  -4  126.95   65.63
   7  -1   4  136.78   38.62
   6  -7  -4   71.21   42.97
   1   6  -5  223.90   61.91
   7  -1   5  266.96   73.69
   6  -7  -5  198.58   90.95
   7  -1   5  306.41   85.09
   1   6  -6   85.05   24.24
   7  -1   6   86.97   24.19
   6  -7  -6   69.84   53.02
   7  -1   6   73.90   21.60
   1   6  -7   39.14   13.30
   7  -1   7   28.01    8.36
   6  -7  -7   37.96   29.97
   7  -1   7   24.42    8.32
  -7   1  -8   47.07   30.93
   1   6  -8   58.37   20.76
   6  -7  -8   79.53   61.95
   7  -1   8   55.66   16.59
  -7   1  -9  216.00   63.06
   1   6  -9  195.52   50.35
   6  -7  -9  140.07   83.30
   7  -1   9  210.17   54.46
  -7   1 -10   16.51    6.86
   1   6 -10   24.06   10.35
   6  -7 -10   32.57   19.47
   7  -1  10   30.07   14.83
  -1  -6  10   22.43   17.23
  -7   1 -11  226.92  110.80
   1   6 -11  255.78  118.66
   6  -7 -11  160.85  100.91
   7  -1  11  236.39  109.85
  -1  -6  11  219.83  102.75
  -7   1 -12   77.62   50.94
   1   6 -12   79.73   37.26
   6  -7 -12   70.98   53.60
   7  -1  12   77.74   36.58
  -1  -6  12   61.56   29.96
  -7   1 -13   36.61   35.80
   1   6 -13   33.43   18.83
   6  -7 -13   50.30   37.27
  -1  -6  13   38.08   20.82
  -7   1 -14  170.92   73.77
   1   6 -14  171.78   65.69
   6  -7 -14  122.17  115.25
   7  -1  14  186.32   71.49
  -1  -6  14  136.97   53.60
   7   0 -11  236.25   90.07
   0   7  11  245.18   93.48
   7   0 -11  243.21   96.22
   7  -7  11  151.54  105.95
   7   0 -10   43.38   22.38
   0   7  10   47.57   24.59
   7   0 -10   32.06   28.41
   0   7  10   45.81   23.55
   7  -7  10   31.28   28.51
   7   0  -9  333.12  126.89
   0   7   9  325.06  123.84
   7   0  -9  352.67  135.40
   0   7   9  355.05  135.21
   7  -7   9  244.69  151.30
   7   0  -8   13.84   11.25
   0   7   8   18.20    8.95
   7   0  -8   16.57   11.73
   0   7   8   18.50    9.70
   7  -7   8   12.59   14.38
   7   0  -7   21.87   14.80
   0   7   7   30.86   14.61
   7   0  -7   24.34   20.58
   7  -7   7   37.61   29.30
   7   0  -6   60.77   28.80
   0   7   6   62.38   29.11
   7   0  -6   59.16   28.75
   7  -7   6   51.85   40.30
   7   0  -5  246.96   63.52
   0   7   5  241.07   61.88
   7  -7   5  191.88   52.25
   7   0  -5  265.43   69.10
   7  -7   5  213.32  101.37
   7   0  -4  124.98   32.22
   0   7   4  125.27   32.37
   7  -7   4  117.18   33.05
   7   0  -4  115.56   31.27
   7  -7   4   84.47   50.77
   7   0  -3  131.87   33.95
   0   7   3  139.29   35.94
   7  -7   3  122.33   33.97
   7   0  -3  147.92   39.03
   7  -7   3  117.66   88.65
   7   0  -2   86.45   22.41
   0   7   2   87.72   22.81
   7  -7   2   52.95   17.02
   7   0  -2   78.36   26.92
   7  -7   2   76.51   60.60
   7   0  -1  111.19   28.71
   0   7   1  105.39   27.28
   7  -7   1   83.47   25.16
   7   0  -1  107.75   29.06
   7  -7   1   80.60   49.73
   0   7   0   39.15   10.51
   7   0   0   40.97   10.86
   7  -7   0   39.24   16.65
   7   0   0   35.54   10.55
   7  -7   0   35.01   23.75
   0   7  -1   95.38   24.85
   7   0   1  118.88   30.69
   7  -7  -1   54.88   37.59
   7   0   1  140.49   37.27
   7  -7  -1   94.33   57.13
   0   7  -2   78.84   20.57
   7   0   2   93.98   24.34
   7  -7  -2   52.10   31.63
   7   0   2   98.25   26.59
   0   7  -3  124.67   32.17
   7   0   3  141.15   36.34
   7  -7  -3  104.56   64.05
   7   0   3  136.63   35.77
   7  -7  -3  139.06   40.85
   0   7  -4  112.64   29.12
   7   0   4  118.49   30.58
   7  -7  -4   97.87   46.08
   7   0   4  120.80   31.88
   0   7  -5  226.44   58.12
   7   0   5  249.68   64.03
   7  -7  -5  174.66   81.24
   7   0   5  252.11   65.28
   0   7  -6   52.74   24.95
   7   0   6   63.05   29.38
   7  -7  -6   51.30   32.92
   7   0   6   54.77   28.52
   0   7  -7   22.26   12.12
   7   0   7   31.06   14.65
   7  -7  -7   24.28   20.59
   7   0   7   29.63   14.50
   0   7  -8   14.10    8.40
   7   0   8   18.45   12.64
   7  -7  -8    7.61   10.99
   7   0   8   22.93   12.78
  -7   0  -9  350.17  135.27
   0   7  -9  320.38  122.22
   7  -7  -9  192.50  132.15
   7   0   9  351.34  134.18
  -7   0 -10   27.95   31.26
   0   7 -10   42.81   25.24
   7  -7 -10   41.17   31.57
   7   0  10   34.18   21.51
  -7   0 -11  283.32  110.19
   0   7 -11  231.05   88.17
   7  -7 -11  150.83  102.45
   7   0  11  236.94   90.75
  -1   8  -5   70.06   26.97
   7   1   5   73.86   28.39
   8  -7  -5   47.97   32.54
   7   1   5   62.28   31.89
  -1   8  -4   18.39    8.26
   7   1   4   21.57    8.74
   8  -7  -4   10.29   12.84
   7   1   4   15.36   13.20
  -1   8  -3  321.95  122.65
   7   1   3  369.09  140.59
   8  -7  -3  280.56  109.12
   7   1   3  324.73  124.03
  -1   8  -2  170.34   65.01
   7   1   2  186.19   71.05
   8  -7  -2  129.22   51.41
   7   1   2  186.53   71.66
  -1   8  -1   59.79   23.02
   7   1   1   66.09   25.87
   8  -7  -1   46.46   20.61
   7   1   1   72.39   34.30
   8  -7  -1   29.96   24.55
  -1   8   0  146.34   55.88
   7   1   0  153.12   58.47
   8  -7   0  110.03   43.87
   7   1   0  149.35   57.59
   8  -7   0  101.96   98.91
   7   1  -1   63.36   24.40
  -1   8   1   64.80   24.91
   8  -7   1   44.44   34.28
   7   1  -1   75.34   29.72
   8  -7   1   44.54   33.46
   7   1  -2  194.48   74.21
  -1   8   2  174.60   66.64
   8  -7   2  153.16   60.09
   7   1  -2  183.79   71.54
   8  -7   2  129.94   69.45
   7   1  -3  308.39  117.48
  -1   8   3  326.26  124.27
   8  -7   3  237.13   91.73
   7   1  -3  339.54  129.87
   8  -7   3  272.08  117.55
   7   1  -4   19.90    8.05
  -1   8   4   20.36    8.25
   8  -7   4   15.93   10.11
   7   1  -4   20.22   14.25
   8  -7   4   21.68   14.69
   7   1  -5   68.86   26.51
  -1   8   5   77.32   29.75
   8  -7   5   53.34   22.05
   7   1  -5   48.24   31.35
   8  -7   5   79.09   55.58
  -2   8  -9  104.61   40.12
   6   2   9  102.03   39.14
   8  -6  -9   79.61   57.17
   6   2   9   84.04   34.76
   2  -8   9   57.87   32.33
  -2   8  -8  219.19  111.79
   6   2   8  196.83  100.42
   8  -6  -8  195.82   90.16
   6   2   8  221.99  113.43
   2  -8   8  151.66   79.18
  -2   8  -7   41.26   21.48
   6   2   7   47.85   24.66
   8  -6  -7   44.26   26.31
   6   2   7   28.67   22.68
   2  -8   7   16.76   19.56
  -2   8  -6  204.57  104.33
   6   2   6  201.55  102.80
   8  -6  -6  176.60   91.96
   6   2   6  213.84  109.26
   2  -8   6  173.21   90.02
  -2   8  -5   37.41   19.77
   6   2   5   57.48   29.56
   8  -6  -5   29.78   23.66
   6   2   5   61.68   32.03
   2  -8   5   30.69   31.54
   6   2   4   89.08   41.49
   8  -6  -4   62.84   44.25
   6   2   4   82.22   42.66
   2  -8   4   37.31   37.57
   6   2   3   79.31   37.00
   8  -6  -3   71.73   36.28
   6   2   3   68.66   35.68
   6   2   2  180.10   83.57
   8  -6  -2  132.75   63.89
   6   2   2  164.77   76.76
  -2   8  -1  101.60   47.20
   6   2   1   94.12   43.80
   8  -6  -1   73.35   46.20
   6   2   1   81.47   38.20
  -2   8   0  104.47   48.50
   6   2   0  117.78   54.74
   8  -6   0  104.35   49.85
   6   2   0  132.16   61.73
   8  -6   0   74.40   54.94
  -2   8   1   96.38   44.79
   6   2  -1  111.91   52.03
   8  -6   1   72.43   43.71
   6   2  -1  126.28   59.13
   8  -6   1   94.20   72.95
   6   2  -2  188.07   87.24
  -2   8   2  171.91   79.72
   8  -6   2  143.51   67.54
   6   2  -2  175.71   81.78
   8  -6   2  164.61   93.97
   6   2  -3   76.77   35.79
  -2   8   3   70.99   33.04
   8  -6   3   61.77   45.10
   6   2  -3   66.28   32.73
   8  -6   3   64.90   58.80
   6   2  -4   66.49   31.02
  -2   8   4   96.27   44.74
   8  -6   4   61.00   37.71
   6   2  -4   75.01   39.24
   8  -6   4   56.59   48.49
   6   2  -5   38.98   20.17
  -2   8   5   56.93   29.17
   8  -6   5   50.84   27.08
   6   2  -5   33.19   21.59
   8  -6   5   29.17   33.76
   6   2  -6  199.23  101.63
  -2   8   6  229.92  117.23
   8  -6   6  156.45   80.42
   8  -6   6  116.23   73.03
   6   2  -7   39.59   20.53
  -2   8   7   41.93   21.57
   8  -6   7   29.51   26.38
   6   2  -7   24.07   23.26
   8  -6   7   29.53   29.40
   6   2  -8  216.59  110.48
  -2   8   8  201.33  102.66
   6   2  -8  214.22  109.77
   8  -6   8  163.43   62.98
   8  -6   8  144.60   98.45
   6   2  -9   96.97   37.21
  -2   8   9  106.99   40.93
   6   2  -9   91.04   36.20
   8  -6   9   62.72   28.78
   8  -6   9  104.40   64.93
  -5  -3 -11   95.05   49.11
  -3   8 -11  143.97   55.22
   8  -5 -11   99.91   81.37
   5   3  11   94.47   36.36
   3  -8  11   58.42   46.23
  -5  -3 -10   21.71   16.01
  -3   8 -10   14.04    8.60
   8  -5 -10   15.57   13.06
   5   3  10   19.41   12.12
   3  -8  10   10.03   11.71
   8  -5  -9  140.59   81.48
   5   3   9  157.69   80.62
   3  -8   9   95.17   69.87
  -3   8  -8  267.27  136.22
   5   3   8  309.04  157.55
   8  -5  -8  313.05  121.76
   5   3   8  318.32  121.44
   3  -8   8  297.69  154.36
  -3   8  -7   68.25   31.78
   5   3   7   74.68   34.86
   8  -5  -7   79.83   57.75
   5   3   7   74.62   34.89
   3  -8   7   48.84   48.25
  -3   8  -6   70.37   32.75
   8  -5  -6   57.13   46.33
   5   3   6   59.31   31.51
   3  -8   6   34.69   33.96
  -3   8  -5   32.21    8.58
   5   3   5   27.50    8.42
   3  -8   5   28.66   18.09
  -3   8  -4  102.76   26.52
   8  -5  -4  106.31   30.91
   5   3   4  113.52   29.71
   3  -8   4   75.72   61.57
  -3   8  -3   79.78   20.66
   8  -5  -3   64.65   30.23
   5   3   3   80.06   21.26
   3  -8   3   57.19   41.54
  -3   8  -2  304.22   77.93
   8  -5  -2  270.98   71.18
   5   3   2  327.13   84.03
   3  -8   2  316.09   85.49
  -3   8  -1  102.60   26.44
   8  -5  -1  112.70   31.50
   5   3   1  119.48   31.21
   3  -8   1   85.29   60.91
  -3   8   0   21.06    5.81
   8  -5   0   17.28   14.04
   5   3   0   17.17   12.59
   3  -8   0   10.94   15.31
  -3   8   1  110.78   28.53
   8  -5   1  107.20   29.83
   5   3  -1  120.83   31.74
   8  -5   1   91.25   42.58
   3  -8  -1   60.61   50.96
  -3   8   2  353.44   90.45
   8  -5   2  288.97   75.37
   5   3  -2  341.88   87.95
   8  -5   2  276.06   75.70
   3  -8  -2  312.36   83.47
  -3   8   3   83.66   21.64
   8  -5   3   50.74   18.56
   5   3  -3   80.15   21.38
   3  -8  -3   81.53   48.25
   8  -5   3   86.93   61.76
   5   3  -4  119.04   30.88
  -3   8   4   95.81   24.71
   8  -5   4   97.49   26.77
   5   3  -4  107.87   28.41
   8  -5   4   86.28   39.57
   5   3  -5   33.23    9.78
  -3   8   5   37.01    9.87
   8  -5   5   23.06    8.66
   5   3  -5   27.39   20.66
   8  -5   5   24.81   18.02
   5   3  -6   71.60   33.45
  -3   8   6   76.58   35.61
   5   3  -6   65.11   33.79
   8  -5   6   59.34   28.62
   8  -5   6   95.52   61.80
   5   3  -7   77.98   36.40
  -3   8   7   86.33   40.13
   5   3  -7   73.01   39.36
   8  -5   7   59.18   30.41
   8  -5   7   48.44   42.79
   5   3  -8  302.07  153.99
  -3   8   8  328.13  124.94
   5   3  -8  351.06  134.23
   8  -5   8  267.13  136.58
   8  -5   8  230.61  133.14
   5   3  -9  155.62   79.48
   5   3  -9  150.78   77.65
   8  -5   9  134.59   69.17
   8  -5   9   97.58   80.41
   5   3 -10   16.30   12.84
   5   3 -10   19.05   11.28
   8  -5  10   15.85   16.49
   8  -5  10   12.50   14.75
   5   3 -11  108.17   41.75
   8  -5  11   79.79   31.10
   8  -5  11   99.57   83.09
  -4  -4 -12   46.15   29.56
   8  -4 -12   36.10   20.90
   4   4  12   50.76   19.84
   4  -8  12   42.12   30.65
  -4  -4 -11   76.73   57.46
   8  -4 -11   69.89   46.48
   4   4  11   99.56   38.28
   4  -8  11   54.48   39.03
  -4  -4 -10   94.89   78.37
   8  -4 -10  107.17   57.19
   4   4  10   97.65   50.00
   4  -8  10   94.36   78.10
   4   4   9  159.59   81.47
   8  -4  -9  163.43   85.85
   4   4   9  163.20   83.35
   4  -8   9  103.39   90.00
   4   4   8  161.07   74.78
   8  -4  -8  107.47   55.96
   4   4   8  161.10   74.83
   4  -8   8  146.11  121.92
   4   4   7   74.60   34.79
   8  -4  -7   68.27   43.30
   4   4   7   76.29   35.69
   4  -8   7   47.75   42.51
   4   4   6   95.32   24.91
   4  -8   6   65.06   54.14
   8  -4  -5  109.85   42.30
   4   4   5  121.18   31.51
   4  -8   5   59.57   42.96
   8  -4  -4   31.58   19.29
   4   4   4   29.71   12.08
   4  -8   4   28.30   19.82
   8  -4  -3  446.47  126.45
   4   4   3  555.68  156.02
   4  -8   3  620.27  162.42
   8  -4  -2  227.26   65.43
   4   4   2  244.35   68.87
   4  -8   2  245.36   73.69
   8  -4  -1  114.26   34.35
   4   4   1  115.89   32.96
   4  -8   1   65.99   50.63
   8  -4   0  109.34   32.10
   4   4   0  141.57   40.58
   4  -8   0  151.79   47.69
   8  -4   1  102.46   30.37
   4   4  -1  115.24   32.86
   4  -8  -1   76.66   48.12
   4   4  -2  264.18   74.52
   4  -8  -2  216.94   64.42
   4   4  -3  558.13  156.66
   4   4  -3  580.21  148.59
   8  -4   3  555.97  162.53
   4  -8  -3  563.07  160.55
   4   4  -4   33.45    9.40
   8  -4   4   25.48   11.65
   4   4  -4   27.07    8.84
   4  -8  -4   13.31   13.22
   8  -4   4   23.19   12.14
   4   4  -5  106.58   27.71
   4   4  -5  115.00   30.18
   8  -4   5   99.77   26.72
   8  -4   5  104.64   60.09
   4   4  -6   90.50   23.62
   4   4  -6   94.08   25.12
   8  -4   6   77.34   21.23
   8  -4   6   82.79   38.36
   4   4  -7   78.22   36.50
   8  -4   7   67.91   32.18
   8  -4   7   51.95   45.01
   4   4  -8  155.01   71.98
   8  -4   8  125.07   58.44
   8  -4   8  183.61   88.20
   4   4  -9  170.73   87.18
   8  -4   9  129.21   66.34
   8  -4   9  120.86   74.17
   4   4 -10  106.94   54.76
   8  -4  10   90.28   46.62
   8  -4  10   91.29   60.55
   4   4 -11   95.79   36.83
   8  -4  11   91.11   35.59
   8  -4  11   65.24   48.02
   4   4 -12   42.52   20.44
   8  -4  12   39.52   19.28
   8  -4  12   40.24   27.30
  -3  -5 -11   71.61   35.71
   8  -3 -11  104.89   50.39
   3   5  11  115.61   44.31
   5  -8  11   63.88   52.70
   8  -3 -10   15.76   13.76
   3   5  10   12.22   10.76
   5  -8  10   13.19   12.42
   3   5   9  144.66   73.89
   8  -3  -9  138.33   73.30
   5  -8   9   75.88   68.71
   3   5   8  259.83  132.48
   8  -3  -8  272.02  139.73
   3   5   8  280.04  142.78
   5  -8   8  214.54  113.37
   3   5   7   57.12   26.79
   8  -3  -7   50.83   40.19
   3   5   7   56.36   26.78
   5  -8   7   30.40   39.87
   3   5   6  115.77   53.81
   8  -3  -6  123.72   69.25
   3   5   6  123.70   57.49
   5  -8   6   88.70   65.31
   3   5   5   48.82   13.18
   8  -3  -5   31.51   11.81
   3   5   5   48.66   12.95
   5  -8   5   30.34   20.06
   3   5   4   75.59   19.85
   8  -3  -4   56.47   30.45
   3   5   4   65.33   17.15
   5  -8   4   79.22   60.48
   3   5   3   97.70   25.46
   8  -3  -3   95.09   32.32
   3   5   3   87.68   22.81
   5  -8   3   85.25   42.72
   3   5   2  262.01   67.31
   8  -3  -2  267.72   69.99
   3   5   2  243.20   62.48
   5  -8   2  238.06   67.64
   3   5   1   84.45   22.07
   8  -3  -1   75.87   27.20
   3   5   1   79.21   20.67
   5  -8   1   58.39   43.71
   3   5   0   21.70    6.55
   8  -3   0   20.42    9.00
   3   5   0   14.95    9.81
   5  -8   0   31.06   28.13
   3   5  -1   78.60   20.62
   3   5  -1   86.39   22.55
   5  -8  -1   61.91   54.73
   3   5  -2  232.58   59.80
   8  -3   2  208.92   55.65
   5  -8  -2  314.18   86.01
   3   5  -3   93.67   24.41
   8  -3   3   82.95   28.18
   5  -8  -3   62.52   37.63
   3   5  -4   65.99   17.51
   8  -3   4   50.27   25.54
   5  -8  -4   48.80   36.88
   3   5  -5   36.01   10.52
   8  -3   5   45.27   18.55
   8  -3   5   38.39   25.74
   3   5  -6  123.72   57.52
   5  -8  -6   43.07   40.77
   8  -3   6  107.83   51.84
   8  -3   6   86.30   41.86
   3   5  -7   55.92   26.33
   5  -8  -7   24.46   25.16
   8  -3   7   44.80   21.67
   8  -3   7   60.17   38.69
   3   5  -8  280.30  142.92
   5  -8  -8  132.30  111.04
   3   5  -9  147.66   75.46
   5  -8  -9  110.08   96.73
   8  -3   9  130.95  102.43
   3   5 -10   19.53   12.47
   5  -8 -10   18.09   18.60
   8  -3  10   11.09    9.87
   8  -3  10   23.67   18.17
   3   5 -11  102.88   39.50
   5  -8 -11   49.77   50.46
   8  -3  11  106.85   41.44
   8  -3  11  111.85   87.79
   2   6   9  117.88   45.12
   8  -2  -9  132.75   62.81
   2   6   9  140.94   53.88
   6  -8   9  103.08   65.83
   2   6   8  238.22   90.86
   8  -2  -8  217.93  112.26
   2   6   8  245.06   93.42
   6  -8   8  175.68  117.11
   2   6   7   57.88   29.73
   8  -2  -7   58.09   49.82
   2   6   7   63.31   32.48
   6  -8   7   48.37   46.57
   2   6   6  140.61   71.82
   8  -2  -6  132.35   68.61
   2   6   6  136.38   69.63
   2   6   5   31.40   16.36
   8  -2  -5   31.70   30.34
   2   6   5   24.64   14.97
   2   6   4   97.90   45.61
   8  -2  -4  110.72   58.28
   6  -8   4   62.55   67.86
   2   6   3   94.82   44.16
   8  -2  -3   97.98   47.17
   6  -8   3   55.60   50.68
   2   6   2  255.84  118.60
   8  -2  -2  247.82  115.53
   6  -8   2  194.95   94.14
   2   6   1  151.25   70.24
   8  -2  -1  126.91   61.40
   6  -8   1  130.14   81.29
   2   6   0   86.81   40.45
   8  -2   0   98.19   46.47
   6  -8   0   60.61   49.37
   2   6  -1  123.84   57.53
   8  -2   1  131.73   61.86
   6  -8  -1   97.97   80.73
   2   6  -2  231.48  107.33
   8  -2   2  235.21  109.98
   6  -8  -2  185.40   97.19
   2   6  -3   90.17   41.98
   8  -2   3   80.78   38.25
   6  -8  -3   52.15   51.74
   2   6  -4  100.82   46.93
   6  -8  -4   43.86   33.72
   8  -2   4  105.65   49.95
   6  -8  -4   77.97   71.95
   2   6  -5   39.38   20.34
   6  -8  -5   27.70   26.72
   8  -2   5   29.83   19.50
   2   6  -6  132.52   67.70
   6  -8  -6   82.50   75.30
   8  -2   6  126.60   65.15
   2   6  -7   59.77   30.69
   6  -8  -7   47.85   33.79
   2   6  -8  231.60   88.39
   6  -8  -8  112.43   88.59
   2   6  -9  143.86   55.06
   6  -8  -9   89.10   45.58
   8  -2   9  139.44   53.87
   1   7   5  104.71   40.19
   8  -1  -5   98.25   53.40
   7  -8   5   88.40   63.58
   1   7   4   29.23   12.07
   8  -1  -4   35.32   18.37
   7  -8   4   25.38   25.46
   1   7   3  372.24  141.81
   8  -1  -3  402.48  154.12
   7  -8   3  363.87  143.69
   1   7   2  181.41   69.28
   8  -1  -2  172.94   66.99
   7  -8   2  155.60  124.67
   1   7   1   43.41   16.90
   8  -1  -1   38.15   19.95
   7  -8   1   42.24   35.95
   1   7   0   98.26   37.70
   8  -1   0   90.28   35.66
   7  -8   0   87.91   70.58
   1   7  -1   47.25   18.39
   8  -1   1   33.43   30.32
   7  -8  -1   49.29   55.88
   1   7  -2  165.92   63.39
   8  -1   2  165.55   63.89
   7  -8  -2  144.36   58.89
   1   7  -3  341.70  130.17
   7  -8  -3  295.03  159.21
   8  -1   3  398.36  152.27
   1   7  -4   25.46   10.29
   7  -8  -4    5.70   14.74
   8  -1   4   30.11   14.01
   1   7  -5   95.83   36.76
   7  -8  -5   38.76   30.73
   8  -1   5  110.04   43.62
   0   0   0    0.00    0.00
;
_shelx_hkl_checksum              15566
loop_
_space_group_symop_operation_xyz
'x, y, z'
'-y, x-y, z+2/3'
'-x+y, -x, z+1/3'
'-x, -y, z+1/2'
'y, -x+y, z+1/6'
'x-y, x, z+5/6'
loop_
_atom_site_label
_atom_site_type_symbol
_atom_site_fract_x
_atom_site_fract_y
_atom_site_fract_z
_atom_site_U_iso_or_equiv
_atom_site_adp_type
_atom_site_occupancy
_atom_site_site_symmetry_order
_atom_site_calc_flag
_atom_site_refinement_flags_posn
_atom_site_refinement_flags_adp
_atom_site_refinement_flags_occupancy
_atom_site_disorder_assembly
_atom_site_disorder_group
Y1 Y -0.3297(6) -0.3255(4) 0.1237(2) 0.0118(5) Uani 1 1 d . . . . .
I1 I 0.3404(3) -0.0299(3) 0.14676(5) 0.0119(5) Uani 1 1 d . . . . .
I2 I -0.0320(4) 0.3086(3) 0.10201(8) 0.0149(5) Uani 1 1 d . . . . .
O1 O 0.022(4) 0.421(3) 0.0247(10) 0.020(5) Uani 1 1 d . U . . .
O2 O -0.196(4) 0.416(4) 0.1338(10) 0.018(5) Uani 1 1 d . U . . .
O3 O -0.261(4) 0.029(3) 0.0781(12) 0.035(6) Uani 1 1 d . . . . .
O4 O -0.688(3) -0.299(3) 0.1272(9) 0.010(4) Uani 1 1 d . U . . .
O5 O 0.369(3) -0.029(3) 0.2275(10) 0.017(4) Uani 1 1 d . U . . .
O6 O 0.055(4) -0.098(4) 0.1429(13) 0.031(6) Uani 1 1 d . U . . .
F1 F -0.294(3) -0.095(3) 0.1998(10) 0.033(5) Uani 1 1 d . . . . .
loop_
_atom_site_aniso_label
_atom_site_aniso_U_11
_atom_site_aniso_U_22
_atom_site_aniso_U_33
_atom_site_aniso_U_23
_atom_site_aniso_U_13
_atom_site_aniso_U_12
Y1 0.0103(14) 0.0145(14) 0.0088(11) 0.0012(15) 0.0035(11) 0.0049(12)
I1 0.0087(9) 0.0147(11) 0.0123(11) -0.0009(9) -0.0003(8) 0.0059(9)
I2 0.0149(10) 0.0190(12) 0.0157(13) 0.0023(9) 0.0005(10) 0.0121(8)
O1 0.022(6) 0.017(6) 0.013(7) 0.002(5) 0.001(5) 0.005(5)
O2 0.021(7) 0.017(6) 0.017(7) 0.001(5) 0.000(5) 0.011(5)
O3 0.032(12) 0.015(11) 0.050(18) 0.003(11) -0.010(12) 0.007(10)
O4 0.010(6) 0.007(6) 0.009(6) 0.000(5) 0.002(5) 0.002(5)
O5 0.020(6) 0.013(6) 0.018(7) 0.000(5) 0.001(5) 0.008(5)
O6 0.028(7) 0.033(7) 0.041(8) -0.001(5) 0.000(5) 0.022(5)
F1 0.016(9) 0.034(11) 0.020(12) -0.013(9) 0.008(8) -0.008(8)
loop_
_atom_type_symbol
_atom_type_description
_atom_type_scat_dispersion_real
_atom_type_scat_dispersion_imag
_atom_type_scat_source
O O 0.0106 0.0060 'International Tables Vol C Tables 4.2.6.8 and 6.1.1.4'
F F 0.0171 0.0103 'International Tables Vol C Tables 4.2.6.8 and 6.1.1.4'
Y Y -2.7962 3.5667 'International Tables Vol C Tables 4.2.6.8 and 6.1.1.4'
I I -0.4742 1.8119 'International Tables Vol C Tables 4.2.6.8 and 6.1.1.4'
loop_
_geom_angle_atom_site_label_1
_geom_angle_atom_site_label_2
_geom_angle_atom_site_label_3
_geom_angle
_geom_angle_site_symmetry_1
_geom_angle_site_symmetry_3
_geom_angle_publ_flag
F1 Y1 F1 136.8(7) 6_554 . ?
F1 Y1 O1 140.3(7) 6_554 5_445 ?
F1 Y1 O1 82.9(7) . 5_445 ?
F1 Y1 O6 79.6(9) 6_554 . ?
F1 Y1 O6 72.7(8) . . ?
O1 Y1 O6 123.5(9) 5_445 . ?
F1 Y1 O2 82.1(7) 6_554 1_545 ?
F1 Y1 O2 120.8(8) . 1_545 ?
O1 Y1 O2 74.8(8) 5_445 1_545 ?
O6 Y1 O2 75.7(9) . 1_545 ?
F1 Y1 O5 70.5(7) 6_554 6_444 ?
F1 Y1 O5 143.6(7) . 6_444 ?
O1 Y1 O5 74.0(7) 5_445 6_444 ?
O6 Y1 O5 143.6(8) . 6_444 ?
O2 Y1 O5 79.9(7) 1_545 6_444 ?
F1 Y1 O3 70.1(8) 6_554 . ?
F1 Y1 O3 72.6(8) . . ?
O1 Y1 O3 139.6(8) 5_445 . ?
O6 Y1 O3 79.5(9) . . ?
O2 Y1 O3 145.5(8) 1_545 . ?
O5 Y1 O3 108.2(8) 6_444 . ?
F1 Y1 O4 113.1(7) 6_554 . ?
F1 Y1 O4 72.3(6) . . ?
O1 Y1 O4 72.3(7) 5_445 . ?
O6 Y1 O4 138.8(7) . . ?
O2 Y1 O4 142.5(8) 1_545 . ?
O5 Y1 O4 74.1(6) 6_444 . ?
O3 Y1 O4 69.9(7) . . ?
O6 I1 O5 98.9(11) . . ?
O6 I1 O4 100.3(10) . 1_655 ?
O5 I1 O4 101.1(9) . 1_655 ?
O2 I2 O1 102.9(10) . . ?
O2 I2 O3 99.0(11) . . ?
O1 I2 O3 93.7(11) . . ?
I2 O1 Y1 145.8(12) . 6_564 ?
I2 O2 Y1 146.9(12) . 1_565 ?
I2 O3 Y1 123.9(12) . . ?
I1 O4 Y1 117.6(9) 1_455 . ?
I1 O5 Y1 130.9(11) . 5_655 ?
I1 O6 Y1 156.2(13) . . ?
Y1 F1 Y1 158.0(10) 5 . ?
loop_
_geom_bond_atom_site_label_1
_geom_bond_atom_site_label_2
_geom_bond_distance
_geom_bond_site_symmetry_2
_geom_bond_publ_flag
Y1 F1 2.14(2) 6_554 ?
Y1 F1 2.22(2) . ?
Y1 O1 2.33(2) 5_445 ?
Y1 O6 2.33(3) . ?
Y1 O2 2.37(2) 1_545 ?
Y1 O5 2.41(2) 6_444 ?
Y1 O3 2.44(2) . ?
Y1 O4 2.55(2) . ?
I1 O6 1.77(2) . ?
I1 O5 1.77(2) . ?
I1 O4 1.804(18) 1_655 ?
I2 O2 1.77(2) . ?
I2 O1 1.81(2) . ?
I2 O3 1.84(2) . ?
