#------------------------------------------------------------------------------
#$Date: 2020-06-27 02:10:35 +0300 (Sat, 27 Jun 2020) $
#$Revision: 253489 $
#$URL: file:///home/coder/svn-repositories/cod/cif/1/55/84/1558432.cif $
#------------------------------------------------------------------------------
#
# This file is available in the Crystallography Open Database (COD),
# http://www.crystallography.net/
#
# All data on this site have been placed in the public domain by the
# contributors.
#
data_1558432
loop_
_publ_author_name
'Habel, Deenamma'
'Nair, Divya S.'
'Kallingathodi, Zabeera'
'Mohan, Chithra'
'Pillai, Sarath M.'
'Nair, Rani R.'
'Thomas, Grace'
'Haleema, Simimole'
'Gopinath, Chithra'
'Abdul, Rinshad V.'
'Fritz, Matthew'
'Puente, Andrew R.'
'Johnson, Jordan L.'
'Polavarapu, Prasad L.'
'Ibnusaud, Ibrahim'
_publ_section_title
;
 Natural Product-Derived Chiral Pyrrolidine-2,5-diones, Their Molecular
 Structures and Conversion to Pharmacologically Important Skeletons.
;
_journal_name_full               'Journal of natural products'
_journal_paper_doi               10.1021/acs.jnatprod.0c00211
_journal_year                    2020
_chemical_formula_sum            'C16 H18 N2 O4'
_chemical_formula_weight         302.32
_space_group_crystal_system      monoclinic
_space_group_IT_number           4
_space_group_name_Hall           'P 2yb'
_space_group_name_H-M_alt        'P 1 21 1'
_atom_sites_solution_hydrogens   mixed
_audit_creation_method           SHELXL-2014/7
_cell_angle_alpha                90
_cell_angle_beta                 93.200(3)
_cell_angle_gamma                90
_cell_formula_units_Z            2
_cell_length_a                   5.6660(3)
_cell_length_b                   9.3371(7)
_cell_length_c                   12.7013(9)
_cell_measurement_reflns_used    3239
_cell_measurement_temperature    296(2)
_cell_measurement_theta_max      27.23
_cell_measurement_theta_min      2.71
_cell_volume                     670.90(8)
_computing_cell_refinement       'Bruker SAINT'
_computing_data_collection       'Bruker APEX2'
_computing_data_reduction        'Bruker SAINT'
_computing_molecular_graphics    'Bruker SHELXTL'
_computing_publication_material  'Bruker SHELXTL'
_computing_structure_refinement  'SHELXL-2014 (Sheldrick, 2014)'
_computing_structure_solution    'SHELXS-97 (Sheldrick 2008)'
_diffrn_ambient_temperature      296(2)
_diffrn_measured_fraction_theta_full 0.996
_diffrn_measured_fraction_theta_max 0.996
_diffrn_measurement_device_type  'Bruker APEX-II CCD'
_diffrn_measurement_method       '\f and \w scans'
_diffrn_radiation_type           MoK\a
_diffrn_radiation_wavelength     0.71073
_diffrn_reflns_av_R_equivalents  0.0213
_diffrn_reflns_av_unetI/netI     0.0259
_diffrn_reflns_Laue_measured_fraction_full 0.996
_diffrn_reflns_Laue_measured_fraction_max 0.996
_diffrn_reflns_limit_h_max       4
_diffrn_reflns_limit_h_min       -6
_diffrn_reflns_limit_k_max       11
_diffrn_reflns_limit_k_min       -8
_diffrn_reflns_limit_l_max       15
_diffrn_reflns_limit_l_min       -15
_diffrn_reflns_number            5256
_diffrn_reflns_point_group_measured_fraction_full 0.878
_diffrn_reflns_point_group_measured_fraction_max 0.878
_diffrn_reflns_theta_full        24.985
_diffrn_reflns_theta_max         24.985
_diffrn_reflns_theta_min         1.606
_exptl_absorpt_coefficient_mu    0.109
_exptl_absorpt_correction_T_max  0.97
_exptl_absorpt_correction_T_min  0.96
_exptl_absorpt_correction_type   multi-scan
_exptl_absorpt_process_details   'SADABS (Bruker, 2012)'
_exptl_crystal_colour            colourless
_exptl_crystal_density_diffrn    1.497
_exptl_crystal_description       Rectangular
_exptl_crystal_F_000             320
_exptl_crystal_size_max          0.350
_exptl_crystal_size_mid          0.260
_exptl_crystal_size_min          0.120
_refine_diff_density_max         0.365
_refine_diff_density_min         -0.223
_refine_diff_density_rms         0.063
_refine_ls_abs_structure_details
;
 Flack x determined using 751 quotients [(I+)-(I-)]/[(I+)+(I-)]
 (Parsons, Flack and Wagner, Acta Cryst. B69 (2013) 249-259).
;
_refine_ls_abs_structure_Flack   -0.6(4)
_refine_ls_extinction_coef       0.030(9)
_refine_ls_extinction_expression Fc^*^=kFc[1+0.001xFc^2^\l^3^/sin(2\q)]^-1/4^
_refine_ls_extinction_method     'SHELXL-2014/7 (Sheldrick 2014'
_refine_ls_goodness_of_fit_ref   1.173
_refine_ls_hydrogen_treatment    mixed
_refine_ls_matrix_type           full
_refine_ls_number_parameters     210
_refine_ls_number_reflns         2072
_refine_ls_number_restraints     1
_refine_ls_restrained_S_all      1.173
_refine_ls_R_factor_all          0.0490
_refine_ls_R_factor_gt           0.0472
_refine_ls_shift/su_max          0.000
_refine_ls_shift/su_mean         0.000
_refine_ls_structure_factor_coef Fsqd
_refine_ls_weighting_details
'w=1/[\s^2^(Fo^2^)+(0.0628P)^2^+0.7818P] where P=(Fo^2^+2Fc^2^)/3'
_refine_ls_weighting_scheme      calc
_refine_ls_wR_factor_gt          0.1390
_refine_ls_wR_factor_ref         0.1404
_reflns_Friedel_coverage         0.652
_reflns_Friedel_fraction_full    0.744
_reflns_Friedel_fraction_max     0.744
_reflns_number_gt                1990
_reflns_number_total             2072
_reflns_threshold_expression     'I > 2\s(I)'
_cod_data_source_file            np0c00211_si_006.cif
_cod_data_source_block           gatrrn
_cod_original_sg_symbol_H-M      'P 21'
_cod_database_code               1558432
_shelx_shelxl_version_number     2014/7
_shelx_space_group_comment
;
The symmetry employed for this shelxl refinement is uniquely defined
by the following loop, which should always be used as a source of
symmetry information in preference to the above space-group names.
They are only intended as comments.
;
_shelx_estimated_absorpt_t_min   0.963
_shelx_estimated_absorpt_t_max   0.987
_shelx_res_file
;

    gatrrn.res created by SHELXL-2014/7

TITL gatrrn in P2(1)
CELL 0.71073   5.66600   9.33710  12.70130  90.0000  93.1997  90.0000
ZERR    2.00   0.00030   0.00070   0.00090   0.0000   0.0030   0.0000
LATT -1
SYMM -X, 0.5+Y, -Z
SFAC C  H  N  O
UNIT 32  36  4  8
OMIT -3 50
L.S. 8
ACTA
BOND $H
FMAP 2
PLAN 1
CONF
SIZE 0.12 0.26 0.35
FREE O3   H3O
TEMP 23.000
WGHT    0.062800    0.781800
EXTI    0.029717
FVAR       0.36452
C1    1    1.159059    0.495452    0.314729    11.00000    0.03029    0.02751 =
         0.03005    0.00229    0.00125   -0.00200
AFIX  43
H1    2    1.291728    0.521443    0.279244    11.00000   -1.20000
AFIX   0
C2    1    1.053156    0.589746    0.380757    11.00000    0.04363    0.02269 =
         0.03442   -0.00249   -0.00466   -0.00046
AFIX  43
H2    2    1.116298    0.681109    0.390037    11.00000   -1.20000
AFIX   0
C3    1    0.852945    0.551891    0.434345    11.00000    0.04241    0.02552 =
         0.03465   -0.00551    0.00512    0.00922
AFIX  43
H3    2    0.786431    0.618207    0.478591    11.00000   -1.20000
AFIX   0
C4    1    0.752984    0.417941    0.422539    11.00000    0.03184    0.03071 =
         0.02979    0.00028    0.00792    0.00188
AFIX  43
H4    2    0.619719    0.393697    0.458215    11.00000   -1.20000
AFIX   0
C5    1    0.855177    0.318936    0.356006    11.00000    0.02615    0.02238 =
         0.02648   -0.00052    0.00000    0.00149
C6    1    0.808239    0.171912    0.329556    11.00000    0.02042    0.02411 =
         0.02538   -0.00052    0.00039   -0.00228
C7    1    0.628825    0.072528    0.369541    11.00000    0.03157    0.03382 =
         0.02798   -0.00124    0.00817   -0.00454
AFIX  23
H7A   2    0.480065    0.084932    0.328970    11.00000   -1.20000
H7B   2    0.603198    0.094851    0.442611    11.00000   -1.20000
AFIX   0
C8    1    0.710674   -0.082159    0.360996    11.00000    0.03349    0.03032 =
         0.02238    0.00197    0.00424   -0.00663
AFIX  23
H8A   2    0.827398   -0.103085    0.417688    11.00000   -1.20000
H8B   2    0.577469   -0.146104    0.367811    11.00000   -1.20000
AFIX   0
C9    1    0.756268   -0.214221    0.193245    11.00000    0.02596    0.01884 =
         0.02788    0.00216   -0.00321   -0.00118
C10   1    0.919429   -0.207596    0.103979    11.00000    0.03121    0.02301 =
         0.02850   -0.00322    0.00256   -0.00192
AFIX  23
H10A  2    0.834187   -0.226912    0.037132    11.00000   -1.20000
H10B  2    1.046623   -0.276600    0.114192    11.00000   -1.20000
AFIX   0
C11   1    1.015626   -0.055030    0.106970    11.00000    0.01712    0.01727 =
         0.02705    0.00052   -0.00101    0.00299
C12   1    1.013762   -0.020305    0.227025    11.00000    0.02081    0.02239 =
         0.02357    0.00189   -0.00118   -0.00438
AFIX  13
H12   2    1.159314   -0.057332    0.262424    11.00000   -1.20000
AFIX   0
C13   1    0.976497    0.130793    0.262331    11.00000    0.02186    0.02350 =
         0.02165   -0.00202   -0.00136   -0.00292
C14   1    1.059279    0.359137    0.303148    11.00000    0.02572    0.02332 =
         0.02170    0.00109    0.00166   -0.00117
C15   1    1.264705   -0.043919    0.066484    11.00000    0.01587    0.01882 =
         0.03241   -0.00110    0.00007    0.00458
AFIX  13
H15   2    1.367602   -0.112778    0.104968    11.00000   -1.20000
AFIX   0
C16   1    1.264745   -0.077549   -0.051974    11.00000    0.02036    0.02311 =
         0.03561   -0.00639    0.00320   -0.00102
AFIX  23
H16A  2    1.224213   -0.177403   -0.063848    11.00000   -1.20000
H16B  2    1.146761   -0.019253   -0.090045    11.00000   -1.20000
AFIX   0
N1    3    1.129834    0.242685    0.246632    11.00000    0.02542    0.02509 =
         0.02807   -0.00161    0.00790   -0.00662
N2    3    0.813423   -0.105858    0.259477    11.00000    0.02482    0.02526 =
         0.02656   -0.00179    0.00444   -0.00507
O1    4    0.595104   -0.301041    0.204439    11.00000    0.03444    0.02815 =
         0.03727    0.00019    0.00304   -0.00980
O2    4    0.853164    0.041247    0.053658    11.00000    0.02132    0.02665 =
         0.02949    0.00250   -0.00098    0.00246
AFIX 147
H2A   2    0.776979   -0.001860    0.006902    11.00000   -1.50000
AFIX   0
O3    4    1.352093    0.097293    0.087588    11.00000    0.01845    0.03046 =
         0.03595   -0.00528    0.00595   -0.00648
AFIX 147
H3A   2    1.496004    0.098223    0.083490    11.00000   -1.50000
AFIX   0
O4    4    1.494312   -0.048907   -0.090733    11.00000    0.02251    0.03512 =
         0.02989    0.00249    0.00475    0.00625
H1O   2    1.469158    0.017562   -0.129075    11.00000    0.03061
H1N   2    1.224839    0.241580    0.203896    11.00000    0.00746
HKLF 4

REM  gatrrn in P2(1)
REM R1 =  0.0472 for    1990 Fo > 4sig(Fo)  and  0.0490 for all    2072 data
REM    210 parameters refined using      1 restraints

END

WGHT      0.0688      0.7901

REM Highest difference peak  0.365,  deepest hole -0.223,  1-sigma level  0.063
Q1    1   0.7431 -0.0563 -0.0835  11.00000  0.05    0.37
;
_shelx_res_checksum              14919
_shelx_hkl_file
;
  -3   0   0   14.39    0.33
  -3   0   0   14.21    0.32
  -4   0   0   13.57    0.35
  -5   0   0    3.26    0.16
  -6   0   0    5.68    0.65
  -6   0   0    4.99    0.21
  -7   0   0    1.96    0.46
   0  -1   0   -0.39    0.04
   0   1   0   -0.51    0.03
   0   1   0   -0.39    0.04
  -1  -1   0   35.50    0.72
  -1  -1   0   34.42    0.71
   1  -1   0   34.93    0.86
   1  -1   0   35.96    0.74
  -1   1   0   34.41    0.85
  -1   1   0   36.12    0.75
   1   1   0   34.98    0.69
   1   1   0   36.54    0.69
  -2  -1   0   92.69    1.73
  -2  -1   0   93.08    1.74
  -2   1   0   91.38    2.10
  -2   1   0   93.60    1.81
  -3  -1   0   27.29    0.58
  -3  -1   0   29.44    0.57
  -3   1   0   27.43    0.93
  -3   1   0   27.64    0.66
  -4  -1   0    2.99    0.13
  -4  -1   0    2.83    0.12
  -4   1   0    2.89    0.18
  -4   1   0    3.00    0.38
  -5  -1   0    3.93    0.16
  -5  -1   0    3.83    0.16
  -5   1   0    4.13    0.23
  -5   1   0    4.66    0.52
  -6   1   0    1.42    0.16
  -6   1   0    1.53    0.39
  -7  -1   0    4.36    0.62
  -7   1   0    3.95    0.22
  -7   1   0    5.31    0.71
   0  -2   0  348.51    6.84
   0  -2   0  355.74    6.49
   0   2   0  343.46    6.49
   0   2   0  344.29    6.84
   1  -2   0   15.38    0.50
  -1  -2   0   15.11    0.43
   1  -2   0   15.12    0.44
   1   2   0   15.60    0.38
  -1   2   0   15.06    0.49
  -1   2   0   14.81    0.45
   1   2   0   14.91    0.40
  -2  -2   0   33.10    0.75
   2  -2   0   33.17    0.77
  -2  -2   0   33.90    0.76
   2   2   0   33.60    0.66
  -2   2   0   33.51    0.97
  -2   2   0   34.94    0.83
   2   2   0   32.76    0.66
  -3  -2   0   12.60    0.37
  -3  -2   0   12.40    0.36
   3  -2   0   12.43    0.29
   3  -2   0   12.43    0.28
  -3   2   0   13.03    0.59
  -3   2   0   13.16    0.44
  -4  -2   0   70.99    1.46
  -4  -2   0   71.90    1.47
  -4   2   0   72.72    1.99
  -4   2   0   73.58    1.61
  -5  -2   0    8.06    0.28
  -5  -2   0    7.63    0.27
  -5   2   0    7.91    0.37
  -5   2   0    7.70    0.60
  -6  -2   0   16.05    0.42
  -6   2   0   15.70    0.57
  -6   2   0   16.91    0.95
  -7   2   0    2.24    0.24
  -7   2   0    3.36    0.56
   0  -3   0   -0.12    0.07
   0  -3   0   -0.09    0.06
   0   3   0   -0.16    0.07
   0   3   0   -0.13    0.08
   1  -3   0   69.22    1.63
  -1  -3   0   69.37    1.51
   1  -3   0   67.48    1.53
  -1  -3   0   69.48    1.55
  -1   3   0   69.16    1.55
   1   3   0   70.95    1.49
  -1   3   0   70.47    1.62
   1   3   0   68.78    1.50
   2  -3   0   28.84    0.94
   2  -3   0   29.36    0.79
  -2  -3   0   29.70    0.77
   2   3   0   30.09    0.72
   2   3   0   30.41    0.71
  -2   3   0   29.95    0.92
  -2   3   0   29.88    0.83
  -3  -3   0    8.96    0.35
  -3  -3   0    8.15    0.33
  -3   3   0    8.31    0.49
  -3   3   0    7.87    0.39
  -4  -3   0   11.27    0.41
  -4  -3   0   10.68    0.39
  -4   3   0   11.94    0.66
  -4   3   0   11.52    0.49
  -5  -3   0   46.13    1.09
  -5   3   0   46.11    1.24
  -5   3   0   47.62    1.60
  -6   3   0    4.90    0.36
  -6   3   0    5.23    0.60
  -7   3   0    6.08    0.40
  -7   3   0    6.01    0.73
   0  -4   0   20.05    0.64
   0  -4   0   21.01    0.68
   0   4   0   19.91    0.63
   0   4   0   20.47    0.68
  -1  -4   0   34.24    0.94
   1  -4   0   33.78    0.94
  -1  -4   0   33.98    0.91
   1  -4   0   34.47    1.00
  -1   4   0   33.27    0.97
   1   4   0   34.19    0.92
  -1   4   0   31.85    0.95
   1   4   0   34.61    0.90
  -2  -4   0    1.63    0.20
  -2  -4   0    2.11    0.19
   2  -4   0    1.37    0.20
   2   4   0    1.91    0.19
   2   4   0    2.01    0.20
  -2   4   0    1.62    0.23
  -2   4   0    2.02    0.24
  -3  -4   0   30.42    0.87
  -3   4   0   31.41    0.95
   3   4   0   30.74    0.70
  -3   4   0   30.88    1.06
  -4  -4   0   67.96    1.58
  -4   4   0   67.87    1.71
  -4   4   0   67.28    1.95
  -5  -4   0    3.06    0.26
  -5   4   0    3.46    0.48
  -5   4   0    2.69    0.32
  -6   4   0    0.37    0.27
  -6   4   0    0.19    0.16
   0  -5   0    0.07    0.11
   0  -5   0    0.07    0.09
   0   5   0   -0.13    0.08
   0   5   0    0.00    0.07
  -1  -5   0    6.06    0.38
  -1  -5   0    6.97    0.36
   1  -5   0    6.30    0.40
   1   5   0    6.33    0.38
  -1   5   0    6.95    0.43
  -1   5   0    6.47    0.39
   1   5   0    6.49    0.37
   1   5   0    6.48    0.36
  -2  -5   0    6.51    0.37
  -2  -5   0    6.69    0.39
  -2   5   0    5.67    0.39
  -2   5   0    7.15    0.44
  -3  -5   0   12.88    0.56
  -3   5   0   13.15    0.67
  -3   5   0   13.88    0.64
   3   5   0   13.40    0.46
  -4  -5   0   12.98    0.58
  -4   5   0   14.19    0.77
  -4   5   0   12.79    0.64
  -5   5   0    6.08    0.46
  -5   5   0    5.07    0.57
  -6   5   0    2.11    0.45
  -6   5   0    1.93    0.32
   0  -6   0   68.33    1.75
   0   6   0   68.51    1.77
   0   6   0   67.53    1.72
  -1  -6   0    8.22    0.48
  -1   6   0    7.83    0.50
   1   6   0    8.28    0.44
  -1   6   0    8.61    0.48
   1   6   0    7.78    0.46
  -2  -6   0   12.02    0.59
   2   6   0   12.59    0.55
  -2   6   0   12.23    0.61
  -2   6   0   11.38    0.61
  -3  -6   0   20.31    0.79
   3   6   0   19.94    0.66
  -3   6   0   20.09    0.85
  -3   6   0   19.57    0.88
  -4   6   0   40.69    1.43
  -4   6   0   39.17    1.31
  -5   6   0    4.64    0.57
  -5   6   0    4.15    0.48
  -6   6   0    1.47    0.41
  -6   6   0    1.50    0.32
   0   7   0    0.20    0.17
   0   7   0    0.06    0.13
  -1  -7   0   40.80    1.30
  -1   7   0   40.73    1.33
  -1   7   0   40.22    1.27
   1   7   0   41.47    1.27
   1   7   0   40.65    1.23
  -2  -7   0   13.69    0.69
  -2   7   0   14.43    0.72
   2   7   0   14.37    0.65
  -2   7   0   14.24    0.74
  -3   7   0    1.26    0.31
   3   7   0    1.18    0.21
  -3   7   0    1.46    0.30
  -4   7   0    5.87    0.62
  -4   7   0    3.84    0.47
  -5   7   0    5.97    0.53
  -5   7   0    5.71    0.68
   0   8   0   24.90    1.01
   0   8   0   23.16    0.92
  -1   8   0    8.42    0.54
  -1   8   0    8.04    0.60
   1   8   0   10.69    0.58
   1   8   0    8.40    0.58
  -2   8   0   34.26    1.29
   2   8   0   34.59    1.16
  -2   8   0   32.06    1.21
  -3   8   0   10.21    0.70
  -3   8   0   10.89    0.69
  -4   8   0    3.23    0.48
  -4   8   0    2.69    0.45
  -5   8   0    0.04    0.24
  -5   8   0    0.51    0.30
   0   9   0    0.09    0.14
   0   9   0   -0.07    0.18
  -1   9   0    4.82    0.43
   1   9   0    4.81    0.42
   1   9   0    4.68    0.52
  -1   9   0    3.81    0.50
  -2   9   0   13.25    0.75
  -2   9   0   13.29    0.83
  -3   9   0    0.59    0.23
  -3   9   0    1.20    0.35
  -4   9   0    0.40    0.28
  -4   9   0    0.21    0.26
   0  10   0    1.26    0.29
   0  10   0    0.68    0.28
   1  10   0    2.31    0.41
  -1  10   0    1.49    0.37
  -1  10   0    1.93    0.35
  -2  10   0    4.33    0.58
  -2  10   0    3.84    0.50
  -3  10   0    1.12    0.34
  -3  10   0    1.38    0.33
  -4  10   0    1.32    0.39
  -4  10   0    2.09    0.48
   0  11   0   -0.22    0.24
   0  11   0   -0.39    0.16
  -1  11   0    4.77    0.62
  -1  11   0    4.32    0.54
  -2  11   0    1.61    0.38
  -2  11   0    0.68    0.33
  -3  11   0    1.15    0.39
   0  12   0    0.04    0.20
  -7   0   1    0.70    0.33
  -6   0   1   -0.18    0.18
  -5   0   1    4.87    0.45
  -5   0   1    4.21    0.16
  -4   0   1   70.78    1.36
  -1   0   1  356.94    6.54
  -1   0   1  352.88    7.01
   0   0  -1   33.95    0.85
   0   0   1   37.08    0.86
   1   0   1   63.49    1.24
  -1   0  -1   66.42    1.25
   1   0   1   64.91    1.24
  -1   0  -1   62.81    1.25
  -2   0  -1    0.09    0.05
  -2   0  -1    0.07    0.04
  -3   0  -1    4.84    0.19
  -3   0  -1    4.55    0.19
  -4   0  -1    8.51    0.29
  -5   0  -1    1.86    0.15
  -6   0  -1    0.72    0.12
  -6   0  -1    1.01    0.33
  -7   0  -1    0.71    0.33
  -7   0  -1    0.35    0.10
  -7  -1   1    0.29    0.26
  -7   1   1    0.37    0.30
  -7   1   1    0.29    0.08
  -6  -1   1    0.61    0.27
  -6   1   1    0.80    0.12
  -6   1   1    1.03    0.33
  -5   1   1    1.15    0.13
  -5   1   1    1.31    0.29
  -4   1   1    8.70    0.30
  -4   1   1    8.62    0.52
  -3   1   1   59.68    1.24
  -3   1   1   61.26    1.57
  -2  -1   1   64.59    1.22
  -2  -1   1   65.84    1.22
  -2   1   1   64.64    1.53
  -2   1   1   65.05    1.31
   1  -1  -1    6.40    0.21
  -1  -1   1    6.62    0.20
   1  -1  -1    6.58    0.26
   1   1  -1    6.38    0.18
  -1   1   1    6.65    0.22
  -1   1   1    6.47    0.25
   0  -1   1   91.99    1.84
   0  -1  -1   91.35    1.77
   0  -1   1   91.66    1.77
   0  -1  -1   88.58    1.85
   0   1   1   90.77    1.76
   0   1  -1   92.72    1.77
   0   1   1   89.94    1.85
   0   1  -1   89.42    1.84
   0   1   1   92.51    1.77
   1  -1   1  210.31    3.83
  -1  -1  -1  204.41    3.80
  -1  -1  -1  202.14    3.81
  -1   1  -1  204.58    3.83
   1   1   1  202.26    3.79
   1   1   1  199.68    3.78
  -2  -1  -1  122.22    2.37
   2  -1   1  124.03    2.35
  -2  -1  -1  124.25    2.37
   2  -1   1  124.28    2.35
  -2   1  -1  126.69    2.42
  -3  -1  -1   30.83    0.69
  -3  -1  -1   31.52    0.69
  -3   1  -1   30.24    0.74
  -4  -1  -1   29.15    0.68
  -4  -1  -1   29.63    0.69
  -4   1  -1   29.72    0.76
  -5  -1  -1   30.11    0.72
  -5  -1  -1   29.35    0.72
  -5   1  -1   29.92    0.79
  -5   1  -1   30.01    1.23
  -6  -1  -1   21.94    0.58
  -6   1  -1   22.03    0.66
  -6   1  -1   21.27    1.11
  -7  -1  -1    0.98    0.10
  -7  -1  -1    1.16    0.39
  -7   1  -1    0.84    0.37
  -7   1  -1    0.84    0.15
  -7  -2   1    1.98    0.45
  -7   2   1    1.94    0.45
  -7   2   1    1.55    0.19
  -6   2   1   15.46    0.87
  -6   2   1   14.80    0.54
  -5  -2   1    1.38    0.11
  -5   2   1    1.38    0.32
  -5   2   1    1.96    0.21
  -4  -2   1   28.01    0.65
  -4   2   1   30.34    1.05
  -4   2   1   28.74    0.78
  -3  -2   1   16.08    0.42
  -3   2   1   15.93    0.65
  -3   2   1   15.62    0.50
   2  -2  -1    4.28    0.29
  -2  -2   1    4.78    0.20
   2  -2  -1    4.67    0.21
  -2   2   1    4.33    0.24
   2   2  -1    4.41    0.11
  -2   2   1    4.51    0.29
   1  -2  -1    7.49    0.31
  -1  -2   1    7.89    0.28
   1  -2  -1    7.45    0.29
  -1  -2   1    7.62    0.26
  -1   2   1    7.82    0.30
   1   2  -1    8.12    0.21
  -1   2   1    7.90    0.32
   0  -2   1   41.25    0.93
   0  -2  -1   41.07    0.94
   0  -2  -1   41.34    0.93
   0  -2   1   40.79    0.93
   0   2   1   40.65    0.91
   0   2  -1   39.76    0.92
   0   2   1   40.11    0.93
   0   2   1   40.66    0.94
   1  -2   1   88.98    1.96
  -1  -2  -1   87.54    1.77
  -1  -2  -1   87.46    1.79
   1  -2   1   88.39    1.80
   1   2   1   89.75    1.75
   1   2   1   85.97    2.05
  -1   2  -1   84.61    1.93
  -1   2  -1   88.02    1.81
  -2  -2  -1   27.65    0.68
   2  -2   1   27.77    0.69
  -2  -2  -1   28.12    0.67
  -2   2  -1   27.68    0.87
   2   2   1   28.67    0.62
   2   2   1   27.72    0.61
  -2   2  -1   27.47    0.73
  -3  -2  -1   32.66    0.77
   3  -2   1   33.80    0.73
  -3  -2  -1   33.50    0.79
   3  -2   1   32.48    0.72
  -3   2  -1   32.17    1.08
  -3   2  -1   32.31    0.85
  -4  -2  -1   19.17    0.53
  -4  -2  -1   18.88    0.54
  -4   2  -1   19.82    0.88
  -4   2  -1   19.51    0.62
  -5  -2  -1    5.37    0.26
  -5  -2  -1    5.17    0.25
  -5   2  -1    4.98    0.31
  -5   2  -1    4.88    0.55
  -6  -2  -1    5.83    0.28
  -6  -2  -1    6.36    0.28
  -6   2  -1    5.64    0.35
  -6   2  -1    6.98    0.75
  -7   2  -1    0.33    0.31
  -7   2  -1    0.70    0.16
  -7   3   1    6.75    0.41
  -7   3   1    7.19    0.79
  -6  -3   1   15.64    0.46
  -6   3   1   17.34    0.94
  -6   3   1   15.89    0.64
  -5  -3   1    3.50    0.22
  -5   3   1    3.42    0.45
  -5   3   1    3.13    0.31
  -4  -3   1    8.57    0.35
  -4   3   1    8.96    0.42
  -4   3   1    8.91    0.54
   3  -3  -1   38.72    0.93
  -3  -3   1   34.97    0.88
  -3   3   1   33.70    1.10
  -3   3   1   36.18    0.97
   2  -3  -1  135.52    2.72
  -2  -3   1  135.42    2.70
   2  -3  -1  134.54    3.01
   2   3  -1  131.94    2.61
  -2   3   1  134.62    2.77
   2   3  -1  138.10    2.61
  -2   3   1  131.93    2.96
   1  -3  -1   13.41    0.49
   1  -3  -1   12.90    0.46
  -1  -3   1   12.83    0.45
  -1  -3   1   12.30    0.40
   1   3  -1   12.77    0.43
  -1   3   1   12.77    0.47
  -1   3   1   13.22    0.48
   0  -3  -1    5.81    0.30
   0  -3   1    6.19    0.28
   0  -3   1    6.51    0.31
   0  -3  -1    6.04    0.28
   0   3   1    6.22    0.30
   0   3   1    6.00    0.31
   0   3   1    6.21    0.29
   0   3  -1    6.39    0.31
   0   3  -1    6.44    0.28
   1  -3   1  236.73    4.57
  -1  -3  -1  240.46    4.56
  -1  -3  -1  232.74    4.54
  -1  -3  -1  233.07    4.78
   1  -3   1  243.91    4.89
  -1   3  -1  243.52    4.61
   1   3   1  229.07    4.51
   1   3   1  234.32    4.54
  -1   3  -1  228.81    4.84
   2  -3   1   40.69    1.19
  -2  -3  -1   39.68    0.98
  -2  -3  -1   39.24    0.99
   2  -3   1   41.56    1.01
  -2   3  -1   40.92    1.05
   2   3   1   41.35    0.93
  -2   3  -1   38.48    1.14
   2   3   1   40.82    0.94
  -3  -3  -1   31.34    0.83
  -3  -3  -1   31.99    0.83
  -3  -3  -1   32.80    0.85
  -3   3  -1   30.86    0.90
  -3   3  -1   32.86    1.09
  -4  -3  -1    2.56    0.21
  -4  -3  -1    2.97    0.22
   4  -3   1    2.57    0.10
  -4   3  -1    2.60    0.26
  -4   3  -1    3.28    0.41
  -5  -3  -1    3.89    0.26
  -5  -3  -1    4.32    0.27
  -5   3  -1    4.54    0.55
  -5   3  -1    3.73    0.32
  -6   3  -1    4.08    0.34
  -6   3  -1    3.47    0.54
  -7   3  -1    3.43    0.35
  -7   3  -1    2.45    0.54
  -6   4   1    2.74    0.44
  -6   4   1    2.06    0.30
  -5  -4   1    4.75    0.31
  -5   4   1    4.12    0.40
  -5   4   1    4.27    0.51
  -4  -4   1   20.04    0.65
  -4   4   1   19.93    0.75
  -4   4   1   20.53    0.89
  -3  -4   1   10.55    0.45
  -3   4   1   10.23    0.49
  -3   4   1   10.65    0.56
   3   4  -1   10.82    0.31
   3   4  -1   11.86    0.33
  -2  -4   1  125.75    2.66
  -2  -4   1  124.14    2.72
  -2   4   1  127.01    2.73
  -2   4   1  132.36    2.90
   2   4  -1  128.74    2.57
   2   4  -1  125.98    2.58
  -1  -4   1   83.82    1.85
   1  -4  -1   84.24    1.95
  -1  -4   1   80.16    1.83
   1  -4  -1   84.61    1.87
   1   4  -1   82.83    1.82
   1   4  -1   79.13    1.82
  -1   4   1   82.39    1.88
  -1   4   1   80.91    1.92
   0  -4   1   98.65    2.21
   0  -4  -1  101.50    2.22
   0  -4  -1  101.28    2.18
   0  -4   1   99.16    2.16
   0   4   1   99.73    2.17
   0   4   1  100.43    2.14
   0   4   1   97.83    2.21
   0   4  -1   94.40    2.15
   0   4  -1   99.58    2.19
   1  -4   1    2.48    0.26
  -1  -4  -1    2.38    0.24
  -1  -4  -1    2.79    0.22
   1  -4   1    2.30    0.24
   1   4   1    2.44    0.25
   1   4   1    2.13    0.21
  -1   4  -1    2.55    0.26
  -1   4  -1    2.62    0.27
  -2  -4  -1   12.25    0.50
  -2  -4  -1   12.52    0.50
   2   4   1   12.20    0.44
   2   4   1   12.61    0.46
  -2   4  -1   12.62    0.58
  -2   4  -1   12.22    0.53
  -3  -4  -1    0.09    0.09
  -3  -4  -1    0.07    0.10
  -3   4  -1   -0.01    0.10
  -3   4  -1    0.17    0.13
   3   4   1    0.11    0.06
  -4  -4  -1   27.69    0.82
  -4  -4  -1   27.89    0.84
   4  -4   1   27.40    0.74
  -4   4  -1   27.79    0.93
  -4   4  -1   29.16    1.12
  -5  -4  -1    2.47    0.27
  -5   4  -1    2.14    0.30
  -5   4  -1    2.58    0.42
  -6   4  -1    1.88    0.29
  -6   4  -1    2.61    0.49
  -6   5   1    6.00    0.69
  -6   5   1    5.50    0.46
  -5   5   1    8.29    0.65
  -5   5   1    8.18    0.53
  -4  -5   1   52.97    1.39
  -4   5   1   54.08    1.67
  -4   5   1   54.39    1.53
  -3  -5   1   27.71    0.88
   3   5  -1   27.30    0.74
  -3   5   1   28.52    0.96
  -3   5   1   28.79    1.03
  -2  -5   1    4.03    0.27
  -2  -5   1    3.67    0.30
  -2   5   1    3.56    0.37
  -2   5   1    3.97    0.34
   1  -5  -1   86.52    2.01
  -1  -5   1   83.48    1.98
  -1  -5   1   84.04    1.96
  -1   5   1   84.65    2.01
   1   5  -1   82.02    1.95
   1   5  -1   88.42    1.97
  -1   5   1   86.67    2.06
   0  -5   1   40.58    1.15
   0  -5  -1   40.96    1.15
   0  -5   1   41.13    1.14
   0  -5  -1   41.75    1.17
   0   5  -1   42.02    1.12
   0   5   1   41.26    1.14
   0   5   1   41.95    1.17
   0   5  -1   42.43    1.17
   0   5   1   40.47    1.12
   1  -5   1  127.79    2.79
  -1  -5  -1  123.89    2.76
  -1  -5  -1  126.08    2.82
   1   5   1  129.26    2.77
  -1   5  -1  127.11    2.88
  -1   5  -1  130.86    2.82
  -2  -5  -1   29.32    0.91
  -2   5  -1   27.99    0.97
  -2   5  -1   28.80    0.96
  -3  -5  -1    9.16    0.48
  -3   5  -1    9.31    0.52
   3   5   1    9.21    0.38
  -3   5  -1    9.35    0.58
  -4  -5  -1    6.23    0.41
  -4   5  -1    6.74    0.46
  -4   5  -1    7.12    0.55
  -5   5  -1    1.73    0.37
  -5   5  -1    1.76    0.28
  -6   5  -1    7.19    0.53
  -6   5  -1    7.86    0.70
  -6   6   1    0.44    0.32
  -6   6   1    0.89    0.27
  -5   6   1    8.29    0.66
  -5   6   1    8.74    0.59
  -4   6   1    7.92    0.58
  -4   6   1    7.23    0.53
  -3  -6   1    5.97    0.43
   3   6  -1    5.96    0.33
  -3   6   1    5.89    0.46
  -3   6   1    7.03    0.50
  -2  -6   1    2.91    0.34
   2   6  -1    3.49    0.34
  -2   6   1    2.31    0.31
  -2   6   1    2.54    0.36
   2   6  -1    2.61    0.15
  -1  -6   1    1.36    0.24
   1   6  -1    1.34    0.23
   1   6  -1    1.53    0.22
  -1   6   1    1.58    0.27
  -1   6   1    1.38    0.23
   0  -6   1   38.88    1.20
   0  -6  -1   40.13    1.21
   0   6  -1   38.39    1.18
   0   6   1   39.50    1.20
   0   6  -1   38.67    1.13
   0   6   1   38.99    1.15
  -1  -6  -1    4.32    0.37
  -1   6  -1    4.91    0.39
   1   6   1    4.74    0.36
  -1   6  -1    4.84    0.36
  -2  -6  -1    9.08    0.52
  -2   6  -1    9.72    0.56
   2   6   1    8.76    0.35
   2   6   1    9.45    0.48
  -2   6  -1    9.65    0.55
  -3  -6  -1    9.50    0.54
  -3   6  -1   10.28    0.63
   3   6   1   10.06    0.45
  -3   6  -1    9.79    0.59
  -4   6  -1   24.25    0.97
  -4   6  -1   23.33    1.05
  -5   6  -1    3.14    0.52
  -5   6  -1    2.61    0.37
  -6   6  -1    1.75    0.44
  -6   6  -1    1.81    0.36
  -5   7   1    2.63    0.41
  -5   7   1    1.97    0.42
  -4   7   1    5.61    0.60
  -4   7   1    5.03    0.53
  -3   7   1   12.28    0.71
  -3   7   1   11.25    0.68
   3   7  -1   12.88    0.55
  -2  -7   1    5.64    0.46
  -2   7   1    5.49    0.54
  -2   7   1    5.19    0.43
   2   7  -1    4.65    0.38
  -1  -7   1    6.49    0.49
  -1   7   1    7.46    0.47
   1   7  -1    8.17    0.46
  -1   7   1    7.19    0.51
   1   7  -1    6.82    0.47
   0   7   1    5.13    0.40
   0   7  -1    5.61    0.43
   0   7  -1    5.69    0.39
   0   7   1    5.71    0.45
  -1  -7  -1    8.81    0.59
  -1   7  -1    9.51    0.54
  -1   7  -1    9.35    0.58
   1   7   1    8.69    0.53
  -2  -7  -1   45.21    1.41
   2   7   1   47.02    1.35
  -2   7  -1   44.72    1.43
  -2   7  -1   44.80    1.45
   3   7   1   20.18    0.75
  -3   7  -1   23.54    1.01
  -3   7  -1   21.03    0.93
  -4   7  -1    0.88    0.27
  -4   7  -1    0.71    0.29
  -5   7  -1    0.25    0.28
  -5   7  -1    0.42    0.22
  -5   8   1    3.26    0.52
  -5   8   1    3.68    0.54
  -4   8   1   14.97    0.87
  -4   8   1   14.22    0.85
  -3   8   1    2.51    0.42
  -3   8   1    1.89    0.34
  -2   8   1    4.89    0.51
  -2   8   1    4.63    0.54
   2   8  -1    4.74    0.41
  -1   8   1   24.78    0.97
  -1   8   1   22.39    1.01
   1   8  -1   22.84    0.96
   0   8   1    3.09    0.42
   0   8  -1    3.14    0.37
   0   8   1    3.14    0.38
   0   8  -1    3.40    0.42
   1   8   1   73.70    2.02
  -1   8  -1   74.70    2.08
  -1   8  -1   74.25    2.02
   2   8   1   20.79    0.86
  -2   8  -1   20.29    0.95
  -2   8  -1   19.56    0.90
  -3   8  -1    5.35    0.57
  -3   8  -1    6.77    0.56
  -4   8  -1    1.53    0.37
  -4   8  -1    1.75    0.40
  -5   8  -1    3.32    0.50
  -5   8  -1    3.41    0.56
  -4   9   1    1.72    0.41
  -4   9   1    1.62    0.40
  -3   9   1    4.02    0.55
  -3   9   1    3.65    0.50
  -2   9   1    6.79    0.69
  -2   9   1    6.62    0.53
   1   9  -1   17.06    0.78
   1   9  -1   16.86    0.84
  -1   9   1   16.11    0.82
  -1   9   1   16.53    0.90
   0   9   1   12.01    0.69
   0   9  -1   12.13    0.74
   0   9  -1   13.48    0.69
   0   9   1   14.06    0.81
  -1   9  -1    1.57    0.30
  -1   9  -1    1.38    0.36
   1   9   1    1.51    0.32
  -2   9  -1    0.33    0.26
  -2   9  -1    0.77    0.24
  -3   9  -1    4.94    0.57
  -3   9  -1    5.42    0.63
  -4   9  -1    0.93    0.33
  -4   9  -1    1.02    0.35
  -4  10   1    7.27    0.78
  -4  10   1    6.01    0.72
  -3  10   1    0.71    0.32
  -3  10   1    1.14    0.31
  -2  10   1    0.27    0.20
  -2  10   1   -0.07    0.25
  -1  10   1    5.56    0.59
  -1  10   1    4.84    0.61
   1  10  -1    5.73    0.49
   1  10  -1    5.07    0.57
   0  10   1    1.68    0.33
   0  10   1    2.23    0.42
   0  10  -1    1.75    0.33
   0  10  -1    1.09    0.31
  -1  10  -1    0.91    0.34
   1  10   1    1.42    0.35
  -1  10  -1    1.34    0.30
  -2  10  -1    1.19    0.38
  -2  10  -1    0.90    0.29
  -3  10  -1    1.00    0.36
  -3  10  -1    0.95    0.28
  -4  10  -1    3.91    0.57
  -4  10  -1    4.67    0.64
  -3  11   1    0.93    0.38
  -2  11   1    0.53    0.26
  -2  11   1    0.51    0.30
  -1  11   1   11.35    0.83
  -1  11   1   11.04    0.75
   0  11  -1   17.08    0.89
   0  11   1   18.87    0.95
   0  11  -1   16.08    0.97
   0  11   1   15.45    0.96
  -1  11  -1    0.25    0.19
  -1  11  -1   -0.03    0.22
  -2  11  -1    0.07    0.17
  -2  11  -1    0.08    0.26
   0  12  -1   15.26    0.89
   0  12   1   14.42    0.89
  -7   0   2    0.01    0.23
  -6   0   2    0.02    0.18
  -5   0   2   51.71    1.04
  -5   0   2   52.97    1.05
  -5   0   2   52.02    1.58
  -4   0   2    1.92    0.10
  -4   0   2    2.13    0.28
  -4   0   2    1.98    0.10
  -3   0   2   26.95    0.58
  -3   0   2   27.28    0.57
  -3   0   2   27.62    0.84
  -2   0   2  176.92    3.24
  -2   0   2  174.00    3.25
  -2   0   2  171.81    3.57
  -1   0   2    1.47    0.10
  -1   0   2    1.63    0.09
   1   0  -2    1.44    0.09
  -1   0   2    1.46    0.11
   1   0  -2    1.40    0.09
   0   0  -2  109.15    2.08
   0   0   2  105.86    2.07
   0   0  -2  107.41    2.08
   0   0   2  109.35    2.08
   0   0   2  103.80    2.52
   0   0  -2  108.53    2.52
  -1   0  -2  328.72    6.32
  -1   0  -2  350.12    6.33
   1   0   2  343.81    6.31
   2   0   2    5.14    0.19
  -2   0  -2    5.14    0.22
  -2   0  -2    4.84    0.22
   2   0   2    5.20    0.19
  -3   0  -2   15.00    0.44
  -3   0  -2   13.98    0.43
  -4   0  -2    0.13    0.07
  -4   0  -2    0.29    0.09
  -5   0  -2    1.44    0.17
  -6   0  -2    1.86    0.20
  -7   0  -2    0.25    0.11
  -7   0  -2    0.68    0.41
  -7  -1   2    4.01    0.56
  -7   1   2    3.80    0.53
  -6  -1   2    0.48    0.23
  -6   1   2    0.32    0.10
  -6   1   2    0.33    0.23
  -6   1   2    0.38    0.09
  -5  -1   2    1.27    0.26
  -5   1   2    0.99    0.26
  -5   1   2    1.03    0.13
  -5   1   2    0.91    0.11
  -4  -1   2   12.97    0.30
  -4   1   2   13.35    0.40
  -4   1   2   13.49    0.62
  -3  -1   2   37.97    0.76
  -3   1   2   38.08    0.85
  -3   1   2   37.33    1.06
   2  -1  -2    4.89    0.27
   2  -1  -2    4.80    0.15
  -2  -1   2    4.81    0.17
  -2   1   2    4.89    0.20
  -2   1   2    4.55    0.20
  -2   1   2    4.58    0.25
  -1  -1   2   48.72    1.01
   1  -1  -2   49.33    1.02
   1  -1  -2   47.20    1.08
  -1   1   2   48.24    1.03
  -1   1   2   49.21    1.04
   1   1  -2   48.86    0.99
  -1   1   2   49.30    1.08
   0  -1  -2  261.54    5.24
   0  -1   2  275.10    4.99
   0  -1  -2  265.60    4.99
   0  -1  -2  269.31    4.98
   0   1  -2  264.96    5.23
   0   1   2  261.12    4.99
   0   1  -2  263.66    4.98
   0   1   2  268.83    4.98
   1  -1   2  855.89   17.65
  -1  -1  -2  956.26   21.85
  -1  -1  -2  888.29   17.74
   1  -1   2  996.48   17.54
  -1  -1  -2  961.97   17.72
   1   1   2  964.85   17.81
  -1   1  -2 1000.00   17.59
  -2  -1  -2    1.06    0.12
   2  -1   2    1.18    0.12
  -2  -1  -2    1.03    0.12
   2  -1   2    1.09    0.11
   2   1   2    1.09    0.09
  -2   1  -2    1.05    0.13
   2   1   2    1.12    0.10
  -3  -1  -2    4.96    0.23
   3  -1   2    4.65    0.14
   3  -1   2    4.57    0.14
  -3   1  -2    4.60    0.25
  -4  -1  -2   12.70    0.42
  -4  -1  -2   12.63    0.42
  -4   1  -2   13.23    0.47
  -5  -1  -2   15.26    0.49
  -5  -1  -2   15.94    0.51
  -5   1  -2   15.43    0.54
  -5   1  -2   15.29    0.86
  -6  -1  -2    5.39    0.29
  -6   1  -2    6.21    0.71
  -6   1  -2    5.62    0.33
  -7  -1  -2    4.63    0.27
  -7   1  -2    4.73    0.31
  -7   1  -2    5.76    0.76
  -7  -2   2    0.97    0.35
  -7   2   2    1.05    0.34
  -7   2   2    0.73    0.15
  -6  -2   2    8.89    0.64
  -6   2   2    8.49    0.40
  -6   2   2    9.06    0.65
  -5  -2   2    3.88    0.17
  -5   2   2    3.82    0.25
  -5   2   2    3.80    0.25
  -5   2   2    3.93    0.44
  -4  -2   2   14.18    0.39
  -4   2   2   13.84    0.65
  -4   2   2   14.59    0.50
   3  -2  -2   20.92    0.42
  -3  -2   2   20.32    0.52
  -3   2   2   20.83    0.60
  -3   2   2   20.34    0.73
  -2  -2   2  138.79    2.70
   2  -2  -2  139.35    3.02
   2  -2  -2  139.47    2.71
  -2   2   2  137.38    2.74
  -2   2   2  142.52    2.78
  -2   2   2  138.60    2.98
   2   2  -2  135.51    2.60
   2   2  -2  141.35    2.61
  -1  -2   2   23.71    0.61
   1  -2  -2   22.45    0.64
  -1  -2   2   23.67    0.55
   1  -2  -2   24.29    0.63
  -1   2   2   23.98    0.64
   1   2  -2   23.55    0.61
  -1   2   2   23.29    0.62
  -1   2   2   24.06    0.65
   0  -2  -2  286.19    5.65
   0  -2  -2  284.74    5.36
   0  -2  -2  284.93    5.38
   0  -2   2  284.40    5.63
   0  -2   2  288.30    5.38
   0   2   2  275.30    5.35
   0   2  -2  281.41    5.62
   0   2   2  286.16    5.38
   0   2  -2  284.66    5.37
   0   2   2  282.91    5.65
   1  -2   2   55.96    1.23
  -1  -2  -2   54.42    1.20
  -1  -2  -2   55.52    1.22
  -1   2  -2   53.13    1.23
   1   2   2   53.97    1.36
   1   2   2   55.07    1.19
   1   2   2   54.83    1.21
  -1   2  -2   54.47    1.33
   2  -2   2    5.75    0.27
  -2  -2  -2    5.70    0.24
  -2  -2  -2    5.80    0.27
  -2  -2  -2    5.45    0.26
  -2   2  -2    5.24    0.28
   2   2   2    5.76    0.24
  -2   2  -2    5.08    0.35
   2   2   2    5.37    0.22
  -3  -2  -2   29.39    0.77
   3  -2   2   30.10    0.72
   3  -2   2   29.00    0.71
  -3  -2  -2   29.96    0.76
  -3   2  -2   29.41    1.04
  -3   2  -2   30.44    0.82
  -4  -2  -2   35.89    0.89
  -4  -2  -2   35.29    0.90
  -4   2  -2   36.61    0.98
  -4   2  -2   34.86    1.28
  -5  -2  -2   11.76    0.44
  -5  -2  -2   11.81    0.45
  -5   2  -2   12.43    0.52
  -5   2  -2   13.47    0.82
  -6  -2  -2    6.51    0.32
  -6   2  -2    6.96    0.40
  -6   2  -2    6.16    0.73
  -7  -2  -2    4.73    0.27
  -7   2  -2    5.09    0.71
  -7   2  -2    4.54    0.34
  -7   3   2   10.36    0.50
  -7   3   2    9.86    0.78
  -6  -3   2    6.51    0.26
  -6   3   2    6.70    0.59
  -6   3   2    6.34    0.40
  -5  -3   2   18.97    0.54
  -5   3   2   17.48    0.66
  -5   3   2   17.28    0.85
  -4  -3   2    5.35    0.27
  -4   3   2    4.89    0.33
  -4   3   2    5.58    0.42
  -3  -3   2   51.69    1.18
  -3   3   2   50.11    1.41
  -3   3   2   52.24    1.28
   2  -3  -2    1.61    0.23
   2  -3  -2    1.85    0.19
  -2  -3   2    2.24    0.18
  -2  -3   2    1.79    0.14
   2   3  -2    1.86    0.14
   2   3  -2    1.74    0.14
  -2   3   2    1.82    0.21
  -2   3   2    1.88    0.22
  -1  -3   2   14.46    0.49
   1  -3  -2   14.47    0.50
   1  -3  -2   14.23    0.51
  -1  -3   2   14.25    0.42
   1   3  -2   13.41    0.46
   1   3  -2   13.91    0.42
  -1   3   2   14.21    0.50
  -1   3   2   14.66    0.52
   1   3  -2   14.84    0.48
  -1   3   2   15.30    0.50
   0  -3   2  165.41    3.28
   0  -3  -2  162.38    3.28
   0  -3   2  164.85    3.39
   0  -3  -2  161.72    3.26
   0  -3  -2  159.47    3.39
   0   3  -2  166.20    3.28
   0   3   2  163.25    3.28
   0   3   2  164.46    3.25
   0   3   2  166.31    3.42
   0   3  -2  162.65    3.36
  -1  -3  -2    9.81    0.40
   1  -3   2   10.45    0.42
  -1  -3  -2    9.80    0.40
  -1  -3  -2   10.03    0.41
   1  -3   2   10.55    0.45
  -1   3  -2   10.65    0.43
   1   3   2   10.03    0.40
  -1   3  -2    9.37    0.42
   1   3   2    9.83    0.38
   2  -3   2   50.11    1.18
  -2  -3  -2   46.42    1.14
  -2  -3  -2   48.27    1.17
  -2   3  -2   48.36    1.21
   2   3   2   48.93    1.12
  -2   3  -2   46.91    1.33
   2   3   2   48.76    1.10
  -3  -3  -2    0.73    0.13
   3  -3   2    0.99    0.14
  -3  -3  -2    0.63    0.13
  -3   3  -2    0.92    0.23
   3   3   2    0.86    0.09
  -3   3  -2    0.62    0.14
  -4  -3  -2    3.10    0.23
  -4  -3  -2    2.90    0.24
   4  -3   2    2.87    0.16
  -4  -3  -2    3.15    0.20
  -4   3  -2    3.36    0.28
  -4   3  -2    2.90    0.42
  -5  -3  -2   20.07    0.65
  -5  -3  -2   20.18    0.66
  -5  -3  -2   19.59    0.63
  -5   3  -2   20.82    1.03
  -5   3  -2   20.56    0.76
  -6  -3  -2    0.87    0.17
  -6   3  -2    1.22    0.22
  -6   3  -2    1.37    0.40
  -6   4   2    2.57    0.34
  -6   4   2    2.96    0.46
  -5  -4   2   10.88    0.46
  -5   4   2   10.20    0.66
  -5   4   2    9.79    0.53
  -4  -4   2   61.24    1.45
  -4   4   2   62.06    1.77
  -4   4   2   60.84    1.58
  -3  -4   2    4.19    0.26
  -3  -4   2    4.39    0.29
  -3   4   2    4.39    0.32
   3   4  -2    4.24    0.18
  -3   4   2    4.84    0.38
  -2  -4   2   27.08    0.80
  -2  -4   2   27.13    0.74
  -2   4   2   27.42    0.86
   2   4  -2   27.79    0.74
   2   4  -2   26.84    0.74
  -2   4   2   26.50    0.87
  -1  -4   2   16.37    0.59
   1  -4  -2   16.64    0.60
   1  -4  -2   16.21    0.60
  -1  -4   2   16.35    0.52
  -1   4   2   15.93    0.59
  -1   4   2   15.94    0.58
  -1   4   2   16.35    0.62
   1   4  -2   16.02    0.56
   1   4  -2   16.41    0.51
   0  -4   2   25.14    0.79
   0  -4   2   25.20    0.76
   0  -4  -2   25.45    0.79
   0  -4  -2   25.56    0.77
   0   4   2   24.89    0.79
   0   4  -2   25.89    0.79
   0   4   2   25.16    0.77
   0   4   2   25.43    0.76
   0   4  -2   25.91    0.74
  -1  -4  -2  108.74    2.34
  -1  -4  -2  106.75    2.32
  -1  -4  -2  106.72    2.39
   1  -4   2  111.32    2.36
   1  -4   2  106.12    2.48
  -1   4  -2  104.49    2.36
   1   4   2  112.60    2.31
   1   4   2  107.73    2.33
  -1   4  -2  102.53    2.43
  -2  -4  -2   49.18    1.26
  -2  -4  -2   51.82    1.29
  -2   4  -2   50.80    1.42
  -2   4  -2   49.81    1.33
  -3  -4  -2   26.35    0.80
  -3  -4  -2   24.91    0.80
  -3   4  -2   26.37    0.87
  -3   4  -2   26.84    1.01
   3   4   2   25.96    0.69
  -4  -4  -2    7.98    0.41
  -4  -4  -2    7.93    0.41
   4  -4   2    7.43    0.35
  -4   4  -2    7.17    0.45
  -4   4  -2    8.21    0.60
  -5  -4  -2   38.57    1.08
  -5   4  -2   39.14    1.21
  -5   4  -2   37.42    1.48
  -6   4  -2    5.71    0.70
  -6   4  -2    6.10    0.46
  -6   5   2    0.10    0.21
  -6   5   2    0.15    0.18
  -5   5   2    4.75    0.53
  -5   5   2    3.70    0.41
  -4  -5   2    6.69    0.40
  -4   5   2    5.67    0.48
  -4   5   2    6.63    0.46
  -3  -5   2   35.69    1.06
  -3  -5   2   36.83    1.02
  -3   5   2   37.79    1.16
   3   5  -2   36.16    0.91
  -3   5   2   38.35    1.23
  -2  -5   2   17.32    0.58
  -2  -5   2   16.61    0.65
  -2   5   2   17.03    0.67
  -2   5   2   17.68    0.71
  -2   5   2   18.19    0.72
  -1  -5   2   88.45    2.02
  -1  -5   2   89.49    2.06
   1  -5  -2   89.01    2.07
   1   5  -2   85.63    2.01
  -1   5   2   88.05    2.12
  -1   5   2   91.45    2.12
  -1   5   2   88.62    2.05
   1   5  -2   86.65    2.00
   0  -5   2   22.58    0.78
   0  -5  -2   22.44    0.79
   0  -5   2   22.88    0.75
   0   5   2   21.89    0.78
   0   5  -2   21.60    0.71
   0   5   2   22.34    0.75
   0   5   2   22.79    0.76
   0   5  -2   22.68    0.78
  -1  -5  -2   27.52    0.88
   1  -5   2   27.44    0.89
  -1   5  -2   25.54    0.86
   1   5   2   25.57    0.85
  -1   5  -2   26.00    0.89
  -2  -5  -2    4.79    0.36
   2   5   2    5.15    0.33
  -2   5  -2    5.16    0.39
   2   5   2    4.95    0.21
  -2   5  -2    5.75    0.41
  -3  -5  -2   26.35    0.88
  -3  -5  -2   27.80    0.91
  -3   5  -2   26.91    0.96
  -3   5  -2   28.82    1.07
   3   5   2   26.71    0.78
  -4  -5  -2    2.53    0.29
  -4  -5  -2    2.56    0.30
  -4   5  -2    2.69    0.40
  -4   5  -2    3.07    0.37
  -5   5  -2    6.45    0.60
  -5   5  -2    6.04    0.47
  -6   5  -2    7.18    0.54
  -6   5  -2    8.16    0.85
  -6   6   2    2.08    0.37
  -6   6   2    3.13    0.53
  -5   6   2    0.84    0.29
  -5   6   2    0.65    0.24
  -4   6   2    8.54    0.57
  -4   6   2    9.49    0.64
  -3  -6   2    5.15    0.40
  -3   6   2    4.91    0.41
  -3   6   2    5.97    0.46
  -3   6   2    5.59    0.45
   3   6  -2    5.80    0.33
  -2  -6   2    8.48    0.50
  -2  -6   2    9.40    0.45
   2   6  -2    8.87    0.31
  -2   6   2    8.66    0.54
   2   6  -2    8.99    0.46
  -2   6   2    9.24    0.53
  -2   6   2    9.32    0.53
  -1  -6   2   21.64    0.83
  -1  -6   2   22.10    0.78
   1   6  -2   23.06    0.82
  -1   6   2   23.11    0.88
   1   6  -2   25.53    0.78
  -1   6   2   22.51    0.84
  -1   6   2   22.16    0.83
   0  -6   2   24.42    0.89
   0  -6  -2   24.11    0.89
   0   6   2   23.53    0.85
   0   6  -2   24.27    0.81
   0   6  -2   25.56    0.90
   0   6   2   25.53    0.90
  -1  -6  -2   28.98    0.99
   1   6   2   30.72    1.00
  -1   6  -2   29.66    0.98
  -1   6  -2   27.90    1.00
  -2  -6  -2   15.99    0.70
  -2   6  -2   15.45    0.72
   2   6   2   15.26    0.54
  -2   6  -2   16.25    0.74
   2   6   2   16.35    0.66
  -3  -6  -2    3.98    0.42
  -3   6  -2    3.96    0.45
   3   6   2    3.92    0.29
  -3   6  -2    3.78    0.44
  -4   6  -2    0.49    0.22
  -4   6  -2    0.76    0.28
  -5   6  -2    3.87    0.55
  -5   6  -2    3.75    0.46
  -6   6  -2    1.51    0.33
  -6   6  -2    0.94    0.36
  -5   7   2    0.79    0.26
  -5   7   2    1.16    0.34
  -4   7   2    1.11    0.30
  -4   7   2    0.76    0.24
   3   7  -2   16.71    0.66
  -3   7   2   17.83    0.85
  -3   7   2   16.81    0.83
  -2  -7   2    5.09    0.49
   2   7  -2    4.67    0.26
  -2   7   2    4.76    0.48
  -2   7   2    5.39    0.45
  -2   7   2    4.69    0.51
   2   7  -2    4.96    0.39
  -1  -7   2   17.83    0.80
  -1   7   2   17.67    0.82
   1   7  -2   17.25    0.68
   1   7  -2   17.52    0.75
  -1   7   2   18.40    0.78
   0   7   2   19.05    0.79
   0   7  -2   19.37    0.83
   0   7  -2   20.34    0.76
   0   7   2   19.08    0.83
  -1  -7  -2   19.38    0.84
  -1   7  -2   19.61    0.86
  -1   7  -2   18.78    0.78
   1   7   2   19.71    0.83
  -2  -7  -2   18.14    0.82
  -2   7  -2   19.10    0.84
   2   7   2   16.85    0.74
  -2   7  -2   18.60    0.87
  -3   7  -2   22.21    0.98
  -3   7  -2   21.32    0.97
   3   7   2   22.62    0.82
  -4   7  -2    2.49    0.44
  -4   7  -2    2.87    0.43
  -5   7  -2    3.60    0.56
  -5   7  -2    3.00    0.45
  -5   8   2    2.18    0.42
  -5   8   2    2.22    0.48
  -4   8   2    3.26    0.49
  -4   8   2    2.88    0.47
  -3   8   2    1.79    0.36
  -3   8   2    1.67    0.36
   2   8  -2    8.46    0.53
  -2   8   2    9.98    0.63
  -2   8   2    9.30    0.64
   1   8  -2   38.44    1.18
  -1   8   2   36.75    1.27
   1   8  -2   36.11    1.25
  -1   8   2   37.55    1.35
   0   8  -2   26.84    0.98
   0   8   2   27.41    1.10
   0   8   2   28.83    1.06
   0   8  -2   28.10    1.09
  -1   8  -2   12.93    0.75
  -1   8  -2   14.03    0.69
   1   8   2   11.80    0.68
  -2   8  -2    1.91    0.32
  -2   8  -2    1.55    0.33
   2   8   2    1.99    0.33
  -3   8  -2    0.15    0.18
  -3   8  -2    0.43    0.23
  -4   8  -2    2.76    0.46
  -4   8  -2    1.84    0.39
  -5   8  -2    1.29    0.41
  -5   8  -2    1.83    0.39
  -4   9   2    2.99    0.48
  -4   9   2    2.88    0.51
  -3   9   2    1.87    0.40
  -3   9   2    1.83    0.36
  -2   9   2    3.11    0.48
  -2   9   2    3.85    0.47
  -1   9   2    8.43    0.59
   1   9  -2    8.22    0.52
   1   9  -2    6.94    0.56
  -1   9   2    7.62    0.62
   0   9   2    2.25    0.41
   0   9   2    2.32    0.37
   0   9  -2    2.66    0.37
   0   9  -2    1.95    0.38
  -1   9  -2    1.81    0.32
  -1   9  -2    2.62    0.44
   1   9   2    2.31    0.41
  -2   9  -2    5.37    0.61
  -2   9  -2    5.15    0.47
  -3   9  -2   12.76    0.84
  -3   9  -2   13.62    0.81
  -4   9  -2    2.74    0.47
  -4   9  -2    3.43    0.54
  -4  10   2    3.90    0.61
  -4  10   2    5.47    0.66
  -3  10   2    0.99    0.35
  -3  10   2    1.00    0.32
  -2  10   2    0.09    0.19
  -2  10   2    0.00    0.23
   1  10  -2    1.10    0.32
  -1  10   2    1.33    0.37
  -1  10   2    0.77    0.27
   1  10  -2    0.99    0.26
   0  10  -2    8.72    0.66
   0  10  -2    7.86    0.56
   0  10   2    8.07    0.60
   0  10   2    7.57    0.66
  -1  10  -2    2.35    0.47
   1  10   2    1.58    0.35
  -1  10  -2    1.92    0.35
  -2  10  -2   10.41    0.69
  -2  10  -2   11.26    0.79
  -3  10  -2    4.68    0.57
  -3  10  -2    4.90    0.64
  -2  11   2    0.09    0.21
  -2  11   2    0.69    0.32
  -1  11   2    2.28    0.42
  -1  11   2    3.00    0.53
   0  11  -2    1.34    0.32
   0  11  -2    1.63    0.41
   0  11   2    0.75    0.34
   0  11   2    1.25    0.33
  -1  11  -2    0.76    0.26
  -1  11  -2    0.61    0.30
  -2  11  -2    2.54    0.44
  -2  11  -2    2.70    0.53
  -7   0   3    2.51    0.43
  -6   0   3   27.21    1.09
  -5   0   3    0.34    0.08
  -5   0   3    0.54    0.21
  -5   0   3    0.30    0.06
  -4   0   3    0.63    0.17
  -4   0   3    0.83    0.09
  -4   0   3    1.03    0.11
  -3   0   3   27.07    0.64
  -3   0   3   26.58    0.78
  -3   0   3   26.85    0.63
  -2   0   3  318.62    5.98
  -2   0   3  316.46    6.34
  -2   0   3  328.01    5.98
  -1   0   3    0.78    0.07
  -1   0   3    0.60    0.09
   1   0  -3    0.74    0.07
   0   0   3  194.03    4.74
   0   0   3  207.34    3.90
   0   0  -3  200.42    3.89
   0   0  -3  207.44    4.75
   0   0  -3  209.14    3.90
   0   0   3  204.46    3.89
   1   0   3  221.85    4.32
  -1   0  -3  227.67    4.33
  -1   0  -3  226.43    4.33
   1   0   3  232.67    4.33
  -2   0  -3   26.79    0.70
   2   0   3   26.46    0.66
   2   0   3   26.51    0.66
  -2   0  -3   26.30    0.70
   3   0   3    4.40    0.18
  -3   0  -3    4.68    0.25
  -3   0  -3    4.49    0.25
   3   0   3    4.37    0.18
  -4   0  -3    9.48    0.40
  -4   0  -3    9.00    0.39
  -5   0  -3    7.66    0.37
  -6   0  -3    4.52    0.31
  -7   0  -3    0.39    0.32
  -7   0  -3    0.69    0.16
  -7   1   3    4.70    0.57
  -6  -1   3    1.06    0.29
  -6   1   3    1.36    0.16
  -6   1   3    1.12    0.27
  -6   1   3    1.41    0.15
  -5  -1   3    4.06    0.16
  -5  -1   3    3.90    0.16
  -5  -1   3    4.49    0.39
  -5   1   3    3.80    0.21
  -5   1   3    4.06    0.23
  -5   1   3    3.54    0.40
  -4  -1   3   46.72    1.28
  -4  -1   3   45.45    0.96
  -4   1   3   45.60    1.04
  -4   1   3   43.83    1.28
  -4   1   3   45.85    1.03
  -3  -1   3   89.23    2.02
  -3  -1   3   89.99    1.78
  -3   1   3   91.72    1.84
  -3   1   3   91.42    1.85
  -3   1   3   89.04    2.07
   2  -1  -3   20.79    0.51
  -2  -1   3   20.85    0.53
   2  -1  -3   21.17    0.62
  -2  -1   3   20.50    0.53
  -2   1   3   20.04    0.59
   2   1  -3   21.53    0.46
  -2   1   3   20.99    0.57
  -2   1   3   20.92    0.55
  -1  -1   3   58.84    1.20
   1  -1  -3   54.67    1.21
  -1  -1   3   54.99    1.39
   1  -1  -3   55.24    1.20
  -1   1   3   53.99    1.20
  -1   1   3   55.87    1.20
  -1   1   3   54.61    1.21
   0  -1  -3   13.30    0.43
   0  -1  -3   12.80    0.41
   0  -1   3   12.97    0.42
   0   1  -3   13.33    0.47
   0   1   3   13.71    0.42
   0   1   3   12.92    0.42
   0   1  -3   13.60    0.42
   1  -1   3  679.43   12.44
   1  -1   3  678.97   12.44
  -1  -1  -3  669.75   15.70
  -1  -1  -3  678.03   12.44
  -1  -1  -3  652.18   12.42
  -1   1  -3  681.25   12.46
   1   1   3  681.89   12.44
   1   1   3  670.90   12.42
   2  -1   3   98.48    2.00
  -2  -1  -3   94.69    2.01
  -2  -1  -3   98.27    2.02
   2  -1   3   98.29    2.00
   2   1   3   97.43    1.97
  -2   1  -3   99.07    2.05
   2   1   3   96.87    1.96
  -3  -1  -3    4.87    0.26
  -3  -1  -3    4.86    0.26
   3  -1   3    4.19    0.20
   3  -1   3    4.51    0.21
  -3   1  -3    4.33    0.27
   3   1   3    4.25    0.16
   3   1   3    4.33    0.17
  -4  -1  -3   35.72    0.93
  -4  -1  -3   36.51    0.95
  -4   1  -3   36.85    0.98
  -5  -1  -3    5.64    0.31
  -5  -1  -3    5.19    0.31
  -5   1  -3    5.85    0.35
  -6  -1  -3    2.61    0.26
  -6   1  -3    3.61    0.57
  -6   1  -3    2.72    0.29
  -7  -1  -3    1.79    0.23
  -7   1  -3    1.40    0.23
  -7   1  -3    1.44    0.44
  -7   2   3    0.63    0.29
  -7   2   3    0.79    0.15
  -6  -2   3    6.48    0.52
  -6   2   3    5.99    0.53
  -6   2   3    6.04    0.34
  -5  -2   3   16.71    0.46
  -5   2   3   17.37    0.59
  -5   2   3   16.49    0.55
  -5   2   3   15.70    0.76
  -4  -2   3   33.25    0.79
  -4   2   3   33.41    0.87
  -4   2   3   34.68    0.91
  -4   2   3   33.83    1.08
   3  -2  -3    6.89    0.22
  -3  -2   3    6.71    0.27
  -3   2   3    6.71    0.38
  -3   2   3    6.32    0.30
  -3   2   3    6.47    0.32
  -2  -2   3    6.90    0.29
   2  -2  -3    6.39    0.28
   2  -2  -3    7.22    0.35
  -2   2   3    7.01    0.32
  -2   2   3    7.00    0.33
   2   2  -3    6.95    0.24
  -2   2   3    6.73    0.30
   1  -2  -3   73.69    1.55
  -1  -2   3   69.51    1.81
  -1  -2   3   70.48    1.54
  -1  -2   3   73.41    1.47
   1  -2  -3   73.77    1.62
   1  -2  -3   73.03    1.56
  -1   2   3   73.38    1.56
   1   2  -3   74.27    1.75
  -1   2   3   71.21    1.60
  -1   2   3   71.68    1.58
   1   2  -3   70.86    1.46
   0  -2  -3   82.75    1.75
   0  -2  -3   82.71    1.80
   0  -2   3   84.55    1.77
   0  -2  -3   82.77    1.76
   0   2  -3   81.79    1.77
   0   2   3   82.95    1.77
   0   2   3   80.36    1.74
   0   2  -3   84.13    1.76
  -1  -2  -3    5.74    0.29
  -1  -2  -3    6.09    0.29
   1  -2   3    6.44    0.31
  -1   2  -3    5.40    0.32
   1   2   3    5.95    0.29
   1   2   3    5.91    0.28
  -1   2  -3    6.45    0.32
   1   2   3    7.25    0.30
  -2  -2  -3   67.41    1.73
  -2  -2  -3   67.90    1.50
   2  -2   3   66.85    1.51
  -2  -2  -3   67.38    1.51
  -2   2  -3   68.44    1.55
  -2   2  -3   67.02    1.74
   2   2   3   67.53    1.45
   2   2   3   69.53    1.48
  -3  -2  -3    8.21    0.37
  -3  -2  -3    8.15    0.36
  -3  -2  -3    8.13    0.35
   3  -2   3    9.28    0.35
  -3   2  -3    8.35    0.40
  -3   2  -3    7.91    0.52
   3   2   3    8.51    0.28
   3   2   3    8.59    0.27
  -4  -2  -3   26.44    0.78
   4  -2   3   26.65    0.58
  -4  -2  -3   27.23    0.78
  -4   2  -3   27.94    0.85
  -4   2  -3   28.14    1.13
  -5  -2  -3    2.04    0.23
  -5  -2  -3    1.56    0.20
  -5   2  -3    1.19    0.21
  -5   2  -3    2.19    0.41
  -6  -2  -3    2.96    0.27
  -6   2  -3    3.37    0.34
  -6   2  -3    4.13    0.62
  -7  -2  -3    1.19    0.19
  -7   2  -3    1.08    0.23
  -7   2  -3    0.90    0.41
  -7   3   3    5.62    0.38
  -7   3   3    7.17    0.64
  -6   3   3    2.22    0.38
  -6   3   3    2.56    0.30
  -5  -3   3    8.17    0.34
  -5   3   3    8.01    0.42
  -5   3   3    7.64    0.43
  -5   3   3    8.49    0.58
  -4  -3   3    6.36    0.31
  -4   3   3    6.49    0.37
  -4   3   3    6.61    0.45
  -4   3   3    6.45    0.35
  -3  -3   3   18.68    0.55
  -3  -3   3   18.44    0.58
  -3   3   3   18.67    0.63
  -3   3   3   20.05    0.67
  -3   3   3   19.79    0.72
  -2  -3   3   12.49    0.46
   2  -3  -3   13.59    0.48
  -2  -3   3   12.69    0.38
   2  -3  -3   12.71    0.53
  -2   3   3   13.23    0.49
   2   3  -3   12.59    0.41
  -2   3   3   12.84    0.51
  -2   3   3   12.11    0.49
  -1  -3   3   83.74    1.83
   1  -3  -3   84.09    1.91
   1  -3  -3   85.66    1.85
  -1  -3   3   85.03    1.78
   1   3  -3   82.69    2.08
  -1   3   3   84.95    1.91
   1   3  -3   82.25    1.76
  -1   3   3   83.63    1.84
   1   3  -3   83.13    1.81
  -1   3   3   86.35    1.88
   0  -3  -3  125.11    2.73
   0  -3   3  127.90    2.65
   0  -3  -3  127.97    2.65
   0  -3  -3  126.97    2.66
   0  -3   3  128.27    2.72
   0   3  -3  126.31    2.68
   0   3   3  130.65    2.64
   0   3   3  128.75    2.75
   0   3   3  127.56    2.67
   0   3  -3  129.44    2.66
  -1  -3  -3   19.07    0.64
   1  -3   3   21.35    0.67
  -1  -3  -3   20.16    0.64
  -1  -3  -3   20.96    0.66
  -1   3  -3   21.00    0.69
   1   3   3   21.21    0.66
   1   3   3   20.18    0.62
  -1   3  -3   21.01    0.68
  -2  -3  -3  106.54    2.29
  -2  -3  -3  107.70    2.30
   2  -3   3  110.49    2.32
  -2   3  -3  107.37    2.56
  -2   3  -3  106.63    2.35
   2   3   3  106.32    2.23
  -3  -3  -3   25.01    0.76
  -3  -3  -3   23.70    0.74
  -3  -3  -3   24.10    0.79
   3  -3   3   24.73    0.73
  -3   3  -3   24.33    0.81
   3   3   3   24.68    0.65
  -3   3  -3   25.75    0.98
  -4  -3  -3   10.64    0.47
  -4  -3  -3   10.05    0.44
   4  -3   3   10.36    0.37
  -4  -3  -3   10.21    0.45
  -4   3  -3   10.21    0.67
  -4   3  -3   10.27    0.51
  -5  -3  -3    6.89    0.38
  -5  -3  -3    6.72    0.38
  -5  -3  -3    6.83    0.43
  -5   3  -3    7.45    0.46
  -5   3  -3    7.14    0.66
  -6  -3  -3    5.30    0.35
  -6   3  -3    5.09    0.40
  -6   3  -3    6.67    0.75
  -6   4   3    0.60    0.27
  -6   4   3    0.53    0.20
  -5  -4   3   15.36    0.57
  -5  -4   3   15.20    0.52
  -5   4   3   16.31    0.81
  -5   4   3   16.32    0.69
  -4  -4   3    5.59    0.34
  -4   4   3    5.83    0.46
  -4   4   3    5.59    0.39
  -4   4   3    5.72    0.38
  -3  -4   3   46.11    1.20
  -3  -4   3   46.22    1.14
  -3   4   3   46.47    1.36
  -3   4   3   45.60    1.24
   3   4  -3   49.18    1.02
  -3   4   3   47.23    1.29
  -2  -4   3   60.62    1.38
  -2  -4   3   61.06    1.47
  -2   4   3   61.94    1.50
  -2   4   3   60.28    1.53
  -2   4   3   59.85    1.56
   2   4  -3   61.18    1.40
   1  -4  -3   54.66    1.39
  -1  -4   3   54.76    1.34
  -1  -4   3   54.00    1.26
   1  -4  -3   52.48    1.34
  -1   4   3   54.05    1.34
  -1   4   3   52.31    1.37
   1   4  -3   53.90    1.31
   1   4  -3   51.99    1.23
  -1   4   3   52.12    1.36
   0  -4   3   47.41    1.22
   0  -4   3   48.23    1.24
   0  -4  -3   46.86    1.22
   0  -4  -3   47.06    1.23
   0  -4  -3   48.30    1.24
   0   4   3   46.70    1.24
   0   4   3   47.65    1.25
   0   4  -3   47.12    1.23
   0   4   3   48.26    1.21
   0   4  -3   46.89    1.18
  -1  -4  -3   14.26    0.56
  -1  -4  -3   14.73    0.58
   1  -4   3   14.25    0.60
  -1  -4  -3   13.78    0.55
   1  -4   3   14.01    0.58
   1   4   3   14.32    0.54
  -1   4  -3   14.19    0.58
  -1   4  -3   13.51    0.56
   1   4   3   14.66    0.56
  -2  -4  -3  110.66    2.45
  -2  -4  -3  110.86    2.44
  -2   4  -3  114.68    2.68
  -2   4  -3  112.09    2.50
  -3  -4  -3   23.68    0.80
  -3  -4  -3   24.15    0.79
  -3   4  -3   23.99    0.97
   3   4   3   25.03    0.71
  -3   4  -3   24.15    0.85
  -4  -4  -3   32.48    0.98
  -4  -4  -3   33.15    1.00
   4  -4   3   32.63    0.91
  -4   4  -3   33.74    1.08
  -4   4  -3   33.44    1.28
  -5  -4  -3   10.10    0.51
  -5   4  -3    9.85    0.74
  -5   4  -3   10.94    0.60
  -6  -4  -3    3.41    0.34
  -6   4  -3    4.32    0.65
  -6   4  -3    4.48    0.47
  -6   5   3    3.68    0.43
  -6   5   3    4.16    0.56
  -5   5   3    1.09    0.29
  -5   5   3    1.22    0.26
  -4  -5   3    9.69    0.46
  -4  -5   3   10.00    0.50
  -4   5   3   10.54    0.62
  -4   5   3   10.57    0.57
  -4   5   3   11.62    0.60
  -3  -5   3    5.94    0.39
  -3  -5   3    5.66    0.31
  -3   5   3    5.47    0.43
  -3   5   3    5.60    0.40
  -3   5   3    4.97    0.41
   3   5  -3    4.97    0.27
  -2  -5   3    8.93    0.47
  -2  -5   3    8.69    0.37
  -2   5   3    8.28    0.48
  -2   5   3    9.14    0.48
  -2   5   3    9.57    0.52
  -1  -5   3    7.35    0.36
  -1  -5   3    7.50    0.43
  -1   5   3    7.18    0.42
  -1   5   3    7.24    0.45
   1   5  -3    7.07    0.40
   1   5  -3    7.75    0.35
  -1   5   3    7.45    0.43
   0  -5   3   13.58    0.60
   0  -5  -3   13.60    0.60
   0  -5   3   13.59    0.56
   0   5  -3   13.30    0.52
   0   5   3   13.24    0.60
   0   5  -3   13.93    0.59
   0   5   3   13.37    0.57
   0   5   3   14.34    0.59
  -1  -5  -3   37.61    1.12
  -1  -5  -3   37.60    1.10
   1   5   3   36.97    1.09
  -1   5  -3   37.31    1.13
  -1   5  -3   35.41    1.09
  -2  -5  -3    6.05    0.40
  -2  -5  -3    6.44    0.42
   2   5   3    6.92    0.40
  -2   5  -3    7.44    0.47
   2   5   3    5.76    0.27
  -2   5  -3    6.44    0.45
  -3  -5  -3    7.24    0.46
  -3  -5  -3    7.89    0.46
  -3   5  -3    8.49    0.52
  -3   5  -3   10.12    0.61
   3   5   3    7.31    0.38
   4  -5   3   12.41    0.58
  -4  -5  -3   11.87    0.58
  -4   5  -3   11.60    0.63
   4   5   3   12.14    0.38
  -4   5  -3   11.51    0.73
  -5  -5  -3    0.78    0.20
  -5   5  -3    0.95    0.25
  -5   5  -3    1.44    0.40
  -6   5  -3    2.62    0.54
  -6   5  -3    3.73    0.46
  -6   6   3    0.48    0.23
  -6   6   3    0.65    0.32
  -5   6   3    1.00    0.27
  -5   6   3    2.07    0.39
  -4   6   3    2.01    0.35
  -4   6   3    1.65    0.30
  -3  -6   3   24.71    0.89
  -3  -6   3   22.95    0.76
  -3   6   3   23.79    0.95
  -3   6   3   23.53    0.89
  -3   6   3   23.85    0.95
   3   6  -3   22.72    0.73
  -2  -6   3    1.78    0.27
  -2  -6   3    2.07    0.24
   2   6  -3    1.89    0.13
  -2   6   3    1.75    0.27
   2   6  -3    1.71    0.24
  -2   6   3    2.68    0.35
  -2   6   3    1.52    0.26
  -1  -6   3   16.30    0.72
  -1  -6   3   17.05    0.64
  -1   6   3   16.12    0.70
  -1   6   3   15.76    0.70
  -1   6   3   16.42    0.74
   1   6  -3   16.29    0.69
   1   6  -3   19.16    0.63
   0  -6  -3    6.10    0.44
   0  -6   3    5.51    0.44
   0   6   3    6.06    0.40
   0   6  -3    5.58    0.35
   0   6   3    5.77    0.42
   0   6  -3    4.63    0.38
  -1  -6  -3   27.64    0.97
  -1   6  -3   26.98    0.98
  -1   6  -3   27.69    0.94
   1   6   3   26.27    0.94
  -2  -6  -3    1.99    0.29
  -2   6  -3    1.82    0.30
   2   6   3    2.01    0.28
  -2   6  -3    1.73    0.30
   2   6   3    1.90    0.18
  -3  -6  -3    4.49    0.44
  -3  -6  -3    4.93    0.40
   3   6   3    5.18    0.35
  -3   6  -3    5.00    0.50
  -3   6  -3    4.82    0.45
  -4   6  -3    7.53    0.61
  -4   6  -3    7.27    0.54
  -5   6  -3   -0.03    0.20
  -5   6  -3    0.00    0.16
  -6   6  -3    8.67    0.63
  -6   6  -3    7.87    0.85
  -5   7   3    4.76    0.58
  -5   7   3    5.07    0.57
  -4   7   3    7.73    0.60
  -4   7   3    7.04    0.57
  -3   7   3   23.76    1.01
  -3   7   3   22.89    0.99
  -2  -7   3   25.74    0.98
   2   7  -3   25.21    0.90
  -2   7   3   24.91    1.02
   2   7  -3   25.11    0.76
  -2   7   3   24.13    0.98
  -2   7   3   25.12    0.98
  -1  -7   3   22.45    0.93
  -1   7   3   22.71    0.91
  -1   7   3   22.09    0.93
   1   7  -3   22.87    0.79
   1   7  -3   22.67    0.88
   0   7   3    2.02    0.32
   0   7  -3    1.88    0.27
   0   7   3    1.74    0.30
   0   7  -3    2.00    0.31
  -1  -7  -3    6.04    0.51
   1   7   3    5.58    0.45
  -1   7  -3    6.17    0.43
  -1   7  -3    5.89    0.49
  -2  -7  -3   37.50    1.26
   2   7   3   35.74    1.12
  -2   7  -3   37.99    1.30
  -2   7  -3   38.22    1.32
   2   7   3   38.18    1.21
  -3   7  -3    5.75    0.51
  -3   7  -3    7.04    0.56
  -4   7  -3    4.56    0.56
  -4   7  -3    5.70    0.60
  -5   7  -3    6.97    0.76
  -5   7  -3    6.81    0.69
  -5   8   3    0.04    0.21
  -5   8   3   -0.07    0.23
  -4   8   3    2.06    0.40
  -4   8   3    2.09    0.39
  -3   8   3    0.21    0.21
  -3   8   3   -0.09    0.17
  -2   8   3    4.51    0.49
  -2   8   3    4.89    0.54
   2   8  -3    4.60    0.46
  -1   8   3   16.17    0.84
   1   8  -3   16.07    0.78
   1   8  -3   15.30    0.67
  -1   8   3   15.32    0.77
   0   8   3    0.08    0.17
   0   8   3    0.24    0.17
   0   8  -3    0.03    0.11
   0   8  -3    0.29    0.20
  -1   8  -3    5.21    0.55
  -1   8  -3    6.19    0.45
   1   8   3    4.62    0.49
   2   8   3    2.74    0.27
  -2   8  -3    4.02    0.52
   2   8   3    3.74    0.44
  -2   8  -3    3.81    0.45
  -3   8  -3    1.09    0.30
  -3   8  -3    1.07    0.30
  -4   8  -3    2.20    0.42
  -4   8  -3    2.54    0.43
  -5   8  -3    1.75    0.47
  -5   8  -3    1.76    0.40
  -4   9   3    2.25    0.43
  -4   9   3    3.08    0.50
  -3   9   3    6.72    0.57
  -3   9   3    6.01    0.67
  -2   9   3    4.68    0.58
  -2   9   3    3.46    0.47
   1   9  -3    8.93    0.53
  -1   9   3    8.92    0.67
  -1   9   3    8.34    0.60
   1   9  -3    8.29    0.60
   0   9   3   11.93    0.71
   0   9   3   10.52    0.71
   0   9  -3   12.66    0.66
   0   9  -3   12.27    0.75
   1   9   3    8.58    0.64
  -1   9  -3    8.23    0.55
  -1   9  -3    7.85    0.63
  -2   9  -3    4.61    0.52
  -2   9  -3    5.65    0.63
  -3   9  -3    3.49    0.48
  -3   9  -3    4.18    0.57
  -4   9  -3    1.72    0.41
  -4   9  -3    2.14    0.45
  -3  10   3    6.43    0.74
  -3  10   3    5.87    0.66
  -2  10   3    1.01    0.32
  -2  10   3    1.10    0.35
  -1  10   3    7.90    0.69
  -1  10   3    9.21    0.66
   1  10  -3    9.76    0.59
   0  10  -3    0.89    0.24
   0  10   3    0.85    0.31
   0  10  -3    0.53    0.25
   0  10   3    1.04    0.31
   1  10   3    7.03    0.63
  -1  10  -3    8.40    0.80
  -1  10  -3    8.24    0.59
  -2  10  -3    0.37    0.27
  -2  10  -3    0.08    0.17
  -3  10  -3    7.16    0.62
  -3  10  -3    7.88    0.81
  -2  11   3   -0.01    0.25
  -2  11   3   -0.02    0.21
  -1  11   3    1.43    0.39
  -1  11   3    2.12    0.41
   0  11  -3    4.92    0.64
   0  11  -3    3.76    0.48
   0  11   3    3.67    0.56
  -1  11  -3   10.15    0.68
  -1  11  -3    8.48    0.75
  -2  11  -3    2.18    0.49
  -2  11  -3    2.60    0.45
  -6   0   4    0.99    0.13
  -6   0   4    1.08    0.12
  -6   0   4    0.65    0.23
  -5   0   4   12.77    0.41
  -5   0   4   13.44    0.43
  -5   0   4   13.08    0.61
  -4   0   4    2.62    0.26
  -4   0   4    2.71    0.18
  -4   0   4    2.36    0.18
  -3   0   4    3.15    0.19
  -3   0   4    2.92    0.20
  -3   0   4    3.29    0.20
  -2   0   4   92.54    1.91
  -2   0   4   90.88    1.91
  -2   0   4   92.53    1.92
   2   0  -4   95.83    1.85
  -1   0   4  132.47    2.65
   1   0  -4  135.59    2.64
  -1   0   4  130.55    2.65
   1   0  -4  132.46    2.64
   0   0  -4   71.94    1.55
   0   0   4   72.45    1.55
   0   0   4   72.35    1.57
   0   0   4   71.12    1.84
   0   0  -4   73.03    1.56
  -1   0  -4    0.24    0.09
  -1   0  -4    0.34    0.11
  -2   0  -4   24.03    0.70
   2   0   4   23.21    0.65
  -2   0  -4   23.65    0.69
  -3   0  -4    8.35    0.39
  -3   0  -4    7.90    0.38
   3   0   4    8.02    0.32
  -4   0  -4    0.49    0.14
  -4   0  -4    0.69    0.15
  -5   0  -4    0.83    0.17
  -6   0  -4    1.26    0.22
  -7   1   4    2.63    0.18
  -6  -1   4    0.22    0.06
  -6  -1   4    0.17    0.06
  -6  -1   4   -0.08    0.16
  -6   1   4    0.01    0.09
  -6   1   4    0.36    0.20
  -5  -1   4   10.69    0.34
  -5  -1   4    9.58    0.34
  -5  -1   4    9.28    0.51
  -5   1   4    8.56    0.52
  -5   1   4    9.04    0.37
  -5   1   4    9.89    0.40
  -4  -1   4   33.95    0.82
  -4  -1   4   34.95    0.99
  -4  -1   4   34.34    0.82
  -4   1   4   33.71    1.02
  -4   1   4   34.51    0.86
  -4   1   4   34.29    0.88
  -3  -1   4    6.65    0.28
  -3  -1   4    7.16    0.30
  -3   1   4    7.05    0.32
  -3   1   4    6.92    0.34
  -3   1   4    6.76    0.30
  -2  -1   4   37.73    0.90
   2  -1  -4   38.16    0.87
  -2  -1   4   38.60    0.79
   2  -1  -4   36.16    0.94
   2  -1  -4   37.25    0.88
  -2   1   4   37.01    0.93
  -2   1   4   37.34    0.92
   2   1  -4   38.44    0.84
  -2   1   4   37.97    0.92
   1  -1  -4   57.72    1.29
   1  -1  -4   60.88    1.32
  -1  -1   4   58.32    1.31
  -1  -1   4   58.48    1.54
   1  -1  -4   59.92    1.32
  -1   1   4   58.37    1.33
   1   1  -4   59.30    1.30
  -1   1   4   59.37    1.32
  -1   1   4   61.11    1.30
   0  -1   4  279.30    5.50
   0  -1   4  295.21    5.52
   0  -1  -4  278.33    5.49
   0  -1  -4  286.06    5.51
   0   1   4  290.86    5.52
   0   1  -4  294.63    5.51
   0   1   4  293.85    5.50
   0   1  -4  289.94    6.71
   1  -1   4   24.29    0.70
   1  -1   4   24.03    0.69
  -1  -1  -4   24.26    0.77
  -1  -1  -4   23.35    0.69
  -1  -1  -4   24.07    0.68
   1   1   4   25.25    0.68
  -1   1  -4   23.27    0.69
   1   1   4   24.40    0.69
   1   1   4   25.52    0.75
  -2  -1  -4   81.20    2.04
   2  -1   4   78.67    1.72
  -2  -1  -4   79.05    1.74
  -2  -1  -4   77.26    1.73
  -2   1  -4   79.15    1.76
   2   1   4   78.83    1.69
   3  -1   4    1.57    0.17
  -3  -1  -4    1.36    0.19
   3   1   4    1.74    0.15
  -3   1  -4    1.36    0.19
   4  -1   4   18.24    0.43
  -4  -1  -4   18.71    0.64
  -4  -1  -4   17.46    0.62
  -4   1  -4   19.06    0.66
  -5  -1  -4    3.25    0.32
  -5  -1  -4    3.38    0.28
  -5   1  -4    3.43    0.29
  -6  -1  -4    0.20    0.12
  -6   1  -4   -0.03    0.11
  -6   1  -4    0.23    0.26
  -7   2   4    3.57    0.28
  -7   2   4    4.34    0.53
  -6  -2   4    0.81    0.11
  -6  -2   4    0.51    0.22
  -6  -2   4    0.80    0.11
  -6   2   4    0.65    0.16
  -6   2   4    1.10    0.29
  -5  -2   4   12.75    0.60
  -5  -2   4   13.27    0.43
  -5   2   4   13.71    0.51
  -5   2   4   12.92    0.66
  -5   2   4   13.50    0.53
  -4  -2   4   10.81    0.46
  -4  -2   4   10.15    0.38
  -4   2   4   10.21    0.42
  -4   2   4    9.59    0.43
  -4   2   4    9.44    0.50
   3  -2  -4    7.04    0.42
   3  -2  -4    7.59    0.27
  -3  -2   4    6.56    0.31
  -3   2   4    6.73    0.37
  -3   2   4    6.70    0.33
  -3   2   4    6.99    0.35
  -2  -2   4   12.03    0.28
   2  -2  -4   11.82    0.46
   2  -2  -4   13.34    0.44
  -2  -2   4   12.04    0.44
  -2  -2   4   12.56    0.45
  -2   2   4   11.87    0.45
  -2   2   4   12.91    0.48
   2   2  -4   12.18    0.38
  -2   2   4   13.23    0.46
  -1  -2   4   60.38    1.67
   1  -2  -4   64.66    1.45
   1  -2  -4   64.12    1.44
  -1  -2   4   63.38    1.44
   1  -2  -4   62.42    1.45
   1   2  -4   64.08    1.42
   1   2  -4   61.13    1.28
  -1   2   4   65.10    1.48
  -1   2   4   66.74    1.46
  -1   2   4   65.85    1.46
   0  -2   4   39.68    1.01
   0  -2  -4   39.47    0.99
   0  -2  -4   39.22    1.01
   0  -2  -4   39.14    1.00
   0   2   4   40.47    1.01
   0   2  -4   39.50    0.97
   0   2  -4   40.39    1.01
   0   2   4   39.59    1.02
   0   2  -4   41.69    1.17
  -1  -2  -4    8.79    0.38
   1  -2   4    8.63    0.39
  -1  -2  -4    9.03    0.39
   1   2   4    8.80    0.39
   1   2   4    8.65    0.37
  -1   2  -4    8.39    0.40
  -2  -2  -4   87.85    1.96
  -2  -2  -4   90.57    1.98
   2  -2   4   90.32    1.97
  -2  -2  -4   91.29    2.31
   2  -2   4   90.07    1.97
   2   2   4   90.45    1.92
  -2   2  -4   91.05    2.02
  -3  -2  -4    2.93    0.28
   3  -2   4    3.66    0.25
  -3  -2  -4    3.22    0.25
  -3  -2  -4    3.83    0.27
  -3   2  -4    3.15    0.27
   3   2   4    3.00    0.20
  -4  -2  -4    6.59    0.37
  -4  -2  -4    6.19    0.37
  -4  -2  -4    6.76    0.36
   4  -2   4    6.32    0.27
  -4   2  -4    6.91    0.40
  -5  -2  -4    4.31    0.32
  -5  -2  -4    3.89    0.30
  -5   2  -4    4.53    0.61
  -5   2  -4    4.72    0.36
  -6  -2  -4    1.33    0.23
  -6  -2  -4    1.47    0.28
  -6   2  -4    1.04    0.23
  -6   2  -4    1.22    0.41
  -6   3   4    3.18    0.44
  -6   3   4    2.77    0.32
  -5  -3   4   12.92    0.48
  -5   3   4   12.11    0.56
  -5   3   4   13.49    0.69
  -4  -3   4    7.16    0.35
  -4   3   4    6.66    0.45
  -4   3   4    7.46    0.39
  -4   3   4    6.53    0.39
  -3  -3   4    5.57    0.27
  -3  -3   4    3.97    0.27
  -3  -3   4    4.18    0.20
  -3   3   4    4.60    0.32
   3   3  -4    4.67    0.16
   3   3  -4    4.54    0.16
  -3   3   4    4.00    0.32
  -3   3   4    4.66    0.31
  -2  -3   4   23.60    0.72
   2  -3  -4   23.39    0.77
  -2  -3   4   23.69    0.78
  -2  -3   4   23.87    0.57
  -2   3   4   24.65    0.77
  -2   3   4   24.03    0.77
   2   3  -4   23.80    0.66
  -2   3   4   24.82    0.75
   1  -3  -4   37.95    1.01
  -1  -3   4   38.85    1.02
   1  -3  -4   37.54    1.00
  -1  -3   4   36.76    0.88
   1  -3  -4   38.14    1.02
  -1   3   4   37.29    1.01
  -1   3   4   38.21    1.04
   1   3  -4   37.37    1.06
  -1   3   4   37.27    1.00
   1   3  -4   38.69    0.99
   1   3  -4   36.63    0.84
   0  -3  -4   40.50    1.05
   0  -3  -4   39.71    1.04
   0  -3  -4   39.32    1.06
   0  -3   4   38.28    1.05
   0   3   4   40.48    1.05
   0   3  -4   39.63    0.99
   0   3  -4   39.66    1.06
   0   3   4   40.84    1.08
  -1  -3  -4   15.42    0.57
   1  -3   4   16.34    0.60
  -1  -3  -4   15.43    0.58
   1   3   4   15.93    0.58
  -1   3  -4   16.69    0.61
   1   3   4   16.14    0.57
  -1   3  -4   15.78    0.61
   1   3   4   16.23    0.60
  -2  -3  -4   25.97    0.78
  -2  -3  -4   25.81    0.79
   2   3   4   20.75    0.72
  -2   3  -4   26.37    0.83
  -2   3  -4   26.44    0.93
   3  -3   4    1.20    0.19
  -3  -3  -4    1.43    0.21
  -3  -3  -4    1.54    0.21
  -3   3  -4    1.24    0.26
   3   3   4    1.26    0.16
  -3   3  -4    1.26    0.21
  -4  -3  -4    9.51    0.47
   4  -3   4   10.02    0.41
  -4  -3  -4   10.14    0.49
  -4  -3  -4    9.68    0.48
  -4   3  -4   10.61    0.54
  -4   3  -4   11.43    0.71
  -5  -3  -4    4.65    0.35
  -5  -3  -4    4.43    0.34
  -5   3  -4    4.67    0.39
  -5   3  -4    4.14    0.58
  -6  -3  -4   19.07    0.74
  -6   3  -4   20.26    0.84
  -6   3  -4   19.51    1.17
  -6   4   4    2.80    0.35
  -6   4   4    1.95    0.38
  -5  -4   4    1.16    0.17
  -5   4   4    1.30    0.30
  -5   4   4    0.75    0.22
  -4  -4   4   44.96    1.29
  -4  -4   4   45.43    1.19
  -4  -4   4   45.08    1.13
  -4   4   4   45.94    1.31
  -4   4   4   48.35    1.42
  -4   4   4   43.96    1.25
  -3  -4   4   12.16    0.52
  -3  -4   4   12.08    0.40
  -3   4   4   12.07    0.58
  -3   4   4   12.10    0.58
  -3   4   4   12.84    0.56
   3   4  -4   13.41    0.40
  -2  -4   4    1.04    0.12
  -2  -4   4    0.98    0.18
  -2   4   4    1.02    0.18
  -2   4   4    0.60    0.17
  -2   4   4    0.72    0.16
   2   4  -4    0.62    0.12
   1  -4  -4    2.58    0.29
  -1  -4   4    2.49    0.27
  -1  -4   4    2.08    0.17
   1  -4  -4    2.42    0.26
   1   4  -4    2.08    0.23
   1   4  -4    2.55    0.17
  -1   4   4    1.91    0.25
   1   4  -4    2.56    0.21
  -1   4   4    2.62    0.27
  -1   4   4    2.60    0.24
   0  -4  -4   30.41    0.90
   0  -4  -4   30.74    0.93
   0  -4   4   29.71    0.92
   0  -4  -4   29.89    0.92
   0  -4   4   29.25    0.88
   0   4  -4   29.73    0.91
   0   4   4   30.68    0.94
   0   4   4   31.48    0.91
   0   4  -4   30.59    0.84
  -1  -4  -4    4.11    0.32
   1  -4   4    4.82    0.35
  -1  -4  -4    4.31    0.32
  -1   4  -4    4.05    0.33
  -1   4  -4    4.05    0.31
   1   4   4    4.41    0.32
   1   4   4    4.17    0.31
  -2  -4  -4    2.31    0.27
  -2  -4  -4    2.18    0.26
  -2   4  -4    2.39    0.32
   2   4   4    2.94    0.25
   2   4   4    2.45    0.17
  -2   4  -4    2.66    0.30
  -3  -4  -4   13.24    0.58
  -3  -4  -4   13.46    0.60
  -3   4  -4   14.23    0.65
   3   4   4   15.11    0.54
  -3   4  -4   14.30    0.74
  -4  -4  -4   13.27    0.59
  -4  -4  -4   12.53    0.59
   4  -4   4   12.62    0.52
   4   4   4   12.97    0.39
  -4   4  -4   11.96    0.62
  -4   4  -4   14.31    0.83
  -5  -4  -4    2.53    0.30
  -5   4  -4    2.40    0.46
  -5   4  -4    3.00    0.38
  -6  -4  -4    0.08    0.15
  -6   4  -4    0.07    0.28
  -6   4  -4    0.18    0.17
  -6   5   4   10.38    0.63
  -6   5   4    8.86    0.69
  -5   5   4    1.65    0.29
  -5   5   4    2.02    0.36
  -4  -5   4    6.22    0.42
  -4   5   4    5.79    0.45
  -4   5   4    6.72    0.50
  -3  -5   4   31.55    0.99
  -3  -5   4   30.25    0.83
  -3   5   4   31.43    1.06
   3   5  -4   30.80    0.82
  -3   5   4   29.94    1.00
  -3   5   4   29.75    1.04
  -2  -5   4    3.18    0.32
  -2  -5   4    3.58    0.23
   2   5  -4    2.91    0.25
  -2   5   4    3.80    0.39
  -2   5   4    3.42    0.32
  -2   5   4    3.76    0.36
  -1  -5   4    8.95    0.40
  -1  -5   4    8.27    0.47
  -1   5   4    9.03    0.48
  -1   5   4    8.23    0.46
  -1   5   4    8.66    0.49
   1   5  -4    8.78    0.44
   1   5  -4    9.54    0.38
   1   5  -4    7.85    0.44
   0  -5  -4   11.49    0.57
   0  -5  -4   11.97    0.56
   0  -5   4   12.30    0.54
   0  -5   4   11.99    0.58
   0   5   4   10.54    0.53
   0   5  -4   11.62    0.56
   0   5   4   12.64    0.56
   0   5  -4   11.90    0.48
   0   5   4   11.87    0.57
  -1  -5  -4    5.18    0.38
  -1  -5  -4    5.64    0.39
   1   5   4    6.60    0.41
  -1   5  -4    5.95    0.38
  -1   5  -4    5.69    0.42
  -2  -5  -4    4.55    0.37
  -2  -5  -4    4.91    0.38
   2   5   4    5.78    0.38
  -2   5  -4    5.89    0.43
   2   5   4    5.15    0.28
  -2   5  -4    5.77    0.43
  -3  -5  -4    2.81    0.33
  -3  -5  -4    2.73    0.32
   3   5   4    3.09    0.27
  -3   5  -4    2.58    0.35
  -4  -5  -4    4.61    0.38
  -4   5  -4    3.68    0.50
  -4   5  -4    4.03    0.45
  -5  -5  -4    0.33    0.16
  -5   5  -4    0.15    0.26
  -5   5  -4   -0.17    0.15
  -6  -5  -4    3.31    0.38
  -6   5  -4    3.56    0.59
  -6   5  -4    4.52    0.52
  -6   6   4    1.73    0.34
  -6   6   4    1.54    0.39
  -5   6   4    1.64    0.35
  -5   6   4    1.46    0.29
  -4   6   4    6.26    0.50
  -4   6   4    6.35    0.50
  -3  -6   4   37.11    1.03
  -3  -6   4   38.95    1.21
  -3   6   4   37.99    1.28
  -3   6   4   37.04    1.27
   3   6  -4   38.76    1.05
  -3   6   4   38.97    1.24
  -2  -6   4    5.91    0.34
  -2  -6   4    6.17    0.44
  -2   6   4    6.57    0.46
   2   6  -4    5.65    0.24
  -2   6   4    5.22    0.42
  -2   6   4    5.81    0.47
   2   6  -4    6.67    0.40
  -1  -6   4    9.26    0.54
  -1  -6   4    9.31    0.46
  -1   6   4    8.52    0.54
  -1   6   4    9.23    0.53
   1   6  -4    9.15    0.51
  -1   6   4    9.00    0.53
   1   6  -4    9.26    0.42
   0  -6   4   30.76    1.07
   0   6  -4   28.69    0.91
   0   6   4   28.60    1.03
   0   6   4   30.81    1.03
   0   6  -4   29.16    1.02
  -1  -6  -4    4.86    0.47
   1   6   4    4.53    0.38
  -1   6  -4    4.73    0.37
  -1   6  -4    4.56    0.40
  -2  -6  -4    7.28    0.49
  -2  -6  -4    6.63    0.47
  -2   6  -4    6.26    0.47
   2   6   4    7.19    0.45
  -2   6  -4    6.94    0.51
   2   6   4    6.60    0.36
  -3  -6  -4   54.94    1.57
  -3  -6  -4   53.21    1.57
   3   6   4   53.24    1.45
  -3   6  -4   54.74    1.65
  -3   6  -4   55.85    1.73
  -4  -6  -4    3.79    0.42
  -4   6  -4    4.61    0.56
  -4   6  -4    4.40    0.50
  -5  -6  -4    2.73    0.38
  -5   6  -4    2.08    0.45
  -5   6  -4    2.36    0.40
  -5   7   4    0.70    0.26
  -5   7   4    1.15    0.34
  -4   7   4   15.97    0.85
  -4   7   4   15.99    0.84
  -3   7   4   14.59    0.77
  -3   7   4   16.91    0.85
  -2  -7   4    8.04    0.56
  -2   7   4    7.58    0.53
  -2   7   4    7.58    0.58
   2   7  -4    7.43    0.34
   2   7  -4    8.34    0.49
  -1  -7   4    1.97    0.36
  -1   7   4    2.22    0.37
   1   7  -4    1.92    0.30
  -1   7   4    1.56    0.30
   0   7  -4   36.63    1.12
   0   7   4   38.43    1.25
   0   7  -4   36.54    1.24
   0   7   4   35.60    1.25
  -1   7  -4   16.18    0.79
  -1   7  -4   14.91    0.69
   1   7   4   14.40    0.73
  -2  -7  -4    7.21    0.56
   2   7   4    8.19    0.53
   2   7   4    7.14    0.40
  -2   7  -4    7.58    0.57
  -2   7  -4    8.43    0.56
  -3   7  -4   22.45    1.02
  -3   7  -4   23.15    1.03
  -4   7  -4    0.57    0.24
  -4   7  -4    1.38    0.33
  -5   7  -4    0.92    0.33
  -5   7  -4    1.32    0.34
  -5   8   4    1.25    0.36
  -5   8   4    1.47    0.40
  -4   8   4    0.92    0.30
  -4   8   4    1.44    0.33
  -3   8   4    1.95    0.37
  -3   8   4    1.73    0.37
  -2   8   4    7.77    0.59
  -2   8   4    8.34    0.63
   2   8  -4    8.19    0.53
   1   8  -4   22.58    0.82
  -1   8   4   21.44    0.94
  -1   8   4   21.53    1.00
   1   8  -4   21.95    0.93
   0   8   4   47.51    1.55
   0   8  -4   46.22    1.38
   0   8  -4   48.15    1.54
   0   8   4   45.46    1.49
   1   8   4    8.87    0.59
  -1   8  -4   11.46    0.61
  -1   8  -4    8.76    0.62
   2   8   4    0.04    0.15
  -2   8  -4    0.24    0.22
   2   8   4    0.31    0.14
  -2   8  -4    0.09    0.18
  -3   8  -4    0.75    0.29
  -3   8  -4    1.43    0.33
  -4   8  -4    2.24    0.43
  -4   8  -4    1.74    0.39
  -5   8  -4    1.91    0.46
  -5   8  -4    1.81    0.41
  -4   9   4    1.95    0.42
  -4   9   4    1.45    0.38
  -3   9   4    0.28    0.24
  -3   9   4   -0.03    0.20
  -2   9   4    2.92    0.45
  -2   9   4    3.27    0.49
  -1   9   4   11.02    0.71
   1   9  -4    9.67    0.66
  -1   9   4   10.31    0.73
   1   9  -4   12.30    0.61
   0   9  -4    5.95    0.61
   0   9  -4    4.54    0.41
   0   9   4    4.14    0.52
   0   9   4    4.84    0.53
   1   9   4   13.39    0.80
  -1   9  -4   13.86    0.73
  -1   9  -4   13.43    0.84
  -2   9  -4   14.31    0.87
  -2   9  -4   14.95    0.81
  -3   9  -4    8.97    0.74
  -3   9  -4    9.67    0.70
  -4   9  -4    4.40    0.62
  -4   9  -4    3.51    0.53
  -3  10   4    0.46    0.28
  -3  10   4   -0.06    0.24
  -2  10   4    1.16    0.34
  -2  10   4    1.51    0.39
   1  10  -4    2.85    0.41
  -1  10   4    1.87    0.42
  -1  10   4    3.24    0.48
   0  10  -4    1.04    0.25
   0  10   4    1.12    0.35
   0  10  -4    0.49    0.27
  -1  10  -4    5.97    0.51
   1  10   4    7.23    0.80
  -1  10  -4    6.77    0.73
  -2  10  -4    2.17    0.48
  -2  10  -4    2.84    0.46
  -3  10  -4    0.40    0.25
  -3  10  -4    0.56    0.29
  -2  11   4    1.38    0.41
  -2  11   4    0.63    0.30
   1  11  -4    3.17    0.43
  -1  11   4    2.43    0.50
  -1  11   4    2.22    0.41
   0  11   4    0.66    0.32
   0  11  -4    0.81    0.26
  -1  11  -4    2.86    0.55
  -1  11  -4    3.00    0.46
  -2  11  -4   -0.19    0.26
  -2  11  -4    0.53    0.23
  -6   0   5   14.44    0.68
  -6   0   5   14.42    0.49
  -5   0   5    0.48    0.12
  -5   0   5    0.49    0.17
  -5   0   5    0.47    0.13
  -4   0   5    1.96    0.22
  -4   0   5    1.95    0.20
  -4   0   5    1.94    0.19
  -3   0   5    3.58    0.23
  -3   0   5    3.67    0.24
  -3   0   5    3.18    0.20
  -2   0   5  108.74    2.19
  -2   0   5  106.32    2.25
   2   0  -5  106.55    2.22
  -2   0   5  107.75    2.24
   2   0  -5  108.25    2.18
   1   0  -5   11.74    0.42
  -1   0   5   10.85    0.44
   1   0  -5   11.11    0.32
  -1   0   5   10.94    0.43
   1   0  -5   12.07    0.44
   0   0   5   52.11    1.25
   0   0   5   53.42    1.27
   0   0  -5   53.95    1.26
   0   0  -5   53.25    1.26
   0   0   5   51.92    1.46
  -1   0  -5    3.48    0.25
   1   0   5    2.81    0.24
   1   0   5    3.27    0.25
  -1   0  -5    3.01    0.25
  -1   0  -5    2.80    0.24
  -2   0  -5    0.27    0.12
   2   0   5    0.33    0.11
   2   0   5    0.30    0.10
  -2   0  -5    0.18    0.10
  -2   0  -5    0.27    0.12
  -3   0  -5    3.55    0.28
   3   0   5    3.51    0.24
  -3   0  -5    2.59    0.26
   4   0   5    4.60    0.22
  -4   0  -5    4.66    0.33
  -4   0  -5    4.83    0.35
  -5   0  -5    5.72    0.39
  -6   0  -5    5.14    0.40
  -7   1   5    2.12    0.21
  -6  -1   5    4.43    0.40
  -6  -1   5    3.68    0.22
  -6   1   5    3.63    0.27
  -6   1   5    4.07    0.43
  -5  -1   5    8.20    0.44
  -5  -1   5    7.80    0.35
  -5  -1   5    8.62    0.36
  -5   1   5    8.55    0.48
  -5   1   5    8.55    0.40
  -5   1   5    7.68    0.37
  -4  -1   5   25.05    0.72
  -4  -1   5   23.66    0.69
  -4  -1   5   24.17    0.69
  -4   1   5   24.28    0.72
  -4   1   5   25.76    0.75
  -4   1   5   24.56    0.79
  -3  -1   5   30.40    0.81
  -3  -1   5   29.12    0.80
  -3  -1   5   30.55    0.72
  -3   1   5   30.86    0.83
  -3   1   5   29.56    0.84
  -3   1   5   30.47    0.83
   2  -1  -5   34.73    0.86
  -2  -1   5   34.39    0.89
   2  -1  -5   32.92    0.86
  -2  -1   5   34.05    0.90
   2  -1  -5   34.40    0.86
  -2   1   5   34.37    0.84
   2   1  -5   33.70    0.83
  -2   1   5   33.61    0.91
  -2   1   5   33.81    0.89
   1  -1  -5   70.40    1.55
  -1  -1   5   69.37    1.59
   1  -1  -5   71.95    1.59
  -1  -1   5   70.48    1.87
  -1  -1   5   69.75    1.60
   1  -1  -5   70.61    1.58
   1   1  -5   74.45    1.43
   1   1  -5   73.84    1.58
  -1   1   5   71.99    1.60
  -1   1   5   69.29    1.61
   0  -1  -5   28.60    0.79
   0  -1  -5   28.49    0.80
   0  -1   5   27.70    0.79
   0  -1   5   26.15    0.78
   0   1  -5   26.93    0.78
   0   1   5   28.12    0.79
   0   1   5   28.80    0.90
   0   1   5   27.49    0.80
   0   1  -5   25.88    0.86
  -1  -1  -5   72.10    1.64
   1  -1   5   72.43    1.63
   1  -1   5   70.48    1.62
  -1  -1  -5   72.38    1.91
  -1  -1  -5   71.70    1.63
   1   1   5   71.29    1.87
  -1   1  -5   70.28    1.64
   1   1   5   69.24    1.61
   1   1   5   72.06    1.63
  -2  -1  -5   59.43    1.46
  -2  -1  -5   61.88    1.70
   2  -1   5   61.31    1.44
   2  -1   5   62.22    1.46
  -2  -1  -5   61.70    1.48
   2   1   5   61.79    1.44
  -2   1  -5   58.76    1.48
   2   1   5   62.47    1.44
  -3  -1  -5    3.06    0.30
   3  -1   5    3.32    0.24
  -3  -1  -5    2.96    0.26
  -3  -1  -5    2.50    0.25
   3   1   5    2.79    0.22
  -3   1  -5    2.77    0.29
   4  -1   5   15.02    0.48
  -4  -1  -5   14.72    0.61
  -4  -1  -5   14.96    0.60
   4   1   5   15.17    0.42
  -4   1  -5   15.47    0.63
  -5  -1  -5    2.94    0.31
  -5   1  -5    2.95    0.33
  -6  -1  -5    3.30    0.35
  -6   1  -5    3.41    0.37
  -6  -2   5    1.25    0.16
  -6   2   5    1.73    0.24
  -6   2   5    0.90    0.25
  -5  -2   5    6.08    0.32
  -5  -2   5    6.19    0.37
  -5  -2   5    6.11    0.31
  -5   2   5    5.94    0.36
  -5   2   5    6.17    0.38
  -5   2   5    5.90    0.44
  -4  -2   5   11.43    0.42
  -4  -2   5   10.54    0.43
  -4   2   5   11.17    0.49
  -4   2   5   11.83    0.48
  -4   2   5   10.65    0.52
   3  -2  -5   10.33    0.50
  -3  -2   5   11.25    0.31
  -3  -2   5   11.30    0.44
   3   2  -5   11.29    0.30
  -3   2   5   11.02    0.46
  -3   2   5   11.17    0.48
  -3   2   5   11.55    0.47
  -2  -2   5  101.74    2.18
  -2  -2   5  103.40    2.57
   2  -2  -5  104.37    2.18
   2  -2  -5   99.61    2.26
   2   2  -5  103.14    2.12
  -2   2   5  102.59    2.24
  -2   2   5  102.18    2.21
  -2   2   5  102.40    2.24
   1  -2  -5   16.01    0.56
   1  -2  -5   15.75    0.52
   1  -2  -5   15.44    0.56
  -1  -2   5   16.42    0.62
  -1   2   5   17.00    0.60
  -1   2   5   15.75    0.52
  -1   2   5   15.83    0.56
   1   2  -5   15.58    0.37
   1   2  -5   16.79    0.56
   0  -2  -5   72.47    1.66
   0  -2   5   73.15    1.67
   0  -2  -5   71.47    1.66
   0  -2  -5   73.03    1.68
   0   2  -5   70.30    1.63
   0   2  -5   73.08    1.94
   0   2  -5   73.13    1.67
   0   2   5   75.15    1.67
   0   2   5   71.48    1.68
  -1  -2  -5  142.48    3.03
   1  -2   5  150.90    3.05
   1  -2   5  150.76    3.04
  -1  -2  -5  139.34    3.00
   1   2   5  143.99    3.02
  -1   2  -5  147.07    3.05
   1   2   5  143.68    3.56
   1   2   5  146.78    3.00
  -2  -2  -5  168.28    4.15
   2  -2   5  171.07    3.48
  -2  -2  -5  172.48    3.50
  -2  -2  -5  169.96    3.48
  -2   2  -5  165.25    3.51
   2   2   5  169.04    3.45
  -3  -2  -5   21.66    0.72
   3  -2   5   19.77    0.66
  -3  -2  -5   20.33    0.72
  -3  -2  -5   20.50    0.77
   3   2   5   20.42    0.64
  -3   2  -5   20.33    0.74
  -4  -2  -5   23.85    0.81
   4  -2   5   22.86    0.67
  -4  -2  -5   23.42    0.85
  -4  -2  -5   21.30    0.77
  -4   2  -5   22.51    0.82
   4   2   5   22.95    0.58
  -5  -2  -5    6.95    0.43
  -5  -2  -5    6.81    0.45
  -5   2  -5    8.02    0.72
  -5   2  -5    6.54    0.45
  -6  -2  -5    7.61    0.48
  -6  -2  -5    8.85    0.58
  -6   2  -5    9.96    0.88
  -6   2  -5    7.44    0.51
  -6  -3   5    3.74    0.27
  -6   3   5    4.02    0.40
  -6   3   5    3.86    0.47
  -5  -3   5    6.08    0.36
  -5  -3   5    6.36    0.35
  -5   3   5    5.41    0.40
  -5   3   5    6.69    0.50
  -4  -3   5   10.03    0.41
  -4  -3   5    9.74    0.39
  -4  -3   5    9.73    0.44
  -4   3   5   10.04    0.53
  -4   3   5    9.92    0.48
  -4   3   5    9.96    0.51
  -3  -3   5   17.35    0.61
  -3  -3   5   16.86    0.42
  -3  -3   5   17.91    0.63
   3   3  -5   17.10    0.46
  -3   3   5   16.75    0.63
  -3   3   5   17.86    0.66
  -3   3   5   17.16    0.67
  -2  -3   5   13.41    0.53
  -2  -3   5   13.70    0.56
   2  -3  -5   13.33    0.54
   2   3  -5   12.46    0.46
  -2   3   5   12.97    0.52
  -2   3   5   13.27    0.57
  -2   3   5   13.00    0.53
   1  -3  -5   11.81    0.51
   1  -3  -5   12.40    0.48
  -1  -3   5   12.38    0.51
   1  -3  -5   12.85    0.51
   1   3  -5   11.67    0.48
  -1   3   5   12.35    0.53
  -1   3   5   11.78    0.48
  -1   3   5   12.82    0.52
   1   3  -5   11.81    0.48
   1   3  -5   12.39    0.35
   0  -3  -5    5.64    0.32
   0  -3   5    5.18    0.34
   0  -3  -5    6.52    0.38
   0  -3  -5    6.10    0.36
   0   3  -5    5.49    0.34
   0   3  -5    5.96    0.37
   0   3   5    5.88    0.34
   0   3  -5    5.91    0.29
   0   3   5    5.99    0.36
   1  -3   5   37.37    1.06
  -1  -3  -5   35.61    1.03
  -1  -3  -5   37.89    1.06
   1   3   5   35.34    1.00
  -1   3  -5   37.72    1.08
   1   3   5   36.78    1.05
   1   3   5   35.51    1.12
  -1   3  -5   36.51    1.08
  -2  -3  -5   15.34    0.60
  -2  -3  -5   15.14    0.61
   2  -3   5   15.16    0.61
  -2   3  -5   15.72    0.64
  -2   3  -5   15.27    0.70
   2   3   5   15.45    0.59
  -3  -3  -5   17.00    0.66
  -3  -3  -5   16.31    0.66
   3   3   5   16.97    0.59
  -3   3  -5   17.63    0.84
  -3   3  -5   15.88    0.69
  -4  -3  -5    7.73    0.46
   4  -3   5    8.93    0.42
  -4  -3  -5    9.07    0.50
  -4  -3  -5    8.77    0.50
   4   3   5    8.84    0.33
  -4   3  -5    8.97    0.52
  -4   3  -5    8.71    0.67
  -5  -3  -5    1.42    0.24
  -5  -3  -5    1.95    0.30
  -5   3  -5    1.04    0.23
  -5   3  -5    1.71    0.42
  -6  -3  -5    5.23    0.50
  -6  -3  -5    4.75    0.40
  -6   3  -5    4.67    0.48
  -6   3  -5    5.00    0.70
  -6   4   5    9.16    0.65
  -6   4   5    8.76    0.55
  -5  -4   5   13.01    0.56
  -5   4   5   12.32    0.69
  -5   4   5   14.10    0.67
  -4  -4   5   11.71    0.40
  -4  -4   5   12.08    0.53
  -4  -4   5   11.92    0.53
  -4   4   5   11.67    0.61
  -4   4   5   12.16    0.61
  -4   4   5   11.20    0.56
  -3  -4   5   11.75    0.35
  -3  -4   5   11.53    0.53
   3   4  -5   11.91    0.41
  -3   4   5   11.98    0.57
  -3   4   5   12.20    0.56
  -3   4   5   11.50    0.58
  -2  -4   5   11.98    0.37
  -2  -4   5   12.30    0.54
  -2   4   5   11.38    0.53
  -2   4   5   11.68    0.54
  -2   4   5   12.21    0.58
  -1  -4   5    3.59    0.31
   1  -4  -5    4.24    0.33
  -1  -4   5    4.49    0.25
  -1   4   5    3.89    0.34
   1   4  -5    4.57    0.22
  -1   4   5    4.25    0.32
   1   4  -5    4.51    0.31
   1   4  -5    4.21    0.28
  -1   4   5    4.01    0.31
   0  -4  -5   10.60    0.52
   0  -4   5    9.95    0.51
   0  -4  -5   10.09    0.50
   0   4  -5    9.99    0.50
   0   4   5   10.93    0.52
   0   4   5   10.11    0.51
   0   4  -5   10.37    0.42
  -1  -4  -5    6.93    0.41
  -1  -4  -5    5.84    0.39
   1   4   5    6.80    0.40
  -1   4  -5    6.69    0.40
   1   4   5    7.17    0.42
  -1   4  -5    5.88    0.40
  -2  -4  -5   16.24    0.67
  -2  -4  -5   17.47    0.68
   2   4   5   16.76    0.66
   2   4   5   16.64    0.58
  -2   4  -5   16.55    0.71
  -2   4  -5   15.53    0.72
   3  -4   5   12.46    0.57
  -3  -4  -5   12.06    0.58
  -3  -4  -5   11.92    0.59
  -3   4  -5   12.56    0.72
  -3   4  -5   12.61    0.64
   3   4   5   12.34    0.52
  -4  -4  -5   15.05    0.67
  -4   4  -5   15.37    0.87
  -4   4  -5   15.21    0.72
  -5  -4  -5    0.80    0.21
  -5   4  -5    0.70    0.23
  -5   4  -5    0.44    0.27
  -6  -4  -5    0.92    0.23
  -6   4  -5    0.43    0.21
  -6   4  -5    0.21    0.30
  -6   5   5    3.04    0.40
  -6   5   5    3.51    0.49
  -5   5   5    4.40    0.49
  -5   5   5    6.60    0.49
  -4   5   5    3.89    0.43
  -4   5   5    3.42    0.40
  -3  -5   5   34.58    0.87
  -3  -5   5   33.95    1.07
  -3   5   5   34.40    1.12
  -3   5   5   33.83    1.13
  -3   5   5   34.82    1.17
   3   5  -5   34.86    0.93
  -2  -5   5   11.76    0.58
  -2  -5   5   12.32    0.43
  -2   5   5   12.20    0.59
  -2   5   5   12.59    0.59
   2   5  -5   12.49    0.53
  -2   5   5   12.02    0.63
  -1  -5   5   10.85    0.56
  -1  -5   5    9.73    0.43
  -1   5   5    9.71    0.53
  -1   5   5   10.28    0.56
  -1   5   5    9.84    0.51
   1   5  -5   10.23    0.50
   1   5  -5   11.82    0.41
   1   5  -5    9.89    0.51
   0  -5  -5   20.36    0.78
   0  -5  -5   19.66    0.80
   0  -5   5   21.93    0.76
   0  -5   5   19.98    0.79
   0   5  -5   19.67    0.78
   0   5  -5   20.08    0.68
   0   5   5   20.87    0.82
  -1  -5  -5   15.51    0.68
  -1  -5  -5   15.31    0.68
  -1   5  -5   15.60    0.65
  -1   5  -5   15.12    0.69
   1   5   5   15.82    0.68
  -2  -5  -5    9.35    0.53
  -2  -5  -5   10.06    0.56
   2   5   5    9.23    0.42
   2   5   5    9.92    0.51
  -2   5  -5    9.65    0.57
  -2   5  -5    9.55    0.56
  -3  -5  -5   31.89    1.08
  -3  -5  -5   31.60    1.07
  -3   5  -5   32.59    1.22
   3   5   5   30.90    0.97
  -3   5  -5   32.40    1.14
  -4  -5  -5    0.83    0.21
  -4   5  -5    1.04    0.30
  -4   5  -5    1.16    0.28
  -5  -5  -5    8.71    0.55
  -5   5  -5    7.29    0.56
  -5   5  -5    7.83    0.72
  -6  -5  -5    0.77    0.24
  -6   5  -5    0.32    0.21
  -6   5  -5    0.19    0.27
  -6   6   5    5.98    0.61
  -6   6   5    7.09    0.71
  -5   6   5    4.25    0.52
  -5   6   5    4.85    0.53
  -4   6   5    3.07    0.40
  -4   6   5    2.52    0.37
  -3  -6   5    0.41    0.12
  -3  -6   5    0.34    0.21
  -3   6   5   -0.03    0.16
  -3   6   5    0.49    0.21
  -3   6   5    0.38    0.20
  -2  -6   5   15.57    0.73
  -2  -6   5   15.61    0.56
  -2   6   5   15.88    0.73
  -2   6   5   14.75    0.75
  -2   6   5   15.11    0.71
   2   6  -5   15.03    0.64
  -1  -6   5   39.22    1.27
  -1  -6   5   39.93    1.15
  -1   6   5   40.03    1.27
  -1   6   5   42.13    1.32
   1   6  -5   40.33    1.23
   1   6  -5   41.39    1.09
   1   6  -5   40.58    1.30
   0   6  -5   23.36    0.79
   0   6  -5   22.47    0.88
   0   6   5   23.76    0.93
  -1  -6  -5   15.07    0.71
  -1  -6  -5   15.07    0.74
   1   6   5   14.34    0.70
  -1   6  -5   14.78    0.73
  -1   6  -5   14.03    0.65
  -2  -6  -5   20.76    0.88
  -2  -6  -5   21.55    0.89
   2   6   5   23.52    0.88
   2   6   5   21.70    0.78
  -2   6  -5   22.61    0.92
  -2   6  -5   21.20    0.92
  -3  -6  -5    9.52    0.60
  -3   6  -5   10.66    0.69
  -3   6  -5    9.36    0.63
  -4  -6  -5    4.09    0.45
  -4   6  -5    4.85    0.57
  -4   6  -5    5.21    0.55
  -5  -6  -5    3.13    0.42
  -5   6  -5    3.04    0.45
  -5   6  -5    4.27    0.62
  -5   7   5    0.09    0.20
  -5   7   5   -0.04    0.17
  -4   7   5    0.30    0.23
  -4   7   5    0.29    0.22
  -3   7   5    7.05    0.58
  -3   7   5    6.75    0.54
  -2  -7   5    4.18    0.47
  -2  -7   5    4.24    0.34
  -2   7   5    4.51    0.50
  -2   7   5    3.82    0.44
   2   7  -5    4.15    0.36
   1   7  -5   21.67    0.88
   1   7  -5   21.80    0.74
  -1   7   5   20.88    0.90
  -1   7   5   20.37    0.93
   1   7  -5   21.08    0.88
   0   7  -5   37.17    1.27
   0   7  -5   36.05    1.12
   0   7   5   37.23    1.29
  -1   7  -5    7.46    0.48
  -1   7  -5    5.57    0.55
   1   7   5    5.40    0.48
  -2  -7  -5    0.18    0.19
  -2  -7  -5    0.38    0.25
   2   7   5    0.21    0.16
  -2   7  -5    0.01    0.19
   2   7   5    0.12    0.10
  -2   7  -5    0.35    0.19
  -3  -7  -5    3.22    0.42
  -3   7  -5    3.09    0.44
  -3   7  -5    4.79    0.54
  -4  -7  -5    6.30    0.54
  -4   7  -5    8.10    0.67
  -4   7  -5    5.98    0.65
  -5   7  -5    0.66    0.28
  -5   7  -5    0.42    0.26
  -5   8   5    0.09    0.24
  -5   8   5    0.14    0.25
  -4   8   5   10.76    0.73
  -4   8   5   10.87    0.77
  -3   8   5    0.19    0.20
  -3   8   5    0.20    0.20
  -2   8   5   11.58    0.75
   2   8  -5   11.68    0.65
  -2   8   5   11.83    0.71
   1   8  -5   17.26    0.70
   1   8  -5   18.63    0.86
  -1   8   5   19.27    0.89
  -1   8   5   19.18    0.94
   0   8  -5    4.09    0.49
   0   8   5    3.66    0.46
   0   8  -5    4.02    0.35
  -1   8  -5    2.27    0.40
   1   8   5    1.92    0.37
   2   8   5    1.30    0.29
  -2   8  -5    1.20    0.31
   2   8   5    1.80    0.28
  -2   8  -5    1.75    0.35
  -3   8  -5    0.10    0.22
  -3   8  -5    0.46    0.21
  -4   8  -5    3.07    0.51
  -4   8  -5    2.80    0.49
  -4   9   5   12.43    0.88
  -4   9   5   12.04    0.81
  -3   9   5    6.05    0.66
  -3   9   5    6.16    0.66
  -2   9   5    0.97    0.32
  -2   9   5    1.23    0.34
   1   9  -5    0.82    0.27
  -1   9   5    1.00    0.33
  -1   9   5    0.94    0.29
   1   9  -5    0.99    0.22
   0   9  -5    6.30    0.64
   0   9   5    7.47    0.62
   0   9  -5    7.23    0.50
   1   9   5    1.89    0.36
  -1   9  -5    2.42    0.44
  -1   9  -5    2.15    0.36
  -2   9  -5    3.57    0.48
  -2   9  -5    3.74    0.53
  -3   9  -5    6.09    0.69
  -3   9  -5    6.16    0.67
  -4   9  -5    3.76    0.60
  -4   9  -5    4.64    0.61
  -3  10   5    2.76    0.52
  -3  10   5    3.28    0.54
  -2  10   5    2.58    0.50
  -2  10   5    2.63    0.45
  -1  10   5    2.02    0.41
  -1  10   5    1.69    0.42
   1  10  -5    2.15    0.35
   0  10  -5    3.84    0.46
   0  10  -5    3.83    0.53
   0  10   5    4.44    0.60
  -1  10  -5    0.56    0.21
  -1  10  -5    0.54    0.28
  -2  10  -5    4.43    0.55
  -2  10  -5    3.86    0.58
  -3  10  -5    3.53    0.52
  -3  10  -5    3.82    0.60
  -2  11   5    4.59    0.66
  -2  11   5    5.33    0.69
  -1  11   5    0.49    0.29
   1  11  -5    0.85    0.25
  -1  11   5    1.04    0.37
   0  11   5    2.80    0.51
   0  11  -5    1.75    0.35
  -1  11  -5    1.17    0.39
  -1  11  -5    1.53    0.33
  -6   0   6    1.19    0.19
  -5   0   6    6.94    0.37
  -5   0   6    6.18    0.34
  -5   0   6    6.00    0.37
  -4   0   6    1.28    0.19
  -4   0   6    1.51    0.18
  -4   0   6    1.51    0.19
   3   0  -6    1.45    0.13
  -3   0   6    1.72    0.22
  -3   0   6    1.76    0.20
  -3   0   6    1.29    0.12
  -2   0   6    0.15    0.10
   2   0  -6   -0.01    0.05
   2   0  -6    0.10    0.05
  -2   0   6    0.02    0.08
  -1   0   6  133.24    2.77
   1   0  -6  134.01    2.75
   1   0  -6  133.05    2.69
  -1   0   6  132.47    3.31
  -1   0   6  129.75    2.78
   0   0   6  310.16    6.12
   0   0  -6  311.25    6.10
   0   0  -6  322.21    6.12
   0   0   6  315.99    7.43
   0   0   6  318.90    6.12
  -1   0  -6   23.26    0.77
  -1   0  -6   22.23    0.76
   1   0   6   27.47    0.80
   1   0   6   23.86    0.76
   2   0   6   35.81    1.00
  -2   0  -6   34.74    1.01
  -2   0  -6   34.31    1.14
  -2   0  -6   34.63    1.02
  -3   0  -6    0.10    0.11
   3   0   6   -0.06    0.08
  -3   0  -6    0.01    0.09
  -4   0  -6    8.21    0.46
  -4   0  -6    7.17    0.46
   4   0   6    7.77    0.35
  -5   0  -6    0.64    0.18
  -6   0  -6    4.04    0.42
  -6  -1   6    1.94    0.22
  -6   1   6    2.02    0.25
  -6   1   6    2.40    0.33
  -5  -1   6   21.13    0.68
  -5  -1   6   22.17    0.70
  -5  -1   6   21.39    0.69
  -5   1   6   23.42    0.75
  -5   1   6   22.18    0.80
  -5   1   6   22.18    0.74
  -4  -1   6   13.48    0.43
  -4  -1   6   13.24    0.52
  -4  -1   6   13.07    0.50
  -4   1   6   13.53    0.53
  -4   1   6   12.60    0.54
  -4   1   6   13.26    0.51
   3  -1  -6   14.79    0.55
  -3  -1   6   15.45    0.55
  -3  -1   6   14.32    0.55
  -3  -1   6   15.16    0.36
  -3   1   6   15.21    0.50
   3   1  -6   15.79    0.43
  -3   1   6   15.41    0.58
  -3   1   6   14.67    0.55
  -2  -1   6   27.78    0.80
   2  -1  -6   26.40    0.71
  -2  -1   6   27.20    0.80
  -2   1   6   27.19    0.81
   2   1  -6   22.15    0.70
  -2   1   6   25.85    0.79
  -2   1   6   27.05    0.70
   1  -1  -6   77.85    1.76
  -1  -1   6   72.46    2.07
   1  -1  -6   80.64    1.79
  -1  -1   6   78.82    1.79
   1  -1  -6   77.31    1.70
  -1  -1   6   75.79    1.79
   1   1  -6   80.53    1.60
  -1   1   6   78.90    1.79
   1   1  -6   81.16    1.77
  -1   1   6   77.91    1.80
   0  -1   6   45.79    1.21
   0  -1  -6   44.24    1.18
   0  -1   6   49.50    1.22
   0  -1  -6   46.01    1.20
   0   1   6   45.39    1.21
   0   1  -6   48.06    1.37
   0   1   6   45.09    1.37
   0   1  -6   46.50    1.20
   0   1   6   45.83    1.19
  -1  -1  -6   46.89    1.25
   1  -1   6   47.06    1.24
   1  -1   6   47.81    1.25
  -1   1  -6   47.34    1.26
   1   1   6   47.63    1.23
   1   1   6   49.55    1.26
   1   1   6   49.39    1.40
  -2  -1  -6   22.14    0.76
  -2  -1  -6   22.08    0.83
   2  -1   6   22.31    0.74
  -2  -1  -6   22.02    0.76
  -2   1  -6   23.38    0.79
   2   1   6   21.99    0.74
  -3  -1  -6   19.21    0.71
  -3  -1  -6   18.11    0.76
  -3  -1  -6   18.85    0.71
  -3   1  -6   18.40    0.72
   3   1   6   19.76    0.66
   4  -1   6    4.37    0.28
  -4  -1  -6    4.41    0.37
  -4  -1  -6    4.46    0.35
  -4  -1  -6    4.28    0.37
  -4   1  -6    4.66    0.37
   4   1   6    5.03    0.27
  -5  -1  -6    8.43    0.53
  -5  -1  -6    7.88    0.48
  -5   1  -6    8.61    0.52
  -6  -1  -6    3.54    0.45
  -6  -1  -6    2.76    0.35
  -6   1  -6    2.94    0.36
  -6  -2   6    2.03    0.24
  -6   2   6    1.90    0.27
  -6   2   6    1.67    0.30
  -5  -2   6   11.35    0.48
  -5  -2   6   10.05    0.42
  -5  -2   6   11.50    0.49
  -5   2   6   10.51    0.52
  -5   2   6   10.23    0.55
  -4  -2   6   57.00    1.23
  -4  -2   6   56.31    1.40
  -4  -2   6   56.97    1.39
  -4   2   6   55.69    1.47
  -4   2   6   56.81    1.47
  -4   2   6   58.25    1.44
   3  -2  -6   27.99    0.89
  -3  -2   6   27.68    0.89
  -3  -2   6   27.38    0.83
  -3   2   6   28.08    0.89
  -3   2   6   27.55    0.82
   3   2  -6   27.30    0.68
  -3   2   6   27.23    0.85
   2  -2  -6    3.49    0.25
  -2  -2   6    3.68    0.29
  -2  -2   6    3.46    0.27
   2  -2  -6    3.52    0.24
   2   2  -6    2.14    0.22
  -2   2   6    3.01    0.31
  -2   2   6    3.58    0.24
  -2   2   6    3.50    0.28
   1  -2  -6    0.43    0.14
   1  -2  -6    0.79    0.13
   1  -2  -6    0.61    0.14
  -1  -2   6    0.81    0.18
   1   2  -6    0.91    0.08
  -1   2   6    0.78    0.16
   1   2  -6    0.71    0.15
  -1   2   6    0.70    0.17
   0  -2  -6   85.61    1.96
   0  -2   6   83.73    1.95
   0  -2   6   85.04    1.98
   0  -2  -6   83.08    1.93
   0  -2  -6   84.88    1.95
   0   2   6   84.26    1.97
   0   2  -6   87.07    1.97
   0   2  -6   87.39    2.28
   0   2   6   87.24    1.96
  -1  -2  -6    9.81    0.48
  -1  -2  -6    9.91    0.48
   1  -2   6   11.44    0.51
   1  -2   6   10.17    0.48
  -1   2  -6    8.87    0.50
   1   2   6   10.62    0.48
   1   2   6   10.00    0.48
   1   2   6    9.49    0.47
  -1   2  -6   10.00    0.48
  -2  -2  -6   35.36    1.03
   2  -2   6   32.77    0.98
  -2  -2  -6   33.35    1.12
  -2  -2  -6   31.41    0.99
  -2   2  -6   33.45    1.03
   2   2   6   33.25    0.98
  -3  -2  -6    6.76    0.43
  -3  -2  -6    8.31    0.45
  -3  -2  -6    8.17    0.47
  -3   2  -6    7.57    0.46
   3   2   6    7.78    0.40
   4  -2   6   14.28    0.55
  -4  -2  -6   14.70    0.66
  -4  -2  -6   14.91    0.69
  -4  -2  -6   14.58    0.64
  -4   2  -6   13.38    0.64
   4   2   6   14.53    0.50
  -5  -2  -6   10.83    0.58
  -5  -2  -6   10.32    0.61
  -5   2  -6   10.96    0.61
  -5   2  -6   11.79    0.88
  -6  -2  -6    2.13    0.31
  -6  -2  -6    2.28    0.40
  -6   2  -6    1.47    0.49
  -6   2  -6    1.71    0.32
  -6  -3   6    4.50    0.32
  -6   3   6    4.44    0.43
  -6   3   6    5.40    0.48
  -5  -3   6    1.40    0.20
  -5   3   6    1.38    0.27
  -5   3   6    1.62    0.27
  -4  -3   6   15.11    0.60
  -4  -3   6   14.46    0.59
  -4  -3   6   15.01    0.38
  -4  -3   6   14.94    0.37
  -4   3   6   15.78    0.65
  -4   3   6   15.79    0.68
  -4   3   6   15.15    0.65
  -3  -3   6    5.07    0.33
  -3  -3   6    3.98    0.32
  -3   3   6    4.82    0.36
  -3   3   6    4.21    0.32
   3   3  -6    4.89    0.24
  -3   3   6    4.52    0.34
   2  -3  -6   43.96    1.17
  -2  -3   6   43.58    1.19
   2  -3  -6   42.91    1.19
  -2  -3   6   43.50    1.34
  -2   3   6   45.22    1.25
  -2   3   6   43.97    1.21
  -2   3   6   43.97    1.18
  -1  -3   6   26.66    0.86
   1  -3  -6   25.86    0.80
   1  -3  -6   26.72    0.85
  -1   3   6   26.90    0.83
   1   3  -6   27.13    0.83
   1   3  -6   26.35    0.63
   1   3  -6   26.46    0.86
  -1   3   6   26.40    0.89
  -1   3   6   26.40    0.85
   0  -3  -6   86.40    2.03
   0  -3  -6   84.41    2.00
   0  -3   6   85.95    2.02
   0  -3  -6   85.89    2.01
   0   3   6   83.74    1.99
   0   3  -6   85.73    1.95
   0   3  -6   86.30    2.02
   0   3  -6   89.84    2.35
   0   3   6   87.42    2.05
  -1  -3  -6    0.25    0.13
  -1  -3  -6    0.06    0.13
   1   3   6    0.07    0.10
  -1   3  -6    0.12    0.13
  -1   3  -6    0.21    0.12
   1   3   6    0.35    0.10
  -2  -3  -6    4.50    0.35
  -2  -3  -6    4.97    0.37
   2  -3   6    4.72    0.35
  -2   3  -6    4.79    0.38
   2   3   6    4.50    0.33
  -2   3  -6    4.40    0.38
  -3  -3  -6   14.70    0.64
  -3  -3  -6   13.35    0.63
   3  -3   6   16.12    0.63
  -3   3  -6   14.34    0.68
   3   3   6   13.70    0.57
  -3   3  -6   13.89    0.77
  -4  -3  -6    6.75    0.47
  -4  -3  -6    6.96    0.45
  -4   3  -6    6.75    0.48
  -4   3  -6    7.65    0.64
  -5  -3  -6   18.00    0.84
  -5  -3  -6   17.44    0.76
  -5   3  -6   19.03    1.08
  -5   3  -6   18.33    0.83
  -6  -3  -6    4.95    0.55
  -6  -3  -6    4.03    0.44
  -6   3  -6    3.29    0.65
  -6   3  -6    4.39    0.49
  -6  -4   6    0.60    0.18
  -6   4   6    0.38    0.21
  -6   4   6    0.55    0.25
  -5  -4   6    9.13    0.50
  -5   4   6   10.47    0.61
  -5   4   6    9.40    0.57
  -4  -4   6   40.00    0.90
  -4  -4   6   40.74    1.29
  -4  -4   6   40.61    1.17
  -4   4   6   41.27    1.28
  -4   4   6   40.09    1.27
  -3  -4   6    1.86    0.26
   3   4  -6    2.64    0.20
  -3   4   6    2.36    0.30
  -3   4   6    1.91    0.29
  -3   4   6    1.69    0.26
  -2  -4   6   14.06    0.61
  -2   4   6   12.89    0.62
   2   4  -6   12.81    0.53
  -2   4   6   12.98    0.60
  -2   4   6   13.10    0.58
   1  -4  -6    8.43    0.47
  -1  -4   6    8.92    0.48
   1   4  -6    8.25    0.31
  -1   4   6    8.55    0.47
  -1   4   6    9.10    0.47
  -1   4   6    8.05    0.49
   1   4  -6    8.78    0.46
   1   4  -6    8.55    0.44
   0  -4  -6   10.27    0.53
   0  -4  -6   10.56    0.52
   0  -4   6    9.91    0.53
   0   4  -6    9.40    0.51
   0   4  -6    9.54    0.52
   0   4  -6    9.83    0.42
   0   4   6    9.52    0.52
   0   4   6    9.83    0.51
  -1  -4  -6    0.81    0.19
  -1  -4  -6    0.64    0.20
  -1   4  -6    0.92    0.19
  -1   4  -6    0.57    0.18
   1   4   6    0.82    0.19
   1   4   6    0.87    0.19
  -2  -4  -6    6.88    0.45
  -2  -4  -6    7.08    0.46
   2   4   6    7.02    0.37
  -2   4  -6    7.10    0.50
  -2   4  -6    7.30    0.49
   2   4   6    7.10    0.43
  -3  -4  -6    3.22    0.37
   3  -4   6    4.54    0.37
  -3  -4  -6    3.28    0.36
  -3   4  -6    3.28    0.39
   3   4   6    2.27    0.28
  -3   4  -6    3.53    0.44
  -4  -4  -6   11.01    0.59
  -4   4  -6   10.32    0.73
  -4   4  -6   10.77    0.65
  -5  -4  -6    4.13    0.44
  -5   4  -6    5.04    0.68
  -5   4  -6    3.68    0.45
  -6  -4  -6    0.31    0.19
  -6   4  -6    0.36    0.35
  -6   4  -6    0.30    0.20
  -6   5   6    4.54    0.55
  -6   5   6    4.33    0.51
  -5   5   6    0.50    0.22
  -5   5   6    0.70    0.25
  -4   5   6    0.95    0.26
  -4   5   6    0.87    0.23
  -3  -5   6   14.01    0.66
  -3  -5   6   13.93    0.42
  -3   5   6   15.25    0.70
   3   5  -6   17.67    0.59
  -3   5   6   13.94    0.72
  -3   5   6   14.68    0.70
  -2  -5   6   10.97    0.39
  -2  -5   6   10.03    0.55
  -2   5   6   10.57    0.56
   2   5  -6   10.70    0.50
  -2   5   6   10.14    0.57
  -2   5   6   11.43    0.62
   1  -5  -6    9.25    0.53
  -1  -5   6    8.87    0.41
  -1  -5   6    9.20    0.53
  -1   5   6    8.65    0.50
  -1   5   6    8.71    0.53
   1   5  -6    9.32    0.50
   1   5  -6    9.65    0.49
  -1   5   6    9.40    0.55
   0  -5  -6   11.81    0.61
   0  -5   6   12.41    0.65
   0   5  -6   11.45    0.49
   0   5   6   13.08    0.64
   0   5  -6   12.06    0.61
  -1  -5  -6   39.51    1.25
  -1  -5  -6   37.03    1.21
   1   5   6   39.06    1.23
  -1   5  -6   38.71    1.25
  -1   5  -6   40.89    1.21
  -2  -5  -6   14.24    0.69
  -2  -5  -6   13.04    0.67
   2   5   6   14.71    0.67
  -2   5  -6   14.66    0.72
   2   5   6   14.21    0.59
  -2   5  -6   15.18    0.73
   3  -5   6    8.67    0.53
  -3  -5  -6    7.96    0.57
  -3  -5  -6    8.09    0.53
  -3   5  -6    7.69    0.55
  -3   5  -6    7.67    0.60
  -4  -5  -6   31.34    1.11
  -4   5  -6   30.44    1.17
  -4   5  -6   28.23    1.28
  -5  -5  -6    2.81    0.40
  -5   5  -6    2.11    0.40
  -5   5  -6    2.28    0.46
  -5   6   6    2.98    0.44
  -5   6   6    3.04    0.44
  -4   6   6    5.05    0.53
  -4   6   6    4.08    0.49
  -3   6   6   21.63    0.90
  -3   6   6   22.01    0.97
  -2  -6   6   44.57    1.38
  -2  -6   6   44.32    1.16
  -2   6   6   45.36    1.46
  -2   6   6   43.42    1.38
  -2   6   6   44.71    1.39
   2   6  -6   44.37    1.29
  -1  -6   6    5.51    0.37
  -1  -6   6    5.61    0.48
   1   6  -6    6.06    0.44
   1   6  -6    6.06    0.42
  -1   6   6    6.13    0.50
   1   6  -6    6.28    0.33
  -1   6   6    6.85    0.48
   0  -6  -6   63.44    1.74
   0   6   6   60.37    1.75
   0   6  -6   62.91    1.74
   0   6  -6   61.08    1.58
  -1  -6  -6    2.17    0.33
   1   6   6    1.83    0.32
  -1   6  -6    1.77    0.32
  -1   6  -6    2.27    0.30
  -2  -6  -6   11.69    0.69
  -2  -6  -6   13.22    0.70
  -2   6  -6   11.92    0.67
   2   6   6   12.16    0.56
  -2   6  -6   12.51    0.71
   2   6   6   11.75    0.64
  -3  -6  -6   39.04    1.31
  -3   6  -6   35.68    1.33
  -3   6  -6   37.31    1.38
  -4  -6  -6   18.19    0.87
  -4   6  -6   19.00    0.94
  -4   6  -6   18.66    1.00
  -5  -6  -6    0.01    0.14
  -5   6  -6   -0.06    0.19
  -5   6  -6    0.02    0.21
  -5   7   6    0.04    0.20
  -5   7   6    0.26    0.24
  -4   7   6    2.20    0.37
  -4   7   6    3.35    0.48
  -3   7   6    6.07    0.52
  -3   7   6    7.04    0.59
  -2   7   6   15.52    0.83
   2   7  -6   15.62    0.72
  -2   7   6   16.92    0.81
  -1   7   6    1.27    0.30
   1   7  -6    1.26    0.28
   1   7  -6    1.18    0.24
  -1   7   6    1.20    0.29
   0   7  -6    5.04    0.36
   0   7   6    5.32    0.48
   0   7  -6    5.51    0.54
  -1  -7  -6   30.32    1.14
  -1   7  -6   28.31    1.05
   1   7   6   28.99    1.13
  -1   7  -6   30.41    1.17
  -2  -7  -6    2.10    0.37
   2   7   6    1.85    0.28
  -2   7  -6    2.44    0.38
   2   7   6    1.57    0.28
  -2   7  -6    1.34    0.32
  -3  -7  -6    0.77    0.25
  -3   7  -6    0.54    0.26
  -3   7  -6    0.25    0.17
  -4  -7  -6    1.31    0.32
  -4   7  -6    0.67    0.29
  -4   7  -6    1.52    0.36
  -5  -7  -6    2.45    0.42
  -5   7  -6    3.11    0.54
  -5   7  -6    2.36    0.45
  -4   8   6    2.19    0.44
  -4   8   6    1.67    0.37
  -3   8   6   12.69    0.78
  -3   8   6   13.01    0.83
  -2   8   6    1.61    0.34
  -2   8   6    1.22    0.34
   1   8  -6    8.78    0.46
  -1   8   6    6.72    0.55
   1   8  -6    7.61    0.56
   1   8  -6    7.22    0.50
  -1   8   6    5.94    0.62
   0   8  -6    1.32    0.25
   0   8   6    0.91    0.28
   0   8  -6    1.48    0.32
  -1   8  -6    5.60    0.61
   1   8   6    5.32    0.59
  -1   8  -6    5.70    0.45
   2   8   6    2.83    0.36
  -2   8  -6    2.77    0.41
  -2   8  -6    2.79    0.43
  -3   8  -6    2.13    0.40
  -3   8  -6    1.54    0.39
  -4   8  -6    3.66    0.55
  -4   8  -6    3.63    0.56
  -4   9   6    3.81    0.53
  -4   9   6    3.54    0.54
  -3   9   6    4.17    0.59
  -3   9   6    4.93    0.59
  -2   9   6    3.40    0.48
  -2   9   6    3.98    0.57
  -1   9   6    1.78    0.38
   1   9  -6    2.96    0.35
   1   9  -6    2.43    0.41
  -1   9   6    2.23    0.41
   0   9   6    0.43    0.26
   0   9  -6    0.35    0.17
   0   9  -6    0.19    0.23
  -1   9  -6    2.55    0.37
   1   9   6    2.28    0.43
  -1   9  -6    1.63    0.38
  -2   9  -6    0.37    0.18
  -2   9  -6   -0.15    0.20
  -3   9  -6    0.68    0.31
  -3   9  -6    0.34    0.24
  -3  10   6    0.63    0.31
  -3  10   6    0.34    0.28
  -2  10   6    2.45    0.45
  -2  10   6    3.05    0.53
  -1  10   6    1.38    0.38
   1  10  -6    2.02    0.32
  -1  10   6    2.27    0.47
   0  10   6    3.23    0.52
   0  10  -6    3.85    0.45
   0  10  -6    3.56    0.53
  -1  10  -6    1.85    0.41
  -1  10  -6    2.09    0.35
  -2  10  -6    6.04    0.73
  -2  10  -6    4.79    0.57
   1  11  -6    0.10    0.16
  -1  11   6    0.33    0.29
   0  11  -6    8.66    0.60
  -1  11  -6   -0.12    0.26
  -1  11  -6    0.84    0.27
  -6   0   7   -0.06    0.09
  -5   0   7    3.44    0.25
  -5   0   7    3.06    0.31
  -4   0   7    1.49    0.23
  -4   0   7    2.19    0.25
  -4   0   7    2.14    0.16
  -3   0   7    2.79    0.16
  -3   0   7    2.78    0.28
   3   0  -7    2.88    0.20
  -3   0   7    3.08    0.32
   2   0  -7    1.34    0.11
   2   0  -7    1.22    0.17
  -2   0   7    1.56    0.22
  -2   0   7    1.65    0.22
  -1   0   7    0.52    0.15
  -1   0   7    0.68    0.16
   0   0   7  198.94    4.76
   0   0   7  189.49    3.94
   0   0  -7  190.24    3.95
   0   0   7  190.15    3.96
   0   0  -7  194.09    3.94
   1   0   7   81.36    1.89
  -1   0  -7   74.05    1.81
  -1   0  -7   74.00    1.82
   1   0   7   73.54    1.81
  -2   0  -7    1.12    0.22
  -2   0  -7    1.12    0.23
  -2   0  -7    1.01    0.20
   2   0   7    1.02    0.19
  -3   0  -7    2.33    0.33
  -3   0  -7    2.67    0.32
  -4   0  -7    0.50    0.19
   4   0   7    0.44    0.14
  -4   0  -7    0.30    0.15
  -5   0  -7    0.04    0.15
  -5   0  -7   -0.13    0.12
  -6   0  -7    0.61    0.21
  -6   0  -7    0.40    0.25
  -6  -1   7    0.26    0.12
  -6   1   7   -0.12    0.11
  -5  -1   7    3.67    0.30
  -5   1   7    4.10    0.31
  -5   1   7    3.60    0.32
  -4  -1   7    4.63    0.32
  -4  -1   7    4.15    0.33
  -4  -1   7    4.61    0.18
  -4   1   7    4.57    0.27
  -4   1   7    4.16    0.32
  -4   1   7    4.07    0.33
  -3  -1   7   17.24    0.64
   3  -1  -7   16.84    0.59
   3  -1  -7   17.18    0.56
  -3  -1   7   17.57    0.65
  -3   1   7   17.72    0.66
   3   1  -7   17.28    0.53
  -3   1   7   18.28    0.68
  -3   1   7   17.27    0.54
  -2  -1   7   26.04    0.91
   2  -1  -7   25.33    0.78
  -2  -1   7   25.97    0.82
   2  -1  -7   25.94    0.71
  -2  -1   7   25.74    0.84
  -2   1   7   26.19    0.85
  -2   1   7   24.82    0.82
   1  -1  -7   37.09    0.89
  -1  -1   7   33.23    1.01
   1  -1  -7   33.86    0.99
  -1  -1   7   34.04    1.00
  -1  -1   7   34.08    1.14
  -1   1   7   34.71    1.03
  -1   1   7   33.50    1.00
   1   1  -7   36.48    1.00
   0  -1   7   34.03    1.01
   0  -1   7   34.05    1.02
   0  -1  -7   33.49    1.00
   0  -1  -7   34.93    1.02
   0   1   7   33.76    1.02
   0   1  -7   33.87    1.00
   0   1  -7   33.74    1.11
   0   1   7   35.04    1.14
   0   1   7   33.33    1.00
   1  -1   7   23.99    0.84
  -1  -1  -7   26.17    0.85
  -1  -1  -7   24.59    0.84
  -1   1  -7   24.94    0.94
  -1   1  -7   25.10    0.85
   1   1   7   25.95    0.86
   1   1   7   26.57    0.92
  -2  -1  -7   23.79    0.84
   2  -1   7   24.14    0.83
  -2  -1  -7   25.10    0.86
  -2  -1  -7   24.97    0.95
  -2   1  -7   24.55    0.86
  -2   1  -7   26.02    0.97
   2   1   7   24.56    0.84
  -3  -1  -7   16.54    0.72
  -3  -1  -7   19.37    0.76
  -3  -1  -7   19.32    0.82
  -3   1  -7   19.08    0.77
  -4  -1  -7    1.57    0.30
  -4  -1  -7    1.73    0.27
  -4   1  -7    1.48    0.26
  -5  -1  -7   11.43    0.68
  -5  -1  -7   11.68    0.62
  -5   1  -7   11.73    0.64
  -6  -1  -7    2.66    0.36
  -6  -1  -7    2.74    0.44
  -6   1  -7    2.27    0.36
  -6  -2   7    2.82    0.29
  -6   2   7    2.37    0.32
  -5  -2   7    0.81    0.17
  -5   2   7    0.84    0.20
  -5   2   7    0.97    0.22
  -4  -2   7   41.29    1.16
  -4  -2   7   40.63    1.15
  -4   2   7   40.22    1.21
  -4   2   7   42.38    1.19
  -4   2   7   41.99    1.15
   3  -2  -7   23.31    0.78
  -3  -2   7   22.97    0.80
  -3  -2   7   22.78    0.84
  -3  -2   7   23.38    0.79
  -3   2   7   23.61    0.83
  -3   2   7   23.10    0.73
   3   2  -7   23.54    0.66
  -3   2   7   24.08    0.81
  -2  -2   7   13.68    0.62
   2  -2  -7   13.76    0.55
  -2  -2   7   14.55    0.60
   2  -2  -7   13.62    0.51
  -2  -2   7   13.98    0.59
  -2   2   7   13.28    0.50
  -2   2   7   13.25    0.60
  -2   2   7   14.83    0.60
  -1  -2   7   24.34    0.94
  -1  -2   7   24.59    0.86
   1  -2  -7   26.40    0.84
   1  -2  -7   29.01    0.78
  -1  -2   7   28.56    0.88
  -1   2   7   26.03    0.89
  -1   2   7   26.18    0.85
   1   2  -7   24.78    0.82
   1   2  -7   25.35    0.63
   0  -2  -7    4.41    0.30
   0  -2  -7    4.38    0.34
   0  -2  -7    4.23    0.32
   0  -2   7    4.04    0.38
   0  -2   7    4.04    0.33
   0   2   7    4.74    0.36
   0   2   7    4.56    0.35
   0   2  -7    4.86    0.35
   0   2  -7    4.80    0.34
   0   2   7    4.84    0.36
   1  -2   7   35.64    1.08
  -1  -2  -7   32.64    1.05
  -1  -2  -7   34.79    1.06
   1   2   7   35.22    1.15
   1   2   7   36.11    1.08
  -1   2  -7   34.52    1.20
  -1   2  -7   34.70    1.07
   2  -2   7   10.18    0.52
  -2  -2  -7   10.12    0.53
  -2  -2  -7    9.67    0.52
   2   2   7    9.74    0.50
  -2   2  -7    9.82    0.54
  -3  -2  -7    1.39    0.26
  -3  -2  -7    1.37    0.27
  -3  -2  -7    1.84    0.28
  -3   2  -7    1.98    0.31
  -4  -2  -7    4.28    0.41
  -4  -2  -7    3.69    0.39
  -4   2  -7    3.90    0.41
  -5  -2  -7   10.39    0.60
  -5  -2  -7    9.92    0.64
  -5   2  -7   10.46    0.62
  -6  -2  -7    0.50    0.22
  -6   2  -7    0.36    0.35
  -6   2  -7    0.45    0.23
  -6  -3   7    0.90    0.20
  -6   3   7    1.08    0.25
  -6   3   7    1.08    0.28
  -5  -3   7    0.23    0.13
  -5  -3   7    0.26    0.14
  -5   3   7    0.24    0.18
  -5   3   7    0.42    0.19
  -4  -3   7    3.48    0.31
  -4  -3   7    3.54    0.35
  -4   3   7    3.80    0.39
  -4   3   7    3.84    0.34
  -3  -3   7   22.66    0.81
  -3  -3   7   24.75    0.90
  -3   3   7   24.30    0.89
   3   3  -7   23.12    0.68
  -3   3   7   22.57    0.78
  -3   3   7   23.75    0.84
   2  -3  -7   20.76    0.74
  -2  -3   7   21.04    0.77
  -2  -3   7   20.96    0.84
   2  -3  -7   20.28    0.71
  -2   3   7   21.02    0.78
  -2   3   7   20.57    0.71
  -2   3   7   20.77    0.80
   2   3  -7   19.14    0.68
   1  -3  -7   21.07    0.67
   1  -3  -7   17.86    0.69
   1   3  -7   16.39    0.66
  -1   3   7   17.05    0.72
   1   3  -7   17.58    0.47
   1   3  -7   16.64    0.67
  -1   3   7   15.81    0.66
   0  -3   7   29.49    0.97
   0  -3  -7   29.85    0.97
   0  -3  -7   30.23    0.99
   0   3   7   30.41    0.97
   0   3  -7   30.38    1.06
   0   3  -7   31.42    1.00
   0   3  -7   29.02    0.87
   0   3   7   30.54    1.00
  -1  -3  -7   57.05    1.52
   1  -3   7   57.67    1.54
  -1  -3  -7   56.97    1.54
  -1   3  -7   55.12    1.54
  -1   3  -7   55.18    1.52
   1   3   7   57.13    1.68
   1   3   7   56.23    1.52
  -1   3  -7   56.56    1.75
  -2  -3  -7   10.38    0.55
  -2  -3  -7   10.96    0.57
   2  -3   7   10.86    0.56
  -2   3  -7   11.50    0.63
   2   3   7   11.27    0.56
  -2   3  -7   10.92    0.59
   3  -3   7   14.49    0.64
  -3  -3  -7   15.09    0.69
  -3  -3  -7   11.72    0.63
  -3   3  -7   11.81    0.65
  -4  -3  -7    5.26    0.43
  -4   3  -7    5.93    0.67
  -4   3  -7    5.19    0.46
  -5  -3  -7   12.01    0.66
  -5  -3  -7   12.05    0.72
  -5   3  -7   12.73    0.71
  -5   3  -7   11.99    0.88
  -6  -3  -7    0.23    0.19
  -6   3  -7    0.13    0.30
  -6   3  -7    0.12    0.19
  -6  -4   7    0.07    0.14
  -6   4   7    0.25    0.22
  -6   4   7   -0.03    0.16
  -5  -4   7    1.49    0.27
  -5   4   7    1.22    0.27
  -5   4   7    1.15    0.28
  -4  -4   7   12.96    0.65
  -4   4   7   12.89    0.63
  -4   4   7   13.35    0.69
  -3  -4   7    4.12    0.40
  -3   4   7    4.05    0.42
  -3   4   7    3.05    0.38
  -3   4   7    3.86    0.34
   3   4  -7    3.91    0.27
  -2  -4   7   19.32    0.76
   2  -4  -7   18.94    0.73
  -2   4   7   19.58    0.81
   2   4  -7   17.46    0.67
  -2   4   7   17.84    0.71
  -2   4   7   18.85    0.77
  -1  -4   7   22.74    0.85
   1  -4  -7   22.78    0.84
   1   4  -7   22.35    0.82
   1   4  -7   22.14    0.60
  -1   4   7   21.91    0.86
   1   4  -7   22.29    0.83
  -1   4   7   22.99    0.85
   0  -4  -7    8.87    0.51
   0  -4   7    9.51    0.54
   0   4  -7    8.87    0.52
   0   4  -7    8.91    0.51
   0   4  -7    8.37    0.40
   0   4   7    7.89    0.50
  -1  -4  -7    3.71    0.39
  -1  -4  -7    4.73    0.47
   1   4   7    4.04    0.36
   1   4   7    4.92    0.37
  -1   4  -7    3.88    0.41
  -2  -4  -7    1.99    0.31
   2  -4   7    2.82    0.36
  -2  -4  -7    2.71    0.35
  -2   4  -7    2.47    0.36
  -2   4  -7    2.38    0.35
   2   4   7    2.59    0.25
   2   4   7    2.57    0.33
  -3  -4  -7    0.96    0.24
  -3  -4  -7    0.71    0.22
   3  -4   7    1.11    0.24
  -3   4  -7    1.05    0.25
  -3   4  -7    1.38    0.31
   3   4   7    0.84    0.21
  -4  -4  -7    9.80    0.59
  -4   4  -7    8.43    0.59
  -4   4  -7    8.05    0.69
  -5  -4  -7    2.24    0.35
  -5   4  -7    2.75    0.52
  -5   4  -7    1.57    0.35
  -6   5   7    0.60    0.26
  -6   5   7    0.67    0.25
  -5   5   7    5.01    0.46
  -5   5   7    4.84    0.52
  -4   5   7    8.70    0.60
  -4   5   7    9.58    0.57
  -3   5   7    7.32    0.49
  -3   5   7    6.50    0.51
   3   5  -7    6.89    0.38
  -2  -5   7   16.61    0.74
  -2   5   7   15.53    0.77
  -2   5   7   15.32    0.70
   2   5  -7   17.11    0.68
  -2   5   7   15.72    0.74
   1  -5  -7    2.17    0.31
  -1  -5   7    2.62    0.36
   1   5  -7    2.44    0.32
  -1   5   7    2.14    0.34
   1   5  -7    2.56    0.26
   0  -5  -7    6.28    0.46
   0   5   7    5.71    0.46
   0   5  -7    5.84    0.34
   0   5  -7    6.02    0.45
   0   5  -7    6.16    0.45
  -1  -5  -7   19.40    0.83
  -1   5  -7   20.04    0.79
   1   5   7   19.89    0.84
  -1   5  -7   19.11    0.84
   1   5   7   19.35    0.83
  -2  -5  -7    9.48    0.61
  -2  -5  -7    9.10    0.57
   2   5   7    7.69    0.45
  -2   5  -7    8.59    0.56
  -2   5  -7    9.19    0.61
   2   5   7    9.15    0.55
   3  -5   7   10.29    0.61
  -3  -5  -7   10.74    0.64
  -3   5  -7   10.26    0.66
   3   5   7    9.64    0.55
  -3   5  -7   11.53    0.73
  -4  -5  -7    2.45    0.37
  -4   5  -7    2.64    0.43
  -4   5  -7    2.93    0.48
  -5  -5  -7    0.75    0.25
  -5   5  -7    0.71    0.33
  -5   5  -7    1.12    0.33
  -5   6   7    2.13    0.39
  -5   6   7    2.04    0.37
  -4   6   7   11.13    0.71
  -4   6   7   11.71    0.68
  -3   6   7   16.66    0.81
  -3   6   7   19.10    0.92
  -2  -6   7    4.47    0.47
  -2   6   7    4.99    0.45
  -2   6   7    5.06    0.52
   2   6  -7    4.48    0.37
  -1  -6   7    0.63    0.26
   1   6  -7    0.70    0.22
  -1   6   7    0.79    0.25
   1   6  -7    0.72    0.19
   0  -6  -7   12.95    0.70
   0   6  -7   13.27    0.57
   0   6  -7   13.32    0.71
   0   6  -7   13.67    0.72
   0   6   7   13.46    0.72
  -1  -6  -7    7.29    0.55
   1   6   7    8.31    0.54
  -1   6  -7    7.48    0.55
  -1   6  -7    7.75    0.49
   1   6   7    7.61    0.56
  -2  -6  -7    1.18    0.28
  -2  -6  -7    1.78    0.38
   2   6   7    1.63    0.25
   2   6   7    2.03    0.32
  -2   6  -7    1.83    0.35
  -2   6  -7    1.89    0.35
  -3  -6  -7    1.66    0.34
   3  -6   7    1.51    0.32
  -3   6  -7    1.46    0.33
  -3   6  -7    1.94    0.38
  -4  -6  -7    6.37    0.55
  -4   6  -7    6.39    0.72
  -4   6  -7    6.21    0.63
  -5  -6  -7    4.97    0.54
  -5   6  -7    5.57    0.73
  -5   6  -7    5.11    0.61
  -5   7   7    3.26    0.47
  -5   7   7    2.71    0.46
  -4   7   7    2.03    0.42
  -4   7   7    2.13    0.39
  -3   7   7    1.60    0.32
  -3   7   7    1.52    0.33
  -2   7   7    2.82    0.40
  -2   7   7    2.58    0.42
   2   7  -7    3.36    0.40
   1   7  -7    1.42    0.29
   1   7  -7    1.10    0.23
  -1   7   7    1.52    0.33
   0   7  -7    3.74    0.32
   0   7   7    4.59    0.54
   0   7  -7    4.58    0.50
  -1  -7  -7   40.22    1.40
   1   7   7   39.41    1.39
  -1   7  -7   40.32    1.30
  -1   7  -7   39.91    1.42
  -2  -7  -7    7.05    0.59
   2   7   7    7.54    0.48
   2   7   7    6.92    0.53
  -2   7  -7    8.16    0.57
  -2   7  -7    6.79    0.57
  -3  -7  -7    0.16    0.22
  -3   7  -7    0.44    0.21
  -3   7  -7    0.41    0.25
  -4  -7  -7    7.90    0.65
  -4   7  -7    7.32    0.73
  -4   7  -7    7.83    0.67
  -4   8   7    3.21    0.48
  -4   8   7    4.14    0.56
  -3   8   7    5.25    0.59
  -3   8   7    6.23    0.67
  -2   8   7    2.12    0.43
  -2   8   7    2.55    0.43
   1   8  -7    2.12    0.33
  -1   8   7    1.59    0.36
   1   8  -7    2.48    0.29
   1   8  -7    1.80    0.34
   0   8  -7   22.11    1.02
   0   8   7   22.03    1.05
   0   8  -7   22.21    0.85
  -1   8  -7    2.98    0.38
  -1   8  -7    2.23    0.42
   1   8   7    2.64    0.42
  -2  -8  -7    3.75    0.51
  -2   8  -7    3.26    0.43
  -2   8  -7    3.28    0.51
  -3  -8  -7    1.44    0.37
  -3   8  -7    1.08    0.30
  -3   8  -7    1.08    0.35
  -4  -8  -7    1.05    0.32
  -4   8  -7    1.14    0.34
  -4   8  -7    1.57    0.42
  -3   9   7   15.56    0.91
  -3   9   7   12.50    0.90
  -2   9   7    0.89    0.32
  -2   9   7    0.94    0.31
  -1   9   7    8.91    0.74
   1   9  -7    8.54    0.49
   0   9  -7    7.03    0.61
   0   9  -7    5.86    0.44
   0   9   7    7.15    0.73
  -1   9  -7    0.86    0.24
   1   9   7    1.67    0.38
  -1   9  -7    0.95    0.32
  -2   9  -7    0.80    0.35
  -2   9  -7    0.63    0.23
  -3   9  -7    2.11    0.44
  -3   9  -7    1.84    0.44
  -2  10   7    2.69    0.50
  -2  10   7    2.21    0.49
  -1  10   7    0.25    0.25
   1  10  -7    0.33    0.18
   0  10  -7    1.70    0.42
   0  10   7    1.75    0.41
   0  10  -7    2.00    0.33
  -1  10  -7    1.40    0.30
  -1  10  -7    1.93    0.46
  -2  10  -7   11.86    0.77
  -2  10  -7   12.35    0.91
  -6   0   8    1.36    0.25
  -5   0   8    1.49    0.24
  -4   0   8    2.91    0.32
  -4   0   8    2.55    0.17
  -4   0   8    2.30    0.29
   3   0  -8   28.71    0.82
  -3   0   8   28.09    0.95
  -3   0   8   28.94    0.93
  -2   0   8   36.45    1.10
  -2   0   8   34.85    1.07
   2   0  -8   36.74    1.03
   2   0  -8   36.16    0.85
  -1   0   8   10.79    0.54
   1   0  -8   11.03    0.37
  -1   0   8    9.98    0.55
   1   0  -8   10.63    0.50
  -1   0   8   10.02    0.51
   0   0   8    7.75    0.49
   0   0   8    8.44    0.47
   0   0   8    8.57    0.49
   0   0  -8    7.87    0.48
   0   0  -8    8.40    0.46
  -1   0  -8   12.46    0.60
  -1   0  -8   12.15    0.62
   1   0   8   11.80    0.57
  -1   0  -8   10.91    0.57
  -2   0  -8   29.85    1.02
   2   0   8   30.38    1.00
  -2   0  -8   29.41    1.02
  -2   0  -8   30.54    1.14
  -3   0  -8    3.11    0.41
  -3   0  -8    2.12    0.32
   3   0   8    2.41    0.29
  -3   0  -8    2.09    0.31
  -4   0  -8    0.78    0.25
  -4   0  -8    0.54    0.19
  -5   0  -8    0.03    0.18
  -5   0  -8    0.02    0.15
  -6   0  -8    3.93    0.47
  -6  -1   8    1.35    0.24
  -6   1   8    1.66    0.28
  -5  -1   8    1.38    0.23
  -5   1   8    1.77    0.27
  -4  -1   8    7.18    0.45
  -4  -1   8    6.29    0.42
  -4   1   8    6.76    0.44
  -4   1   8    7.03    0.34
  -4   1   8    7.89    0.51
  -3  -1   8   88.02    2.08
   3  -1  -8   87.64    1.95
   3  -1  -8   87.59    2.00
  -3  -1   8   88.92    2.11
   3   1  -8   85.86    1.92
  -3   1   8   87.13    1.93
  -3   1   8   91.24    2.11
  -3   1   8   87.90    2.12
   2  -1  -8    4.69    0.25
   2  -1  -8    4.57    0.32
  -2  -1   8    4.32    0.35
  -2  -1   8    4.17    0.34
  -2  -1   8    4.27    0.35
  -2   1   8    4.11    0.35
   2   1  -8    4.33    0.31
  -2   1   8    4.21    0.34
  -1  -1   8    3.11    0.33
  -1  -1   8    3.50    0.33
  -1   1   8    3.66    0.32
  -1   1   8    3.46    0.32
   0  -1   8   13.36    0.61
   0  -1  -8   12.93    0.59
   0  -1   8   13.62    0.62
   0  -1  -8   13.24    0.68
   0   1   8   12.83    0.60
   0   1   8   13.14    0.64
   0   1  -8   12.86    0.59
   0   1   8   11.86    0.57
  -1  -1  -8   35.17    1.10
   1  -1   8   34.56    1.10
  -1  -1  -8   36.53    1.13
  -1   1  -8   35.59    1.11
   1   1   8   36.06    1.12
  -1   1  -8   36.15    1.25
  -2  -1  -8   33.64    1.09
  -2  -1  -8   34.00    1.11
  -2  -1  -8   33.84    1.21
   2  -1   8   32.45    1.07
  -2   1  -8   35.15    1.24
  -2   1  -8   32.31    1.09
   2   1   8   34.12    1.08
  -3  -1  -8   12.22    0.63
  -3  -1  -8   12.96    0.70
  -3  -1  -8   12.65    0.66
   3  -1   8   12.23    0.59
  -3   1  -8   11.93    0.68
   3   1   8   12.55    0.59
  -3   1  -8   11.29    0.62
  -4  -1  -8    9.80    0.58
  -4  -1  -8   10.65    0.65
  -4   1  -8    9.74    0.64
  -4   1  -8   10.13    0.60
  -5  -1  -8    6.78    0.57
  -5  -1  -8    7.36    0.53
  -5   1  -8    7.21    0.53
  -6  -1  -8    9.73    0.63
  -6   1  -8    9.45    0.64
  -6  -2   8    4.68    0.37
  -6   2   8    4.56    0.46
  -5  -2   8    5.06    0.39
  -5   2   8    4.97    0.42
  -5   2   8    4.47    0.35
  -4  -2   8    9.09    0.50
  -4  -2   8    8.89    0.50
  -4   2   8    8.02    0.42
  -4   2   8    8.36    0.51
  -3  -2   8   13.89    0.66
   3  -2  -8   12.92    0.55
  -3  -2   8   13.98    0.62
   3  -2  -8   12.44    0.53
  -3  -2   8   13.19    0.61
   3   2  -8   13.44    0.50
  -3   2   8   13.38    0.52
  -3   2   8   13.53    0.64
  -3   2   8   13.98    0.63
   2  -2  -8    2.65    0.27
   2  -2  -8    2.42    0.27
  -2  -2   8    2.30    0.29
  -2  -2   8    2.65    0.34
  -2  -2   8    2.55    0.32
   2   2  -8    2.70    0.27
  -2   2   8    2.62    0.32
  -2   2   8    2.18    0.28
  -1  -2   8   44.39    1.47
  -1  -2   8   47.14    1.31
  -1  -2   8   45.53    1.32
   1  -2  -8   46.01    1.28
   1  -2  -8   45.42    1.18
  -1   2   8   45.26    1.33
   1   2  -8   46.09    1.27
  -1   2   8   46.52    1.31
   1   2  -8   44.39    1.05
   0  -2   8    9.11    0.51
   0  -2  -8    9.32    0.51
   0  -2  -8    9.74    0.51
   0  -2   8    8.90    0.52
   0   2   8    9.09    0.51
   0   2  -8    9.03    0.49
   0   2  -8    9.50    0.52
   0   2   8    9.10    0.53
   0   2   8    8.43    0.50
  -1  -2  -8    1.49    0.28
   1  -2   8    1.84    0.27
  -1   2  -8    1.71    0.29
  -1   2  -8    1.86    0.28
  -2  -2  -8   11.92    0.63
  -2  -2  -8   12.29    0.62
   2  -2   8   12.51    0.62
  -2   2  -8   14.16    0.71
   2   2   8   12.47    0.61
  -2   2  -8   12.52    0.65
   3  -2   8   49.78    1.42
  -3  -2  -8   51.05    1.48
  -3  -2  -8   52.00    1.50
  -3  -2  -8   50.25    1.66
   3   2   8   47.87    1.39
  -3   2  -8   49.94    1.51
  -4  -2  -8   22.87    0.94
  -4  -2  -8   24.65    1.05
  -4   2  -8   23.46    0.98
  -5  -2  -8    8.21    0.62
  -5  -2  -8    7.89    0.56
  -5   2  -8    7.13    0.56
  -6  -2  -8    7.06    0.56
  -6   2  -8    6.17    0.84
  -6   2  -8    7.02    0.57
  -6  -3   8    2.00    0.31
  -6   3   8    1.93    0.33
  -5  -3   8    3.03    0.37
  -5  -3   8    2.71    0.33
  -5   3   8    3.17    0.35
  -5   3   8    3.11    0.39
  -4  -3   8   16.30    0.71
  -4  -3   8   16.28    0.74
  -4   3   8   15.73    0.75
  -4   3   8   16.92    0.67
  -3  -3   8   68.50    1.78
  -3  -3   8   70.91    2.06
  -3  -3   8   70.26    1.83
   3   3  -8   69.39    1.61
  -3   3   8   70.01    1.81
  -3   3   8   69.69    1.74
  -3   3   8   68.73    1.86
  -2  -3   8    1.02    0.23
   2  -3  -8    0.99    0.20
  -2  -3   8    1.02    0.23
  -2   3   8    0.81    0.23
   2   3  -8    0.82    0.19
  -2   3   8    0.72    0.20
  -1  -3   8    3.36    0.38
  -1   3   8    3.07    0.36
   1   3  -8    2.72    0.31
   0  -3  -8    0.47    0.17
   0  -3   8    0.73    0.20
   0  -3   8    0.98    0.25
   0   3  -8    0.62    0.19
   0   3   8    0.50    0.18
   0   3   8    0.88    0.23
   0   3  -8    1.01    0.22
   0   3  -8    1.12    0.19
  -1  -3  -8   50.81    1.47
  -1  -3  -8   51.86    1.49
   1  -3   8   52.91    1.50
  -1   3  -8   52.20    1.49
  -1   3  -8   52.96    1.69
  -1   3  -8   51.39    1.49
   1   3   8   51.72    1.48
   1   3   8   51.26    1.61
   2  -3   8    9.19    0.55
  -2  -3  -8    8.89    0.53
  -2  -3  -8    9.16    0.55
   2   3   8    9.24    0.53
  -2   3  -8    8.52    0.56
  -2   3  -8    8.55    0.55
   3  -3   8   19.87    0.81
  -3  -3  -8   18.84    0.82
  -3  -3  -8   17.39    0.83
  -3   3  -8   18.30    0.94
  -3   3  -8   17.65    0.83
   3   3   8   17.63    0.75
  -4  -3  -8    0.92    0.24
  -4   3  -8    0.59    0.30
  -4   3  -8    0.80    0.25
  -5  -3  -8    8.94    0.60
  -5   3  -8    8.75    0.77
  -5   3  -8    8.29    0.62
  -6  -4   8    3.68    0.42
  -6   4   8    3.10    0.43
  -5  -4   8    6.28    0.47
  -5   4   8    5.44    0.45
  -5   4   8    5.54    0.49
  -4  -4   8    4.42    0.41
  -4   4   8    4.94    0.41
  -4   4   8    4.65    0.50
  -3  -4   8    1.81    0.32
  -3   4   8    1.48    0.30
   3   4  -8    1.81    0.23
  -3   4   8    1.64    0.33
  -3   4   8    1.64    0.26
  -2  -4   8    4.14    0.42
   2  -4  -8    4.36    0.37
  -2   4   8    3.86    0.43
  -2   4   8    4.77    0.46
  -2   4   8    3.89    0.34
   2   4  -8    4.16    0.33
   1  -4  -8    8.18    0.51
  -1  -4   8    9.29    0.57
   1   4  -8    8.11    0.49
   1   4  -8    9.42    0.50
  -1   4   8    9.02    0.57
   1   4  -8    9.10    0.32
  -1   4   8    9.04    0.56
   0  -4  -8    7.91    0.50
   0   4  -8    7.72    0.49
   0   4  -8    6.86    0.38
   0   4   8    7.34    0.50
   0   4  -8    7.92    0.50
  -1  -4  -8    8.66    0.54
   1  -4   8    7.91    0.55
  -1   4  -8    8.52    0.51
   1   4   8    8.42    0.53
  -1   4  -8    8.03    0.53
   1   4   8    8.09    0.53
  -1   4  -8    8.74    0.57
  -2  -4  -8   17.24    0.81
  -2  -4  -8   17.08    0.78
   2  -4   8   16.76    0.79
   2   4   8   18.02    0.78
  -2   4  -8   18.05    0.83
  -2   4  -8   17.37    0.84
  -3  -4  -8    3.48    0.41
   3  -4   8    4.83    0.43
  -3   4  -8    5.71    0.54
   3   4   8    3.74    0.41
  -3   4  -8    3.57    0.46
  -4  -4  -8    2.46    0.36
  -4   4  -8    2.22    0.44
  -4   4  -8    2.90    0.42
  -5  -4  -8    2.95    0.42
  -5   4  -8    3.19    0.45
  -5   4  -8    2.81    0.55
  -5   5   8    0.27    0.20
  -5   5   8   -0.02    0.18
  -4   5   8    2.33    0.34
  -4   5   8    2.76    0.41
  -3   5   8    6.71    0.54
  -3   5   8    7.08    0.49
  -2  -5   8   26.69    1.01
  -2   5   8   26.61    1.02
  -2   5   8   24.90    0.94
  -2   5   8   24.30    1.03
   2   5  -8   25.14    0.90
  -1  -5   8   66.73    1.87
   1  -5  -8   72.20    1.89
  -1   5   8   66.85    1.92
   1   5  -8   66.06    1.97
   1   5  -8   70.46    1.57
   1   5  -8   70.64    1.85
   0  -5  -8    6.20    0.49
   0   5  -8    6.47    0.49
   0   5  -8    6.92    0.50
   0   5   8    6.94    0.53
   0   5  -8    6.97    0.38
  -1  -5  -8   24.13    0.98
  -1   5  -8   27.12    0.95
  -1   5  -8   23.93    1.00
   1   5   8   24.96    1.01
   1   5   8   22.78    0.96
  -2  -5  -8    1.55    0.30
  -2  -5  -8    1.39    0.34
   2  -5   8    0.58    0.24
  -2   5  -8    0.80    0.26
  -2   5  -8    1.45    0.30
   2   5   8    1.21    0.22
   2   5   8    1.30    0.28
  -3  -5  -8    1.14    0.27
   3  -5   8    1.17    0.29
  -3   5  -8    0.98    0.29
  -3   5  -8    0.72    0.28
  -4  -5  -8    7.30    0.58
  -4   5  -8    5.93    0.63
  -4   5  -8    7.96    0.81
  -5  -5  -8    3.64    0.48
  -5   5  -8    3.80    0.52
  -5   5  -8    2.95    0.54
  -5   6   8    2.13    0.38
  -5   6   8    2.72    0.45
  -4   6   8    7.03    0.59
  -4   6   8    6.40    0.53
  -3   6   8    0.39    0.21
  -3   6   8    0.33    0.23
  -2   6   8   38.29    1.29
  -2   6   8   38.40    1.39
   2   6  -8   37.64    1.22
   1  -6  -8   19.15    0.87
   1   6  -8   18.28    0.58
   1   6  -8   14.68    0.75
  -1   6   8   16.69    0.85
   1   6  -8   15.78    0.75
   0  -6  -8   12.79    0.71
   0   6  -8   13.37    0.73
   0   6  -8   13.32    0.58
   0   6   8   12.92    0.75
   0   6  -8   14.11    0.75
  -1  -6  -8   24.59    1.04
  -1   6  -8   24.28    1.04
   1   6   8   24.76    1.04
   1   6   8   26.47    1.08
  -1   6  -8   25.72    0.96
  -2  -6  -8    3.38    0.44
   2   6   8    4.09    0.47
   2   6   8    4.00    0.35
  -2   6  -8    3.89    0.47
  -2   6  -8    4.60    0.52
  -3  -6  -8    1.28    0.33
  -3   6  -8    0.92    0.31
  -3   6  -8    0.70    0.26
  -4  -6  -8    5.68    0.60
  -4   6  -8    4.56    0.57
  -4   6  -8    6.05    0.70
  -5  -6  -8    2.34    0.40
  -5   6  -8    2.24    0.47
  -5   6  -8    1.40    0.39
  -4   7   8    5.92    0.55
  -4   7   8    6.01    0.66
  -3   7   8    6.18    0.66
  -3   7   8    5.59    0.52
  -2   7   8    3.53    0.49
  -2   7   8    3.23    0.43
  -1   7   8    3.77    0.49
   1   7  -8    4.76    0.52
   1   7  -8    4.99    0.41
   0  -7  -8    4.81    0.53
   0   7  -8    5.07    0.46
   0   7  -8    5.36    0.57
   0   7   8    3.67    0.48
   0   7  -8    4.29    0.34
  -1  -7  -8   15.12    0.83
   1   7   8   14.86    0.80
  -1   7  -8   15.14    0.73
  -1   7  -8   15.91    0.87
   1   7   8   16.10    0.85
  -2  -7  -8    1.20    0.32
  -2   7  -8    1.47    0.36
   2   7   8    1.64    0.35
  -2   7  -8    1.57    0.32
   2   7   8    1.51    0.27
  -3  -7  -8    6.33    0.64
  -3   7  -8    6.59    0.57
  -3   7  -8    7.21    0.73
  -4  -7  -8    1.26    0.36
  -4   7  -8    0.87    0.35
  -4   7  -8    0.91    0.33
  -4   8   8    2.78    0.51
  -4   8   8    2.84    0.47
  -3   8   8    7.74    0.79
  -3   8   8    6.50    0.59
  -2   8   8    2.07    0.40
  -2   8   8    1.99    0.41
   1   8  -8    2.59    0.30
  -1   8   8    1.15    0.35
   1   8  -8    1.88    0.37
   0   8  -8    4.42    0.37
   0   8  -8    5.17    0.57
   0   8   8    4.55    0.56
   0   8  -8    5.13    0.48
  -1  -8  -8    6.42    0.67
  -1   8  -8    5.54    0.65
   1   8   8    4.86    0.60
  -1   8  -8    4.86    0.43
  -2  -8  -8    1.88    0.40
  -2   8  -8    1.83    0.36
  -2   8  -8    1.72    0.41
  -3  -8  -8    0.78    0.30
  -3   8  -8    0.69    0.34
  -3   8  -8    0.61    0.24
  -3   9   8    2.45    0.51
  -3   9   8    1.94    0.42
  -2   9   8    1.43    0.40
  -2   9   8    2.41    0.47
  -1   9   8    1.82    0.42
   1   9  -8    2.38    0.30
   0   9  -8    0.93    0.31
   0   9  -8    0.58    0.19
   0   9   8    0.77    0.32
  -1   9  -8    5.99    0.72
  -1   9  -8    6.03    0.49
  -2   9  -8    2.79    0.45
  -2   9  -8    3.09    0.53
  -3   9  -8    4.16    0.57
  -3   9  -8    3.25    0.57
  -2  10   8    0.62    0.38
  -2  10   8    0.04    0.27
  -1  10   8    1.19    0.39
   0  10   8    0.26    0.30
   0  10  -8    1.15    0.26
  -1  10  -8    2.75    0.54
  -1  10  -8    2.39    0.38
  -6   0   9    0.46    0.18
  -5   0   9   10.29    0.58
  -4   0   9    2.97    0.35
   3   0  -9    0.29    0.12
  -3   0   9    0.33    0.16
  -3   0   9    0.43    0.17
  -2   0   9   19.19    0.84
  -2   0   9   19.75    0.78
   2   0  -9   19.33    0.53
  -2   0   9   20.37    0.81
   2   0  -9   19.67    0.72
  -1   0   9    6.59    0.47
  -1   0   9    5.97    0.45
   1   0  -9    7.19    0.31
  -1   0   9    6.23    0.43
   1   0  -9    6.84    0.42
   0   0   9    5.23    0.42
   0   0   9    5.66    0.43
   0   0  -9    5.47    0.41
   1   0   9    6.99    0.48
  -1   0  -9    7.07    0.47
  -1   0  -9    7.28    0.50
   2   0   9    6.28    0.45
  -2   0  -9    6.61    0.50
  -2   0  -9    6.13    0.50
  -2   0  -9    6.00    0.47
  -3   0  -9    0.13    0.19
   3   0   9    0.17    0.13
  -3   0  -9    0.13    0.15
  -3   0  -9    0.29    0.19
  -4   0  -9    1.80    0.34
  -4   0  -9    2.24    0.38
  -5   0  -9    0.20    0.17
  -6  -1   9    0.21    0.15
  -6   1   9    0.02    0.15
  -5  -1   9    2.46    0.33
  -5   1   9    2.19    0.33
  -4  -1   9   14.40    0.67
  -4   1   9   13.56    0.66
  -4   1   9   12.71    0.46
  -3  -1   9   38.10    1.22
  -3  -1   9   40.84    1.36
   3  -1  -9   39.72    1.10
   3  -1  -9   39.22    1.04
  -3  -1   9   40.04    1.21
   3   1  -9   38.26    1.06
  -3   1   9   39.91    1.22
  -3   1   9   40.14    1.24
   2  -1  -9    1.39    0.23
  -2  -1   9    1.51    0.27
  -2  -1   9    1.36    0.24
   2  -1  -9    1.97    0.20
  -2  -1   9    1.64    0.26
  -2   1   9    1.36    0.26
   2   1  -9    1.54    0.24
  -2   1   9    1.91    0.29
  -1  -1   9    1.13    0.26
  -1  -1   9    0.91    0.20
  -1  -1   9    1.04    0.24
  -1   1   9    1.16    0.24
   1   1  -9    1.22    0.21
  -1   1   9    1.04    0.22
  -1   1   9    0.96    0.23
   0  -1  -9   41.24    1.25
   0  -1   9   41.53    1.27
   0   1   9   40.14    1.39
   0   1  -9   41.89    1.25
   0   1   9   39.28    1.25
  -1  -1  -9    7.10    0.48
   1  -1   9    7.29    0.49
  -1   1  -9    7.06    0.49
   1   1   9    7.37    0.48
  -1   1  -9    6.77    0.47
   2  -1   9    6.85    0.47
  -2  -1  -9    6.34    0.51
  -2  -1  -9    6.82    0.51
  -2  -1  -9    6.43    0.48
  -2   1  -9    7.01    0.52
   2   1   9    6.39    0.46
  -2   1  -9    7.57    0.52
  -3  -1  -9    3.57    0.41
  -3  -1  -9    3.79    0.42
   3  -1   9    4.50    0.39
   3   1   9    3.72    0.40
  -3   1  -9    4.90    0.50
  -3   1  -9    3.89    0.49
  -4  -1  -9    2.14    0.34
  -4  -1  -9    2.31    0.41
  -4   1  -9    2.35    0.37
  -4   1  -9    1.51    0.32
  -5  -1  -9    1.67    0.33
  -5   1  -9    1.13    0.29
  -6  -2   9    6.54    0.47
  -6   2   9    7.74    0.56
  -5  -2   9    2.33    0.35
  -5  -2   9    2.60    0.35
  -5   2   9    2.10    0.34
  -4  -2   9    8.80    0.53
  -4  -2   9    8.21    0.53
  -4   2   9    9.04    0.43
  -4   2   9    8.54    0.55
   3  -2  -9    1.99    0.26
  -3  -2   9    2.00    0.30
  -3  -2   9    2.02    0.31
  -3   2   9    1.68    0.28
  -2  -2   9   14.86    0.71
   2  -2  -9   14.69    0.57
  -2  -2   9   15.79    0.77
  -2  -2   9   16.06    0.72
   2  -2  -9   16.82    0.68
  -2   2   9   15.85    0.74
   2   2  -9   15.83    0.64
  -2   2   9   15.37    0.71
  -1  -2   9   17.12    0.77
   1  -2  -9   20.45    0.67
   1  -2  -9   19.57    0.77
  -1  -2   9   20.45    0.81
  -1   2   9   16.89    0.76
   1   2  -9   17.26    0.54
   1   2  -9   18.84    0.75
  -1   2   9   18.00    0.79
   0  -2  -9    4.51    0.38
   0  -2   9    5.58    0.43
   0   2   9    5.71    0.45
   0   2  -9    5.14    0.40
   0   2  -9    5.69    0.43
   0   2   9    5.40    0.43
   1  -2   9   30.56    1.07
  -1  -2  -9   30.02    1.06
  -1   2  -9   30.37    1.07
   1   2   9   31.75    1.08
  -1   2  -9   31.12    1.18
   1   2   9   31.17    1.14
   2  -2   9   48.40    1.43
  -2  -2  -9   48.12    1.45
  -2  -2  -9   50.95    1.49
  -2   2  -9   38.95    1.54
   2   2   9   46.47    1.40
  -2   2  -9   48.80    1.47
  -3  -2  -9    6.86    0.52
   3  -2   9    5.26    0.44
  -3   2  -9    6.83    0.53
  -3   2  -9    5.72    0.52
   3   2   9    5.81    0.44
  -4  -2  -9    3.27    0.46
  -4  -2  -9    2.23    0.39
  -4   2  -9    2.46    0.46
  -4   2  -9    1.69    0.33
  -5  -2  -9    0.19    0.20
  -5   2  -9    0.42    0.22
  -6  -3   9    1.15    0.26
  -6   3   9    1.75    0.35
  -5  -3   9    4.11    0.42
  -5   3   9    3.54    0.45
  -4  -3   9    0.71    0.21
  -4  -3   9    0.82    0.21
  -4   3   9    0.93    0.24
  -4   3   9    0.49    0.18
  -3  -3   9   15.68    0.78
  -3  -3   9   15.02    0.71
  -3   3   9   14.31    0.61
  -3   3   9   16.62    0.78
   3   3  -9   14.04    0.57
   2  -3  -9   12.86    0.61
  -2  -3   9   12.36    0.65
  -2  -3   9   10.66    0.62
  -2   3   9   12.23    0.63
  -2   3   9   11.96    0.65
   2   3  -9   12.80    0.59
  -1  -3   9    4.52    0.48
   1  -3  -9    4.52    0.39
  -1  -3   9    3.28    0.40
  -1   3   9    3.04    0.38
   1   3  -9    4.12    0.21
   1   3  -9    3.61    0.39
  -1   3   9    3.05    0.38
   0  -3   9   58.96    1.68
   0  -3  -9   58.20    1.65
   0   3  -9   62.24    1.68
   0   3   9   58.00    1.87
   0   3  -9   59.59    1.54
   0   3   9   58.55    1.69
   0   3  -9   63.11    1.87
   1  -3   9    7.99    0.55
  -1  -3  -9    7.83    0.52
  -1   3  -9    8.48    0.56
  -1   3  -9    7.90    0.49
   1   3   9    7.59    0.51
   1   3   9    6.76    0.50
  -1   3  -9    7.85    0.54
   2  -3   9    2.78    0.39
  -2  -3  -9    2.24    0.34
  -2  -3  -9    2.86    0.41
   2   3   9    3.10    0.37
  -2   3  -9    2.19    0.35
  -3  -3  -9    3.86    0.46
   3  -3   9    3.92    0.43
   3   3   9    3.20    0.38
  -3   3  -9    3.09    0.43
  -3   3  -9    4.07    0.54
  -4  -3  -9    1.00    0.29
  -4   3  -9    1.19    0.36
  -4   3  -9    0.86    0.27
  -5  -3  -9    2.36    0.38
  -5   3  -9    1.85    0.38
  -5   3  -9    1.94    0.47
  -5  -4   9    0.90    0.23
  -5   4   9    0.77    0.28
  -5   4   9    0.69    0.23
  -4  -4   9    4.40    0.47
  -4   4   9    5.52    0.43
  -4   4   9    4.89    0.52
  -3   4   9   14.36    0.76
  -3   4   9   13.98    0.64
   2  -4  -9    7.55    0.49
  -2  -4   9    7.84    0.55
   2   4  -9    8.20    0.48
  -2   4   9    7.43    0.55
  -2   4   9    8.10    0.57
  -1  -4   9   32.88    1.15
   1  -4  -9   29.67    1.08
   1   4  -9   30.33    0.78
   1   4  -9   31.67    1.08
  -1   4   9   33.03    1.18
   0  -4   9   15.51    0.78
   0  -4  -9   15.17    0.75
   0   4  -9   17.15    0.77
   0   4  -9   15.72    0.61
   0   4  -9   16.44    0.79
   0   4   9   16.96    0.83
   0   4   9   15.83    0.79
  -1  -4  -9    0.37    0.16
   1  -4   9    0.28    0.19
   1   4   9    0.42    0.18
  -1   4  -9    0.07    0.14
  -1   4  -9    0.37    0.20
   2  -4   9   17.72    0.85
  -2  -4  -9   19.80    0.88
  -2   4  -9   17.98    0.87
   2   4   9   18.58    0.84
  -2   4  -9   18.67    0.94
  -2   4  -9   18.36    0.88
   3  -4   9    5.37    0.53
  -3  -4  -9    4.53    0.48
  -3   4  -9    5.19    0.56
  -3   4  -9    4.83    0.57
  -4  -4  -9    1.92    0.35
  -4   4  -9    2.00    0.40
  -4   4  -9    2.21    0.45
  -5  -4  -9   11.86    0.75
  -5   4  -9   13.74    0.99
  -5   4  -9   12.35    0.82
  -5  -5   9    2.38    0.39
  -5   5   9    3.19    0.49
  -5   5   9    2.88    0.40
  -4   5   9    4.50    0.47
  -4   5   9    4.82    0.55
  -3   5   9    1.87    0.31
  -3   5   9    2.44    0.41
   2  -5  -9   21.01    0.90
   2   5  -9   24.05    0.90
  -2   5   9   23.49    1.03
   1   5  -9    3.76    0.43
   1   5  -9    5.52    0.40
   0  -5  -9    2.69    0.38
   0   5  -9    3.67    0.37
   0   5  -9    2.87    0.27
   0   5   9    3.42    0.44
   0   5  -9    3.20    0.41
  -1  -5  -9   36.69    1.29
   1  -5   9   37.57    1.34
   1   5   9   35.97    1.29
   1   5   9   35.61    1.33
  -1   5  -9   36.68    1.41
  -1   5  -9   35.67    1.19
  -1   5  -9   35.58    1.28
  -2  -5  -9    0.39    0.21
   2  -5   9    0.49    0.26
   2   5   9    0.43    0.17
  -2   5  -9    0.81    0.26
   2   5   9    0.69    0.22
  -2   5  -9    0.77    0.27
  -3  -5  -9    0.02    0.16
  -3   5  -9    0.30    0.21
  -3   5  -9    0.11    0.20
  -4  -5  -9    9.50    0.68
  -4   5  -9   10.17    0.81
  -4   5  -9   10.92    0.76
  -5  -5  -9    1.22    0.31
  -5   5  -9    0.91    0.36
  -5   5  -9    0.32    0.27
  -5   6   9    1.77    0.36
  -5   6   9    1.14    0.33
  -4   6   9    1.55    0.38
  -4   6   9    2.26    0.37
  -3   6   9    2.22    0.41
  -3   6   9    2.59    0.39
  -2   6   9   30.50    1.24
   1  -6  -9    3.50    0.45
   1   6  -9    3.25    0.43
   1   6  -9    3.25    0.34
   1   6  -9    3.41    0.24
  -1   6   9    2.94    0.44
   0  -6  -9    7.67    0.57
   0   6  -9    7.62    0.56
   0   6  -9    8.01    0.59
   0   6   9    7.50    0.59
   0   6  -9    7.34    0.43
  -1  -6  -9    4.64    0.52
  -1   6  -9    5.64    0.51
  -1   6  -9    5.58    0.45
  -1   6  -9    3.93    0.51
   1   6   9    4.17    0.43
   1   6   9    3.52    0.46
  -2  -6  -9    7.70    0.60
   2  -6   9    8.20    0.64
   2   6   9    7.53    0.51
   2   6   9    9.27    0.64
  -2   6  -9    7.52    0.63
  -2   6  -9    8.53    0.60
  -3  -6  -9    0.31    0.24
  -3   6  -9    0.16    0.24
  -3   6  -9    0.46    0.24
  -4  -6  -9    0.34    0.26
  -4   6  -9    0.49    0.26
  -4   6  -9    0.29    0.28
  -4   7   9    0.50    0.29
  -4   7   9    0.58    0.28
  -3   7   9    3.23    0.46
  -3   7   9    3.48    0.51
  -2   7   9    5.11    0.62
   1   7  -9   14.04    0.53
  -1   7   9   13.46    0.85
   1   7  -9   14.85    0.80
   0  -7  -9    6.88    0.58
   0   7  -9    5.65    0.39
   0   7   9    5.90    0.66
   0   7  -9    6.67    0.64
   0   7  -9    5.46    0.51
  -1  -7  -9    7.23    0.63
  -1   7  -9    6.31    0.66
  -1   7  -9    6.78    0.49
   1   7   9    7.02    0.61
  -2  -7  -9    4.16    0.54
  -2   7  -9    3.82    0.54
  -2   7  -9    4.03    0.50
  -3  -7  -9    0.31    0.25
  -3   7  -9    0.01    0.23
  -3   7  -9   -0.08    0.16
  -4  -7  -9    7.54    0.78
  -4   7  -9    8.48    0.84
  -4   7  -9    5.96    0.70
  -3   8   9   -0.18    0.22
  -3   8   9    0.23    0.26
  -2   8   9    3.14    0.52
  -1   8   9    3.16    0.50
   0   8  -9    2.27    0.40
   0   8  -9    2.29    0.31
   0   8   9    2.33    0.44
  -1  -8  -9    1.18    0.34
  -1   8  -9    0.85    0.33
   1   8   9    0.75    0.29
  -1   8  -9    0.88    0.25
  -2  -8  -9    0.78    0.33
  -2   8  -9    0.98    0.29
  -2   8  -9    1.16    0.39
  -3  -8  -9    0.41    0.31
  -3   8  -9    0.44    0.23
  -3   8  -9   -0.18    0.23
  -2   9   9    6.46    0.76
  -1   9   9    1.79    0.44
   0   9   9    0.02    0.21
   0   9  -9    0.02    0.13
   0   9  -9   -0.33    0.22
  -1   9  -9    3.63    0.46
  -1   9  -9    3.46    0.54
  -2   9  -9    0.66    0.27
  -2   9  -9    1.44    0.42
  -1  10   9    2.80    0.53
  -6   0  10    1.27    0.28
  -5   0  10    0.45    0.20
  -4   0  10    2.57    0.35
  -3   0  10   15.04    0.73
  -3   0  10   14.44    0.76
   3   0 -10   15.45    0.62
  -2   0  10   28.86    1.06
   2   0 -10   29.54    0.99
  -2   0  10   31.51    1.20
  -2   0  10   31.93    1.09
   2   0 -10   29.50    0.76
   1   0 -10   11.80    0.44
  -1   0  10   12.17    0.65
   1   0 -10   11.45    0.60
  -1   0  10   12.19    0.65
  -1   0  10   12.24    0.69
   0   0  10    0.12    0.13
   0   0  10   -0.02    0.14
   0   0 -10    0.16    0.15
  -1   0 -10    5.31    0.45
   1   0  10    3.89    0.45
  -2   0 -10   15.83    0.77
   2   0  10   14.90    0.72
  -2   0 -10   10.56    0.68
  -3   0 -10    2.93    0.43
  -3   0 -10    2.60    0.40
   3   0  10    2.80    0.37
  -4   0 -10    1.86    0.35
  -5   0 -10    0.76    0.28
  -6  -1  10    3.65    0.42
  -6   1  10    4.06    0.47
  -5  -1  10    3.81    0.44
  -5   1  10    3.56    0.44
  -4  -1  10    7.28    0.53
  -4  -1  10    6.92    0.51
  -4   1  10    6.52    0.51
  -3  -1  10    6.74    0.51
  -3  -1  10    7.33    0.51
  -3   1  10    6.80    0.50
   3   1 -10    6.59    0.39
  -2  -1  10   37.57    1.26
  -2  -1  10   39.61    1.27
   2  -1 -10   40.81    1.20
  -2  -1  10   39.05    1.40
   2  -1 -10   37.46    1.00
  -2   1  10   39.66    1.26
   2   1 -10   37.73    1.16
  -2   1  10   38.58    1.40
  -2   1  10   38.06    1.27
  -1  -1  10    4.63    0.52
  -1  -1  10    3.47    0.38
  -1  -1  10    3.65    0.42
   1  -1 -10    3.58    0.39
  -1   1  10    4.09    0.44
   1   1 -10    5.40    0.40
  -1   1  10    3.20    0.37
  -1   1  10    3.79    0.39
   0  -1  10   10.45    0.60
   0  -1 -10   11.05    0.61
   0   1  10   11.24    0.62
   0   1  10   11.35    0.66
   0   1 -10   10.78    0.61
  -1  -1 -10   14.18    0.72
   1  -1  10   14.62    0.72
  -1   1 -10   14.08    0.71
  -1   1 -10   14.05    0.74
   1   1  10   13.93    0.71
   2  -1  10   14.02    0.72
  -2  -1 -10   14.18    0.74
  -2   1 -10   15.34    0.77
   2   1  10   13.92    0.72
  -3  -1 -10    1.16    0.30
   3  -1  10    1.70    0.31
  -3  -1 -10    1.11    0.30
  -3   1 -10    1.76    0.34
   3   1  10    1.29    0.26
  -3   1 -10    1.31    0.33
  -4  -1 -10    3.21    0.44
  -4   1 -10    3.76    0.48
  -5  -1 -10    1.47    0.34
  -5   1 -10    1.33    0.33
  -5  -2  10    1.78    0.33
  -5   2  10    1.60    0.30
  -4  -2  10    1.40    0.29
  -4  -2  10    1.30    0.27
  -4   2  10    1.42    0.29
   3  -2 -10    0.04    0.08
  -3  -2  10    0.33    0.18
  -3  -2  10    0.19    0.16
  -3   2  10    0.62    0.23
  -2  -2  10   28.31    1.04
   2  -2 -10   27.96    0.97
  -2  -2  10   27.02    1.03
   2  -2 -10   26.93    0.85
  -2  -2  10   28.91    1.16
   2   2 -10   28.11    0.95
  -2   2  10   27.89    1.04
  -2   2  10   28.67    1.08
   1  -2 -10   21.96    0.86
  -1  -2  10   20.01    0.88
  -1  -2  10   21.41    0.89
  -1   2  10   20.58    0.90
  -1   2  10   21.21    0.96
   1   2 -10   21.38    0.64
   1   2 -10   21.20    0.85
   0  -2  10    2.56    0.37
   0  -2 -10    2.52    0.35
   0   2  10    2.81    0.39
   0   2 -10    2.48    0.34
   0   2  10    2.33    0.35
   1  -2  10    0.56    0.21
   1   2  10    0.95    0.24
  -1   2 -10    1.05    0.25
  -1   2 -10    0.86    0.22
   1   2  10    0.83    0.20
  -2  -2 -10   11.52    0.68
   2  -2  10   12.47    0.68
  -2   2 -10   11.02    0.66
   2   2  10   11.19    0.65
  -3  -2 -10    6.24    0.54
   3  -2  10    5.99    0.49
  -3   2 -10    4.40    0.51
  -3   2 -10    4.16    0.53
  -4  -2 -10    2.40    0.40
  -4   2 -10    1.70    0.36
  -5  -2 -10    1.48    0.35
  -5   2 -10    0.85    0.30
  -5  -3  10    0.14    0.19
  -5   3  10    0.35    0.20
  -4  -3  10    0.68    0.24
  -4  -3  10    0.25    0.17
  -4   3  10    0.87    0.21
  -4   3  10    1.17    0.27
  -3  -3  10    4.42    0.45
  -3  -3  10    3.21    0.41
  -3   3  10    4.08    0.46
   2  -3 -10    4.88    0.40
  -2  -3  10    5.58    0.55
  -2  -3  10    4.57    0.48
  -2   3  10    5.21    0.53
   2   3 -10    4.89    0.39
  -2   3  10    5.48    0.53
   1  -3 -10    0.59    0.21
  -1  -3  10    0.28    0.19
   1   3 -10    0.62    0.20
   1   3 -10    0.71    0.12
  -1   3  10    0.63    0.24
   0  -3 -10    0.85    0.23
   0  -3  10    0.88    0.25
   0   3 -10    0.54    0.20
   0   3 -10    0.94    0.22
   0   3  10    0.87    0.23
   0   3  10    0.65    0.23
   0   3 -10    0.77    0.18
  -1  -3 -10    0.59    0.23
   1  -3  10    0.64    0.25
  -1   3 -10    0.70    0.21
  -1   3 -10    1.20    0.28
   1   3  10    0.94    0.23
  -1   3 -10    0.65    0.19
   1   3  10    1.05    0.27
   2  -3  10   31.77    1.17
  -2  -3 -10   30.94    1.17
  -2   3 -10   30.65    1.28
   2   3  10   28.84    1.12
  -2   3 -10   30.26    1.18
  -3  -3 -10   10.28    0.68
  -3   3 -10   10.92    0.71
  -3   3 -10   10.87    0.77
  -4  -3 -10    9.77    0.69
  -4   3 -10   10.74    0.84
  -4   3 -10   11.01    0.74
  -5  -3 -10    3.68    0.50
  -5   3 -10    3.39    0.51
  -5   3 -10    3.69    0.63
  -5  -4  10    0.98    0.28
  -5   4  10    1.55    0.36
  -4  -4  10    4.09    0.47
  -4   4  10    3.98    0.52
  -4   4  10    4.28    0.40
  -3  -4  10    0.57    0.22
  -3   4  10    0.51    0.22
  -2  -4  10   13.47    0.74
   2  -4 -10   12.92    0.67
  -2   4  10   12.93    0.74
   2   4 -10   12.99    0.65
  -1  -4  10    4.27    0.49
   1  -4 -10    5.57    0.47
   1   4 -10    4.45    0.23
   1   4 -10    5.17    0.44
  -1   4  10    3.63    0.45
   0  -4  10    1.22    0.28
   0  -4 -10    1.33    0.30
   0   4  10    1.23    0.28
   0   4 -10    1.09    0.28
   0   4 -10    1.63    0.23
   0   4  10    1.24    0.28
   0   4 -10    1.32    0.27
  -1  -4 -10    2.27    0.36
   1  -4  10    2.62    0.41
  -1   4 -10    2.36    0.37
   1   4  10    2.44    0.39
   1   4  10    2.57    0.37
  -1   4 -10    2.37    0.37
  -1   4 -10    2.93    0.38
   2  -4  10    5.76    0.59
  -2  -4 -10    5.57    0.56
   2   4  10    5.53    0.55
  -2   4 -10    5.66    0.51
  -2   4 -10    5.27    0.53
  -2   4 -10    4.87    0.55
  -3  -4 -10   11.29    0.72
  -3   4 -10   11.88    0.79
  -3   4 -10   10.29    0.72
  -4  -4 -10   10.76    0.72
  -4   4 -10   11.22    0.78
  -4   4 -10   12.25    0.88
  -5  -4 -10    2.99    0.47
  -5   4 -10    1.58    0.46
  -5   4 -10    2.65    0.50
  -5  -5  10    0.51    0.25
  -5   5  10    0.82    0.28
  -4  -5  10    5.66    0.59
  -4   5  10    4.74    0.58
  -4   5  10    4.89    0.49
  -3   5  10    8.42    0.65
   2  -5 -10    0.81    0.24
  -2   5  10    0.40    0.25
   2   5 -10    0.75    0.23
   1  -5 -10    8.06    0.57
   1   5 -10    7.83    0.56
  -1   5  10    7.77    0.61
   1   5 -10    8.09    0.33
   0  -5 -10    9.56    0.65
   0  -5  10    9.69    0.67
   0   5  10    9.13    0.66
   0   5 -10    9.27    0.48
   0   5 -10    9.37    0.62
   0   5 -10    9.97    0.64
   0   5  10   10.24    0.68
   1  -5  10    5.71    0.58
  -1  -5 -10    5.55    0.58
  -1   5 -10    6.25    0.47
  -1   5 -10    5.35    0.57
   1   5  10    5.34    0.57
   1   5  10    5.77    0.50
  -1   5 -10    5.36    0.50
  -2  -5 -10   12.08    0.75
   2  -5  10   12.30    0.76
  -2   5 -10   12.36    0.74
  -2   5 -10   12.00    0.76
   2   5  10   12.41    0.74
  -3  -5 -10    2.12    0.41
  -3   5 -10    2.60    0.47
  -3   5 -10    1.78    0.39
  -4  -5 -10    1.09    0.34
  -4   5 -10    0.94    0.33
  -4   5 -10    0.85    0.36
  -4   6  10    0.56    0.31
  -4   6  10    0.49    0.25
  -3   6  10    3.03    0.48
  -2   6  10    0.50    0.28
   1  -6 -10    0.34    0.23
  -1   6  10    0.10    0.22
   1   6 -10    0.36    0.11
   1   6 -10   -0.01    0.17
   1   6 -10    0.23    0.14
   0  -6 -10    8.02    0.62
   0   6  10    8.81    0.67
   0   6 -10    7.12    0.56
   0   6 -10    7.58    0.43
   0   6 -10    7.27    0.59
   1  -6  10    0.76    0.31
  -1  -6 -10    0.89    0.32
  -1   6 -10    1.12    0.25
   1   6  10    1.01    0.32
  -1   6 -10    1.79    0.39
  -2  -6 -10    6.96    0.61
   2  -6  10    6.47    0.66
  -2   6 -10    6.05    0.64
  -2   6 -10    7.21    0.57
   2   6  10    6.14    0.49
  -3  -6 -10    5.83    0.64
  -3   6 -10    5.80    0.65
  -3   6 -10    6.61    0.70
  -4  -6 -10    1.21    0.38
  -4   6 -10    1.43    0.39
  -4   6 -10    1.42    0.42
  -4   7  10    2.94    0.47
  -4   7  10    2.24    0.49
  -3   7  10    2.47    0.43
  -3   7  10    2.93    0.51
  -2   7  10   23.67    1.17
   1  -7 -10   17.22    0.92
  -1   7  10   13.98    0.87
   1   7 -10   15.29    0.85
   0  -7 -10    5.23    0.60
   0   7  10    2.95    0.49
   0   7 -10    4.19    0.44
   0   7 -10    4.53    0.56
   0   7 -10    4.09    0.34
  -1  -7 -10    2.82    0.45
   1   7  10    2.70    0.44
  -1   7 -10    2.02    0.44
  -2  -7 -10    1.25    0.36
   2  -7  10    0.82    0.32
  -2   7 -10    1.19    0.30
  -2   7 -10    0.98    0.32
  -3  -7 -10    1.54    0.40
  -3   7 -10    1.49    0.36
  -3   7 -10    1.51    0.43
  -3   8  10    1.05    0.34
  -2   8  10    1.33    0.38
  -1   8  10    2.20    0.47
   0  -8 -10    7.02    0.73
   0   8  10    5.79    0.68
   0   8 -10    6.85    0.70
   0   8 -10    7.01    0.45
  -1  -8 -10    1.01    0.34
  -1   8 -10    1.01    0.36
  -1   8 -10    1.19    0.27
  -2  -8 -10   13.19    0.92
  -2   8 -10   14.39    0.83
  -2   8 -10   14.05    0.95
  -2   9  10    1.59    0.47
  -1   9  10    0.17    0.29
   0   9  10    3.01    0.52
  -1   9 -10    3.78    0.47
  -1   9 -10    3.94    0.63
  -5   0  11    0.70    0.24
  -4   0  11    1.22    0.30
  -4   0  11    1.08    0.28
  -3   0  11    1.05    0.26
  -3   0  11    2.09    0.37
   2   0 -11   31.45    1.05
  -2   0  11   29.13    1.13
   2   0 -11   29.45    0.78
  -2   0  11   30.53    1.14
  -2   0  11   31.80    1.26
  -1   0  11    2.37    0.38
  -1   0  11    2.31    0.34
   0   0  11    9.57    0.63
   0   0  11    9.66    0.64
   0   0 -11   10.09    0.62
  -1   0 -11   15.82    0.79
   1   0  11   15.45    0.80
   2   0  11    5.87    0.50
  -2   0 -11    4.73    0.47
  -2   0 -11    5.60    0.50
  -3   0 -11    1.57    0.33
  -4   0 -11   -0.13    0.19
  -5   0 -11    0.27    0.27
  -5  -1  11    7.43    0.56
  -5   1  11    7.11    0.56
  -4  -1  11    4.17    0.50
  -4  -1  11    4.24    0.49
  -4   1  11    3.36    0.44
  -3  -1  11    6.84    0.53
  -3  -1  11    8.01    0.58
  -3   1  11    7.27    0.56
   2  -1 -11    3.41    0.25
   2  -1 -11    3.18    0.38
  -2  -1  11    4.07    0.48
  -2  -1  11    3.60    0.46
  -2   1  11    3.57    0.44
   2   1 -11    4.19    0.43
  -2   1  11    2.67    0.38
  -2   1  11    4.10    0.50
   1  -1 -11   10.00    0.60
  -1  -1  11   10.23    0.66
  -1  -1  11   10.82    0.65
   1  -1 -11   10.01    0.47
   1   1 -11   10.15    0.59
  -1   1  11   10.49    0.65
   1   1 -11    9.84    0.39
  -1   1  11   10.09    0.66
   0  -1 -11   28.36    1.07
   0  -1  11   27.38    1.08
   0   1  11   26.93    1.07
   0   1 -11   28.99    1.08
   0   1  11   27.85    1.18
   1  -1  11    1.37    0.33
  -1  -1 -11    1.54    0.30
   1   1  11    1.35    0.29
  -1   1 -11    2.03    0.35
  -1   1 -11    1.34    0.31
   2  -1  11    3.90    0.48
  -2  -1 -11    4.04    0.49
   2   1  11    4.21    0.48
  -2   1 -11    4.74    0.53
  -2   1 -11    4.31    0.45
  -3  -1 -11    6.66    0.57
  -3   1 -11    7.77    0.61
  -4  -1 -11    2.17    0.40
  -4   1 -11    1.73    0.39
  -5  -1 -11    5.13    0.63
  -5   1 -11    5.50    0.63
  -5  -2  11    1.47    0.32
  -5   2  11    1.54    0.34
  -4  -2  11    0.83    0.26
  -4  -2  11    0.50    0.23
  -4   2  11    0.52    0.23
  -3  -2  11   18.61    0.92
  -3  -2  11   17.06    0.84
  -3   2  11   17.57    0.87
  -2  -2  11   12.97    0.76
   2  -2 -11   12.36    0.64
  -2  -2  11   11.24    0.68
   2   2 -11   12.24    0.63
  -2   2  11   11.82    0.70
  -2   2  11   12.73    0.76
  -1   2  11    1.92    0.34
   0  -2 -11    1.09    0.27
   0  -2  11    1.23    0.29
   0   2  11    1.04    0.28
   0   2  11    0.82    0.22
   0   2 -11    0.78    0.23
   1  -2  11   24.87    1.06
  -1  -2 -11   28.96    1.10
  -1   2 -11   26.26    1.07
   1   2  11   27.74    1.14
  -1   2 -11   27.11    1.16
   1   2  11   27.24    1.09
  -2  -2 -11    0.60    0.25
   2  -2  11    0.50    0.22
  -2   2 -11    0.50    0.23
  -2   2 -11    0.63    0.25
   2   2  11    0.62    0.25
  -3  -2 -11   13.96    0.81
  -3   2 -11   11.68    0.75
  -4  -2 -11    0.92    0.32
  -4   2 -11    0.40    0.26
  -5  -2 -11    0.20    0.28
  -5   2 -11    0.13    0.29
  -5  -3  11    2.83    0.43
  -5   3  11    3.40    0.48
  -4  -3  11    6.35    0.53
  -4  -3  11    6.03    0.57
  -4   3  11    6.08    0.61
  -3  -3  11    0.33    0.19
  -3  -3  11    0.70    0.24
  -3   3  11    0.50    0.23
   2  -3 -11    2.62    0.36
  -2  -3  11    1.69    0.35
   2   3 -11    2.18    0.34
  -2   3  11    1.97    0.35
   1  -3 -11    8.82    0.58
  -1  -3  11    7.84    0.60
   1   3 -11    7.98    0.33
  -1   3  11    6.96    0.56
   1   3 -11    8.19    0.56
  -1   3  11    8.89    0.63
   0  -3  11    7.97    0.58
   0  -3 -11    7.81    0.55
   0   3 -11    7.44    0.44
   0   3  11    7.45    0.59
   0   3  11    8.05    0.60
   0   3 -11    7.96    0.57
   0   3 -11    7.68    0.55
  -1  -3 -11    6.01    0.51
   1  -3  11    5.72    0.59
  -1   3 -11    4.60    0.51
   1   3  11    4.92    0.52
  -1   3 -11    6.50    0.53
   1   3  11    5.32    0.48
  -1   3 -11    4.98    0.44
  -2  -3 -11    8.10    0.62
   2  -3  11    7.40    0.60
  -2   3 -11    7.50    0.61
   2   3  11    9.20    0.63
  -3  -3 -11   11.54    0.76
  -3   3 -11   11.50    0.82
  -3   3 -11   12.61    0.79
  -4  -3 -11    2.95    0.48
  -4   3 -11    3.20    0.50
  -4   3 -11    3.42    0.58
  -5  -4  11    6.80    0.58
  -5   4  11    7.71    0.64
  -4  -4  11    3.49    0.45
  -4   4  11    4.13    0.53
  -3  -4  11    9.59    0.67
  -3   4  11   10.80    0.73
  -2  -4  11    6.58    0.56
   2  -4 -11    6.88    0.53
  -2   4  11    7.10    0.59
   1  -4 -11   15.71    0.79
  -1  -4  11   14.69    0.82
   1   4 -11   14.49    0.46
   1   4 -11   14.34    0.76
  -1   4  11   14.72    0.82
   0  -4  11   13.06    0.76
   0  -4 -11   12.23    0.73
   0   4 -11   11.72    0.70
   0   4 -11   12.34    0.72
   0   4  11   10.94    0.71
   0   4 -11   11.83    0.55
   1  -4  11    1.26    0.36
  -1  -4 -11    1.71    0.35
  -1   4 -11    1.59    0.33
   1   4  11    1.11    0.30
  -1   4 -11    1.53    0.34
   1   4  11    1.41    0.29
   2  -4  11    5.04    0.56
  -2  -4 -11    5.54    0.59
  -2   4 -11    5.81    0.62
   2   4  11    5.47    0.57
  -2   4 -11    5.96    0.63
  -3  -4 -11    0.60    0.29
  -3   4 -11    0.47    0.28
  -3   4 -11    0.57    0.29
  -4  -4 -11    2.44    0.44
  -4   4 -11    2.47    0.51
  -4   4 -11    2.12    0.44
  -4  -5  11    4.68    0.56
  -4   5  11    4.14    0.57
  -3  -5  11    1.28    0.33
  -3   5  11    2.21    0.42
  -2  -5  11    5.07    0.57
   2  -5 -11    6.17    0.54
  -2   5  11    5.99    0.62
  -1  -5  11    9.18    0.67
   1  -5 -11    9.37    0.65
   1   5 -11    9.97    0.65
  -1   5  11    8.96    0.69
   0  -5 -11    1.12    0.29
   0  -5  11    0.78    0.30
   0   5 -11    1.55    0.24
   0   5  11    1.33    0.34
   0   5 -11    1.19    0.30
   0   5 -11    1.37    0.29
   1  -5  11   16.78    0.91
  -1  -5 -11   15.32    0.86
  -1   5 -11   14.91    0.85
   1   5  11   15.47    0.86
  -1   5 -11   15.75    0.76
  -2  -5 -11    5.16    0.59
   2  -5  11    5.77    0.63
  -2   5 -11    5.05    0.60
  -2   5 -11    4.92    0.55
  -3  -5 -11    0.45    0.27
  -3   5 -11    0.60    0.27
  -3   5 -11    0.57    0.30
  -4  -5 -11    1.09    0.37
  -4   5 -11    0.74    0.37
  -4   5 -11    1.13    0.36
  -4  -6  11    0.58    0.27
  -4   6  11   -0.33    0.25
  -3   6  11    0.51    0.29
  -2   6  11    0.67    0.30
  -1  -6  11    1.81    0.39
   1  -6 -11    1.74    0.36
  -1   6  11    2.48    0.44
   1   6 -11    1.48    0.32
   0  -6 -11   17.21    0.92
   0  -6  11   19.80    1.02
   0   6 -11   17.84    0.71
   0   6 -11   17.25    0.92
   0   6 -11   18.76    0.95
   0   6  11   17.03    0.95
  -1  -6 -11    6.30    0.65
   1  -6  11    6.23    0.68
  -1   6 -11    6.40    0.69
  -1   6 -11    6.38    0.48
   1   6  11    5.89    0.65
  -2  -6 -11    7.68    0.73
   2  -6  11    7.09    0.73
  -2   6 -11    7.21    0.59
  -2   6 -11    7.50    0.75
  -3  -6 -11    4.47    0.61
  -3   6 -11    3.95    0.56
  -3   6 -11    4.67    0.64
  -3   7  11    0.23    0.28
  -2   7  11    2.55    0.50
   1  -7 -11   18.19    0.99
  -1   7  11   16.59    0.99
   0  -7 -11    5.51    0.63
   0   7 -11    6.80    0.43
   0   7 -11    6.27    0.67
   0   7  11    5.84    0.66
   1  -7  11    0.56    0.30
  -1  -7 -11    0.70    0.31
   1   7  11    0.26    0.25
  -1   7 -11    0.73    0.32
  -2  -7 -11   -0.03    0.25
  -2   7 -11    0.58    0.24
  -2   7 -11    0.85    0.35
  -3  -7 -11    3.80    0.60
  -3   7 -11    4.76    0.65
  -3   7 -11    4.43    0.58
  -2   8  11    5.64    0.70
  -1   8  11   10.45    0.84
   0  -8 -11    2.37    0.48
   0   8  11    2.37    0.46
  -1  -8 -11    0.20    0.29
   1  -8  11   -0.35    0.25
  -1   8 -11    0.29    0.18
  -1   8 -11    0.46    0.27
  -2  -8 -11    0.40    0.33
  -2   8 -11    0.58    0.31
  -2   8 -11    0.23    0.20
  -5   0  12    2.06    0.40
  -4   0  12    0.01    0.17
  -4   0  12   -0.02    0.17
  -3   0  12   12.19    0.77
  -3   0  12   11.94    0.74
  -2   0  12   10.93    0.72
   2   0 -12   10.34    0.60
  -2   0  12   10.36    0.68
  -1   0  12   20.78    0.95
  -1   0  12   18.19    0.97
   1   0 -12   20.32    0.89
   0   0  12    0.39    0.23
   0   0 -12    0.75    0.25
  -1   0 -12   15.98    0.84
   1   0  12   17.15    0.88
   2   0  12    1.96    0.37
  -2   0 -12    2.37    0.42
  -3   0 -12    2.27    0.42
  -4   0 -12    1.69    0.39
  -5  -1  12    6.07    0.61
  -5   1  12    5.68    0.61
  -4  -1  12    1.64    0.35
  -4  -1  12    2.26    0.38
  -4   1  12    1.92    0.37
  -3  -1  12    2.72    0.41
  -3  -1  12    1.82    0.36
  -3   1  12    2.09    0.39
  -3   1  12    2.24    0.40
   2  -1 -12    0.87    0.24
  -2  -1  12    0.58    0.26
  -2  -1  12    0.91    0.27
  -2   1  12    0.78    0.28
  -2   1  12    0.32    0.22
   2   1 -12    0.38    0.15
   1  -1 -12    1.34    0.28
  -1  -1  12    1.78    0.35
  -1  -1  12    1.53    0.33
   1   1 -12    1.90    0.33
  -1   1  12    1.49    0.32
  -1   1  12    1.49    0.33
   0  -1 -12    5.04    0.54
   0  -1  12    5.90    0.59
   0   1 -12    4.98    0.53
   0   1  12    5.56    0.51
   0   1  12    5.83    0.59
   1  -1  12    5.84    0.60
  -1  -1 -12    5.27    0.56
  -1   1 -12    6.36    0.55
   1   1  12    4.56    0.52
   2  -1  12    2.80    0.44
  -2  -1 -12    1.77    0.36
  -2   1 -12    1.95    0.38
   2   1  12    2.48    0.41
  -3  -1 -12    7.70    0.73
  -3   1 -12    7.71    0.66
  -4  -1 -12    1.50    0.38
  -4   1 -12    2.26    0.46
  -5  -2  12    0.37    0.21
  -5   2  12   -0.22    0.15
  -4  -2  12    2.32    0.41
  -4  -2  12    2.75    0.43
  -4   2  12    2.68    0.44
  -3  -2  12    1.49    0.34
  -3  -2  12    2.10    0.39
  -3   2  12    1.84    0.36
   2  -2 -12    1.80    0.31
  -2  -2  12    1.50    0.33
  -2  -2  12    2.65    0.44
  -2   2  12    1.56    0.31
   2   2 -12    1.69    0.30
  -2   2  12    2.07    0.38
   1  -2 -12   15.51    0.79
  -1  -2  12   14.80    0.84
  -1   2  12   15.02    0.84
   1   2 -12   15.65    0.56
   1   2 -12   15.31    0.77
   0  -2 -12    0.15    0.19
   0  -2  12   -0.07    0.17
   0   2 -12    0.11    0.20
   0   2  12   -0.17    0.15
   1  -2  12    6.83    0.59
  -1  -2 -12    6.62    0.56
  -1   2 -12    7.26    0.59
   1   2  12    7.46    0.59
  -1   2 -12    6.09    0.54
   2  -2  12    2.83    0.44
  -2  -2 -12    2.85    0.46
  -2   2 -12    2.27    0.41
   2   2  12    2.66    0.43
  -3  -2 -12    3.90    0.52
  -3   2 -12    5.21    0.62
  -4  -2 -12    1.11    0.34
  -4   2 -12    1.05    0.34
  -4  -3  12    1.49    0.35
  -4   3  12    1.04    0.33
  -3  -3  12    1.29    0.35
  -3  -3  12    0.69    0.26
  -3   3  12    1.12    0.31
  -2  -3  12    6.39    0.57
   2  -3 -12    6.18    0.52
  -2   3  12    7.48    0.62
   1  -3 -12   12.82    0.74
  -1  -3  12   14.25    0.80
   1   3 -12   13.01    0.75
   1   3 -12   13.71    0.47
  -1   3  12   12.24    0.77
   0  -3  12    5.88    0.62
   0  -3 -12    6.48    0.56
   0   3 -12    6.49    0.42
   0   3  12    5.73    0.60
   0   3 -12    6.11    0.54
  -1  -3 -12    0.53    0.22
   1  -3  12   -0.17    0.17
  -1   3 -12    0.10    0.21
   1   3  12    0.39    0.23
  -1   3 -12    0.48    0.18
   2  -3  12    0.58    0.27
  -2  -3 -12    0.14    0.22
  -2   3 -12    0.09    0.18
   2   3  12    0.14    0.20
  -2   3 -12    1.03    0.32
  -3  -3 -12    3.20    0.50
  -3   3 -12    2.08    0.43
  -3   3 -12    3.12    0.52
  -4  -3 -12    7.66    0.76
  -4   3 -12    9.40    0.84
  -4   3 -12    7.65    0.77
  -4  -4  12    1.00    0.31
  -4   4  12    0.76    0.31
  -3  -4  12    0.62    0.28
  -3   4  12    0.92    0.30
  -2  -4  12    3.17    0.49
  -2   4  12    3.51    0.50
  -1  -4  12    1.68    0.40
   1  -4 -12    1.72    0.35
  -1   4  12    1.30    0.33
   1   4 -12    1.57    0.34
   0  -4 -12    6.70    0.57
   0  -4  12    5.71    0.62
   0   4 -12    6.27    0.54
   0   4 -12    5.51    0.39
   0   4  12    5.73    0.60
   0   4 -12    5.99    0.60
   1  -4  12    1.13    0.33
  -1  -4 -12    1.71    0.36
   1   4  12    1.21    0.33
  -1   4 -12    0.79    0.29
  -1   4 -12    1.33    0.29
   2  -4  12    3.68    0.50
  -2  -4 -12    3.47    0.50
  -2   4 -12    4.57    0.55
  -2   4 -12    3.39    0.50
  -3  -4 -12    9.75    0.74
  -3   4 -12    9.28    0.73
  -3   4 -12    9.30    0.75
  -4  -4 -12    0.92    0.37
  -4   4 -12    0.80    0.34
  -4   4 -12    0.62    0.31
  -4  -5  12    0.56    0.29
  -4   5  12    0.82    0.35
  -3  -5  12    1.30    0.36
  -3   5  12    0.88    0.32
  -2  -5  12    4.06    0.54
  -2   5  12    5.10    0.63
   1  -5 -12    9.69    0.68
  -1  -5  12   11.57    0.77
   1   5 -12   11.02    0.71
  -1   5  12    9.91    0.72
   0  -5  12    8.46    0.69
   0  -5 -12    6.55    0.59
   0   5 -12    7.61    0.59
   0   5  12    7.67    0.66
   0   5 -12    7.26    0.44
   0   5 -12    8.56    0.65
   1  -5  12    3.57    0.52
  -1  -5 -12    3.17    0.48
  -1   5 -12    3.06    0.49
  -1   5 -12    3.51    0.42
   1   5  12    3.48    0.51
  -2  -5 -12    3.48    0.53
  -2   5 -12    3.80    0.49
  -2   5 -12    4.39    0.57
  -3  -5 -12    9.21    0.75
  -3   5 -12    8.56    0.83
  -3   5 -12    7.95    0.71
  -3  -6  12    0.30    0.26
  -3   6  12    0.83    0.34
  -2  -6  12    0.93    0.32
  -2   6  12    1.27    0.37
   1  -6 -12    5.00    0.58
  -1  -6  12    5.31    0.62
  -1   6  12    4.55    0.60
   0  -6 -12    3.71    0.54
   0  -6  12    3.46    0.51
   0   6 -12    3.58    0.50
   0   6  12    3.34    0.52
   1  -6  12    0.06    0.23
  -1  -6 -12   -0.06    0.24
  -1   6 -12    0.24    0.15
  -1   6 -12   -0.05    0.22
   1   6  12    0.27    0.27
  -2  -6 -12    3.42    0.55
  -2   6 -12    2.99    0.50
  -2   6 -12    3.88    0.51
  -3  -6 -12    0.91    0.35
  -3   6 -12    1.60    0.41
  -3   6 -12    1.63    0.40
  -2  -7  12    0.76    0.36
  -2   7  12    0.36    0.29
  -1  -7  12    1.53    0.43
  -1   7  12    2.59    0.50
   0  -7 -12    0.73    0.34
   0  -7  12    0.48    0.33
   0   7  12    0.69    0.34
   0   7 -12    0.50    0.30
   1  -7  12    5.75    0.69
  -1  -7 -12    4.79    0.63
  -1   7 -12    4.53    0.64
  -1   7 -12    5.18    0.45
  -2  -7 -12   -0.17    0.23
  -2   7 -12    0.21    0.20
  -2   7 -12    0.27    0.31
  -1   8  12    0.49    0.31
   0  -8 -12    2.53    0.50
   0  -8  12    1.53    0.45
   0   8  12    1.51    0.41
  -4   0  13    1.40    0.34
  -3   0  13    4.72    0.56
  -2   0  13    0.97    0.32
   1   0 -13    3.36    0.44
  -1   0  13    3.56    0.49
   0   0  13    2.21    0.42
   0   0 -13    2.35    0.39
  -1   0 -13    8.97    0.68
   1   0  13    9.75    0.70
  -2   0 -13    8.37    0.67
   2   0  13    7.52    0.62
  -3   0 -13    0.13    0.22
  -4   0 -13   -0.14    0.26
  -4  -1  13    0.57    0.26
  -4   1  13    0.32    0.25
  -3  -1  13    1.90    0.37
  -3   1  13    1.90    0.39
  -2  -1  13    1.40    0.34
  -2   1  13    1.58    0.37
   1  -1 -13    6.24    0.54
  -1  -1  13    5.72    0.63
  -1   1  13    5.30    0.59
   1   1 -13    5.35    0.55
   0  -1 -13    1.91    0.38
   0  -1  13    1.92    0.38
   0   1  13    1.26    0.35
   0   1 -13    1.40    0.34
   1  -1  13    4.04    0.54
  -1  -1 -13    3.87    0.53
   1   1  13    3.42    0.47
  -1   1 -13    4.70    0.55
  -2  -1 -13    0.77    0.29
   2  -1  13    0.19    0.23
   2   1  13    0.45    0.25
  -2   1 -13    1.00    0.31
  -3  -1 -13    0.49    0.28
  -3   1 -13    0.31    0.25
  -4  -1 -13    0.59    0.36
  -4   1 -13    0.40    0.30
  -4  -2  13    0.76    0.28
  -4   2  13    1.29    0.35
  -3  -2  13    3.65    0.50
  -3   2  13    3.31    0.48
  -2  -2  13    7.47    0.63
  -2   2  13    6.65    0.67
   1  -2 -13    1.36    0.32
  -1  -2  13    1.29    0.33
  -1   2  13    1.02    0.33
   1   2 -13    1.20    0.30
   0  -2  13    7.32    0.61
   0  -2 -13    7.34    0.62
   0   2  13    7.60    0.66
   0   2 -13    6.73    0.58
  -1  -2 -13    1.57    0.36
   1  -2  13    1.71    0.38
   1   2  13    1.42    0.36
  -1   2 -13    1.53    0.38
   2  -2  13    2.62    0.46
  -2  -2 -13    1.69    0.37
  -2   2 -13    1.42    0.35
  -3  -2 -13    2.05    0.43
  -3   2 -13    1.59    0.41
  -4  -3  13    1.31    0.35
  -4   3  13    2.23    0.43
  -3  -3  13    1.43    0.38
  -3   3  13    1.52    0.37
  -2  -3  13    2.14    0.40
  -2   3  13    0.91    0.32
  -1  -3  13    3.29    0.50
   1  -3 -13    2.81    0.45
   1   3 -13    2.27    0.39
  -1   3  13    1.99    0.41
   0  -3 -13   21.27    1.03
   0  -3  13   19.31    1.03
   0   3 -13   21.46    0.83
   0   3  13   22.93    1.09
   0   3 -13   21.19    1.02
   1  -3  13    2.12    0.42
  -1  -3 -13    1.39    0.35
  -1   3 -13    1.20    0.35
   1   3  13    1.29    0.33
  -1   3 -13    1.03    0.26
  -2  -3 -13   -0.23    0.17
  -2   3 -13   -0.15    0.19
  -2   3 -13   -0.06    0.17
  -3  -3 -13    3.62    0.55
  -3   3 -13    3.38    0.54
  -3   3 -13    2.89    0.50
  -4  -4  13    2.18    0.46
  -4   4  13    2.31    0.50
  -3  -4  13    3.07    0.48
  -3   4  13    3.19    0.51
  -2  -4  13    4.59    0.57
  -2   4  13    4.80    0.61
  -1  -4  13    3.23    0.51
   1  -4 -13    2.27    0.40
  -1   4  13    2.50    0.44
   0  -4  13    0.84    0.32
   0  -4 -13    1.01    0.33
   0   4 -13    1.46    0.24
   0   4 -13    1.04    0.32
   0   4  13    0.72    0.31
  -1  -4 -13    2.06    0.41
   1  -4  13    2.16    0.46
  -1   4 -13    2.36    0.39
  -1   4 -13    2.18    0.41
   1   4  13    2.43    0.45
  -2  -4 -13    5.75    0.67
  -2   4 -13    6.96    0.62
  -2   4 -13    5.86    0.68
  -3  -4 -13    4.75    0.63
  -3   4 -13    5.21    0.68
  -3   4 -13    3.90    0.57
  -3  -5  13    0.60    0.30
  -3   5  13    0.34    0.28
  -2  -5  13    0.09    0.25
  -2   5  13    0.38    0.26
  -1  -5  13    0.34    0.30
   1  -5 -13    0.53    0.25
  -1   5  13    0.34    0.27
   0  -5 -13    0.83    0.32
   0  -5  13    0.33    0.27
   0   5 -13    0.62    0.29
   0   5  13    0.02    0.23
   1  -5  13    1.95    0.45
  -1  -5 -13    1.86    0.42
  -1   5 -13    1.85    0.32
  -1   5 -13    2.79    0.48
   1   5  13    1.86    0.42
  -2  -5 -13    0.18    0.27
  -2   5 -13    0.14    0.29
  -2   5 -13    0.38    0.23
  -2  -6  13    0.69    0.37
  -2   6  13    0.64    0.33
  -1  -6  13    5.90    0.70
  -1   6  13    5.48    0.69
   0  -6  13    1.85    0.46
   0  -6 -13    1.83    0.44
   0   6 -13    1.37    0.37
   0   6  13    1.37    0.39
  -1  -6 -13    4.67    0.61
   1  -6  13    5.35    0.67
  -1   6 -13    5.46    0.66
  -2  -6 -13    1.56    0.43
  -2   6 -13    1.53    0.35
  -2   6 -13    0.54    0.35
  -1  -7  13    1.70    0.44
  -1   7  13    1.52    0.41
   0  -7 -13    0.15    0.29
   0  -7  13   -0.01    0.27
   0   7  13    0.16    0.28
   1  -7  13    2.90    0.55
  -1  -7 -13    2.80    0.52
  -1   7 -13    2.25    0.49
  -4   0  14   -0.40    0.22
  -3   0  14    1.19    0.38
  -2   0  14    0.25    0.28
   0   0  14    0.09    0.21
   0   0 -14    0.15    0.22
   1   0  14   29.36    1.28
  -1   0 -14   30.65    1.29
  -2   0 -14   12.11    0.85
  -3   0 -14    0.14    0.27
  -4  -1  14    1.21    0.37
  -4   1  14    1.42    0.41
  -3  -1  14   11.20    0.80
  -3   1  14   10.48    0.79
  -2  -1  14    9.98    0.75
  -2   1  14   10.14    0.77
  -1  -1  14   13.37    0.84
   1  -1 -14   12.09    0.76
   1   1 -14   13.66    0.81
  -1   1  14   11.48    0.80
   0  -1  14    3.29    0.50
   0  -1 -14    2.78    0.46
   0   1 -14    3.17    0.47
   0   1  14    2.26    0.43
  -1  -1 -14    3.17    0.51
   1  -1  14    4.76    0.61
  -1   1 -14    3.98    0.56
   1   1  14    3.67    0.54
  -2  -1 -14    2.58    0.47
  -2   1 -14    3.40    0.54
  -3  -1 -14    6.29    0.72
  -3   1 -14    6.41    0.72
  -3  -2  14    1.14    0.37
  -3   2  14    1.36    0.38
  -2  -2  14   -0.02    0.21
  -2   2  14    0.31    0.27
   1  -2 -14    0.34    0.25
  -1  -2  14    0.09    0.24
  -1   2  14    0.64    0.30
   0  -2  14    1.76    0.42
   0  -2 -14    2.53    0.46
   0   2  14    2.23    0.45
   0   2 -14    2.60    0.45
   1  -2  14    0.52    0.32
  -1  -2 -14    0.14    0.24
   1   2  14    0.93    0.33
  -1   2 -14    0.08    0.24
  -2  -2 -14    5.27    0.64
  -2   2 -14    6.05    0.72
  -3  -2 -14    0.68    0.34
  -3   2 -14    0.32    0.29
  -3  -3  14    8.35    0.72
  -3   3  14    8.76    0.74
  -2  -3  14    1.21    0.39
  -2   3  14    0.95    0.34
   1  -3 -14   12.54    0.83
  -1  -3  14   11.25    0.82
  -1   3  14   13.36    0.88
   0  -3 -14    0.92    0.34
   0  -3  14    0.81    0.31
   0   3 -14    1.40    0.39
   0   3  14    0.41    0.27
  -1  -3 -14    2.95    0.48
   1  -3  14    2.84    0.49
  -1   3 -14    3.20    0.52
   1   3  14    3.30    0.50
  -1   3 -14    3.64    0.46
  -2  -3 -14    2.33    0.45
  -2   3 -14    2.92    0.49
  -2   3 -14    3.64    0.59
  -3  -3 -14    1.01    0.38
  -3   3 -14    0.88    0.38
  -3  -4  14    1.11    0.38
  -3   4  14    1.75    0.43
  -2  -4  14    1.37    0.38
  -2   4  14    1.68    0.40
  -1  -4  14    0.23    0.29
  -1   4  14    0.56    0.32
   0  -4  14    0.64    0.32
   0  -4 -14    0.29    0.26
   0   4  14    0.29    0.25
   0   4 -14    0.07    0.24
   1  -4  14    1.74    0.44
  -1  -4 -14    1.52    0.40
  -1   4 -14    1.37    0.39
  -1   4 -14    1.71    0.34
   1   4  14    1.71    0.42
  -2  -4 -14   -0.12    0.26
  -2   4 -14   -0.09    0.21
  -2   4 -14    0.18    0.26
  -2  -5  14    5.68    0.68
  -2   5  14    5.19    0.70
  -1  -5  14    0.69    0.32
  -1   5  14    0.46    0.30
   0  -5 -14    0.15    0.27
   0  -5  14    0.11    0.29
   0   5  14    0.24    0.28
   1  -5  14   10.55    0.83
  -1  -5 -14   11.60    0.86
  -1   5 -14   10.28    0.81
  -1  -6  14    0.77    0.36
  -1   6  14    0.78    0.38
   0  -6  14    0.15    0.26
   0  -6 -14    0.33    0.27
   0   6  14    0.13    0.29
  -3   0  15    3.51    0.55
  -2   0  15   10.83    0.82
  -1   0  15    0.51    0.29
   0   0  15    4.17    0.59
   0   0 -15    3.56    0.54
  -1   0 -15    1.64    0.40
   1   0  15    2.15    0.45
  -2   0 -15    2.08    0.50
  -3  -1  15    2.66    0.49
  -3   1  15    2.48    0.47
  -2  -1  15    2.60    0.50
  -2   1  15    2.38    0.47
  -1  -1  15   -0.07    0.26
  -1   1  15    0.18    0.26
   0  -1 -15    0.12    0.27
   0  -1  15    0.02    0.25
   0   1  15    0.10    0.26
   0   1 -15    0.09    0.24
   1  -1  15   -0.12    0.24
  -1  -1 -15   -0.17    0.21
   1   1  15   -0.28    0.21
  -1   1 -15   -0.15    0.25
  -2  -1 -15    3.78    0.60
  -2   1 -15    4.83    0.65
  -3  -2  15    0.44    0.33
  -3   2  15    0.53    0.34
  -2  -2  15    1.73    0.45
  -2   2  15    2.26    0.47
  -1  -2  15    4.63    0.64
  -1   2  15    3.31    0.56
   0  -2  15    7.77    0.79
   0  -2 -15    7.31    0.75
   0   2  15    5.91    0.69
   0   2 -15    7.16    0.76
  -1  -2 -15    0.88    0.35
   1  -2  15    0.72    0.36
  -1   2 -15    0.31    0.28
   1   2  15    0.61    0.31
  -2  -2 -15    3.46    0.57
  -2   2 -15    3.18    0.57
  -2  -3  15    0.07    0.25
  -2   3  15    0.23    0.30
  -1  -3  15    0.45    0.28
  -1   3  15    0.36    0.29
   0  -3 -15    1.52    0.38
   0  -3  15    1.56    0.44
   0   3 -15    1.11    0.36
   0   3  15    1.63    0.42
  -1  -3 -15    3.64    0.55
   1  -3  15    3.67    0.59
  -1   3 -15    3.34    0.57
  -2  -4  15    1.25    0.40
  -2   4  15    0.70    0.35
  -1  -4  15    3.64    0.62
  -1   4  15    3.27    0.55
   0  -4  15    3.07    0.56
   0  -4 -15    2.26    0.48
   0   4  15    1.90    0.44
  -1  -4 -15    0.93    0.36
   1  -4  15    1.33    0.43
  -1   4 -15    0.52    0.30
  -2   0  16    5.38    0.68
  -1   0  16    6.91    0.76
   0   0  16    6.41    0.76
  -1   0 -16    0.62    0.31
  -1  -1  16    0.78    0.35
  -1   1  16    0.11    0.30
   0  -1  16    0.52    0.36
   0   1  16    0.74    0.36
  -1  -1 -16    1.20    0.41
  -1   1 -16    0.70    0.34
  -1  -2  16    4.32    0.65
  -1   2  16    3.84    0.59
   0  -2  16    0.22    0.35
   0   2  16    0.38    0.28
   0   0   0    0.00    0.00
)
_shelx_hkl_checksum   50748

;
_shelx_hkl_checksum              47376
loop_
_space_group_symop_operation_xyz
'x, y, z'
'-x, y+1/2, -z'
loop_
_atom_site_label
_atom_site_type_symbol
_atom_site_fract_x
_atom_site_fract_y
_atom_site_fract_z
_atom_site_U_iso_or_equiv
_atom_site_adp_type
_atom_site_occupancy
_atom_site_site_symmetry_order
_atom_site_calc_flag
_atom_site_refinement_flags_posn
_atom_site_refinement_flags_adp
_atom_site_refinement_flags_occupancy
_atom_site_disorder_assembly
_atom_site_disorder_group
C1 C 1.1591(10) 0.4955(6) 0.3147(4) 0.0293(13) Uani 1 1 d . . . . .
H1 H 1.2917 0.5214 0.2792 0.035 Uiso 1 1 calc R U . . .
C2 C 1.0532(10) 0.5897(7) 0.3808(4) 0.0338(14) Uani 1 1 d . . . . .
H2 H 1.1163 0.6811 0.3900 0.041 Uiso 1 1 calc R U . . .
C3 C 0.8529(10) 0.5519(7) 0.4343(4) 0.0341(14) Uani 1 1 d . . . . .
H3 H 0.7864 0.6182 0.4786 0.041 Uiso 1 1 calc R U . . .
C4 C 0.7530(9) 0.4179(7) 0.4225(4) 0.0305(13) Uani 1 1 d . . . . .
H4 H 0.6197 0.3937 0.4582 0.037 Uiso 1 1 calc R U . . .
C5 C 0.8552(9) 0.3189(6) 0.3560(4) 0.0251(12) Uani 1 1 d . . . . .
C6 C 0.8082(8) 0.1719(6) 0.3296(4) 0.0233(12) Uani 1 1 d . . . . .
C7 C 0.6288(9) 0.0725(6) 0.3695(4) 0.0309(13) Uani 1 1 d . . . . .
H7A H 0.4801 0.0849 0.3290 0.037 Uiso 1 1 calc R U . . .
H7B H 0.6032 0.0949 0.4426 0.037 Uiso 1 1 calc R U . . .
C8 C 0.7107(10) -0.0822(6) 0.3610(4) 0.0286(12) Uani 1 1 d . . . . .
H8A H 0.8274 -0.1031 0.4177 0.034 Uiso 1 1 calc R U . . .
H8B H 0.5775 -0.1461 0.3678 0.034 Uiso 1 1 calc R U . . .
C9 C 0.7563(9) -0.2142(6) 0.1932(4) 0.0244(12) Uani 1 1 d . . . . .
C10 C 0.9194(10) -0.2076(6) 0.1040(4) 0.0275(12) Uani 1 1 d . . . . .
H10A H 0.8342 -0.2269 0.0371 0.033 Uiso 1 1 calc R U . . .
H10B H 1.0466 -0.2766 0.1142 0.033 Uiso 1 1 calc R U . . .
C11 C 1.0156(8) -0.0550(6) 0.1070(4) 0.0206(11) Uani 1 1 d . . . . .
C12 C 1.0138(9) -0.0203(6) 0.2270(4) 0.0223(11) Uani 1 1 d . . . . .
H12 H 1.1593 -0.0573 0.2624 0.027 Uiso 1 1 calc R U . . .
C13 C 0.9765(8) 0.1308(6) 0.2623(4) 0.0224(12) Uani 1 1 d . . . . .
C14 C 1.0593(9) 0.3591(6) 0.3031(4) 0.0236(12) Uani 1 1 d . . . . .
C15 C 1.2647(8) -0.0439(6) 0.0665(4) 0.0224(11) Uani 1 1 d . . . . .
H15 H 1.3676 -0.1128 0.1050 0.027 Uiso 1 1 calc R U . . .
C16 C 1.2647(8) -0.0775(6) -0.0520(4) 0.0263(12) Uani 1 1 d . . . . .
H16A H 1.2242 -0.1774 -0.0638 0.032 Uiso 1 1 calc R U . . .
H16B H 1.1468 -0.0193 -0.0900 0.032 Uiso 1 1 calc R U . . .
N1 N 1.1298(8) 0.2427(5) 0.2466(4) 0.0260(10) Uani 1 1 d . . . . .
N2 N 0.8134(7) -0.1059(5) 0.2595(3) 0.0254(10) Uani 1 1 d . . . . .
O1 O 0.5951(7) -0.3010(4) 0.2044(3) 0.0333(10) Uani 1 1 d . . . . .
O2 O 0.8532(6) 0.0412(4) 0.0537(3) 0.0259(9) Uani 1 1 d . . . . .
H2A H 0.7770 -0.0019 0.0069 0.039 Uiso 1 1 calc R U . . .
O3 O 1.3521(6) 0.0973(4) 0.0876(3) 0.0281(9) Uani 1 1 d . . . . .
H3A H 1.4960 0.0982 0.0835 0.042 Uiso 1 1 calc R U . . .
O4 O 1.4943(6) -0.0489(5) -0.0907(3) 0.0290(9) Uani 1 1 d . . . . .
H1O H 1.469(11) 0.018(7) -0.129(5) 0.031(18) Uiso 1 1 d . . . . .
H1N H 1.225(9) 0.242(6) 0.204(4) 0.007(12) Uiso 1 1 d . . . . .
loop_
_atom_site_aniso_label
_atom_site_aniso_U_11
_atom_site_aniso_U_22
_atom_site_aniso_U_33
_atom_site_aniso_U_23
_atom_site_aniso_U_13
_atom_site_aniso_U_12
C1 0.030(3) 0.028(3) 0.030(3) 0.002(2) 0.001(2) -0.002(2)
C2 0.044(3) 0.023(3) 0.034(3) -0.002(2) -0.005(2) 0.000(3)
C3 0.042(3) 0.026(3) 0.035(3) -0.006(3) 0.005(2) 0.009(3)
C4 0.032(3) 0.031(3) 0.030(3) 0.000(2) 0.008(2) 0.002(3)
C5 0.026(3) 0.022(3) 0.026(3) -0.001(2) 0.000(2) 0.001(2)
C6 0.020(2) 0.024(3) 0.025(3) -0.001(2) 0.000(2) -0.002(2)
C7 0.032(3) 0.034(4) 0.028(3) -0.001(2) 0.008(2) -0.005(3)
C8 0.033(3) 0.030(3) 0.022(2) 0.002(2) 0.004(2) -0.007(3)
C9 0.026(3) 0.019(3) 0.028(3) 0.002(2) -0.003(2) -0.001(2)
C10 0.031(3) 0.023(3) 0.029(3) -0.003(2) 0.003(2) -0.002(2)
C11 0.017(2) 0.017(3) 0.027(2) 0.001(2) -0.0010(18) 0.003(2)
C12 0.021(2) 0.022(3) 0.024(2) 0.002(2) -0.0012(19) -0.004(2)
C13 0.022(2) 0.023(3) 0.022(2) -0.002(2) -0.0014(19) -0.003(2)
C14 0.026(2) 0.023(3) 0.022(2) 0.001(2) 0.002(2) -0.001(2)
C15 0.016(2) 0.019(3) 0.032(3) -0.001(2) 0.0001(19) 0.005(2)
C16 0.020(2) 0.023(3) 0.036(3) -0.006(2) 0.003(2) -0.001(2)
N1 0.025(2) 0.025(3) 0.028(2) -0.002(2) 0.008(2) -0.007(2)
N2 0.025(2) 0.025(3) 0.027(2) -0.0018(19) 0.0044(17) -0.005(2)
O1 0.034(2) 0.028(2) 0.037(2) 0.0002(18) 0.0030(16) -0.0098(19)
O2 0.0213(17) 0.027(2) 0.0295(19) 0.0025(16) -0.0010(14) 0.0025(17)
O3 0.0184(17) 0.030(2) 0.036(2) -0.0053(16) 0.0059(15) -0.0065(16)
O4 0.0225(18) 0.035(3) 0.0299(19) 0.0025(18) 0.0048(14) 0.0062(18)
loop_
_atom_type_symbol
_atom_type_description
_atom_type_scat_dispersion_real
_atom_type_scat_dispersion_imag
_atom_type_scat_source
C C 0.0033 0.0016 'International Tables Vol C Tables 4.2.6.8 and 6.1.1.4'
H H 0.0000 0.0000 'International Tables Vol C Tables 4.2.6.8 and 6.1.1.4'
N N 0.0061 0.0033 'International Tables Vol C Tables 4.2.6.8 and 6.1.1.4'
O O 0.0106 0.0060 'International Tables Vol C Tables 4.2.6.8 and 6.1.1.4'
loop_
_geom_angle_atom_site_label_1
_geom_angle_atom_site_label_2
_geom_angle_atom_site_label_3
_geom_angle
_geom_angle_site_symmetry_1
_geom_angle_site_symmetry_3
_geom_angle_publ_flag
C2 C1 C14 117.3(5) . . ?
C2 C1 H1 121.3 . . ?
C14 C1 H1 121.3 . . ?
C1 C2 C3 121.8(6) . . ?
C1 C2 H2 119.1 . . ?
C3 C2 H2 119.1 . . ?
C4 C3 C2 121.0(5) . . ?
C4 C3 H3 119.5 . . ?
C2 C3 H3 119.5 . . ?
C3 C4 C5 118.9(5) . . ?
C3 C4 H4 120.5 . . ?
C5 C4 H4 120.5 . . ?
C4 C5 C14 119.1(5) . . ?
C4 C5 C6 134.1(5) . . ?
C14 C5 C6 106.7(5) . . ?
C13 C6 C5 106.7(4) . . ?
C13 C6 C7 123.4(5) . . ?
C5 C6 C7 129.7(5) . . ?
C6 C7 C8 110.5(4) . . ?
C6 C7 H7A 109.5 . . ?
C8 C7 H7A 109.5 . . ?
C6 C7 H7B 109.5 . . ?
C8 C7 H7B 109.5 . . ?
H7A C7 H7B 108.1 . . ?
N2 C8 C7 110.2(4) . . ?
N2 C8 H8A 109.6 . . ?
C7 C8 H8A 109.6 . . ?
N2 C8 H8B 109.6 . . ?
C7 C8 H8B 109.6 . . ?
H8A C8 H8B 108.1 . . ?
O1 C9 N2 125.2(5) . . ?
O1 C9 C10 127.1(5) . . ?
N2 C9 C10 107.7(4) . . ?
C9 C10 C11 104.7(4) . . ?
C9 C10 H10A 110.8 . . ?
C11 C10 H10A 110.8 . . ?
C9 C10 H10B 110.8 . . ?
C11 C10 H10B 110.8 . . ?
H10A C10 H10B 108.9 . . ?
O2 C11 C10 110.8(4) . . ?
O2 C11 C15 112.3(4) . . ?
C10 C11 C15 112.9(4) . . ?
O2 C11 C12 107.0(4) . . ?
C10 C11 C12 101.3(4) . . ?
C15 C11 C12 111.8(4) . . ?
N2 C12 C13 107.7(4) . . ?
N2 C12 C11 102.1(4) . . ?
C13 C12 C11 119.8(4) . . ?
N2 C12 H12 108.9 . . ?
C13 C12 H12 108.9 . . ?
C11 C12 H12 108.9 . . ?
C6 C13 N1 110.1(5) . . ?
C6 C13 C12 124.4(5) . . ?
N1 C13 C12 124.7(4) . . ?
N1 C14 C1 130.4(5) . . ?
N1 C14 C5 107.8(5) . . ?
C1 C14 C5 121.8(5) . . ?
O3 C15 C11 108.4(4) . . ?
O3 C15 C16 110.7(4) . . ?
C11 C15 C16 111.4(4) . . ?
O3 C15 H15 108.8 . . ?
C11 C15 H15 108.8 . . ?
C16 C15 H15 108.8 . . ?
O4 C16 C15 110.2(4) . . ?
O4 C16 H16A 109.6 . . ?
C15 C16 H16A 109.6 . . ?
O4 C16 H16B 109.6 . . ?
C15 C16 H16B 109.6 . . ?
H16A C16 H16B 108.1 . . ?
C14 N1 C13 108.6(4) . . ?
C14 N1 H1N 127(4) . . ?
C13 N1 H1N 123(4) . . ?
C9 N2 C8 124.9(4) . . ?
C9 N2 C12 113.4(4) . . ?
C8 N2 C12 121.2(4) . . ?
C11 O2 H2A 109.5 . . ?
C15 O3 H3A 109.5 . . ?
C16 O4 H1O 103(5) . . ?
loop_
_geom_bond_atom_site_label_1
_geom_bond_atom_site_label_2
_geom_bond_distance
_geom_bond_site_symmetry_2
_geom_bond_publ_flag
C1 C2 1.376(8) . ?
C1 C14 1.397(8) . ?
C1 H1 0.9300 . ?
C2 C3 1.400(8) . ?
C2 H2 0.9300 . ?
C3 C4 1.378(9) . ?
C3 H3 0.9300 . ?
C4 C5 1.399(8) . ?
C4 H4 0.9300 . ?
C5 C14 1.420(7) . ?
C5 C6 1.435(8) . ?
C6 C13 1.370(7) . ?
C6 C7 1.487(7) . ?
C7 C8 1.523(8) . ?
C7 H7A 0.9700 . ?
C7 H7B 0.9700 . ?
C8 N2 1.461(6) . ?
C8 H8A 0.9700 . ?
C8 H8B 0.9700 . ?
C9 O1 1.235(7) . ?
C9 N2 1.344(7) . ?
C9 C10 1.504(7) . ?
C10 C11 1.525(8) . ?
C10 H10A 0.9700 . ?
C10 H10B 0.9700 . ?
C11 O2 1.430(6) . ?
C11 C15 1.532(6) . ?
C11 C12 1.560(7) . ?
C12 N2 1.466(6) . ?
C12 C13 1.499(7) . ?
C12 H12 0.9800 . ?
C13 N1 1.380(7) . ?
C14 N1 1.375(7) . ?
C15 O3 1.429(6) . ?
C15 C16 1.537(7) . ?
C15 H15 0.9800 . ?
C16 O4 1.441(6) . ?
C16 H16A 0.9700 . ?
C16 H16B 0.9700 . ?
N1 H1N 0.79(5) . ?
O2 H2A 0.8200 . ?
O3 H3A 0.8200 . ?
O4 H1O 0.80(7) . ?
loop_
_geom_torsion_atom_site_label_1
_geom_torsion_atom_site_label_2
_geom_torsion_atom_site_label_3
_geom_torsion_atom_site_label_4
_geom_torsion
_geom_torsion_site_symmetry_1
_geom_torsion_site_symmetry_2
_geom_torsion_site_symmetry_3
_geom_torsion_site_symmetry_4
_geom_torsion_publ_flag
C14 C1 C2 C3 -0.2(8) . . . . ?
C1 C2 C3 C4 -0.3(9) . . . . ?
C2 C3 C4 C5 0.2(8) . . . . ?
C3 C4 C5 C14 0.3(8) . . . . ?
C3 C4 C5 C6 176.3(6) . . . . ?
C4 C5 C6 C13 -177.5(6) . . . . ?
C14 C5 C6 C13 -1.2(6) . . . . ?
C4 C5 C6 C7 -1.9(10) . . . . ?
C14 C5 C6 C7 174.4(5) . . . . ?
C13 C6 C7 C8 21.1(7) . . . . ?
C5 C6 C7 C8 -153.9(5) . . . . ?
C6 C7 C8 N2 -43.1(6) . . . . ?
O1 C9 C10 C11 159.5(5) . . . . ?
N2 C9 C10 C11 -19.4(6) . . . . ?
C9 C10 C11 O2 -82.8(5) . . . . ?
C9 C10 C11 C15 150.3(4) . . . . ?
C9 C10 C11 C12 30.6(5) . . . . ?
O2 C11 C12 N2 85.5(4) . . . . ?
C10 C11 C12 N2 -30.7(5) . . . . ?
C15 C11 C12 N2 -151.2(4) . . . . ?
O2 C11 C12 C13 -33.3(6) . . . . ?
C10 C11 C12 C13 -149.5(4) . . . . ?
C15 C11 C12 C13 90.0(5) . . . . ?
C5 C6 C13 N1 1.2(6) . . . . ?
C7 C6 C13 N1 -174.7(5) . . . . ?
C5 C6 C13 C12 171.1(5) . . . . ?
C7 C6 C13 C12 -4.9(8) . . . . ?
N2 C12 C13 C6 11.0(6) . . . . ?
C11 C12 C13 C6 126.9(5) . . . . ?
N2 C12 C13 N1 179.5(4) . . . . ?
C11 C12 C13 N1 -64.7(7) . . . . ?
C2 C1 C14 N1 -177.4(5) . . . . ?
C2 C1 C14 C5 0.7(7) . . . . ?
C4 C5 C14 N1 177.7(5) . . . . ?
C6 C5 C14 N1 0.7(6) . . . . ?
C4 C5 C14 C1 -0.8(8) . . . . ?
C6 C5 C14 C1 -177.8(5) . . . . ?
O2 C11 C15 O3 62.6(5) . . . . ?
C10 C11 C15 O3 -171.2(4) . . . . ?
C12 C11 C15 O3 -57.7(5) . . . . ?
O2 C11 C15 C16 -59.4(6) . . . . ?
C10 C11 C15 C16 66.8(6) . . . . ?
C12 C11 C15 C16 -179.7(4) . . . . ?
O3 C15 C16 O4 52.1(5) . . . . ?
C11 C15 C16 O4 172.8(4) . . . . ?
C1 C14 N1 C13 178.4(5) . . . . ?
C5 C14 N1 C13 0.0(6) . . . . ?
C6 C13 N1 C14 -0.8(6) . . . . ?
C12 C13 N1 C14 -170.7(4) . . . . ?
O1 C9 N2 C8 6.8(9) . . . . ?
C10 C9 N2 C8 -174.3(5) . . . . ?
O1 C9 N2 C12 179.5(5) . . . . ?
C10 C9 N2 C12 -1.5(6) . . . . ?
C7 C8 N2 C9 -130.3(5) . . . . ?
C7 C8 N2 C12 57.5(6) . . . . ?
C13 C12 N2 C9 148.1(4) . . . . ?
C11 C12 N2 C9 21.1(5) . . . . ?
C13 C12 N2 C8 -38.8(6) . . . . ?
C11 C12 N2 C8 -165.9(4) . . . . ?
