#------------------------------------------------------------------------------
#$Date: 2020-06-04 04:15:42 +0300 (Thu, 04 Jun 2020) $
#$Revision: 252619 $
#$URL: file:///home/coder/svn-repositories/cod/cif/1/55/81/1558171.cif $
#------------------------------------------------------------------------------
#
# This file is available in the Crystallography Open Database (COD),
# http://www.crystallography.net/
#
# All data on this site have been placed in the public domain by the
# contributors.
#
data_1558171
loop_
_publ_author_name
'Mukhopadhyay, Deb Pratim'
'Schleier, Domenik'
'Wirsing, Sara'
'Ramler, Jacqueline'
'Kaiser, Dustin'
'Reusch, Engelbert'
'Hemberger, Patrick'
'Preitschopf, Tobias'
'Krummenacher, Ivo'
'Engels, Bernd'
'Fischer, Ingo'
'Lichtenberg, Crispin'
_publ_section_title
;
 Methylbismuth: an Organometallic Bismuthinidene Biradical
;
_journal_name_full               'Chemical Science'
_journal_paper_doi               10.1039/D0SC02410D
_journal_year                    2020
_chemical_formula_moiety         'C13 H13 Bi S2'
_chemical_formula_sum            'C13 H13 Bi S2'
_chemical_formula_weight         442.33
_space_group_crystal_system      triclinic
_space_group_IT_number           2
_space_group_name_Hall           '-P 1'
_space_group_name_H-M_alt        'P -1'
_atom_sites_solution_hydrogens   geom
_atom_sites_solution_primary     direct
_audit_creation_date             2020-03-18
_audit_creation_method
;
Olex2 1.3
(compiled 2020.02.04 svn.rd84adfe8 for OlexSys, GUI svn.r6032)
;
_audit_update_record
;
2020-04-22 deposited with the CCDC.	2020-06-03 downloaded from the CCDC.
;
_cell_angle_alpha                108.600(4)
_cell_angle_beta                 94.491(4)
_cell_angle_gamma                90.019(4)
_cell_formula_units_Z            2
_cell_length_a                   4.0972(12)
_cell_length_b                   10.591(3)
_cell_length_c                   16.590(5)
_cell_measurement_reflns_used    6503
_cell_measurement_temperature    100
_cell_measurement_theta_max      26.94
_cell_measurement_theta_min      2.60
_cell_volume                     680.0(3)
_computing_cell_refinement       'SAINT v8.37A (Bruker, 2015)'
_computing_data_reduction        'SAINT v8.37A (Bruker, 2015)'
_computing_molecular_graphics    'Olex2 1.3 (Dolomanov et al., 2009)'
_computing_publication_material  'Olex2 1.3 (Dolomanov et al., 2009)'
_computing_structure_refinement  'SHELXL 2018/3 (Sheldrick, 2015)'
_computing_structure_solution    'XS (Sheldrick, 2008)'
_diffrn_ambient_temperature      100
_diffrn_detector_area_resol_mean 8
_diffrn_measured_fraction_theta_full 0.998
_diffrn_measured_fraction_theta_max 0.995
_diffrn_measurement_device_type  'Bruker APEX-II CCD'
_diffrn_measurement_method       '\f and \w scans'
_diffrn_radiation_monochromator  graphite
_diffrn_radiation_type           MoK\a
_diffrn_radiation_wavelength     0.71073
_diffrn_reflns_av_R_equivalents  0.0431
_diffrn_reflns_av_unetI/netI     0.0394
_diffrn_reflns_Laue_measured_fraction_full 0.998
_diffrn_reflns_Laue_measured_fraction_max 0.995
_diffrn_reflns_limit_h_max       5
_diffrn_reflns_limit_h_min       -5
_diffrn_reflns_limit_k_max       13
_diffrn_reflns_limit_k_min       -13
_diffrn_reflns_limit_l_max       21
_diffrn_reflns_limit_l_min       -21
_diffrn_reflns_number            10552
_diffrn_reflns_point_group_measured_fraction_full 0.998
_diffrn_reflns_point_group_measured_fraction_max 0.995
_diffrn_reflns_theta_full        26.000
_diffrn_reflns_theta_max         26.939
_diffrn_reflns_theta_min         2.600
_diffrn_source                   'sealed tube'
_diffrn_source_current           30.0
_diffrn_source_power             1.5
_diffrn_source_voltage           50.0
_diffrn_standards_number         0
_exptl_absorpt_coefficient_mu    13.243
_exptl_absorpt_correction_T_max  0.7454
_exptl_absorpt_correction_T_min  0.5050
_exptl_absorpt_correction_type   multi-scan
_exptl_absorpt_process_details
;
SADABS-2016/2 (Bruker,2016/2) was used for absorption correction.
wR2(int) was 0.0842 before and 0.0529 after correction.
The Ratio of minimum to maximum transmission is 0.6775.
The \l/2 correction factor is Not present.
;
_exptl_crystal_colour            green
_exptl_crystal_colour_primary    green
_exptl_crystal_density_diffrn    2.161
_exptl_crystal_description       needle
_exptl_crystal_F_000             412
_exptl_crystal_size_max          0.593
_exptl_crystal_size_mid          0.123
_exptl_crystal_size_min          0.031
_refine_diff_density_max         1.503
_refine_diff_density_min         -2.062
_refine_diff_density_rms         0.160
_refine_ls_extinction_method     none
_refine_ls_goodness_of_fit_ref   1.080
_refine_ls_hydrogen_treatment    constr
_refine_ls_matrix_type           full
_refine_ls_number_parameters     271
_refine_ls_number_reflns         2944
_refine_ls_number_restraints     12
_refine_ls_restrained_S_all      1.078
_refine_ls_R_factor_all          0.0293
_refine_ls_R_factor_gt           0.0243
_refine_ls_shift/su_max          0.002
_refine_ls_shift/su_mean         0.000
_refine_ls_structure_factor_coef Fsqd
_refine_ls_weighting_details
'w=1/[\s^2^(Fo^2^)+(0.0212P)^2^+0.8399P] where P=(Fo^2^+2Fc^2^)/3'
_refine_ls_weighting_scheme      calc
_refine_ls_wR_factor_gt          0.0525
_refine_ls_wR_factor_ref         0.0540
_reflns_Friedel_coverage         0.000
_reflns_number_gt                2706
_reflns_number_total             2944
_reflns_threshold_expression     'I > 2\s(I)'
_iucr_refine_instructions_details
;
TITL test_a in P-1 #2
    test_a.res
    created by SHELXL-2018/3 at 15:11:12 on 18-Mar-2020
REM reset to P-1 #2
CELL 0.71073 4.0972 10.5907 16.5898 108.6 94.491 90.019
ZERR 2 0.0012 0.0031 0.0049 0.004 0.004 0.004
LATT 1
SFAC C H Bi S
UNIT 26 26 2 4
EADP C5A C5
ISOR 0.02 0.008 C10A
EADP C11 C11A
ISOR 0.004 0.008 C11

L.S. 10
PLAN  5
SIZE 0.031 0.123 0.593
TEMP -173.15
CONF
LIST 4
BOND
MORE -1
BOND $H
fmap 2
acta 52
OMIT 0 0 1
REM <olex2.extras>
REM <HklSrc "%test_a.hkl">
REM </olex2.extras>

WGHT    0.021200    0.839900
FVAR       0.53494   0.50114
BI1   3    0.492510    0.601327    0.202714    11.00000    0.01354    0.01412 =
         0.01675    0.00489    0.00276    0.00088
PART 2
S1A   4    0.064978    0.780274    0.285627   -21.00000    0.01842    0.01187 =
         0.01859    0.00470    0.00303    0.00156
PART 1
S1    4    0.007590    0.664245    0.100057    21.00000    0.01867    0.01187 =
         0.01874    0.00544    0.00290   -0.00124
PART 2
S2A   4    0.007269    0.436086    0.100075   -21.00000    0.01702    0.01343 =
         0.01732    0.00530    0.00131    0.00229
PART 1
S2    4    0.064668    0.505469    0.285967    21.00000    0.01681    0.01200 =
         0.02025    0.00586    0.00364    0.00043
C1    1    0.510946    0.400581    0.108285    21.00000    0.02363    0.01840 =
         0.01749    0.00793    0.00715    0.00482
AFIX 137
H1A   2    0.289082    0.361204    0.093205    21.00000   -1.50000
H1B   2    0.648937    0.344165    0.132752    21.00000   -1.50000
H1C   2    0.603004    0.407262    0.056979    21.00000   -1.50000
AFIX   0
PART 2
C1A   1    0.508555    0.708914    0.108420   -21.00000    0.02573    0.01260 =
         0.02250    0.00824    0.00825    0.00480
AFIX 137
H1AA  2    0.625226    0.655993    0.060027   -21.00000   -1.50000
H1AB  2    0.622799    0.795217    0.135304   -21.00000   -1.50000
H1AC  2    0.284742    0.723150    0.088194   -21.00000   -1.50000
AFIX   0
PART 1
C3    1    0.201475    0.900542    0.080652    21.00000    0.04910    0.02020 =
         0.02267    0.00245    0.01176   -0.00445
AFIX  43
H3    2    0.241443    0.848827    0.024131    21.00000   -1.20000
AFIX   0
C4    1    0.263759    1.039493    0.109800    21.00000    0.05245    0.02756 =
         0.04497    0.02272    0.01713   -0.00501
AFIX  43
H4    2    0.348457    1.080418    0.072244    21.00000   -1.20000
AFIX   0
C5    1    0.205646    1.117407    0.190840    21.00000    0.02959    0.01212 =
         0.02951    0.00575    0.00005   -0.00566
AFIX  43
H5    2    0.247979    1.210887    0.208915    21.00000   -1.20000
AFIX   0
C6    1    0.084982    1.057854    0.245511    21.00000    0.03042    0.01705 =
         0.02352   -0.00424    0.00228    0.00066
AFIX  43
H6    2    0.043975    1.111315    0.301576    21.00000   -1.20000
AFIX   0
C7    1    0.021513    0.920112    0.220142    21.00000    0.03064    0.02142 =
         0.01942    0.00485    0.00496   -0.00042
AFIX  43
H7    2   -0.060007    0.880662    0.258826    21.00000   -1.20000
AFIX   0
C2    1    0.079881    0.840061    0.136299    21.00000    0.01718    0.00925 =
         0.02401    0.00440   -0.00011    0.00106
PART 2
C8A   1    0.080055    0.296300    0.136642   -21.00000    0.02221    0.01380 =
         0.02079    0.01042   -0.00339   -0.00152
C13A  1    0.027041    0.299853    0.219694   -21.00000    0.02992    0.01938 =
         0.01932    0.00630    0.00481    0.00662
AFIX  43
H13A  2   -0.051419    0.378419    0.258612   -21.00000   -1.20000
AFIX   0
C12A  1    0.089289    0.188006    0.245558   -21.00000    0.02579    0.03406 =
         0.02672    0.01742    0.00546    0.00256
AFIX  43
H12A  2    0.050718    0.190493    0.301762   -21.00000   -1.20000
AFIX   0
C9A   1    0.197251    0.180085    0.082129   -21.00000    0.05076    0.02386 =
         0.01373    0.00481    0.00232    0.00792
AFIX  43
H9A   2    0.235611    0.177655    0.025922   -21.00000   -1.20000
AFIX   0
C11A  1    0.206756    0.073980    0.189461   -21.00000    0.02148    0.01732 =
         0.02185    0.00846   -0.00080    0.00067
AFIX  43
H11A  2    0.251190   -0.000844    0.208000   -21.00000   -1.20000
AFIX   0
C10A  1    0.261873    0.066515    0.105387   -21.00000    0.04560    0.02475 =
         0.02519    0.00754    0.01313    0.00847
AFIX  43
H10A  2    0.339399   -0.012134    0.066341   -21.00000   -1.20000
AFIX   0
C2A   1    0.172226    0.768678    0.389447   -21.00000    0.01126    0.02236 =
         0.02563    0.00686    0.00836    0.01021
C3A   1    0.361687    0.872462    0.448383   -21.00000    0.01581    0.01724 =
         0.02540    0.00739    0.00179    0.00082
AFIX  43
H3A   2    0.436655    0.944702    0.431812   -21.00000   -1.20000
AFIX   0
C4A   1    0.441050    0.870394    0.531347   -21.00000    0.02608    0.01861 =
         0.02620    0.00450   -0.00016    0.00373
AFIX  43
H4A   2    0.567155    0.941761    0.571175   -21.00000   -1.20000
AFIX   0
C5A   1    0.333945    0.762030    0.556365    21.00000    0.02959    0.01212 =
         0.02951    0.00575    0.00005   -0.00566
AFIX  43
H5A   2    0.393740    0.758177    0.612010    21.00000   -1.20000
AFIX   0
C6A   1    0.142592    0.663239    0.498499   -21.00000    0.01757    0.03588 =
         0.03312    0.02085    0.00877    0.00554
AFIX  43
H6A   2    0.066921    0.590915    0.514880   -21.00000   -1.20000
AFIX   0
C7A   1    0.055043    0.665944    0.415466   -21.00000    0.01308    0.02075 =
         0.02706    0.00667    0.00124    0.00524
AFIX  43
H7A   2   -0.084127    0.597613    0.377143   -21.00000   -1.20000
AFIX   0
PART 1
C8    1    0.166702    0.621316    0.391208    21.00000    0.01244    0.01556 =
         0.01803    0.00807   -0.00044    0.00025
C9    1    0.360619    0.575197    0.447880    21.00000    0.02397    0.01294 =
         0.02428    0.00564    0.00338   -0.00240
AFIX  43
H9    2    0.436629    0.486579    0.430723    21.00000   -1.20000
AFIX   0
C10   1    0.442431    0.661606    0.530876    21.00000    0.03188    0.02441 =
         0.02169    0.00938   -0.00173   -0.00577
AFIX  43
H10   2    0.571163    0.630717    0.570591    21.00000   -1.20000
AFIX   0
C11   1    0.333814    0.795356    0.556021   -21.00000    0.02148    0.01732 =
         0.02185    0.00846   -0.00080    0.00067
AFIX  43
H11   2    0.394623    0.855057    0.611534   -21.00000   -1.20000
AFIX   0
C12   1    0.140480    0.835670    0.498521    21.00000    0.01689    0.01798 =
         0.03228    0.00134    0.00768    0.00139
AFIX  43
H12   2    0.060451    0.923654    0.515827    21.00000   -1.20000
AFIX   0
C13   1    0.055184    0.752589    0.414996    21.00000    0.01837    0.01301 =
         0.02054    0.00021   -0.00032    0.00903
AFIX  43
H13   2   -0.074098    0.784013    0.375627    21.00000   -1.20000
AFIX   0
HKLF 4




REM  test_a in P-1 #2
REM wR2 = 0.0540, GooF = S = 1.080, Restrained GooF = 1.078 for all data
REM R1 = 0.0243 for 2706 Fo > 4sig(Fo) and 0.0293 for all 2944 data
REM 271 parameters refined using 12 restraints

END  
     
WGHT      0.0212      0.8335 

REM Highest difference peak  1.503,  deepest hole -2.062,  1-sigma level  0.160
Q1    1   0.6246  0.6407  0.1837  11.00000  0.05    1.50
Q2    1   0.3345  0.5557  0.2233  11.00000  0.05    1.43
Q3    1   0.5158  0.0006  0.0110  11.00000  0.05    1.15
Q4    1   0.6277  0.5299  0.1960  11.00000  0.05    1.09
Q5    1   0.3508  0.6749  0.2113  11.00000  0.05    1.04

  REM The information below was added by Olex2.
  REM
  REM R1 = 0.0243 for 2706 Fo > 4sig(Fo) and 0.0293 for all 10561 data
  REM n/a parameters refined using n/a restraints
  REM Highest difference peak 1.50, deepest hole -2.06
  REM Mean Shift 0, Max Shift 0.002.

  REM +++ Tabular Listing of Refinement Information +++
  REM R1_all = 0.0293
  REM R1_gt = 0.0243
  REM wR_ref = 0.0540
  REM GOOF = 1.080
  REM Shift_max = 0.002
  REM Shift_mean = 0
  REM Reflections_all = 10561
  REM Reflections_gt = 2706
  REM Parameters = n/a
  REM Hole = -2.06
  REM Peak = 1.50
  REM Flack = n/a

  
;
_cod_data_source_file            d0sc02410d2.cif
_cod_data_source_block           Compound_8
_cod_original_cell_volume        679.9(3)
_cod_database_code               1558171
_shelx_shelxl_version_number     2018/3
_shelx_space_group_comment
;
The symmetry employed for this shelxl refinement is uniquely defined
by the following loop, which should always be used as a source of
symmetry information in preference to the above space-group names.
They are only intended as comments.
;
_shelx_estimated_absorpt_t_max   0.684
_shelx_estimated_absorpt_t_min   0.047
_olex2_refinement_description
;
1. Fixed Uiso
 At 1.2 times of:
  All C(H) groups
 At 1.5 times of:
  All C(H,H,H) groups
2. Uiso/Uaniso restraints and constraints
Uanis(C10A) \\sim Ueq: with sigma of 0.02 and sigma for terminal atoms of 0.008
Uanis(C11) \\sim Ueq: with sigma of 0.004 and sigma for terminal atoms of 0.008
Uanis(C5A) = Uanis(C5)
Uanis(C11) = Uanis(C11A)
3. Others
 Sof(S1A)=Sof(S2A)=Sof(C1A)=Sof(H1AA)=Sof(H1AB)=Sof(H1AC)=Sof(C8A)=Sof(C13A)=
 Sof(H13A)=Sof(C12A)=Sof(H12A)=Sof(C9A)=Sof(H9A)=Sof(C11A)=Sof(H11A)=Sof(C10A)=
 Sof(H10A)=Sof(C2A)=Sof(C3A)=Sof(H3A)=Sof(C4A)=Sof(H4A)=Sof(C6A)=Sof(H6A)=
 Sof(C7A)=Sof(H7A)=Sof(C11)=Sof(H11)=1-FVAR(1)
 Sof(S1)=Sof(S2)=Sof(C1)=Sof(H1A)=Sof(H1B)=Sof(H1C)=Sof(C3)=Sof(H3)=Sof(C4)=
 Sof(H4)=Sof(C5)=Sof(H5)=Sof(C6)=Sof(H6)=Sof(C7)=Sof(H7)=Sof(C2)=Sof(C5A)=
 Sof(H5A)=Sof(C8)=Sof(C9)=Sof(H9)=Sof(C10)=Sof(H10)=Sof(C12)=Sof(H12)=Sof(C13)=
 Sof(H13)=FVAR(1)
4.a Aromatic/amide H refined with riding coordinates:
 C3(H3), C4(H4), C5(H5), C6(H6), C7(H7), C13A(H13A), C12A(H12A), C9A(H9A),
 C11A(H11A), C10A(H10A), C3A(H3A), C4A(H4A), C5A(H5A), C6A(H6A), C7A(H7A),
 C9(H9), C10(H10), C11(H11), C12(H12), C13(H13)
4.b Idealised Me refined as rotating group:
 C1(H1A,H1B,H1C), C1A(H1AA,H1AB,H1AC)
;
_olex2_submission_special_instructions 'No special instructions were received'
loop_
_space_group_symop_operation_xyz
'x, y, z'
'-x, -y, -z'
loop_
_atom_site_label
_atom_site_type_symbol
_atom_site_fract_x
_atom_site_fract_y
_atom_site_fract_z
_atom_site_U_iso_or_equiv
_atom_site_adp_type
_atom_site_occupancy
_atom_site_site_symmetry_order
_atom_site_calc_flag
_atom_site_refinement_flags_posn
_atom_site_refinement_flags_adp
_atom_site_refinement_flags_occupancy
_atom_site_disorder_assembly
_atom_site_disorder_group
Bi1 Bi 0.49251(4) 0.60133(2) 0.20271(2) 0.01473(7) Uani 1 1 d . . . . .
S1A S 0.0650(6) 0.7803(2) 0.28563(15) 0.0163(6) Uani 0.499(3) 1 d . . P A 2
S1 S 0.0076(6) 0.6642(2) 0.10006(15) 0.0162(6) Uani 0.501(3) 1 d . . P A 1
S2A S 0.0073(6) 0.4361(2) 0.10007(15) 0.0158(6) Uani 0.499(3) 1 d . . P A 2
S2 S 0.0647(6) 0.5055(2) 0.28597(15) 0.0161(6) Uani 0.501(3) 1 d . . P A 1
C1 C 0.511(2) 0.4006(9) 0.1083(6) 0.019(2) Uani 0.501(3) 1 d . . P A 1
H1A H 0.289082 0.361204 0.093205 0.029 Uiso 0.501(3) 1 calc R U P A 1
H1B H 0.648937 0.344165 0.132752 0.029 Uiso 0.501(3) 1 calc R U P A 1
H1C H 0.603004 0.407262 0.056979 0.029 Uiso 0.501(3) 1 calc R U P A 1
C1A C 0.509(3) 0.7089(9) 0.1084(6) 0.019(2) Uani 0.499(3) 1 d . . P A 2
H1AA H 0.625226 0.655993 0.060027 0.029 Uiso 0.499(3) 1 calc R U P A 2
H1AB H 0.622799 0.795217 0.135304 0.029 Uiso 0.499(3) 1 calc R U P A 2
H1AC H 0.284742 0.723150 0.088194 0.029 Uiso 0.499(3) 1 calc R U P A 2
C3 C 0.201(3) 0.9005(11) 0.0807(7) 0.031(3) Uani 0.501(3) 1 d . . P A 1
H3 H 0.241443 0.848827 0.024131 0.037 Uiso 0.501(3) 1 calc R U P A 1
C4 C 0.264(15) 1.039(4) 0.110(3) 0.038(8) Uani 0.501(3) 1 d . . P A 1
H4 H 0.348457 1.080418 0.072244 0.046 Uiso 0.501(3) 1 calc R U P A 1
C5 C 0.206(4) 1.1174(14) 0.1908(10) 0.024(3) Uani 0.501(3) 1 d . . P A 1
H5 H 0.247979 1.210887 0.208915 0.029 Uiso 0.501(3) 1 calc R U P A 1
C6 C 0.085(3) 1.0579(10) 0.2455(7) 0.026(2) Uani 0.501(3) 1 d . . P A 1
H6 H 0.043975 1.111315 0.301576 0.031 Uiso 0.501(3) 1 calc R U P A 1
C7 C 0.022(3) 0.9201(10) 0.2201(7) 0.024(2) Uani 0.501(3) 1 d . . P A 1
H7 H -0.060007 0.880662 0.258826 0.029 Uiso 0.501(3) 1 calc R U P A 1
C2 C 0.080(2) 0.8401(9) 0.1363(6) 0.017(2) Uani 0.501(3) 1 d . . P A 1
C8A C 0.080(2) 0.2963(9) 0.1366(6) 0.018(2) Uani 0.499(3) 1 d . . P A 2
C13A C 0.027(3) 0.2999(10) 0.2197(6) 0.023(2) Uani 0.499(3) 1 d . . P A 2
H13A H -0.051419 0.378419 0.258612 0.027 Uiso 0.499(3) 1 calc R U P A 2
C12A C 0.089(3) 0.1880(12) 0.2456(7) 0.027(2) Uani 0.499(3) 1 d . . P A 2
H12A H 0.050718 0.190493 0.301762 0.032 Uiso 0.499(3) 1 calc R U P A 2
C9A C 0.197(3) 0.1801(11) 0.0821(7) 0.030(3) Uani 0.499(3) 1 d . . P A 2
H9A H 0.235611 0.177655 0.025922 0.036 Uiso 0.499(3) 1 calc R U P A 2
C11A C 0.207(4) 0.0740(13) 0.1895(11) 0.020(3) Uani 0.499(3) 1 d . . P A 2
H11A H 0.251190 -0.000844 0.208000 0.024 Uiso 0.499(3) 1 calc R U P A 2
C10A C 0.262(14) 0.067(4) 0.105(3) 0.031(7) Uani 0.499(3) 1 d . U P A 2
H10A H 0.339399 -0.012134 0.066341 0.038 Uiso 0.499(3) 1 calc R U P A 2
C2A C 0.172(3) 0.7687(13) 0.3894(9) 0.020(3) Uani 0.499(3) 1 d . . P A 2
C3A C 0.362(2) 0.8725(10) 0.4484(6) 0.019(2) Uani 0.499(3) 1 d . . P A 2
H3A H 0.436655 0.944702 0.431812 0.023 Uiso 0.499(3) 1 calc R U P A 2
C4A C 0.441(3) 0.8704(10) 0.5313(7) 0.024(2) Uani 0.499(3) 1 d . . P A 2
H4A H 0.567155 0.941761 0.571175 0.029 Uiso 0.499(3) 1 calc R U P A 2
C5A C 0.334(6) 0.7620(15) 0.5564(14) 0.024(3) Uani 0.501(3) 1 d . . P A 2
H5A H 0.393740 0.758177 0.612010 0.029 Uiso 0.501(3) 1 calc R U P A 2
C6A C 0.143(3) 0.6632(12) 0.4985(7) 0.026(2) Uani 0.499(3) 1 d . . P A 2
H6A H 0.066921 0.590915 0.514880 0.031 Uiso 0.499(3) 1 calc R U P A 2
C7A C 0.055(3) 0.6659(15) 0.4155(9) 0.021(3) Uani 0.499(3) 1 d . . P A 2
H7A H -0.084127 0.597613 0.377143 0.025 Uiso 0.499(3) 1 calc R U P A 2
C8 C 0.167(3) 0.6213(12) 0.3912(7) 0.015(2) Uani 0.501(3) 1 d . . P A 1
C9 C 0.361(2) 0.5752(10) 0.4479(6) 0.020(2) Uani 0.501(3) 1 d . . P A 1
H9 H 0.436629 0.486579 0.430723 0.024 Uiso 0.501(3) 1 calc R U P A 1
C10 C 0.442(3) 0.6616(11) 0.5309(7) 0.026(2) Uani 0.501(3) 1 d . . P A 1
H10 H 0.571163 0.630717 0.570591 0.031 Uiso 0.501(3) 1 calc R U P A 1
C11 C 0.334(6) 0.7954(15) 0.5560(14) 0.020(3) Uani 0.499(3) 1 d . U P A 1
H11 H 0.394623 0.855057 0.611534 0.024 Uiso 0.499(3) 1 calc R U P A 1
C12 C 0.140(2) 0.8357(10) 0.4985(7) 0.024(2) Uani 0.501(3) 1 d . . P A 1
H12 H 0.060451 0.923654 0.515827 0.028 Uiso 0.501(3) 1 calc R U P A 1
C13 C 0.055(3) 0.7526(13) 0.4150(8) 0.019(2) Uani 0.501(3) 1 d . . P A 1
H13 H -0.074098 0.784013 0.375627 0.022 Uiso 0.501(3) 1 calc R U P A 1
loop_
_atom_site_aniso_label
_atom_site_aniso_U_11
_atom_site_aniso_U_22
_atom_site_aniso_U_33
_atom_site_aniso_U_23
_atom_site_aniso_U_13
_atom_site_aniso_U_12
Bi1 0.01354(10) 0.01412(9) 0.01675(10) 0.00489(6) 0.00276(6) 0.00088(6)
S1A 0.0184(12) 0.0119(11) 0.0186(12) 0.0047(9) 0.0030(9) 0.0016(9)
S1 0.0187(12) 0.0119(11) 0.0187(12) 0.0054(9) 0.0029(9) -0.0012(9)
S2A 0.0170(12) 0.0134(11) 0.0173(12) 0.0053(9) 0.0013(9) 0.0023(9)
S2 0.0168(12) 0.0120(11) 0.0203(12) 0.0059(9) 0.0036(9) 0.0004(9)
C1 0.024(5) 0.018(5) 0.017(5) 0.008(4) 0.007(4) 0.005(4)
C1A 0.026(5) 0.013(5) 0.023(5) 0.008(4) 0.008(4) 0.005(4)
C3 0.049(7) 0.020(5) 0.023(6) 0.002(4) 0.012(5) -0.004(5)
C4 0.052(14) 0.028(14) 0.045(12) 0.023(11) 0.017(10) -0.005(12)
C5 0.030(5) 0.012(6) 0.030(5) 0.006(5) 0.000(4) -0.006(5)
C6 0.030(6) 0.017(5) 0.024(6) -0.004(4) 0.002(5) 0.001(4)
C7 0.031(6) 0.021(5) 0.019(5) 0.005(4) 0.005(4) 0.000(4)
C2 0.017(5) 0.009(4) 0.024(5) 0.004(4) 0.000(4) 0.001(3)
C8A 0.022(5) 0.014(5) 0.021(5) 0.010(4) -0.003(4) -0.002(4)
C13A 0.030(6) 0.019(5) 0.019(5) 0.006(4) 0.005(4) 0.007(4)
C12A 0.026(6) 0.034(6) 0.027(6) 0.017(5) 0.005(5) 0.003(5)
C9A 0.051(8) 0.024(6) 0.014(5) 0.005(4) 0.002(5) 0.008(5)
C11A 0.021(4) 0.017(5) 0.022(4) 0.008(4) -0.001(3) 0.001(4)
C10A 0.046(11) 0.025(13) 0.025(10) 0.008(9) 0.013(8) 0.008(11)
C2A 0.011(6) 0.022(6) 0.026(7) 0.007(5) 0.008(5) 0.010(5)
C3A 0.016(5) 0.017(5) 0.025(5) 0.007(4) 0.002(4) 0.001(4)
C4A 0.026(6) 0.019(5) 0.026(6) 0.005(4) 0.000(4) 0.004(4)
C5A 0.030(5) 0.012(6) 0.030(5) 0.006(5) 0.000(4) -0.006(5)
C6A 0.018(5) 0.036(6) 0.033(6) 0.021(5) 0.009(4) 0.006(4)
C7A 0.013(6) 0.021(8) 0.027(7) 0.007(5) 0.001(5) 0.005(5)
C8 0.012(6) 0.016(6) 0.018(6) 0.008(4) 0.000(4) 0.000(4)
C9 0.024(5) 0.013(5) 0.024(5) 0.006(4) 0.003(4) -0.002(4)
C10 0.032(6) 0.024(6) 0.022(5) 0.009(4) -0.002(5) -0.006(5)
C11 0.021(4) 0.017(5) 0.022(4) 0.008(4) -0.001(3) 0.001(4)
C12 0.017(5) 0.018(5) 0.032(6) 0.001(4) 0.008(4) 0.001(4)
C13 0.018(7) 0.013(7) 0.021(7) 0.000(5) 0.000(5) 0.009(5)
loop_
_atom_type_symbol
_atom_type_description
_atom_type_scat_dispersion_real
_atom_type_scat_dispersion_imag
_atom_type_scat_source
C C 0.0033 0.0016 'International Tables Vol C Tables 4.2.6.8 and 6.1.1.4'
H H 0.0000 0.0000 'International Tables Vol C Tables 4.2.6.8 and 6.1.1.4'
Bi Bi -4.1077 10.2566 'International Tables Vol C Tables 4.2.6.8 and 6.1.1.4'
S S 0.1246 0.1234 'International Tables Vol C Tables 4.2.6.8 and 6.1.1.4'
loop_
_diffrn_refln_index_h
_diffrn_refln_index_k
_diffrn_refln_index_l
_diffrn_refln_intensity_net
_diffrn_refln_intensity_u
-1 0 0 1503.65 67.69
-1 0 0 1559.34 64.09
1 0 0 1466.65 65.29
1 0 0 1507.45 64.49
1 0 0 1524.05 65.89
-2 0 0 6629.94 263.77
-2 0 0 6346.37 270.07
2 0 0 6158.48 263.67
2 0 0 6329.77 265.57
2 0 0 6437.26 266.57
-3 0 0 1811.72 79.79
-3 0 0 1710.83 91.09
3 0 0 1669.63 81.89
3 0 0 1689.93 84.89
3 0 0 1738.73 79.79
-4 0 0 1658.83 83.19
-4 0 0 1751.32 104.99
4 0 0 1693.13 93.39
4 0 0 1700.43 86.09
4 0 0 1713.73 86.59
-5 0 0 611.24 52.59
5 0 0 679.73 71.19
5 0 0 751.22 57.99
5 -1 0 307.47 38.7
5 -1 0 291.67 50.29
-5 1 0 153.68 32.7
4 -1 0 1044.1 58.69
4 -1 0 1008.7 70.49
-4 1 0 895.91 55.79
3 -1 0 530.75 35.4
3 -1 0 548.65 36.8
3 -1 0 549.25 41.3
-3 1 0 551.04 34.9
2 -1 0 3596.34 162.18
2 -1 0 3968 165.38
2 -1 0 3828.92 162.38
-2 1 0 3866.51 168.18
-2 1 0 4041.2 161.78
1 -1 0 1418.26 63.09
1 -1 0 1393.56 64.79
1 -1 0 1428.56 64.19
-1 1 0 1587.54 65.79
-1 1 0 1512.95 62.39
-1 -1 0 4408.96 177.38
-1 -1 0 4200.08 177.58
-1 -1 0 4153.28 174.18
1 1 0 4160.38 176.28
1 1 0 4236.08 175.28
-2 -1 0 4635.64 184.18
-2 -1 0 4491.05 190.98
2 1 0 4151.58 186.48
2 1 0 4323.07 186.38
-3 -1 0 2131.29 93.39
-3 -1 0 1942.01 104.49
3 1 0 2091.49 97.59
3 1 0 2092.59 98.49
-4 -1 0 1233.08 66.79
-4 -1 0 1228.88 88.19
4 1 0 1268.77 68.79
4 1 0 1284.97 78.59
4 1 0 1245.48 70.49
-5 -1 0 733.13 84.49
-5 -1 0 490.15 48.5
5 1 0 633.14 63.19
5 -2 0 -67.79 35.6
5 -2 0 -8 27.2
-5 2 0 -7.2 26.1
4 -2 0 55.79 22
4 -2 0 42.9 30.6
-4 2 0 -1.5 20.3
3 -2 0 90.29 17.9
3 -2 0 79.49 21.9
-3 2 0 124.39 19.2
2 -2 0 153.48 20.5
2 -2 0 162.28 16.8
-2 2 0 175.08 17.2
1 -2 0 208.18 17.9
1 -2 0 241.68 16.5
0 -2 0 136.59 8.6
0 -2 0 143.19 15.6
0 2 0 110.89 10.9
-1 -2 0 1252.37 55.29
-1 -2 0 1139.99 54.89
-1 -2 0 1104.89 49.8
1 2 0 1077.49 53.19
-2 -2 0 335.47 33
-2 -2 0 382.86 23.7
-2 -2 0 363.76 28.9
2 2 0 299.27 29.8
2 2 0 257.67 29
-3 -2 0 306.77 42.5
-3 -2 0 291.57 27.5
3 2 0 286.17 33.4
3 2 0 317.57 35.3
-4 -2 0 561.04 64.19
-4 -2 0 465.45 40.3
4 2 0 507.15 48
4 2 0 507.35 50.79
-5 -2 0 230.58 59.19
-5 -2 0 189.28 32.2
5 2 0 109.09 39.5
5 -3 0 127.99 46.1
5 -3 0 164.68 35.2
4 -3 0 724.53 61.39
4 -3 0 660.43 51.59
3 -3 0 524.75 37.1
3 -3 0 501.15 41.7
2 -3 0 881.11 45.3
2 -3 0 901.11 49
1 -3 0 558.44 29.8
1 -3 0 519.35 29.5
1 -3 0 608.84 29.6
0 -3 0 369.36 18.1
0 -3 0 336.97 25.9
-1 -3 0 847.02 46.6
-1 -3 0 898.81 46.6
-1 -3 0 854.31 39.6
1 3 0 873.21 45.1
-2 -3 0 236.78 32
-2 -3 0 180.48 25.3
-2 -3 0 155.78 16
2 3 0 174.78 22.7
2 3 0 165.98 19.4
-3 -3 0 115.39 31.1
-3 -3 0 87.49 18
3 3 0 109.89 24.9
3 3 0 104.19 22.7
-4 -3 0 60.79 22.7
-4 -3 0 89.39 42.3
4 3 0 74.09 29.4
4 3 0 61.49 27.8
-5 -3 0 -5.5 27.4
-5 -3 0 13.4 52.69
5 3 0 -53.39 32.8
4 -4 0 1024 64.09
4 -4 0 971.4 73.99
3 -4 0 2071.19 101.79
3 -4 0 2123.89 97.89
2 -4 0 2141.89 94.79
2 -4 0 2103.39 96.29
1 -4 0 4688.43 190.58
1 -4 0 4450.85 189.78
0 -4 0 3437.36 150.98
0 -4 0 3585.24 145.89
-1 -4 0 2385.96 111.79
-1 -4 0 2418.16 108.79
-1 -4 0 2431.16 102.59
1 4 0 2393.66 107.89
-2 -4 0 1589.94 83.29
-2 -4 0 1709.33 75.19
-2 -4 0 1754.52 85.39
2 4 0 1605.84 81.39
-3 -4 0 1068.69 71.09
-3 -4 0 1147.79 67.69
-3 -4 0 1101.29 57.89
3 4 0 1163.58 67.29
-4 -4 0 846.32 76.29
-4 -4 0 824.52 51.89
4 4 0 612.24 57.99
4 4 0 921.11 65.49
4 -5 0 878.61 62.79
4 -5 0 959.3 72.09
4 -5 0 944.21 71.99
3 -5 0 1801.72 87.39
3 -5 0 1802.62 91.09
3 -5 0 1778.62 87.79
2 -5 0 2452.45 108.49
2 -5 0 2485.95 109.79
2 -5 0 2405.16 107.39
1 -5 0 3762.92 156.18
1 -5 0 3502.35 151.28
1 -5 0 3503.45 150.88
0 -5 0 3516.25 143.99
0 -5 0 3357.96 149.69
-1 -5 0 4083.89 178.88
-1 -5 0 4208.78 184.38
-1 -5 0 4063.79 172.38
1 5 0 4111.39 177.88
-2 -5 0 2194.38 107.99
-2 -5 0 2253.27 98.79
-2 -5 0 2304.57 110.99
2 5 0 2174.38 105.79
-3 -5 0 1767.92 101.69
-3 -5 0 1870.21 99.19
-3 -5 0 1826.82 86.89
3 5 0 1906.31 96.69
-4 -5 0 1145.19 87.69
-4 -5 0 1002.2 61.39
4 5 0 1142.79 74.19
4 5 0 920.61 67.19
4 -6 0 631.74 53.99
4 -6 0 670.93 65.89
4 -6 0 706.53 65.79
3 -6 0 613.94 47.5
3 -6 0 690.13 51.19
3 -6 0 678.33 46.5
2 -6 0 1233.28 62.29
2 -6 0 1207.08 63.29
2 -6 0 1305.37 61.89
1 -6 0 2089.79 92.09
1 -6 0 2118.89 99.99
0 -6 0 1806.92 77.49
0 -6 0 1724.33 84.99
-1 -6 0 2239.08 113.39
-1 -6 0 2409.06 109.19
-1 -6 0 2309.37 100.19
1 6 0 2249.18 106.69
-2 -6 0 1022.8 53.19
-2 -6 0 1062.59 66.69
-2 -6 0 1113.59 67.69
2 6 0 999.5 60.89
-3 -6 0 1270.47 84.29
-3 -6 0 1296.37 79.99
-3 -6 0 1275.37 66.79
3 6 0 1283.97 76.89
-4 -6 0 686.53 79.29
-4 -6 0 686.43 50.69
4 6 0 763.52 65.29
4 -7 0 14.1 26.3
4 -7 0 29.8 35.1
4 -7 0 94.69 37.7
3 -7 0 83.99 25.8
3 -7 0 38.1 25.1
3 -7 0 19.1 19.8
2 -7 0 89.29 17.8
1 -7 0 243.98 25.6
1 -7 0 264.67 37.3
0 -7 0 22.1 8.6
0 -7 0 32.5 19.9
-1 -7 0 695.23 51.29
-1 -7 0 639.24 50.59
-1 -7 0 651.73 36.8
-2 -7 0 217.58 22.5
-2 -7 0 304.17 44.3
-2 -7 0 188.28 32.6
2 7 0 253.27 33.4
-3 -7 0 244.78 27.7
-3 -7 0 240.28 38.3
-3 -7 0 273.47 47.7
3 7 0 240.08 39
-4 -7 0 178.28 54.19
-4 -7 0 153.08 29.1
4 7 0 277.67 45.6
4 -8 0 257.97 38.5
4 -8 0 267.37 44.3
4 -8 0 220.88 44.9
3 -8 0 404.76 43.1
3 -8 0 414.76 46.1
3 -8 0 305.37 33.9
2 -8 0 411.76 38.7
2 -8 0 420.06 35.7
2 -8 0 514.55 51.09
1 -8 0 375.36 28.8
1 -8 0 444.26 50.89
0 -8 0 277.77 37.5
0 -8 0 179.08 18.2
-1 -8 0 500.55 49.6
-1 -8 0 516.05 33.9
-1 -8 0 545.55 51.59
-2 -8 0 50.99 16.3
-2 -8 0 36.2 24.2
-2 -8 0 98.09 34.1
2 8 0 81.79 28.1
-3 -8 0 307.07 51.59
-3 -8 0 228.68 39.6
-3 -8 0 253.47 30.3
3 8 0 369.36 46.6
3 -9 0 1153.48 81.79
3 -9 0 1168.58 69.89
3 -9 0 1240.18 74.09
3 -9 0 1190.18 74.29
2 -9 0 1058.29 58.49
2 -9 0 1040.2 77.79
2 -9 0 1073.19 60.69
1 -9 0 1352.86 66.19
1 -9 0 1361.66 67.99
1 -9 0 1394.76 86.79
0 -9 0 859.71 46.3
0 -9 0 900.31 61.49
-1 -9 0 1489.25 73.59
-1 -9 0 1468.75 88.89
-1 -9 0 1601.24 95.29
-2 -9 0 453.25 55.39
-2 -9 0 516.15 60.69
-2 -9 0 505.85 39.1
-3 -9 0 985.9 61.69
-3 -9 0 931.11 79.09
-3 -9 0 1032.1 87.99
3 -10 0 1246.68 90.29
3 -10 0 1172.68 72.99
3 -10 0 1205.58 72.39
2 -10 0 908.51 85.29
2 -10 0 953.3 58.09
2 -10 0 1189.68 60.99
2 -10 0 1150.88 62.19
1 -10 0 1724.73 84.29
1 -10 0 1862.21 101.29
1 -10 0 1693.53 82.89
0 -10 0 1345.27 67.29
0 -10 0 1346.77 90.89
0 -10 0 1386.46 81.89
-1 -10 0 1053.89 57.69
-1 -10 0 1092.19 79.69
-1 -10 0 1023.1 76.09
-2 -10 0 917.61 56.69
-2 -10 0 962.5 79.09
-2 -10 0 972.3 78.69
-3 -10 0 801.72 57.39
-3 -10 0 809.12 86.29
-3 -10 0 744.43 76.79
2 -11 0 529.75 77.79
2 -11 0 544.25 42.6
2 -11 0 626.84 51.79
2 -11 0 580.34 46.3
1 -11 0 420.36 56.99
1 -11 0 442.36 37.3
0 -11 0 960.7 80.59
0 -11 0 1021 55.49
0 -11 0 1029.6 71.99
-1 -11 0 530.55 41.7
-1 -11 0 541.25 61.39
-1 -11 0 542.65 62.09
-2 -11 0 765.72 76.39
-2 -11 0 727.43 51.19
-2 -11 0 675.63 71.59
1 -12 0 -1 26.9
1 -12 0 26.3 37.9
1 -12 0 33.5 19.3
0 -12 0 53.19 33
0 -12 0 152.78 23.9
0 -12 0 97.49 37.7
-1 -12 0 -0.8 18.5
-1 -12 0 27.6 28.9
-1 -12 0 53.19 37.5
-1 -12 1 503.05 64.39
-1 -12 1 535.55 67.49
-1 -12 1 591.84 44.9
0 -12 1 1209.58 62.99
0 -12 1 1126.69 81.49
0 -12 1 1074.59 89.39
1 -12 1 634.64 68.69
1 -12 1 595.44 46
1 -12 1 669.13 48.6
2 -12 1 798.52 55.19
2 -12 1 851.41 89.99
2 -12 1 750.92 51.59
-2 -11 1 622.94 74.89
-2 -11 1 660.03 49.7
-2 -11 1 751.42 72.99
-1 -11 1 633.44 68.69
-1 -11 1 734.63 47
-1 -11 1 670.03 69.29
0 -11 1 639.94 62.89
0 -11 1 659.33 43.4
1 -11 1 1014.4 74.99
1 -11 1 980 55.09
1 -11 1 914.11 56.29
2 -11 1 539.95 44.1
2 -11 1 666.33 46.8
2 -11 1 524.35 69.89
-3 -10 1 155.98 54.49
-3 -10 1 107.99 37.3
-3 -10 1 107.29 26.6
-2 -10 1 117.99 23.2
-2 -10 1 135.29 36
-2 -10 1 217.88 45.7
-1 -10 1 388.16 50.59
-1 -10 1 335.67 32.6
-1 -10 1 315.57 50.19
0 -10 1 181.68 35.8
0 -10 1 156.68 20.6
1 -10 1 539.25 59.79
1 -10 1 493.85 36.7
2 -10 1 126.19 48.8
2 -10 1 142.49 27.4
3 -10 1 574.84 67.19
3 -10 1 377.66 40
3 -10 1 457.65 51.19
3 9 -1 167.08 39.5
-3 -9 1 139.89 26.9
-3 -9 1 145.59 48.9
-3 -9 1 110.89 34.8
2 9 -1 372.16 47.3
-2 -9 1 226.08 26.3
-2 -9 1 175.18 36.6
-1 -9 1 144.49 32.5
-1 -9 1 120.29 19.3
-1 -9 1 178.28 37.7
0 -9 1 50.59 13.6
0 -9 1 86.09 29.1
1 -9 1 30.1 14.7
1 -9 1 80.39 38.2
1 -9 1 56.19 20.2
2 -9 1 98.89 20.2
2 -9 1 99.19 38.9
2 -9 1 93.59 25.9
3 -9 1 59.39 38.3
3 -9 1 16.3 22.5
3 -9 1 36.5 29.1
3 -9 1 41.3 28.1
4 8 -1 654.33 70.49
-4 -8 1 675.93 84.99
-4 -8 1 580.64 50.99
3 8 -1 1103.69 74.99
-3 -8 1 1043 62.09
-3 -8 1 1002.8 77.69
-3 -8 1 1027.5 83.89
2 8 -1 1024.5 67.39
-2 -8 1 996.4 72.49
-2 -8 1 1136.79 74.29
-2 -8 1 999.6 56.09
1 8 -1 1659.43 83.09
-1 -8 1 1587.24 92.79
-1 -8 1 1570.84 74.69
-1 -8 1 1561.04 88.79
0 -8 1 1401.16 76.29
0 -8 1 1408.36 65.39
1 -8 1 1335.27 60.79
1 -8 1 1280.17 59.19
1 -8 1 1000.1 76.39
2 -8 1 955.8 64.79
2 -8 1 927.81 53.99
2 -8 1 921.81 52.89
3 -8 1 539.75 49.7
3 -8 1 514.45 43.9
3 -8 1 478.45 48.3
4 -8 1 574.24 54.79
4 -8 1 408.16 46.5
4 -8 1 462.75 55.19
4 7 -1 807.52 70.29
-4 -7 1 735.43 84.29
-4 -7 1 668.23 52.49
3 7 -1 1700.63 93.89
-3 -7 1 1615.74 101.29
-3 -7 1 1636.74 97.09
-3 -7 1 1717.03 83.09
2 7 -1 1564.74 83.69
-2 -7 1 1592.24 90.39
-2 -7 1 1523.55 87.99
-2 -7 1 1561.64 74.29
1 7 -1 2417.86 112.89
-1 -7 1 2406.66 105.39
-1 -7 1 2338.07 115.89
-1 -7 1 2443.86 121.79
0 -7 1 3386.36 145.29
0 -7 1 3468.55 153.38
1 -7 1 1443.56 81.79
1 -7 1 1588.04 70.59
2 -7 1 3111.09 138.09
2 -7 1 3088.39 136.39
2 -7 1 3170.38 137.69
3 -7 1 1221.78 73.19
3 -7 1 1223.88 69.19
3 -7 1 1284.97 69.09
4 -7 1 1113.89 72.29
4 -7 1 1069.99 72.89
4 -7 1 1036.5 81.49
4 6 -1 520.75 58.69
-4 -6 1 538.35 66.49
-4 -6 1 456.75 43.1
3 6 -1 1422.86 80.09
-3 -6 1 1254.97 84.99
-3 -6 1 1269.47 78.89
-3 -6 1 1292.47 67.49
2 6 -1 1650.83 86.69
-2 -6 1 1686.03 77.99
-2 -6 1 1648.54 89.59
-2 -6 1 1755.42 91.59
1 6 -1 1146.19 62.99
-1 -6 1 1228.78 70.09
-1 -6 1 1312.67 68.29
-1 -6 1 1183.58 56.39
0 -6 1 2654.43 120.09
0 -6 1 2625.44 112.49
1 -6 1 2208.88 101.29
1 -6 1 2080.39 93.69
2 -6 1 2201.68 100.29
2 -6 1 2178.48 98.09
2 -6 1 2192.58 98.89
3 -6 1 1119.69 61.29
3 -6 1 1176.68 66.39
3 -6 1 1024.6 62.69
4 -6 1 1097.49 81.89
4 -6 1 1160.18 80.19
4 -6 1 1164.08 72.29
4 5 -1 38 32
-4 -5 1 39.5 41.3
-4 -5 1 14.2 21.6
3 5 -1 65.59 27.1
-3 -5 1 52.19 20.8
-3 -5 1 58.89 32.2
-3 -5 1 32.5 16.3
2 5 -1 247.98 30.9
-2 -5 1 263.67 22.8
-2 -5 1 230.78 31.2
-2 -5 1 315.47 38.2
1 5 -1 342.97 32.1
-1 -5 1 480.15 38.5
-1 -5 1 397.56 23.9
0 5 -1 402.16 28.4
0 -5 1 462.75 24.9
0 -5 1 491.45 28.6
0 -5 1 430.96 35.2
1 -5 1 398.46 25.8
1 -5 1 378.26 25.8
1 -5 1 399.96 33
2 -5 1 732.03 40.4
2 -5 1 711.53 42.3
2 -5 1 702.73 40.1
3 -5 1 331.97 33.6
3 -5 1 357.36 34.1
3 -5 1 362.56 40.2
4 -5 1 549.15 49.3
4 -5 1 617.54 58.89
4 -5 1 541.75 61.49
4 4 -1 304.57 42.5
4 4 -1 249.78 35.4
-4 -4 1 268.17 30
-4 -4 1 395.36 54.99
3 4 -1 345.87 36.4
3 4 -1 383.56 41.1
-3 -4 1 388.86 37.1
-3 -4 1 398.86 31.4
-3 -4 1 342.27 45.6
2 4 -1 365.56 33.3
-2 -4 1 401.66 26
-2 -4 1 386.16 33.4
-2 -4 1 414.06 37.4
1 4 -1 623.44 38.7
-1 -4 1 633.34 31.8
-1 -4 1 661.73 42.4
-1 -4 1 624.94 41.2
0 4 -1 323.97 22.2
0 -4 1 338.77 28.8
0 -4 1 361.06 19.1
1 -4 1 599.24 31.7
1 -4 1 565.04 31.4
2 -4 1 11.6 14.5
2 -4 1 12.6 14.2
2 -4 1 -4.1 10.8
3 -4 1 341.87 38.2
3 -4 1 330.97 31.9
4 -4 1 13.2 31
4 -4 1 62.69 24.4
5 3 -1 510.85 55.79
-5 -3 1 480.05 47.4
-5 -3 1 581.94 76.79
4 3 -1 995.6 67.09
4 3 -1 1021.2 68.69
-4 -3 1 1007.4 58.39
-4 -3 1 1045.9 82.29
3 3 -1 1760.52 88.69
3 3 -1 1757.32 85.59
-3 -3 1 1812.02 81.59
-3 -3 1 1673.33 93.59
2 3 -1 2230.58 102.49
-2 -3 1 2294.07 96.39
-2 -3 1 2230.18 102.59
-2 -3 1 2110.59 104.39
1 3 -1 3158.88 137.89
-1 -3 1 3170.48 138.29
-1 -3 1 3313.97 140.29
-1 -3 1 3183.58 133.49
0 3 -1 1647.74 69.59
0 -3 1 1681.53 67.59
0 -3 1 1617.54 68.09
0 -3 1 1431.06 72.09
1 -3 1 3654.23 149.19
1 -3 1 3528.55 149.79
1 -3 1 3547.65 149.49
-2 3 -1 1357.46 68.99
2 -3 1 1214.38 59.59
2 -3 1 1224.58 62.49
-3 3 -1 1617.04 78.29
3 -3 1 1742.93 84.89
3 -3 1 1678.33 80.09
-4 3 -1 396.16 37.3
4 -3 1 397.96 38.5
4 -3 1 456.95 46.4
5 -3 1 373.66 56.09
5 -3 1 406.66 46.6
5 2 -1 626.44 67.59
-5 -2 1 598.14 49.8
-5 -2 1 692.53 85.79
4 2 -1 1500.65 80.79
4 2 -1 1352.26 82.09
-4 -2 1 1373.66 72.49
-4 -2 1 1445.06 95.09
3 2 -1 2355.36 112.89
3 2 -1 2455.95 112.29
-3 -2 1 2464.15 119.69
-3 -2 1 2416.66 107.29
2 2 -1 2908.51 123.09
2 2 -1 2815.22 125.69
-2 -2 1 2715.43 127.69
-2 -2 1 2902.21 120.69
1 2 -1 5065.99 209.58
-1 -2 1 5049.79 209.78
-1 -2 1 5109.59 206.08
-1 -2 1 4833.42 209.78
0 2 -1 9999 392.26
0 2 -1 9764.22 391.56
0 -2 1 9644.33 391.76
0 -2 1 8947.91 390.36
-1 2 -1 5569.74 222.08
1 -2 1 4994.9 217.18
1 -2 1 5194.78 216.58
-2 2 -1 2864.91 128.99
-2 2 -1 2916.71 121.79
2 -2 1 2770.82 122.49
2 -2 1 2857.51 125.09
-3 2 -1 2369.36 105.69
3 -2 1 2389.06 106.89
3 -2 1 2365.36 111.49
-4 2 -1 1261.07 70.49
4 -2 1 1435.56 84.39
4 -2 1 1391.96 76.29
-5 2 -1 519.55 51.69
5 -2 1 749.62 58.99
5 -2 1 634.64 73.49
5 1 -1 332.37 38.6
5 1 -1 279.27 47.8
-5 -1 1 344.57 67.89
-5 -1 1 267.37 35.6
4 1 -1 1078.49 65.89
4 1 -1 1039.1 61.49
4 1 -1 1053.29 70.79
-4 -1 1 1043.5 81.49
-4 -1 1 993 57.79
3 1 -1 535.85 40.3
3 1 -1 557.14 40.6
3 1 -1 521.35 33.8
-3 -1 1 462.15 48.9
-3 -1 1 537.55 33.5
2 1 -1 3707.83 165.88
2 1 -1 3903.41 165.28
-2 -1 1 3861.01 169.78
-2 -1 1 4040.9 162.48
1 1 -1 1474.75 62.89
1 1 -1 1294.17 59.79
1 1 -1 1409.16 60.99
-1 -1 1 1467.55 64.49
-1 -1 1 1464.75 60.49
-1 -1 1 1485.75 59.59
-1 -1 1 1257.47 59.79
-1 1 -1 4461.55 184.18
-1 1 -1 4363.46 180.08
1 -1 1 4247.98 180.48
1 -1 1 4425.96 181.58
-2 1 -1 4231.88 190.48
-2 1 -1 4455.45 190.88
-2 1 -1 4626.44 184.98
2 -1 1 4454.85 187.88
2 -1 1 4334.27 185.08
-3 1 -1 2013.6 92.79
3 -1 1 2119.09 98.69
3 -1 1 2034.6 93.29
-4 1 -1 1160.78 64.49
4 -1 1 1257.77 78.59
4 -1 1 1130.19 66.39
-5 1 -1 542.55 49.4
5 -1 1 598.14 65.59
5 -1 1 619.74 57.69
5 0 -1 53.09 39.1
5 0 -1 78.59 29.4
-5 0 1 45.1 27.2
4 0 -1 460.95 42.4
4 0 -1 446.96 41.5
4 0 -1 418.46 49.4
-4 0 1 503.65 63.69
-4 0 1 377.96 36.7
3 0 -1 35.1 14.8
3 0 -1 36.4 19.2
3 0 -1 30.7 19.3
-3 0 1 29.2 26.4
-3 0 1 22.6 14.2
2 0 -1 1125.49 56.69
2 0 -1 1057.29 53.49
-2 0 1 1142.49 51.89
-2 0 1 1177.78 62.29
1 0 -1 203.38 15.8
1 0 -1 208.68 16.6
-1 0 1 205.38 19.6
-1 0 1 214.88 12.5
0 0 -1 -0.3 1.2
0 0 -1 0 0.7
0 0 -1 2.1 0.8
0 0 -1 0.1 0.5
0 0 -1 -0.2 0.3
0 0 1 0.4 0.7
0 0 1 -0.1 1.1
0 0 1 0.5 0.8
0 0 1 0.4 0.7
-1 0 -1 1761.62 71.49
-1 0 -1 1448.96 69.89
-1 0 -1 1570.94 66.79
1 0 1 1667.73 68.89
1 0 1 1420.96 67.19
-2 0 -1 136.79 24.9
-2 0 -1 118.39 18.9
-2 0 -1 120.19 14.9
2 0 1 96.99 13.7
2 0 1 116.39 18.7
2 0 1 76.09 15.8
-3 0 -1 715.93 54.49
-3 0 -1 789.72 42.1
3 0 1 686.73 43.2
3 0 1 747.63 48.3
3 0 1 693.53 41
-4 0 -1 437.26 61.29
-4 0 -1 377.16 37.1
4 0 1 404.76 44.7
4 0 1 437.46 40
4 0 1 408.76 52.59
-5 0 -1 336.67 39.1
5 0 1 275.27 47.1
5 0 1 300.77 39.1
5 -1 -1 457.45 46.1
5 -1 -1 366.76 53.29
-5 1 1 291.77 37.4
4 -1 -1 194.08 29.1
4 -1 -1 237.08 36.7
-4 1 1 214.18 27
3 -1 -1 673.73 41.9
3 -1 -1 642.04 39.8
3 -1 -1 636.34 45.1
-3 1 1 686.53 38.3
2 -1 -1 524.85 32.1
2 -1 -1 543.35 35.3
-2 1 1 553.24 30
-2 1 1 536.45 40.7
1 -1 -1 27.2 6.6
1 -1 -1 13.4 8.8
-1 1 1 38.4 6.5
-1 -1 -1 1544.85 68.29
-1 -1 -1 1494.45 64.39
-1 -1 -1 1611.74 69.39
1 1 1 1298.87 65.79
1 1 1 1587.14 65.99
-2 -1 -1 160.58 24.1
-2 -1 -1 157.08 25.6
-2 -1 -1 138.99 16
2 1 1 117.19 19.5
2 1 1 86.69 17
-3 -1 -1 179.68 21
-3 -1 -1 217.48 35.7
3 1 1 191.58 26.1
3 1 1 147.79 23.3
-4 -1 -1 29 21.8
-4 -1 -1 61.69 41.6
4 1 1 20.2 20.3
4 1 1 50.49 25.7
4 1 1 54.79 29.7
-5 -1 -1 12.8 27.1
5 1 1 -17.8 35
5 -2 -1 720.23 79.09
5 -2 -1 820.82 65.69
4 -2 -1 1195.58 77.29
4 -2 -1 1285.87 69.99
-4 2 1 1222.58 64.29
3 -2 -1 1830.82 87.29
3 -2 -1 1907.31 92.09
-3 2 1 1896.01 85.09
2 -2 -1 3181.68 134.99
2 -2 -1 3124.19 136.89
1 -2 -1 4940.41 199.48
1 -2 -1 4827.32 199.98
1 -2 -1 4729.63 200.38
0 -2 -1 3299.97 135.59
-1 -2 -1 3337.97 139.09
-1 -2 -1 3194.38 132.39
-1 -2 -1 3126.09 135.69
1 2 1 3051.89 135.09
-2 -2 -1 1332.57 66.99
-2 -2 -1 1279.37 59.29
-2 -2 -1 1284.57 67.29
2 2 1 1328.47 62.99
2 2 1 1205.48 63.39
-3 -2 -1 1746.43 93.49
-3 -2 -1 1778.92 91.19
-3 -2 -1 1722.73 81.49
3 2 1 1756.22 86.39
3 2 1 1730.63 86.09
-4 -2 -1 614.04 46.6
-4 -2 -1 855.51 71.49
4 2 1 656.53 55.69
4 2 1 742.63 55.09
-5 -2 -1 449.36 70.49
-5 -2 -1 252.67 35.9
5 2 1 307.87 49.7
5 -3 -1 807.82 67.49
5 -3 -1 863.91 87.39
4 -3 -1 991.8 62.59
4 -3 -1 1006.2 72.09
3 -3 -1 2239.48 104.59
3 -3 -1 2349.76 109.39
2 -3 -1 2468.15 111.09
2 -3 -1 2525.05 108.99
1 -3 -1 5851.41 231.08
1 -3 -1 5531.25 230.88
1 -3 -1 5373.36 231.28
0 -3 -1 4907.91 193.48
0 -3 -1 4502.05 196.68
-1 -3 -1 4687.23 192.48
-1 -3 -1 4751.82 200.88
-1 -3 -1 4497.15 196.48
1 3 1 4650.03 196.28
-2 -3 -1 4197.88 174.18
-2 -3 -1 4071.39 180.88
-2 -3 -1 4260.47 183.28
2 3 1 3987.1 178.58
-3 -3 -1 1349.66 79.19
-3 -3 -1 1357.86 66.49
-3 -3 -1 1354.46 76.39
3 3 1 1340.37 72.89
3 3 1 1336.87 69.99
-4 -3 -1 1330.97 74.29
-4 -3 -1 1447.56 95.79
4 3 1 1485.65 81.59
4 3 1 1419.86 81.49
4 -4 -1 343.87 44.3
4 -4 -1 327.27 36.3
3 -4 -1 1313.27 66.09
3 -4 -1 1240.68 71.39
2 -4 -1 977.1 49.8
2 -4 -1 1003.8 52.59
1 -4 -1 1510.75 68.09
1 -4 -1 1519.05 67.99
1 -4 -1 1549.74 68.89
0 -4 -1 3297.77 132.79
0 -4 -1 3066.89 137.29
-1 -4 -1 1979.6 94.69
-1 -4 -1 1903.21 84.09
-1 -4 -1 1963.7 90.39
1 4 1 1931.51 89.29
-2 -4 -1 2271.07 98.29
-2 -4 -1 2106.69 105.79
-2 -4 -1 2314.77 109.59
2 4 1 2240.98 103.99
-3 -4 -1 1057.49 55.19
-3 -4 -1 1068.29 66.39
-3 -4 -1 981 69.39
3 4 1 1073.09 63.29
3 4 1 975.7 58.69
-4 -4 -1 1081.09 83.99
-4 -4 -1 966.5 60.39
4 4 1 1098.39 70.39
4 4 1 1024.7 67.29
4 -5 -1 1.5 30.7
4 -5 -1 14 24.1
3 -5 -1 68.59 19.8
3 -5 -1 49.1 23.9
2 -5 -1 106.89 18.4
2 -5 -1 104.59 17.1
2 -5 -1 115.39 18.6
1 -5 -1 362.06 31.8
1 -5 -1 307.17 23.5
0 -5 -1 62.49 9.4
0 -5 -1 72.19 19.2
-1 -5 -1 398.66 34.8
-1 -5 -1 418.46 25.3
-1 -5 -1 507.55 36.4
1 5 1 404.96 31.5
-2 -5 -1 367.26 37.6
-2 -5 -1 364.56 39.3
-2 -5 -1 330.67 26.7
2 5 1 381.76 34.7
-3 -5 -1 376.96 51.69
-3 -5 -1 304.17 31.8
-3 -5 -1 300.97 41.1
3 5 1 338.97 41.6
-4 -5 -1 127.59 45.5
-4 -5 -1 117.09 25.9
4 5 1 120.59 35.2
4 -6 -1 337.57 48
4 -6 -1 483.85 49.2
4 -6 -1 558.24 52.89
3 -6 -1 220.88 31.6
3 -6 -1 236.88 27.8
3 -6 -1 253.17 33
2 -6 -1 886.61 47.2
2 -6 -1 819.72 48.9
2 -6 -1 844.82 47.5
1 -6 -1 229.38 30.5
0 -6 -1 517.75 27.4
0 -6 -1 511.25 37.7
-1 -6 -1 164.48 26
-1 -6 -1 210.48 29
-1 -6 -1 156.78 16
-2 -6 -1 192.18 20.1
-2 -6 -1 255.97 36
-2 -6 -1 194.68 30.8
2 6 1 203.48 29
-3 -6 -1 40.8 18
-3 -6 -1 50.89 34.6
-3 -6 -1 39 24
3 6 1 32.8 26.5
-4 -6 -1 30.8 22.9
-4 -6 -1 31.6 43.7
4 6 1 68.19 34.5
4 -7 -1 916.41 75.19
4 -7 -1 971.9 74.59
4 -7 -1 948.31 67.69
3 -7 -1 930.61 63.69
3 -7 -1 921.31 57.49
3 -7 -1 972.6 59.49
2 -7 -1 1558.44 75.89
2 -7 -1 1590.24 76.19
2 -7 -1 1622.34 83.29
2 -7 -1 1583.04 76.49
2 -7 -1 1570.34 77.99
1 -7 -1 1703.83 72.69
1 -7 -1 1469.05 85.99
0 -7 -1 1531.45 67.79
0 -7 -1 1472.45 76.29
-1 -7 -1 1957.3 87.79
-1 -7 -1 1980.4 98.09
-1 -7 -1 1912.91 103.29
-2 -7 -1 631.84 55.09
-2 -7 -1 565.94 38.7
-2 -7 -1 640.14 55.19
-3 -7 -1 1056.39 59.39
-3 -7 -1 1012.3 74.49
-3 -7 -1 1084.69 79.79
3 7 1 1000.9 71.79
-4 -7 -1 301.67 57.29
-4 -7 -1 216.18 32
4 7 1 291.77 47.3
4 -8 -1 576.74 57.09
4 -8 -1 561.34 65.49
4 -8 -1 569.04 60.19
3 -8 -1 1622.14 85.79
3 -8 -1 1627.94 89.49
3 -8 -1 1588.64 83.79
2 -8 -1 1034.3 57.99
2 -8 -1 1020.5 55.29
2 -8 -1 1092.19 69.19
2 -8 -1 945.11 54.69
1 -8 -1 3166.18 131.29
1 -8 -1 2890.71 145.19
0 -8 -1 928.41 64.89
0 -8 -1 918.71 58.09
0 -8 -1 853.31 45.1
-1 -8 -1 2807.12 144.59
-1 -8 -1 2903.01 137.69
-1 -8 -1 2936.91 126.69
-2 -8 -1 884.81 67.19
-2 -8 -1 803.42 67.09
-2 -8 -1 837.62 49.2
-3 -8 -1 1340.27 94.49
-3 -8 -1 1364.36 91.39
-3 -8 -1 1335.77 72.79
3 -9 -1 721.23 58.49
3 -9 -1 633.74 52.69
3 -9 -1 745.33 57.89
3 -9 -1 768.42 68.29
2 -9 -1 450.55 35.7
2 -9 -1 480.15 61.09
2 -9 -1 524.85 42.4
1 -9 -1 1376.76 67.59
1 -9 -1 1427.86 86.19
0 -9 -1 746.53 62.09
0 -9 -1 700.63 41.8
0 -9 -1 827.42 57.09
-1 -9 -1 1528.05 89.99
-1 -9 -1 1627.14 97.19
-1 -9 -1 1604.74 76.79
-2 -9 -1 548.85 60.69
-2 -9 -1 610.84 62.69
-2 -9 -1 535.55 40.8
-3 -9 -1 819.42 80.59
-3 -9 -1 836.62 55.89
-3 -9 -1 773.02 73.49
3 -10 -1 -1.8 29.2
3 -10 -1 -7.7 23
3 -10 -1 50.49 42.8
2 -10 -1 14.4 18.3
2 -10 -1 22.5 24
2 -10 -1 9.6 43.5
1 -10 -1 35 17.4
1 -10 -1 29.8 31.5
0 -10 -1 118.59 33.5
0 -10 -1 84.39 17.9
0 -10 -1 152.38 33.7
-1 -10 -1 206.98 38.9
-1 -10 -1 143.79 35.5
-1 -10 -1 166.18 23
-2 -10 -1 70.29 19.8
-2 -10 -1 81.79 38.2
-2 -10 -1 60.59 31
2 -11 -1 206.48 54.99
2 -11 -1 169.28 29.7
2 -11 -1 183.08 26.1
1 -11 -1 379.66 54.09
1 -11 -1 298.57 28.7
1 -11 -1 216.88 42.6
0 -11 -1 311.07 52.09
0 -11 -1 331.27 44.9
0 -11 -1 313.17 32.5
-1 -11 -1 90.89 32.9
-1 -11 -1 75.19 20
-1 -11 -1 104.39 36.4
-2 -11 -1 164.38 26.4
-2 -11 -1 142.89 40.1
-2 -11 -1 151.68 44.5
1 -12 -1 470.55 39.7
1 -12 -1 493.75 61.39
1 -12 -1 508.45 66.39
0 -12 -1 755.32 73.89
0 -12 -1 767.92 67.19
0 -12 -1 713.93 48.2
-1 -12 -1 479.85 64.49
-1 -12 -1 480.45 61.69
-1 -12 -1 463.05 42
0 -13 2 748.43 76.09
0 -13 2 827.82 52.39
0 -13 2 751.32 79.39
-2 -12 2 111.19 38.8
-2 -12 2 127.49 49.99
-2 -12 2 121.69 27.4
-1 -12 2 30.8 40.9
-1 -12 2 45.1 31.7
-1 -12 2 66.69 21.3
0 -12 2 212.48 43.3
0 -12 2 159.28 25.2
1 -12 2 153.98 44.4
1 -12 2 169.08 26
1 -12 2 135.79 28.1
2 -12 2 139.89 31.3
2 -12 2 162.98 28.1
2 -12 2 183.18 59.89
-2 -11 2 172.68 41
-2 -11 2 173.08 27.7
-2 -11 2 197.38 51.29
-1 -11 2 -13.6 35.4
-1 -11 2 -12.4 25.5
-1 -11 2 37.4 18.3
0 -11 2 208.68 39.8
0 -11 2 166.68 23.4
1 -11 2 20.7 16.8
1 -11 2 43.5 37.1
1 -11 2 15.8 22.2
2 -11 2 41.8 50.69
2 -11 2 84.59 26.9
2 -11 2 34.7 20.8
3 10 -2 532.55 63.39
-3 -10 2 588.04 83.09
-3 -10 2 497.55 73.49
-3 -10 2 510.25 49.7
2 10 -2 1257.37 79.29
-2 -10 2 1168.08 85.29
-2 -10 2 1105.29 88.69
-2 -10 2 1093.29 64.69
-1 -10 2 771.32 67.49
-1 -10 2 688.33 67.19
-1 -10 2 645.04 44.7
0 -10 2 1289.57 80.29
0 -10 2 1294.27 64.29
1 -10 2 677.23 63.79
1 -10 2 553.34 41.9
1 -10 2 551.94 39.1
2 -10 2 608.34 43.3
2 -10 2 504.25 70.89
2 -10 2 612.04 46
3 -10 2 421.96 46.7
3 -10 2 483.45 53.29
3 -10 2 562.14 67.59
3 9 -2 996.2 74.59
-3 -9 2 915.81 76.09
-3 -9 2 995.7 89.69
-3 -9 2 902.01 60.49
2 9 -2 1409.56 83.09
-2 -9 2 1275.57 88.99
-2 -9 2 1372.56 70.49
-2 -9 2 1327.47 88.29
1 9 -2 1789.42 89.89
-1 -9 2 1527.85 95.29
-1 -9 2 1685.43 100.39
-1 -9 2 1700.63 79.39
0 -9 2 2042.9 104.19
0 -9 2 2010.2 91.49
1 -9 2 1614.94 75.99
1 -9 2 1584.64 77.39
1 -9 2 1611.44 95.69
2 -9 2 1735.23 100.79
2 -9 2 1858.21 86.49
2 -9 2 1735.93 87.09
3 -9 2 1073.99 76.39
3 -9 2 1067.09 66.89
3 -9 2 1006.4 69.49
3 -9 2 1003.7 64.19
4 8 -2 384.76 52.09
-4 -8 2 313.67 62.09
-4 -8 2 299.57 35.9
3 8 -2 866.51 66.89
-3 -8 2 760.62 78.69
-3 -8 2 809.32 67.59
-3 -8 2 866.31 54.79
2 8 -2 1123.99 68.59
-2 -8 2 1015.8 74.49
-2 -8 2 1063.29 73.19
-2 -8 2 1058.89 57.39
1 8 -2 907.01 56.99
-1 -8 2 945.31 47.7
-1 -8 2 856.01 64.49
0 -8 2 1491.65 70.99
0 -8 2 1543.35 82.29
0 -8 2 1620.84 74.39
1 -8 2 1543.75 66.79
1 -8 2 1178.68 81.99
2 -8 2 1337.77 67.29
2 -8 2 1287.67 77.19
2 -8 2 1351.06 67.89
3 -8 2 1065.59 64.49
3 -8 2 1074.49 67.59
3 -8 2 1089.79 65.09
4 -8 2 700.23 71.79
4 -8 2 680.33 60.79
4 -8 2 688.83 68.69
4 7 -2 84.29 36.6
-4 -7 2 63.39 47.9
-4 -7 2 10.2 23.7
3 7 -2 23.2 28.1
-3 -7 2 16 19.3
-3 -7 2 60.19 38.8
-3 -7 2 -1.7 21.8
2 7 -2 468.35 45.1
-2 -7 2 485.25 50.89
-2 -7 2 457.55 34
-2 -7 2 453.25 45.9
1 7 -2 118.19 22.7
-1 -7 2 129.89 28.6
-1 -7 2 131.89 15.2
0 -7 2 628.34 36.8
0 -7 2 552.14 31.9
0 -7 2 563.34 43.8
1 -7 2 217.78 21.8
1 -7 2 223.38 23.3
1 -7 2 218.78 33.6
2 -7 2 270.57 26.8
2 -7 2 232.28 24.3
3 -7 2 520.95 43.5
3 -7 2 462.45 47.4
3 -7 2 499.35 42.1
4 -7 2 235.28 38.6
4 -7 2 127.19 31.8
4 -7 2 116.19 39.2
4 6 -2 271.17 45.7
-4 -6 2 216.28 29.1
-4 -6 2 259.37 54.29
3 6 -2 710.93 56.19
-3 -6 2 624.34 52.79
-3 -6 2 731.03 64.09
-3 -6 2 642.64 43.7
2 6 -2 231.18 30.4
-2 -6 2 265.47 36
-2 -6 2 242.08 24.4
-2 -6 2 258.37 34.8
1 6 -2 495.15 38.1
-1 -6 2 650.83 45.6
-1 -6 2 527.65 30.2
0 6 -2 378.06 28.2
0 -6 2 439.96 36
0 -6 2 389.16 24.1
1 -6 2 242.08 22.4
1 -6 2 226.98 21.8
1 -6 2 243.88 31.5
2 -6 2 78.29 17.8
2 -6 2 96.49 17.8
2 -6 2 31.7 15.4
3 -6 2 250.17 31.6
3 -6 2 257.97 31.1
3 -6 2 163.18 26.1
4 -6 2 54.19 35.7
4 -6 2 26.3 33.7
4 -6 2 39.9 26.8
4 5 -2 538.95 52.29
4 5 -2 709.53 65.29
-4 -5 2 736.53 73.69
-4 -5 2 636.34 46.8
3 5 -2 1819.92 93.19
-3 -5 2 1739.03 98.89
-3 -5 2 1814.92 83.19
-3 -5 2 1708.93 91.59
2 5 -2 1732.93 88.39
-2 -5 2 1864.51 91.59
-2 -5 2 1863.11 81.29
-2 -5 2 1772.22 91.69
1 5 -2 3428.96 150.88
-1 -5 2 3487.95 153.08
-1 -5 2 3441.16 145.09
0 5 -2 1024.3 51.89
0 -5 2 1099.29 48.8
0 -5 2 1062.59 57.49
0 -5 2 1083.19 50.89
1 -5 2 4445.66 190.68
1 -5 2 4461.85 186.78
1 -5 2 4476.15 186.18
2 -5 2 756.42 43.3
2 -5 2 787.12 42.8
2 -5 2 855.91 45.9
3 -5 2 1722.93 86.89
3 -5 2 1706.23 81.79
3 -5 2 1592.24 82.49
4 -5 2 498.75 49.8
4 -5 2 425.36 49.4
4 -5 2 366.66 40.2
4 4 -2 1013.7 67.99
4 4 -2 841.22 64.69
-4 -4 2 982 83.09
-4 -4 2 978.7 56.39
3 4 -2 2500.75 118.69
-3 -4 2 2342.57 121.89
-3 -4 2 2519.75 109.69
2 4 -2 1576.24 78.89
-2 -4 2 1628.54 71.29
-2 -4 2 1624.24 79.09
-2 -4 2 1505.65 80.29
1 4 -2 6111.59 254.27
-1 -4 2 5970.2 248.48
-1 -4 2 6013.1 254.27
0 4 -2 2103.39 91.79
0 4 -2 2198.88 93.49
0 -4 2 2030.9 95.19
0 -4 2 2097.89 89.89
1 -4 2 6185.88 250.87
1 -4 2 5935.91 250.07
-2 4 -2 1683.93 85.99
2 -4 2 1578.04 75.79
2 -4 2 1502.55 72.69
2 -4 2 1644.74 73.69
3 -4 2 2305.87 111.29
3 -4 2 2435.56 115.69
3 -4 2 2592.94 111.59
4 -4 2 920.31 63.49
4 -4 2 976.6 73.59
4 -4 2 1039.4 70.09
5 3 -2 343.77 51.49
-5 -3 2 585.34 76.69
4 3 -2 427.86 48.5
4 3 -2 502.95 51.49
-4 -3 2 423.26 37.6
-4 -3 2 469.25 65.29
3 3 -2 1725.33 82.99
3 3 -2 1654.83 85.69
-3 -3 2 1682.13 77.89
-3 -3 2 1620.14 90.79
2 3 -2 1164.18 62.29
-2 -3 2 1234.88 55.39
-2 -3 2 1221.38 65.79
-2 -3 2 1166.68 56.39
1 3 -2 3502.15 154.38
1 3 -2 3688.53 156.28
-1 -3 2 3746.13 151.48
-1 -3 2 3666.03 156.38
-1 -3 2 3671.03 152.08
0 3 -2 1847.32 73.89
0 3 -2 1711.33 72.59
0 -3 2 1615.94 71.09
0 -3 2 1505.25 75.39
-1 3 -2 3592.94 147.69
-1 3 -2 3245.18 138.69
1 -3 2 3259.77 139.29
1 -3 2 3108.99 137.89
1 -3 2 3347.36 138.79
-2 3 -2 2345.57 109.99
-2 3 -2 2350.46 99.69
2 -3 2 2246.58 99.99
2 -3 2 2179.38 102.59
-3 3 -2 1675.23 80.29
3 -3 2 1690.53 80.99
3 -3 2 1759.62 86.19
-4 3 -2 887.81 55.99
4 -3 2 933.41 71.29
4 -3 2 1012.7 60.39
5 -3 2 583.54 63.99
5 -3 2 570.14 57.89
5 2 -2 -10.4 36.6
-5 -2 2 35.6 51.09
4 2 -2 16.4 28
4 2 -2 10.4 26.9
-4 -2 2 15.9 20.3
-4 -2 2 58.69 41
3 2 -2 97.29 22
3 2 -2 100.99 24.7
-3 -2 2 121.49 18
-3 -2 2 132.29 31.6
2 2 -2 151.68 19.2
2 2 -2 117.09 20.4
-2 -2 2 156.78 24.6
-2 -2 2 146.89 14.7
-2 -2 2 183.38 19.6
1 2 -2 219.58 20.4
1 2 -2 234.48 16.7
-1 -2 2 268.07 16.7
-1 -2 2 212.88 23.2
-1 -2 2 253.37 13.8
0 2 -2 137.69 16.9
0 2 -2 116.29 12.4
0 2 -2 139.89 12.4
0 -2 2 159.68 11.9
0 -2 2 107.59 12.5
0 -2 2 131.59 10.9
0 -2 2 129.39 15.6
-1 2 -2 1207.58 50.79
-1 2 -2 1175.28 57.79
1 -2 2 1106.69 52.49
1 -2 2 1070.79 50.39
1 -2 2 1169.88 51.29
-2 2 -2 391.86 25.8
-2 2 -2 333.97 35.2
2 -2 2 322.57 31.4
2 -2 2 375.66 25.7
-3 2 -2 331.97 29.2
-3 2 -2 270.47 37.4
3 -2 2 305.27 28.7
3 -2 2 342.97 36.2
-4 2 -2 405.16 38.9
4 -2 2 443.36 54.99
4 -2 2 515.95 41.5
-5 2 -2 115.09 34.4
5 -2 2 166.28 45.1
5 -2 2 156.38 34.3
5 1 -2 492.35 49.99
5 1 -2 323.07 53.79
-5 -1 2 411.26 69.79
4 1 -2 258.37 37.6
4 1 -2 272.27 36.6
4 1 -2 253.47 30.3
-4 -1 2 301.37 51.29
-4 -1 2 223.98 26.5
3 1 -2 697.43 45
3 1 -2 632.14 44.7
3 1 -2 641.14 39.3
-3 -1 2 629.94 37.4
-3 -1 2 630.64 54.09
2 1 -2 511.35 34.4
2 1 -2 521.75 36.2
-2 -1 2 535.85 28.8
-2 -1 2 512.45 41.2
1 1 -2 32.1 8.6
1 1 -2 29.6 9.8
1 1 -2 23.8 5.8
-1 -1 2 34.4 13.1
-1 -1 2 38.7 9.3
0 1 -2 985.4 42.6
0 1 -2 1101.99 43.3
0 -1 2 916.21 42.7
0 -1 2 1094.99 42.3
0 -1 2 919.11 42.3
-1 1 -2 1652.83 73.69
-1 1 -2 1616.84 68.09
1 -1 2 1616.84 70.29
1 -1 2 1494.65 68.29
-2 1 -2 110.89 15.1
-2 1 -2 121.29 20.6
-2 1 -2 157.08 25.9
2 -1 2 93.89 14.1
2 -1 2 97.29 19.3
-3 1 -2 126.69 26.2
-3 1 -2 208.58 22.6
3 -1 2 183.38 26.4
3 -1 2 166.48 19.9
-4 1 -2 44.2 23.4
4 -1 2 19 20.9
4 -1 2 4.5 28.4
-5 1 -2 -6.6 26.5
5 -1 2 2.8 28.5
5 -1 2 -38.6 36.5
5 0 -2 1073.19 70.59
5 0 -2 884.71 82.99
4 0 -2 1336.77 73.69
4 0 -2 1322.37 81.49
4 0 -2 1340.07 75.09
-4 0 2 1338.57 68.39
-4 0 2 1394.26 92.19
3 0 -2 1551.54 77.89
3 0 -2 1524.85 76.59
3 0 -2 1560.14 73.39
-3 0 2 1497.35 84.09
-3 0 2 1512.85 70.29
2 0 -2 3638.04 157.08
2 0 -2 3616.64 157.28
-2 0 2 3785.22 161.38
-2 0 2 3637.94 153.08
1 0 -2 2403.86 99.29
1 0 -2 2302.67 99.49
-1 0 2 2328.27 100.69
0 0 -2 3465.35 154.98
0 0 -2 4081.09 154.68
0 0 2 3395.86 155.28
0 0 2 3955.1 157.48
0 0 2 4029.9 154.68
-1 0 -2 951 42.4
-1 0 -2 893.31 41.3
-1 0 -2 892.41 45.7
-1 0 -2 1060.59 48.5
1 0 2 990.2 44.6
-2 0 -2 2859.01 126.09
-2 0 -2 2769.62 117.89
-2 0 -2 2572.44 123.69
2 0 2 2850.91 121.29
2 0 2 2687.73 117.09
-3 0 -2 1596.44 74.59
-3 0 -2 1557.84 85.39
-3 0 -2 1505.85 83.99
3 0 2 1584.84 73.49
3 0 2 1615.34 79.79
3 0 2 1546.35 74.89
-4 0 -2 662.23 70.79
-4 0 -2 642.24 46.5
4 0 2 707.03 48.4
4 0 2 691.33 58.29
-5 0 -2 404.36 41.8
5 0 2 412.06 53.29
5 0 2 408.06 43.1
5 -1 -2 781.22 76.99
5 -1 -2 757.72 63.19
4 -1 -2 1564.24 79.69
4 -1 -2 1445.16 88.29
4 -1 -2 1501.05 77.89
-4 1 2 1373.16 72.49
3 -1 -2 2283.07 102.09
3 -1 -2 2305.57 103.49
3 -1 -2 2171.88 105.69
-3 1 2 2207.88 98.49
2 -1 -2 3818.32 166.78
2 -1 -2 3965.3 168.28
-2 1 2 4015.1 163.78
1 -1 -2 6935.01 277.67
1 -1 -2 6813.82 275.77
1 -1 -2 6476.55 276.97
0 -1 -2 4496.25 184.78
0 -1 -2 4780.82 187.88
0 -1 -2 4491.95 182.98
0 1 2 4157.78 182.88
-1 -1 -2 7732.93 316.27
-1 -1 -2 8087.89 320.17
-1 -1 -2 7851.81 313.77
1 1 2 6814.22 314.67
1 1 2 7794.42 314.37
-2 -1 -2 3498.55 143.89
-2 -1 -2 3626.74 152.88
-2 -1 -2 3261.17 149.49
2 1 2 3036 144.89
2 1 2 3501.35 146.29
-3 -1 -2 2162.18 94.89
-3 -1 -2 2006.9 104.69
-3 -1 -2 2099.09 106.09
3 1 2 2037.3 98.49
3 1 2 2044 96.59
-4 -1 -2 1297.87 90.29
-4 -1 -2 1158.48 66.99
4 1 2 1256.77 68.49
4 1 2 1199.28 69.29
4 1 2 1175.58 76.29
-5 -1 -2 874.51 60.39
5 1 2 835.72 78.39
5 -2 -2 384.66 45.6
5 -2 -2 383.36 55.29
4 -2 -2 616.04 48.5
4 -2 -2 658.73 57.59
-4 2 2 496.85 39.6
3 -2 -2 1070.39 57.49
3 -2 -2 1182.58 62.89
3 -2 -2 1136.49 58.89
-3 2 2 1034.8 53.79
2 -2 -2 1110.19 55.09
2 -2 -2 1189.18 56.69
2 -2 -2 1196.48 58.99
1 -2 -2 2744.03 115.59
1 -2 -2 2734.33 116.09
1 -2 -2 2724.93 114.79
0 -2 -2 3868.61 162.08
0 -2 -2 4032.8 168.48
-1 -2 -2 3650.03 153.98
-1 -2 -2 3460.35 148.99
-1 -2 -2 3616.84 146.09
1 2 2 3286.17 148.29
-2 -2 -2 2212.08 104.99
-2 -2 -2 2373.66 107.89
-2 -2 -2 2264.67 98.19
2 2 2 2074.49 100.79
2 2 2 2335.37 100.79
-3 -2 -2 1757.52 92.99
-3 -2 -2 1760.22 81.49
-3 -2 -2 1694.63 93.39
3 2 2 1759.62 85.49
3 2 2 1696.63 84.99
-4 -2 -2 1085.99 82.89
-4 -2 -2 1046.5 60.49
4 2 2 1102.89 66.49
4 2 2 976.4 69.39
-5 -2 -2 491.85 45.6
-5 -2 -2 630.44 79.09
5 2 2 428.06 53.29
5 -3 -2 18 41.6
5 -3 -2 72.59 30.1
4 -3 -2 30.5 29.2
4 -3 -2 -24.9 21.5
3 -3 -2 71.99 22.6
3 -3 -2 81.09 18.1
3 -3 -2 55.09 19.2
2 -3 -2 192.78 18.9
2 -3 -2 219.08 26.5
2 -3 -2 167.38 19.1
1 -3 -2 6.1 10.7
1 -3 -2 24 9.4
1 -3 -2 10.2 10.6
0 -3 -2 276.57 23.3
0 -3 -2 247.38 14.3
-1 -3 -2 20.2 8
-1 -3 -2 15.8 16.4
-1 -3 -2 11.4 11.8
-2 -3 -2 690.23 46.8
-2 -3 -2 740.43 37.6
-2 -3 -2 652.23 47
2 3 2 683.83 42.3
2 3 2 729.93 40
-3 -3 -2 348.37 46.6
-3 -3 -2 318.17 40.2
-3 -3 -2 388.16 31.3
3 3 2 362.36 36.7
3 3 2 334.27 37.7
-4 -3 -2 157.68 45.5
-4 -3 -2 106.69 24.5
4 3 2 113.69 30.7
4 3 2 162.28 32.8
4 -4 -2 490.65 54.89
4 -4 -2 499.75 48.1
3 -4 -2 635.14 42.7
3 -4 -2 660.13 49.1
2 -4 -2 287.47 23.2
2 -4 -2 291.07 28.5
2 -4 -2 311.27 25.1
2 -4 -2 306.57 20.5
1 -4 -2 795.32 39.5
1 -4 -2 783.42 40.5
1 -4 -2 789.02 39.6
0 -4 -2 411.76 32.6
0 -4 -2 411.76 21.8
0 -4 -2 414.06 30.2
-1 -4 -2 315.07 30.1
-1 -4 -2 298.07 30.1
-1 -4 -2 282.07 19.8
-2 -4 -2 782.42 51.39
-2 -4 -2 777.72 41.4
-2 -4 -2 806.12 52.99
2 4 2 784.92 47.4
-3 -4 -2 12.9 29.7
-3 -4 -2 21.3 21.1
-3 -4 -2 -3.2 15.2
3 4 2 11.1 19.5
3 4 2 34.1 22.6
-4 -4 -2 278.27 50.39
-4 -4 -2 185.28 29.1
4 4 2 166.28 31.6
4 4 2 279.77 39.8
4 -5 -2 1161.88 72.29
4 -5 -2 1158.58 79.39
3 -5 -2 1477.05 78.79
3 -5 -2 1405.56 73.79
2 -5 -2 2730.73 118.09
2 -5 -2 2815.32 120.69
2 -5 -2 2735.43 118.99
2 -5 -2 2477.25 117.19
2 -5 -2 2710.53 117.89
1 -5 -2 1882.11 87.99
0 -5 -2 3294.97 141.39
0 -5 -2 3376.56 146.69
0 -5 -2 3459.35 154.98
-1 -5 -2 1594.24 83.09
-1 -5 -2 1548.35 76.49
-1 -5 -2 1534.45 69.69
-2 -5 -2 2217.78 110.79
-2 -5 -2 2173.78 96.09
-2 -5 -2 2043.5 104.59
2 5 2 2152.38 102.89
-3 -5 -2 527.75 40.8
-3 -5 -2 615.44 57.89
-3 -5 -2 628.14 54.39
3 5 2 662.23 53.09
-4 -5 -2 797.02 55.89
-4 -5 -2 904.71 80.89
4 5 2 960.9 69.09
4 -6 -2 1103.89 68.69
4 -6 -2 952.8 77.69
4 -6 -2 1063.09 72.29
3 -6 -2 1168.18 64.99
3 -6 -2 1131.39 65.29
3 -6 -2 1157.38 68.89
2 -6 -2 2389.26 108.19
2 -6 -2 2421.66 110.59
2 -6 -2 2465.35 108.89
2 -6 -2 2401.76 108.69
1 -6 -2 2302.17 99.19
1 -6 -2 2286.77 108.19
0 -6 -2 2708.03 130.79
0 -6 -2 2744.43 115.89
0 -6 -2 2707.93 122.19
-1 -6 -2 2425.86 106.09
-1 -6 -2 2404.66 120.99
-1 -6 -2 2472.45 113.39
-2 -6 -2 2159.68 112.09
-2 -6 -2 2132.89 95.59
-2 -6 -2 2013 105.79
-3 -6 -2 1281.47 68.59
-3 -6 -2 1335.87 84.89
-3 -6 -2 1250.67 85.19
3 6 2 1446.16 80.19
-4 -6 -2 975.4 83.99
-4 -6 -2 870.51 58.29
4 -7 -2 344.17 46.9
4 -7 -2 292.57 40
4 -7 -2 412.56 50.19
3 -7 -2 815.52 53.69
3 -7 -2 861.21 60.49
3 -7 -2 786.72 54.79
2 -7 -2 414.36 36.5
2 -7 -2 483.75 45.2
2 -7 -2 383.86 33.7
2 -7 -2 383.66 32.7
2 -7 -2 416.36 35.1
1 -7 -2 1779.32 72.79
1 -7 -2 1387.26 86.09
0 -7 -2 697.43 45.8
0 -7 -2 670.63 50.29
0 -7 -2 625.14 34.6
-1 -7 -2 1676.33 94.99
-1 -7 -2 1748.53 78.49
-1 -7 -2 1690.63 88.09
-2 -7 -2 834.02 63.09
-2 -7 -2 865.71 48.1
-2 -7 -2 853.11 64.69
-3 -7 -2 841.92 72.49
-3 -7 -2 830.32 68.69
-3 -7 -2 774.72 51.09
-4 -7 -2 619.04 50.59
-4 -7 -2 635.44 77.79
4 -8 -2 79.79 35.5
4 -8 -2 78.69 28.6
4 -8 -2 71.49 37.5
3 -8 -2 113.59 26.2
3 -8 -2 159.18 32
3 -8 -2 209.78 32.1
2 -8 -2 27.9 17
2 -8 -2 21.3 21.9
2 -8 -2 16.7 16.1
2 -8 -2 83.49 32.5
1 -8 -2 276.47 41.6
1 -8 -2 213.98 21.5
0 -8 -2 27.6 11.1
0 -8 -2 50.59 22.9
0 -8 -2 20.8 18.1
-1 -8 -2 114.19 17.4
-1 -8 -2 139.99 31.2
-1 -8 -2 128.59 29.8
-2 -8 -2 279.47 42.1
-2 -8 -2 207.88 36.8
-2 -8 -2 222.78 25.2
-3 -8 -2 99.59 23.6
-3 -8 -2 89.19 31
-3 -8 -2 136.19 43.4
3 -9 -2 181.98 29
3 -9 -2 283.17 47.6
3 -9 -2 262.47 36
3 -9 -2 157.38 34.1
2 -9 -2 558.04 37.8
2 -9 -2 500.55 39.3
2 -9 -2 543.05 63.39
1 -9 -2 200.48 36.5
1 -9 -2 375.16 44.8
1 -9 -2 260.07 27.1
0 -9 -2 451.25 50.39
0 -9 -2 508.95 47.1
0 -9 -2 497.05 32.8
-1 -9 -2 140.19 20.4
-1 -9 -2 170.38 34.7
-1 -9 -2 130.89 32.4
-2 -9 -2 252.97 43.4
-2 -9 -2 254.17 27.1
-2 -9 -2 318.67 46.8
-3 -9 -2 34.1 29.7
-3 -9 -2 18.7 21.5
-3 -9 -2 74.99 43.3
3 -10 -2 497.95 48.1
3 -10 -2 554.94 73.19
3 -10 -2 565.94 52.39
2 -10 -2 1095.59 56.69
2 -10 -2 1116.59 61.69
2 -10 -2 811.62 83.39
1 -10 -2 541.75 38.3
1 -10 -2 621.44 57.99
1 -10 -2 588.34 62.69
0 -10 -2 1420.76 81.79
0 -10 -2 1364.46 93.29
0 -10 -2 1441.16 69.99
-1 -10 -2 554.54 41.1
-1 -10 -2 621.64 57.69
-1 -10 -2 600.94 62.19
-2 -10 -2 1221.58 83.79
-2 -10 -2 1006.8 84.39
-2 -10 -2 1047 61.99
2 -11 -2 1088.69 60.69
2 -11 -2 1087.19 90.59
1 -11 -2 721.63 44.5
1 -11 -2 638.14 68.79
1 -11 -2 659.23 62.69
0 -11 -2 1073.49 58.89
0 -11 -2 1037.8 73.09
0 -11 -2 1105.59 84.19
-1 -11 -2 846.72 77.19
-1 -11 -2 859.71 53.39
-1 -11 -2 928.01 70.79
-2 -11 -2 604.34 71.19
-2 -11 -2 622.34 48
-2 -11 -2 616.14 70.09
1 -12 -2 422.06 52.79
1 -12 -2 373.96 37.5
1 -12 -2 417.66 63.69
0 -12 -2 391.06 35.2
0 -12 -2 375.26 50.59
0 -12 -2 342.07 57.09
0 -13 3 10.5 20.8
0 -13 3 63.69 39.9
1 -13 3 117.09 25.8
1 -13 3 108.89 31
1 -13 3 160.28 46.7
-2 -12 3 598.84 49.4
-2 -12 3 564.74 74.89
-2 -12 3 525.45 67.99
-1 -12 3 488.95 66.29
-1 -12 3 490.45 43.2
-1 -12 3 586.24 74.19
0 -12 3 639.74 45.8
0 -12 3 668.03 68.69
1 -12 3 567.24 47.6
1 -12 3 532.85 43
1 -12 3 619.64 69.29
2 -12 3 427.56 40.9
2 -12 3 283.17 34.4
2 -12 3 389.46 66.49
2 11 -3 1377.66 85.89
-2 -11 3 1325.97 94.39
-2 -11 3 1122.99 97.89
-2 -11 3 1292.57 72.09
-1 -11 3 1010.6 82.99
-1 -11 3 1005.7 56.79
-1 -11 3 894.31 78.69
0 -11 3 1288.47 82.99
0 -11 3 1205.58 63.99
1 -11 3 1575.24 78.99
1 -11 3 1371.26 75.59
1 -11 3 1687.43 96.39
2 -11 3 730.13 50.49
2 -11 3 551.64 71.79
3 10 -3 449.46 56.19
-3 -10 3 298.47 38.3
-3 -10 3 532.45 70.79
2 10 -3 679.63 61.19
-2 -10 3 614.64 72.89
-2 -10 3 598.64 62.89
-2 -10 3 649.64 46.6
1 10 -3 1050.29 65.59
-1 -10 3 1015.1 54.99
-1 -10 3 863.01 77.09
0 -10 3 800.82 64.69
0 -10 3 794.72 46.5
0 -10 3 847.22 50.49
1 -10 3 1492.25 73.79
1 -10 3 1504.25 92.79
1 -10 3 1387.86 71.69
2 -10 3 733.93 74.79
2 -10 3 735.53 49
2 -10 3 692.73 49.9
3 -10 3 976.8 70.79
3 -10 3 1026.5 81.19
3 -10 3 1003.4 63.99
3 9 -3 161.48 37.6
-3 -9 3 107.29 26.1
-3 -9 3 88.09 48.7
2 9 -3 86.99 30
-2 -9 3 136.29 39.9
-2 -9 3 66.29 19.4
-2 -9 3 52.39 26.3
1 9 -3 304.97 39.9
-1 -9 3 301.07 28.5
-1 -9 3 263.87 43.9
0 -9 3 157.78 33.5
0 -9 3 152.78 23.9
0 -9 3 122.09 18.3
1 -9 3 374.16 35.7
1 -9 3 392.56 51.89
2 -9 3 251.07 45
2 -9 3 205.38 28.9
2 -9 3 190.28 25.2
3 -9 3 448.66 48.6
3 -9 3 478.65 56.99
3 -9 3 347.67 37.2
3 -9 3 391.46 42.7
4 8 -3 248.48 48.5
-4 -8 3 230.58 58.89
-4 -8 3 187.98 31.1
3 8 -3 353.46 46.6
-3 -8 3 410.46 58.29
-3 -8 3 293.77 32.4
2 8 -3 318.87 41.7
-2 -8 3 280.57 44
-2 -8 3 247.58 42.2
-2 -8 3 239.78 25.7
1 8 -3 173.28 27.6
-1 -8 3 142.69 17.6
-1 -8 3 89.79 31.8
0 -8 3 491.65 35.1
0 -8 3 430.96 43.1
0 -8 3 428.66 29.8
1 -8 3 33.8 17
1 -8 3 10.6 31.1
2 -8 3 208.18 25
2 -8 3 258.47 38.4
2 -8 3 274.37 29
3 -8 3 12.2 21.4
3 -8 3 29.5 27.2
3 -8 3 2.1 25.6
4 -8 3 82.59 39
4 -8 3 84.39 31.1
4 -8 3 132.59 40.9
4 7 -3 573.64 66.99
-4 -7 3 413.26 44.4
-4 -7 3 626.24 74.09
3 7 -3 1302.17 79.99
-3 -7 3 1227.18 83.49
-3 -7 3 1295.97 89.49
-3 -7 3 1287.97 67.89
2 7 -3 2470.65 119.09
-2 -7 3 2472.85 124.09
-2 -7 3 2451.65 109.79
-2 -7 3 2445.26 123.39
1 7 -3 1279.57 69.59
-1 -7 3 1301.87 61.19
-1 -7 3 1369.16 75.99
0 7 -3 2492.55 113.59
0 -7 3 2621.84 111.39
0 -7 3 2531.35 117.89
0 -7 3 2487.95 109.19
1 -7 3 1009.4 50.39
1 -7 3 1042.7 50.69
1 -7 3 978.6 63.19
2 -7 3 1991.8 94.29
2 -7 3 2086.49 96.59
2 -7 3 2136.09 95.89
3 -7 3 375.36 38.2
3 -7 3 390.76 40.6
3 -7 3 314.67 37.5
4 -7 3 813.82 71.49
4 -7 3 874.71 68.69
4 -7 3 827.12 62.29
4 6 -3 1168.08 82.19
-4 -6 3 1144.99 92.19
-4 -6 3 1059.99 63.59
3 6 -3 1452.05 83.59
-3 -6 3 1458.25 90.99
-3 -6 3 1424.46 86.99
-3 -6 3 1548.84 73.39
2 6 -3 2055.19 101.99
-2 -6 3 2077.29 104.99
-2 -6 3 2078.09 105.99
-2 -6 3 2178.28 93.69
1 6 -3 3844.52 165.58
-1 -6 3 3844.12 168.68
-1 -6 3 3643.14 158.68
-1 -6 3 3771.22 160.58
0 6 -3 3846.02 164.48
0 -6 3 3868.21 160.88
0 -6 3 3786.62 168.08
1 -6 3 4007.3 166.48
1 -6 3 3769.02 165.78
1 -6 3 4056.69 172.58
2 -6 3 2127.99 96.69
2 -6 3 2192.38 99.29
2 -6 3 2161.08 98.19
3 -6 3 1532.45 77.69
3 -6 3 1503.15 77.09
3 -6 3 1505.85 81.29
4 -6 3 1128.39 76.09
4 -6 3 1177.28 71.39
4 -6 3 1072.59 80.99
4 5 -3 465.15 54.89
4 5 -3 309.17 38.4
-4 -5 3 398.96 38.5
-4 -5 3 462.45 60.69
3 5 -3 1590.04 88.19
-3 -5 3 1664.93 77.29
-3 -5 3 1675.13 94.29
-3 -5 3 1565.34 78.39
2 5 -3 723.43 49.3
-2 -5 3 777.12 54.09
-2 -5 3 759.42 40.3
-2 -5 3 782.42 42.4
-2 -5 3 818.22 49.3
1 5 -3 4258.07 184.28
1 5 -3 3996.5 184.58
-1 -5 3 4411.36 179.98
-1 -5 3 4467.15 186.88
-1 -5 3 4285.07 178.38
0 5 -3 1090.89 53.69
0 5 -3 1169.98 56.69
0 -5 3 1070.39 58.79
0 -5 3 1050.19 52.49
-1 5 -3 3784.32 154.48
1 -5 3 3507.75 151.08
1 -5 3 3481.95 154.88
1 -5 3 3538.35 150.58
2 -5 3 1867.11 85.39
2 -5 3 1935.71 87.49
2 -5 3 1810.52 84.09
3 -5 3 1879.51 86.29
3 -5 3 1760.72 90.49
3 -5 3 1668.73 86.09
4 -5 3 729.93 61.49
4 -5 3 623.74 63.39
4 -5 3 606.64 53.39
4 4 -3 104.19 34.8
4 4 -3 88.89 29.7
-4 -4 3 80.59 43.2
-4 -4 3 51.19 20.9
3 4 -3 352.96 36
3 4 -3 349.47 41.4
-3 -4 3 369.96 34.7
-3 -4 3 323.07 45.2
-3 -4 3 323.87 29.4
2 4 -3 3.5 16.2
-2 -4 3 25.2 20.6
-2 -4 3 10.7 9.6
-2 -4 3 20 14.1
1 4 -3 520.25 37.7
1 4 -3 521.95 34.6
-1 -4 3 631.64 33.3
-1 -4 3 630.74 41.3
-1 -4 3 587.44 29.1
0 4 -3 301.17 23.7
0 4 -3 329.97 23.1
0 -4 3 361.96 22.8
0 -4 3 395.76 30.8
-1 4 -3 666.73 47.8
-1 4 -3 612.24 35.4
1 -4 3 662.23 35.1
1 -4 3 626.24 33.4
-2 4 -3 371.06 38.4
2 -4 3 409.56 28
2 -4 3 380.86 28.1
2 -4 3 368.76 32
-3 4 -3 380.46 45
3 -4 3 386.16 40.7
3 -4 3 404.76 34.2
3 -4 3 343.77 35.6
4 -4 3 254.17 32.9
4 -4 3 363.96 42.6
4 -4 3 249.28 40.3
5 3 -3 145.69 43.3
5 3 -3 228.58 46.8
-5 -3 3 141.79 57.59
4 3 -3 684.03 57.49
4 3 -3 732.13 59.89
-4 -3 3 663.63 45
-4 -3 3 769.92 73.69
3 3 -3 503.25 44.7
3 3 -3 541.45 40.5
-3 -3 3 479.85 51.09
-3 -3 3 578.24 34.9
2 3 -3 866.91 46
2 3 -3 882.21 51.19
-2 -3 3 928.51 55.19
-2 -3 3 862.81 45.6
-2 -3 3 937.01 43.4
1 3 -3 584.74 32.5
1 3 -3 603.54 35.7
-1 -3 3 587.64 36.6
-1 -3 3 611.74 31.6
-1 -3 3 622.34 28.4
0 3 -3 407.36 22.5
0 3 -3 387.76 22.8
0 -3 3 333.77 28.3
0 -3 3 404.86 21.6
0 -3 3 374.26 21.5
-1 3 -3 1040.3 53.59
-1 3 -3 872.21 42.6
1 -3 3 833.92 41.5
1 -3 3 909.31 44.2
1 -3 3 885.41 43
-2 3 -3 179.38 27.1
-2 3 -3 228.88 21.5
2 -3 3 161.48 21.6
2 -3 3 210.88 20.2
2 -3 3 151.58 17.5
-3 3 -3 74.39 26.1
-3 3 -3 86.19 19.7
3 -3 3 97.19 24.4
3 -3 3 96.19 19
-4 3 -3 28.7 23.4
4 -3 3 10.5 29.2
4 -3 3 25.1 22.9
-5 3 -3 -2.6 28.4
5 -3 3 84.59 41.3
5 -3 3 -31.6 38.7
5 -3 3 -9 27.8
5 2 -3 659.03 75.09
-5 -2 3 675.83 84.29
4 2 -3 1256.17 70.99
4 2 -3 1358.46 78.09
4 2 -3 1302.97 78.19
-4 -2 3 1272.97 66.09
-4 -2 3 1256.87 90.89
3 2 -3 1984.4 92.29
3 2 -3 1871.81 93.99
-3 -2 3 1857.21 86.09
-3 -2 3 1948.61 100.59
2 2 -3 3143.99 138.59
2 2 -3 3110.99 135.19
2 2 -3 3037 133.39
-2 -2 3 3242.38 134.69
-2 -2 3 3172.28 140.69
1 2 -3 4604.74 194.98
1 2 -3 4706.13 196.88
-1 -2 3 4732.33 196.88
-1 -2 3 4724.63 193.88
0 2 -3 3215.08 137.19
0 2 -3 3173.18 136.39
0 2 -3 3516.35 141.79
0 -2 3 3474.45 135.99
0 -2 3 3045.2 135.59
-1 2 -3 3464.95 143.79
-1 2 -3 3375.86 135.19
-1 2 -3 3035 134.59
1 -2 3 3249.57 135.29
1 -2 3 3313.57 136.39
1 -2 3 2982.3 134.19
-2 2 -3 1434.26 74.79
-2 2 -3 1368.46 63.49
2 -2 3 1326.07 63.59
2 -2 3 1353.26 67.69
-3 2 -3 1729.73 95.69
-3 2 -3 1752.92 82.49
3 -2 3 1818.02 87.79
3 -2 3 1699.73 81.99
-4 2 -3 568.94 45.6
4 -2 3 612.94 56.99
4 -2 3 700.23 47.1
-5 2 -3 255.57 39.7
5 -2 3 324.07 40.7
5 -2 3 354.56 52.79
5 1 -3 729.93 76.69
5 1 -3 755.62 62.79
-5 -1 3 724.43 85.69
4 1 -3 1557.24 80.99
4 1 -3 1567.44 84.99
4 1 -3 1504.85 88.09
-4 -1 3 1376.76 73.79
-4 -1 3 1625.44 99.39
3 1 -3 2337.57 110.79
3 1 -3 2422.26 111.69
-3 -1 3 2377.96 117.99
2 1 -3 4192.38 176.28
2 1 -3 3985.7 173.98
-2 -1 3 4105.29 178.58
1 1 -3 6536.75 273.77
1 1 -3 6432.46 275.57
1 1 -3 6542.75 273.77
-1 -1 3 6870.81 275.97
-1 -1 3 6926.91 273.77
0 1 -3 4559.24 172.88
0 1 -3 3915.81 168.88
0 1 -3 4244.38 169.58
0 -1 3 3702.13 168.48
-1 1 -3 8032.4 324.97
-1 1 -3 8390.16 332.87
-1 1 -3 7558.74 325.17
1 -1 3 8018.6 326.67
1 -1 3 7707.73 325.17
-2 1 -3 3590.54 156.68
-2 1 -3 3304.67 146.29
2 -1 3 3440.66 146.19
2 -1 3 3464.05 149.59
-3 1 -3 2049.89 106.99
-3 1 -3 2092.59 94.59
3 -1 3 2092.19 99.39
3 -1 3 2013.5 93.59
-4 1 -3 1124.79 67.19
4 -1 3 1265.17 77.49
4 -1 3 1274.37 67.79
-5 1 -3 812.02 61.49
5 -1 3 832.32 78.99
5 -1 3 1007.8 66.79
5 0 -3 231.28 48.6
5 0 -3 278.77 39
4 0 -3 885.61 59.99
4 0 -3 899.71 56.39
4 0 -3 895.51 63.79
-4 0 3 948.51 76.49
-4 0 3 762.92 49.5
3 0 -3 718.13 44.6
3 0 -3 723.73 47.6
3 0 -3 791.02 48.5
-3 0 3 712.83 56.29
2 0 -3 1956.7 91.19
2 0 -3 2019 90.59
-2 0 3 2014.5 94.79
1 0 -3 3712.53 163.68
1 0 -3 4096.99 162.28
-1 0 3 3944.21 162.68
0 0 -3 8220.68 315.97
0 0 -3 7238.58 312.47
0 0 -3 7444.75 312.77
0 0 3 7868.71 311.57
0 0 3 7433.36 312.27
-1 0 -3 3704.33 151.58
-1 0 -3 3426.26 143.89
-1 0 -3 3292.77 143.69
1 0 3 3431.26 144.99
-2 0 -3 2635.94 112.89
-2 0 -3 2381.66 117.89
-2 0 -3 2771.02 123.59
2 0 3 2655.53 115.59
-3 0 -3 2278.47 99.69
-3 0 -3 2270.27 112.59
-3 0 -3 2055.19 108.69
3 0 3 2234.38 103.69
3 0 3 2227.58 98.19
3 0 3 2039.6 98.09
-4 0 -3 913.41 76.49
-4 0 -3 817.22 54.39
4 0 3 848.52 55.79
4 0 3 880.11 66.09
-5 0 -3 655.53 55.09
5 0 3 713.03 70.99
5 -1 -3 35 29.9
5 -1 -3 -3.3 38.6
4 -1 -3 15.5 21.6
4 -1 -3 0.2 28.4
4 -1 -3 49.1 26.7
-4 1 3 -7.4 18.4
3 -1 -3 45 20.7
3 -1 -3 42.1 20
3 -1 -3 47.6 16.8
2 -1 -3 94.39 17.5
2 -1 -3 114.99 17.4
1 -1 -3 54.79 9.1
1 -1 -3 29.9 5.9
0 -1 -3 343.57 16.1
0 -1 -3 338.57 18.6
0 -1 -3 355.36 22.8
0 1 3 324.97 19.7
-1 -1 -3 338.57 26.3
-1 -1 -3 336.97 19.1
-1 -1 -3 309.47 19.1
1 1 3 333.47 22.1
-2 -1 -3 1026.4 57.79
-2 -1 -3 976.6 47.2
-2 -1 -3 923.61 44.7
-2 -1 -3 894.41 54.69
2 1 3 943.01 50.69
-3 -1 -3 281.67 40.6
-3 -1 -3 304.17 29.3
-3 -1 -3 360.26 45.6
3 1 3 276.87 31.2
3 1 3 317.97 36.3
-4 -1 -3 420.86 55.89
-4 -1 -3 353.56 35.2
4 1 3 278.27 30
4 1 3 340.17 41.6
4 1 3 397.56 42.3
-5 -1 -3 91.99 30
5 1 3 78.39 38.3
5 -2 -3 431.26 57.29
5 -2 -3 521.25 55.09
4 -2 -3 377.36 41.5
4 -2 -3 421.96 45.4
3 -2 -3 731.03 47.4
3 -2 -3 789.42 50.29
3 -2 -3 731.33 45.3
2 -2 -3 489.55 33.8
2 -2 -3 457.35 30.3
1 -2 -3 962 48.1
1 -2 -3 975.4 44.5
1 -2 -3 975.2 46.1
0 -2 -3 644.04 29.9
0 -2 -3 664.33 37.6
0 -2 -3 709.13 34
-1 -2 -3 637.04 32.2
-1 -2 -3 678.03 41.2
1 2 3 648.64 34.2
-2 -2 -3 601.64 32.3
-2 -2 -3 587.74 42.4
-2 -2 -3 558.04 40.9
-2 -2 -3 567.04 31.8
2 2 3 439.76 34.7
2 2 3 572.64 35.8
-3 -2 -3 223.98 37.6
-3 -2 -3 213.68 37
-3 -2 -3 155.88 21.7
3 2 3 155.48 27.7
3 2 3 203.78 27
-4 -2 -3 20.7 40.9
-4 -2 -3 8 21.3
4 2 3 -5.8 27.9
4 2 3 61.89 26.8
5 -3 -3 889.71 84.19
5 -3 -3 956.4 70.89
4 -3 -3 1257.07 72.69
4 -3 -3 1245.18 82.39
3 -3 -3 2347.97 108.89
3 -3 -3 2266.37 105.09
3 -3 -3 2210.38 104.69
2 -3 -3 3192.48 137.09
2 -3 -3 3158.98 135.49
2 -3 -3 3025.3 134.59
1 -3 -3 2626.54 115.99
1 -3 -3 2762.62 115.89
0 -3 -3 4692.83 195.58
0 -3 -3 4808.22 205.28
-1 -3 -3 1682.03 75.49
-1 -3 -3 1777.72 86.59
-2 -3 -3 3632.54 159.68
-2 -3 -3 3354.36 146.59
-2 -3 -3 3445.96 153.38
2 3 3 3295.67 150.18
2 3 3 3452.55 147.29
-3 -3 -3 576.54 53.19
-3 -3 -3 555.34 38.8
-3 -3 -3 565.34 35.4
-3 -3 -3 596.94 51.99
3 3 3 522.75 42.8
3 3 3 579.84 45.3
-4 -3 -3 1239.38 70.99
-4 -3 -3 1316.37 92.69
4 3 3 1402.26 77.09
4 3 3 1263.37 77.09
4 -4 -3 1170.88 72.49
4 -4 -3 1306.47 82.79
3 -4 -3 1572.04 75.89
3 -4 -3 1390.76 74.09
3 -4 -3 1576.44 80.79
2 -4 -3 3852.21 169.38
2 -4 -3 4089.49 170.08
2 -4 -3 4020.5 167.88
2 -4 -3 3928.61 171.38
1 -4 -3 2729.53 119.29
0 -4 -3 7357.86 303.27
0 -4 -3 7418.26 314.67
-1 -4 -3 1360.86 73.29
-1 -4 -3 1360.16 61.39
-2 -4 -3 4365.46 183.88
-2 -4 -3 4457.05 197.68
-2 -4 -3 4187.48 190.18
-3 -4 -3 1162.08 75.59
-3 -4 -3 1252.27 63.09
-3 -4 -3 1132.59 75.79
-3 -4 -3 1196.28 61.79
3 4 3 1113.79 62.79
3 4 3 1189.08 67.99
-4 -4 -3 1533.85 83.29
-4 -4 -3 1657.43 104.49
4 4 3 1672.83 87.99
4 -5 -3 649.14 55.69
4 -5 -3 712.83 64.79
3 -5 -3 221.98 26.9
3 -5 -3 310.17 34.7
3 -5 -3 275.47 30
2 -5 -3 1687.33 81.99
2 -5 -3 1763.42 80.59
2 -5 -3 1814.22 81.99
2 -5 -3 1787.72 83.99
1 -5 -3 804.22 38.7
0 -5 -3 2413.16 103.19
0 -5 -3 2440.26 116.59
-1 -5 -3 1402.76 63.89
-1 -5 -3 1408.26 77.29
-2 -5 -3 1739.33 80.59
-2 -5 -3 1772.52 96.39
-2 -5 -3 1744.03 90.09
-3 -5 -3 735.23 46.8
-3 -5 -3 728.83 60.79
-3 -5 -3 769.92 63.39
-4 -5 -3 730.33 51.79
-4 -5 -3 833.12 75.99
4 5 3 623.44 60.49
4 -6 -3 11 25.4
4 -6 -3 22.7 33.5
4 -6 -3 92.19 36.6
3 -6 -3 41.9 24.2
3 -6 -3 -14.4 18
3 -6 -3 34.5 25.5
2 -6 -3 70.39 14.7
2 -6 -3 40.8 17.7
2 -6 -3 39 16.1
2 -6 -3 55.29 17.7
2 -6 -3 60.29 20
1 -6 -3 53.59 18.6
1 -6 -3 51.19 11.3
1 -6 -3 87.19 25.3
0 -6 -3 78.09 10.7
0 -6 -3 86.99 20.2
-1 -6 -3 61.19 20.3
-1 -6 -3 72.99 12.5
-2 -6 -3 211.78 22.5
-2 -6 -3 303.07 42.1
-2 -6 -3 235.68 38.8
-3 -6 -3 91.59 21.1
-3 -6 -3 117.49 31.2
-3 -6 -3 110.19 37.1
-4 -6 -3 190.08 29.4
-4 -6 -3 225.98 51.19
4 -7 -3 598.24 56.39
4 -7 -3 632.04 68.79
4 -7 -3 621.54 60.59
3 -7 -3 180.48 28.4
3 -7 -3 197.18 31.8
3 -7 -3 251.07 33.3
2 -7 -3 746.63 45.9
2 -7 -3 811.92 49.6
2 -7 -3 874.41 47.3
2 -7 -3 744.73 47.5
2 -7 -3 614.34 44.9
2 -7 -3 853.31 55.69
1 -7 -3 432.36 43.9
1 -7 -3 442.96 27.7
1 -7 -3 327.37 46
0 -7 -3 210.18 32.4
0 -7 -3 181.48 18.8
0 -7 -3 247.58 29.2
-1 -7 -3 642.04 47.5
-1 -7 -3 555.94 50.09
-1 -7 -3 584.94 35.1
-2 -7 -3 160.98 33.9
-2 -7 -3 89.39 17.5
-2 -7 -3 106.69 29
-3 -7 -3 177.78 37.1
-3 -7 -3 251.57 45.1
-3 -7 -3 186.88 26.2
3 -8 -3 1196.88 70.49
3 -8 -3 1143.09 77.99
3 -8 -3 1361.56 76.99
3 -8 -3 1229.58 70.39
2 -8 -3 937.21 49.4
2 -8 -3 814.92 53.49
2 -8 -3 945.51 52.19
2 -8 -3 992.6 67.59
2 -8 -3 847.52 53.49
1 -8 -3 1729.13 80.19
1 -8 -3 1812.22 95.39
1 -8 -3 1726.43 100.89
0 -8 -3 930.11 48.8
0 -8 -3 1008.4 59.59
0 -8 -3 975.5 67.59
-1 -8 -3 1360.56 85.99
-1 -8 -3 1389.56 77.69
-1 -8 -3 1335.17 66.59
-2 -8 -3 900.41 51.79
-2 -8 -3 883.61 68.09
-2 -8 -3 938.71 72.59
-3 -8 -3 661.03 69.09
-3 -8 -3 633.44 66.29
-3 -8 -3 616.94 46.9
3 -9 -3 782.52 56.19
3 -9 -3 818.92 65.19
3 -9 -3 840.32 61.09
3 -9 -3 841.82 72.49
2 -9 -3 1199.78 75.49
2 -9 -3 1502.85 69.59
2 -9 -3 1346.07 64.69
2 -9 -3 1138.69 70.29
2 -9 -3 1219.88 86.89
1 -9 -3 1234.58 75.19
1 -9 -3 1222.08 60.09
1 -9 -3 1147.09 82.09
0 -9 -3 1478.65 92.39
0 -9 -3 1459.05 71.19
0 -9 -3 1505.35 81.29
-1 -9 -3 1103.59 71.49
-1 -9 -3 1128.39 59.19
-1 -9 -3 1149.89 80.79
-2 -9 -3 1013.1 74.99
-2 -9 -3 995.7 57.29
-2 -9 -3 990.7 79.39
-3 -9 -3 878.21 80.79
-3 -9 -3 1000.7 60.09
-3 -9 -3 895.41 79.19
2 -10 -3 713.13 42.8
2 -10 -3 539.55 65.49
2 -10 -3 564.94 48.7
2 -10 -3 675.43 67.99
2 -10 -3 598.54 50.89
1 -10 -3 604.14 40.2
1 -10 -3 594.54 56.69
1 -10 -3 681.33 65.59
0 -10 -3 501.65 37
0 -10 -3 493.75 56.19
0 -10 -3 555.34 50.49
-1 -10 -3 796.12 69.89
-1 -10 -3 781.32 62.39
-1 -10 -3 747.73 47.4
-2 -10 -3 309.97 31.8
-2 -10 -3 387.16 58.09
-2 -10 -3 408.16 59.19
2 -11 -3 94.89 48.5
2 -11 -3 28 21.2
2 -11 -3 54.39 21.9
2 -11 -3 38 32.4
1 -11 -3 81.89 34.1
1 -11 -3 141.39 37.7
1 -11 -3 97.59 21
0 -11 -3 14.8 25.5
0 -11 -3 26.5 17.4
0 -11 -3 24.2 29.8
-1 -11 -3 121.49 35.9
-1 -11 -3 134.99 37.5
-1 -11 -3 116.99 21.9
0 -12 -3 164.88 25.2
0 -12 -3 186.48 43.8
0 -12 -3 199.88 41.4
-1 -13 4 696.23 79.19
-1 -13 4 712.63 85.39
-1 -13 4 687.23 51.89
0 -13 4 703.83 52.79
0 -13 4 843.22 58.79
0 -13 4 864.51 78.99
1 -13 4 694.43 75.59
1 -13 4 692.93 50.09
1 -13 4 599.74 52.89
-2 -12 4 440.76 45.7
-2 -12 4 458.45 64.59
-2 -12 4 392.96 68.29
-1 -12 4 684.23 48.5
-1 -12 4 604.74 77.49
0 -12 4 544.05 42.6
0 -12 4 576.04 48.4
0 -12 4 627.84 67.19
1 -12 4 689.23 52.99
1 -12 4 742.23 49.9
1 -12 4 807.32 74.89
2 -12 4 632.04 50.49
2 -12 4 569.74 48.4
2 -12 4 673.73 83.39
2 11 -4 91.59 34.5
-2 -11 4 39.5 45.3
-2 -11 4 15 27.3
-2 -11 4 19.3 21.9
-1 -11 4 306.87 29.8
-1 -11 4 291.77 53.99
0 -11 4 91.79 36.9
0 -11 4 42.1 24.2
0 -11 4 37.3 18.8
1 -11 4 378.16 36.2
1 -11 4 333.77 35.3
1 -11 4 461.25 56.69
2 -11 4 88.49 22.9
2 -11 4 91.29 49.5
2 -11 4 151.28 29.6
3 -11 4 229.38 54.99
3 -11 4 222.38 33.3
3 -11 4 293.87 40.8
3 10 -4 83.49 35.7
-3 -10 4 24.1 24.2
-3 -10 4 79.99 51.09
2 10 -4 494.75 51.79
-2 -10 4 367.66 34.3
-2 -10 4 266.07 53.39
-2 -10 4 324.47 48.7
1 10 -4 48.4 26.5
-1 -10 4 24.2 38.5
-1 -10 4 34.2 23.5
-1 -10 4 38.5 17.3
0 -10 4 288.77 30.8
0 -10 4 225.98 25.3
0 -10 4 272.87 41.5
1 -10 4 79.19 41.4
1 -10 4 24.2 16.7
1 -10 4 53.99 22.7
2 -10 4 79.59 44.7
2 -10 4 20.8 19.3
2 -10 4 88.89 24.7
3 -10 4 85.09 42.5
3 -10 4 8.2 23.6
3 -10 4 55.29 32
3 9 -4 626.74 65.19
-3 -9 4 643.64 50.19
-3 -9 4 693.23 83.99
2 9 -4 1616.94 91.89
-2 -9 4 1553.44 97.39
-2 -9 4 1497.95 100.19
-2 -9 4 1640.84 79.29
1 9 -4 834.72 52.69
-1 -9 4 547.25 46.4
-1 -9 4 526.75 62.69
-1 -9 4 756.62 41.4
0 -9 4 1447.56 71.29
0 -9 4 1572.94 85.99
0 -9 4 1525.05 75.09
1 -9 4 701.53 66.49
1 -9 4 726.43 45.5
2 -9 4 1175.48 62.29
2 -9 4 1113.99 62.69
2 -9 4 1127.79 77.69
3 -9 4 418.26 43.3
3 -9 4 351.66 36.4
3 -9 4 406.66 56.59
3 -9 4 302.27 39.1
4 8 -4 1025.1 85.39
-4 -8 4 1087.79 97.79
-4 -8 4 973.2 63.79
3 8 -4 831.82 67.29
-3 -8 4 906.71 54.99
-3 -8 4 898.01 84.29
2 8 -4 2194.68 114.19
-2 -8 4 2336.97 103.79
-2 -8 4 2325.87 120.59
-2 -8 4 2195.98 120.09
-1 -8 4 1083.29 59.09
0 8 -4 3858.41 166.88
0 -8 4 3671.63 171.08
0 -8 4 3990.4 164.08
0 -8 4 3712.03 161.78
1 -8 4 1688.53 77.89
1 -8 4 1684.33 78.99
2 -8 4 2267.57 116.19
2 -8 4 2305.37 107.79
2 -8 4 2498.55 108.39
3 -8 4 895.71 61.99
3 -8 4 917.41 58.29
3 -8 4 897.81 62.29
4 -8 4 1004.4 70.49
4 -8 4 1071.09 80.19
4 -8 4 947.61 78.89
4 7 -4 872.21 75.69
-4 -7 4 783.72 87.09
-4 -7 4 803.02 54.69
3 7 -4 350.66 48
-3 -7 4 478.15 57.79
-3 -7 4 365.76 32.8
2 7 -4 1965.7 101.99
-2 -7 4 2089.29 107.59
-2 -7 4 2108.59 93.19
-2 -7 4 2007 107.49
1 7 -4 969.3 54.99
-1 -7 4 857.91 61.39
-1 -7 4 905.81 51.49
-1 -7 4 1029.1 47.1
0 7 -4 2523.95 114.49
0 7 -4 2575.44 117.89
0 -7 4 2562.34 112.19
0 -7 4 2516.25 119.19
0 -7 4 2602.04 110.59
1 -7 4 1403.46 76.59
1 -7 4 1323.17 64.29
1 -7 4 1408.86 64.79
2 -7 4 2599.94 116.39
2 -7 4 2627.44 118.19
2 -7 4 2632.54 117.79
3 -7 4 1367.16 73.99
3 -7 4 1306.47 74.49
3 -7 4 1384.16 76.19
4 -7 4 478.95 53.89
4 -7 4 506.55 52.39
4 -7 4 503.45 56.39
4 6 -4 118.99 37.4
-4 -6 4 65.99 46.3
-4 -6 4 31.8 22.2
3 6 -4 236.68 37.8
-3 -6 4 202.48 24.2
-3 -6 4 239.48 29.2
-3 -6 4 304.77 46
2 6 -4 60.39 23.4
-2 -6 4 69.49 14.6
-2 -6 4 60.69 17.5
-2 -6 4 98.39 29.1
-2 -6 4 61.99 20.8
1 6 -4 231.68 27.3
1 6 -4 187.08 24.4
-1 -6 4 211.38 18.7
-1 -6 4 239.28 23.7
-1 -6 4 282.97 37.1
0 6 -4 338.47 31.1
0 6 -4 393.96 28.9
0 -6 4 468.15 30.1
0 -6 4 422.26 36
0 -6 4 375.06 24
-1 6 -4 511.95 37.1
1 -6 4 557.94 33.3
1 -6 4 625.04 42.4
1 -6 4 550.74 32
2 -6 4 252.57 28.4
2 -6 4 273.07 27.7
2 -6 4 279.17 30.4
3 -6 4 610.54 50.39
3 -6 4 704.83 46.7
3 -6 4 689.23 47.2
4 -6 4 175.78 40
4 -6 4 241.08 34.4
4 -6 4 251.77 41
4 5 -4 681.13 64.19
-4 -5 4 531.85 44
-4 -5 4 699.23 74.49
3 5 -4 384.66 44.9
-3 -5 4 313.47 30.4
-3 -5 4 367.26 46.7
-3 -5 4 363.36 35.4
2 5 -4 637.74 42.4
2 5 -4 649.04 46
-2 -5 4 710.33 51.59
-2 -5 4 704.53 36.7
-2 -5 4 688.03 45.1
-2 -5 4 664.13 39.2
1 5 -4 339.87 32.6
1 5 -4 340.97 29.5
-1 -5 4 371.56 22.2
-1 -5 4 410.36 39.3
-1 -5 4 407.66 28.6
0 5 -4 432.56 32.5
0 5 -4 447.76 30.5
0 -5 4 485.25 37.4
0 -5 4 473.35 31
-1 5 -4 392.86 29.7
1 -5 4 421.66 27.7
1 -5 4 394.06 26.2
1 -5 4 401.36 33.1
-2 5 -4 234.68 23.2
-2 5 -4 241.18 37.7
2 -5 4 224.08 24.1
2 -5 4 240.68 25.3
2 -5 4 276.27 25.3
-3 5 -4 43.9 28.3
3 -5 4 51.79 19.2
3 -5 4 41.4 23.8
3 -5 4 63.89 23.2
4 -5 4 -25.7 30.6
4 -5 4 9 31.6
4 -5 4 27.4 25.8
4 4 -4 1091.79 73.89
4 4 -4 981.2 68.59
-4 -4 4 1103.09 85.89
-4 -4 4 999.8 57.89
3 4 -4 2105.79 105.09
-3 -4 4 2051.39 109.09
-3 -4 4 2081.59 97.89
-3 -4 4 2146.89 94.59
2 4 -4 2039.1 93.19
2 4 -4 2035.7 97.19
-2 -4 4 1998.8 91.29
-2 -4 4 2147.99 89.19
-2 -4 4 2006.7 99.29
1 4 -4 4689.63 198.98
1 4 -4 4597.54 197.38
-1 -4 4 4648.63 199.18
-1 -4 4 4602.24 194.28
-1 -4 4 4753.12 192.48
0 4 -4 3612.44 155.38
0 4 -4 3640.94 154.08
0 -4 4 3669.83 157.58
0 -4 4 3775.92 152.28
0 -4 4 3528.45 152.48
-1 4 -4 2595.34 111.39
-1 4 -4 2720.13 122.59
1 -4 4 2523.35 109.89
1 -4 4 2402.26 108.69
-2 4 -4 1758.72 92.39
2 -4 4 1755.12 81.39
2 -4 4 1689.03 78.59
2 -4 4 1667.33 77.39
-3 4 -4 1157.68 61.39
-3 4 -4 1187.48 77.39
3 -4 4 1176.18 62.39
3 -4 4 1164.98 61.59
3 -4 4 1135.39 66.79
-4 4 -4 750.82 52.89
4 -4 4 889.61 63.29
4 -4 4 780.42 54.39
4 -4 4 746.73 66.19
5 3 -4 795.22 79.59
5 3 -4 971.3 80.29
-5 -3 4 962.1 94.49
4 3 -4 1044.2 70.39
4 3 -4 1086.79 68.99
-4 -3 4 977.6 55.39
-4 -3 4 974.8 82.09
3 3 -4 2313.47 106.89
3 3 -4 2295.67 110.89
-3 -3 4 2259.17 115.89
2 3 -4 2387.46 106.49
2 3 -4 2475.85 111.89
2 3 -4 2421.36 107.09
-2 -3 4 2388.86 106.39
-2 -3 4 2501.35 114.29
1 3 -4 5480.45 232.18
1 3 -4 5471.95 230.78
-1 -3 4 5623.74 228.88
-1 -3 4 5537.85 232.38
0 3 -4 5305.57 212.18
0 3 -4 4871.31 204.78
0 3 -4 4804.12 205.78
0 -3 4 4645.84 206.78
0 -3 4 5101.29 203.78
0 -3 4 4898.41 203.78
-1 3 -4 4871.61 206.18
-1 3 -4 5436.76 217.88
1 -3 4 4700.83 204.48
1 -3 4 4951.2 206.38
1 -3 4 4831.02 205.68
-2 3 -4 4527.85 184.78
-2 3 -4 4489.35 198.18
2 -3 4 4334.97 186.78
2 -3 4 4203.78 183.18
2 -3 4 4296.67 184.38
-3 3 -4 1311.17 82.49
-3 3 -4 1364.86 66.99
3 -3 4 1288.57 65.89
3 -3 4 1282.07 67.49
3 -3 4 1332.57 71.49
-4 3 -4 1373.06 77.59
4 -3 4 1397.06 88.79
4 -3 4 1687.03 85.39
4 -3 4 1458.35 79.39
5 2 -4 478.35 50.49
5 2 -4 373.46 52.49
-5 -2 4 479.55 69.89
4 2 -4 623.84 47.1
4 2 -4 636.04 56.49
4 2 -4 595.34 55.39
-4 -2 4 564.24 40.6
-4 -2 4 696.83 70.59
3 2 -4 1262.47 65.59
3 2 -4 1147.59 68.19
-3 -2 4 1201.68 74.39
2 2 -4 1158.88 57.39
2 2 -4 1172.38 61.49
2 2 -4 1147.59 55.19
-2 -2 4 1185.98 63.49
-2 -2 4 1153.48 56.79
1 2 -4 2570.24 114.49
1 2 -4 2712.53 112.99
-1 -2 4 2572.24 110.59
-1 -2 4 2699.63 111.49
-1 -2 4 2649.43 114.29
0 2 -4 3622.04 167.28
0 2 -4 4191.08 168.78
0 2 -4 4211.28 173.78
0 -2 4 3963.8 166.58
0 -2 4 4217.08 167.08
-1 2 -4 3736.83 157.28
-1 2 -4 3994.4 167.18
-1 2 -4 3799.72 157.08
1 -2 4 3662.33 157.08
1 -2 4 3668.03 158.18
-2 2 -4 2403.96 103.59
-2 2 -4 2445.36 116.09
2 -2 4 2321.67 106.59
2 -2 4 2304.37 103.19
-3 2 -4 1729.33 96.49
-3 2 -4 1683.43 81.29
3 -2 4 1721.23 85.79
3 -2 4 1680.53 80.59
-4 2 -4 898.81 58.59
4 -2 4 998.2 71.79
4 -2 4 1070.99 62.49
-5 2 -4 388.36 45
5 -2 4 539.65 60.29
5 -2 4 729.03 70.29
5 -2 4 472.25 53.39
5 1 -4 49.9 27.8
5 1 -4 1.6 37.8
4 1 -4 14.7 28.8
4 1 -4 35.5 27.6
4 1 -4 23.2 22.1
-4 -1 4 28.3 40.9
3 1 -4 51.29 20.1
3 1 -4 38.6 22
-3 -1 4 48.3 30.3
2 1 -4 108.29 17.7
2 1 -4 109.29 20
2 1 -4 113.49 13.8
-2 -1 4 144.39 19.1
-2 -1 4 137.49 25.6
1 1 -4 41.6 11.5
1 1 -4 36.3 8
-1 -1 4 39.9 10.8
0 1 -4 346.27 19.2
0 1 -4 372.16 23.9
0 1 -4 301.87 18.6
0 -1 4 291.47 20.4
0 -1 4 344.27 19.2
-1 1 -4 331.97 19.4
-1 1 -4 320.77 19.6
-1 1 -4 352.26 28.6
1 -1 4 338.97 22.9
1 -1 4 327.07 20.6
-2 1 -4 984.9 48.5
-2 1 -4 1023.8 60.79
2 -1 4 930.31 48
2 -1 4 1013.5 53.09
-3 1 -4 286.17 43.6
-3 1 -4 310.27 30.1
3 -1 4 298.07 28.5
3 -1 4 302.57 36
-4 1 -4 343.87 35.4
4 -1 4 335.47 43.4
4 -1 4 344.07 33.4
-5 1 -4 43.4 31
5 -1 4 73.79 43.1
5 -1 4 26.6 28.8
5 0 -4 352.16 42.1
5 0 -4 371.26 52.59
4 0 -4 341.97 45.7
4 0 -4 342.87 42.1
4 0 -4 347.57 36
-4 0 4 392.26 54.69
3 0 -4 563.14 42.5
3 0 -4 579.14 44.7
-3 0 4 574.74 51.99
2 0 -4 808.12 44.2
2 0 -4 806.52 46
-2 0 4 751.02 49
1 0 -4 689.43 32.1
1 0 -4 651.13 34.4
-1 0 4 654.23 33.6
0 0 -4 451.15 24.7
0 0 -4 534.35 29
0 0 -4 470.75 24.6
0 0 4 484.65 23.7
0 0 4 454.15 25.8
-1 0 -4 650.63 32.8
-1 0 -4 669.93 33.1
-1 0 -4 749.53 42.3
1 0 4 673.13 35.4
-2 0 -4 213.58 21.4
-2 0 -4 234.88 28.7
-2 0 -4 257.67 33.5
2 0 4 232.38 28.1
-3 0 -4 302.87 43.7
-3 0 -4 236.58 26.2
-3 0 -4 272.07 42.6
3 0 4 306.87 36.3
3 0 4 265.77 26.9
-4 0 -4 10.4 22.9
4 0 4 -5.8 28.8
4 0 4 20.4 20.2
-5 0 -4 81.29 31.3
5 0 4 123.29 42.8
5 -1 -4 852.61 66.59
5 -1 -4 781.22 78.59
4 -1 -4 1173.38 69.09
4 -1 -4 1125.39 78.49
4 -1 -4 1217.98 71.79
3 -1 -4 1988.3 97.99
3 -1 -4 2041.8 97.39
2 -1 -4 1942.91 89.59
2 -1 -4 1971 89.49
1 -1 -4 4049.19 173.48
1 -1 -4 4210.88 172.18
0 -1 -4 2043.6 90.69
0 -1 -4 2261.77 95.79
0 1 4 2043.3 90.09
-1 -1 -4 4155.38 177.98
-1 -1 -4 4310.67 176.88
-1 -1 -4 4488.25 186.58
1 1 4 4065.69 177.48
-2 -1 -4 1187.78 64.19
-2 -1 -4 1160.58 55.29
-2 -1 -4 1275.47 69.29
-2 -1 -4 1145.29 56.59
2 1 4 1200.48 59.69
-3 -1 -4 1829.72 98.59
-3 -1 -4 1804.62 86.99
-3 -1 -4 1929.11 103.39
3 1 4 1849.31 91.99
-4 -1 -4 491.15 64.69
-4 -1 -4 400.46 38.6
4 1 4 378.16 40
4 1 4 431.56 45.3
5 -2 -4 683.53 77.29
5 -2 -4 790.12 63.99
4 -2 -4 1218.78 79.29
4 -2 -4 1273.17 83.49
4 -2 -4 1290.87 71.89
3 -2 -4 2052.79 98.39
3 -2 -4 2038.2 96.99
3 -2 -4 2085.99 100.49
2 -2 -4 3641.64 159.68
2 -2 -4 3747.53 156.38
2 -2 -4 3777.02 160.78
1 -2 -4 4521.85 193.08
1 -2 -4 4458.85 190.68
1 -2 -4 4623.54 189.68
0 -2 -4 5539.45 241.28
0 -2 -4 5798.22 237.98
0 -2 -4 6076.59 247.38
-1 -2 -4 3525.45 156.58
-1 -2 -4 3419.06 145.99
-1 -2 -4 3406.76 148.19
1 2 4 3569.04 147.09
-2 -2 -4 2580.84 121.79
-2 -2 -4 2531.15 109.19
-2 -2 -4 2512.75 108.79
-2 -2 -4 2331.27 114.39
2 2 4 2507.55 110.19
-3 -2 -4 2430.76 124.19
-3 -2 -4 2352.96 120.39
-3 -2 -4 2393.76 108.59
-3 -2 -4 2355.96 105.89
3 2 4 2425.16 111.39
-4 -2 -4 1069.09 82.89
-4 -2 -4 957.7 58.99
4 2 4 959.7 64.29
4 -3 -4 659.53 53.09
4 -3 -4 746.93 62.99
3 -3 -4 361.16 39.8
3 -3 -4 319.87 33.2
3 -3 -4 328.07 34.7
2 -3 -4 2423.06 107.09
2 -3 -4 2319.97 105.49
2 -3 -4 2370.76 102.79
1 -3 -4 1064.69 53.09
1 -3 -4 1114.59 51.69
1 -3 -4 1085.59 56.89
0 -3 -4 4966.2 205.78
0 -3 -4 4268.57 198.78
0 -3 -4 4894.21 194.58
-1 -3 -4 2037.3 87.89
-1 -3 -4 2050.69 99.99
1 3 4 1995.8 88.89
-2 -3 -4 2359.66 106.19
-2 -3 -4 2311.57 103.79
-2 -3 -4 2387.06 117.59
2 3 4 2405.56 105.19
-3 -3 -4 961.2 49.8
-3 -3 -4 917.81 67.89
-3 -3 -4 888.61 51.79
-3 -3 -4 954.7 65.99
3 3 4 894.91 55.19
-4 -3 -4 813.22 74.39
-4 -3 -4 729.83 51.79
4 3 4 747.03 57.79
4 -4 -4 125.29 28.4
4 -4 -4 154.48 37.2
3 -4 -4 44.4 23.4
3 -4 -4 18.6 18.4
3 -4 -4 43.5 19.2
2 -4 -4 244.58 25
2 -4 -4 253.87 21.2
2 -4 -4 293.07 29.4
2 -4 -4 252.77 24.3
1 -4 -4 13.7 7
1 -4 -4 24.1 11.7
1 -4 -4 8.2 11.6
1 -4 -4 16.8 8.8
0 -4 -4 509.25 38.2
0 -4 -4 534.95 27
-1 -4 -4 116.39 21
-1 -4 -4 126.79 13.5
-2 -4 -4 352.86 37.1
-2 -4 -4 314.67 25.8
-2 -4 -4 301.77 37.1
2 4 4 301.57 29.3
-3 -4 -4 225.58 36.1
-3 -4 -4 236.68 27.7
-3 -4 -4 223.48 25.2
-3 -4 -4 311.87 42.3
3 4 4 252.77 28.4
-4 -4 -4 172.18 46.4
-4 -4 -4 136.09 26.8
4 4 4 99.49 28.8
4 -5 -4 196.78 32.4
4 -5 -4 162.78 38.6
3 -5 -4 600.14 43.3
3 -5 -4 577.74 49.8
3 -5 -4 574.44 43.1
2 -5 -4 383.66 31.3
2 -5 -4 396.46 27.5
2 -5 -4 335.07 33.3
2 -5 -4 350.46 31
1 -5 -4 651.23 38.7
1 -5 -4 674.23 32.6
1 -5 -4 604.64 44.2
0 -5 -4 375.06 34.1
0 -5 -4 368.66 22.4
-1 -5 -4 438.46 27.4
-1 -5 -4 487.15 40.4
-2 -5 -4 175.28 30.2
-2 -5 -4 139.59 27.7
-2 -5 -4 142.49 18.2
-3 -5 -4 139.19 37.3
-3 -5 -4 131.59 22.2
-3 -5 -4 125.49 22.7
-3 -5 -4 128.99 31.6
3 5 4 129.79 23.8
-4 -5 -4 75.99 42.3
-4 -5 -4 37.2 24.2
4 -6 -4 1033.7 82.79
4 -6 -4 1099.69 70.79
4 -6 -4 1018.9 77.89
3 -6 -4 1517.05 81.79
3 -6 -4 1633.94 87.29
3 -6 -4 1575.44 82.59
2 -6 -4 1470.65 70.29
2 -6 -4 1458.15 72.39
2 -6 -4 1463.05 73.39
2 -6 -4 1374.26 80.89
2 -6 -4 1458.35 70.59
2 -6 -4 1361.26 69.49
1 -6 -4 2186.38 95.09
1 -6 -4 2198.58 110.99
0 -6 -4 1474.15 83.09
0 -6 -4 1548.65 68.29
-1 -6 -4 1526.25 86.19
-1 -6 -4 1493.05 69.69
-2 -6 -4 1195.08 71.59
-2 -6 -4 1191.18 60.39
-2 -6 -4 1196.88 78.49
-3 -6 -4 837.02 67.09
-3 -6 -4 753.52 52.29
-3 -6 -4 740.73 48.4
-3 -6 -4 692.53 64.09
-4 -6 -4 429.26 44.3
-4 -6 -4 547.55 69.39
4 -7 -4 614.94 68.79
4 -7 -4 622.84 57.69
4 -7 -4 624.84 64.19
3 -7 -4 1382.56 77.49
3 -7 -4 1461.65 83.29
3 -7 -4 1457.15 77.79
2 -7 -4 1233.88 64.99
2 -7 -4 1300.67 68.49
2 -7 -4 1232.48 78.59
2 -7 -4 1272.97 64.79
2 -7 -4 1271.17 61.09
2 -7 -4 1307.57 73.19
2 -7 -4 1222.48 67.39
1 -7 -4 3015.7 123.79
1 -7 -4 2908.11 142.39
1 -7 -4 2679.33 134.29
0 -7 -4 1541.75 88.69
0 -7 -4 1568.34 71.29
-1 -7 -4 1685.13 78.09
-1 -7 -4 1690.93 97.29
-2 -7 -4 1371.16 81.79
-2 -7 -4 1424.06 69.99
-2 -7 -4 1365.16 88.69
-3 -7 -4 820.62 72.19
-3 -7 -4 872.41 53.89
-3 -7 -4 837.12 72.39
-3 -7 -4 928.71 59.59
3 -8 -4 728.23 63.59
3 -8 -4 812.72 57.39
3 -8 -4 840.72 61.79
3 -8 -4 737.73 53.69
2 -8 -4 486.45 32.2
2 -8 -4 448.96 50.59
2 -8 -4 410.16 38.4
2 -8 -4 433.46 36.6
2 -8 -4 493.75 52.79
1 -8 -4 757.42 41.5
1 -8 -4 762.22 61.59
0 -8 -4 1058.79 53.69
0 -8 -4 1065.99 72.59
-1 -8 -4 829.92 46.1
-1 -8 -4 836.52 65.69
-2 -8 -4 745.33 62.09
-2 -8 -4 799.02 46.9
-2 -8 -4 662.53 64.29
-3 -8 -4 569.14 65.69
-3 -8 -4 448.76 42.2
-3 -8 -4 504.35 48.2
-3 -8 -4 458.35 61.19
3 -9 -4 -9.7 17.8
3 -9 -4 25.7 30
3 -9 -4 10.2 27.6
3 -9 -4 13.4 21.9
3 -9 -4 38.3 38.6
2 -9 -4 29.8 15.4
2 -9 -4 10.8 36.9
2 -9 -4 5.3 18.4
2 -9 -4 -2.2 23.9
2 -9 -4 1.7 15.2
1 -9 -4 109.09 17.8
1 -9 -4 115.09 30.6
0 -9 -4 21 22.2
0 -9 -4 7.9 14.7
0 -9 -4 11 24.1
-1 -9 -4 241.08 24.2
-1 -9 -4 211.78 40.8
-2 -9 -4 54.69 17.5
-2 -9 -4 77.59 34.9
-2 -9 -4 24.7 27.8
-3 -9 -4 189.48 46.7
-3 -9 -4 106.49 26.2
2 -10 -4 477.95 44.3
2 -10 -4 522.15 62.19
2 -10 -4 514.15 66.89
2 -10 -4 564.44 39.6
1 -10 -4 70.59 30.5
1 -10 -4 117.49 19.7
1 -10 -4 66.89 31.2
0 -10 -4 416.06 34.4
0 -10 -4 436.96 55.29
-1 -10 -4 87.99 31.6
-1 -10 -4 65.59 29.8
-1 -10 -4 53.29 16.4
-2 -10 -4 144.79 39.7
-2 -10 -4 163.88 24.7
1 -11 -4 765.22 62.29
1 -11 -4 726.03 46.9
1 -11 -4 769.62 74.19
0 -11 -4 660.53 58.29
0 -11 -4 583.44 66.99
0 -11 -4 608.24 43.4
-1 -11 -4 679.53 70.79
-1 -11 -4 676.13 45.4
-1 -11 -4 637.74 61.59
-1 -13 5 47.3 49.5
-1 -13 5 58.99 24.3
-1 -13 5 55.59 35.4
0 -13 5 219.98 29.5
0 -13 5 293.07 53.19
1 -13 5 1.6 41.5
1 -13 5 18.7 21.7
1 -13 5 5.1 27.5
2 12 -5 170.78 40.7
-2 -12 5 128.19 42.2
-2 -12 5 113.39 55.89
-2 -12 5 139.19 29.9
-1 -12 5 200.28 53.19
-1 -12 5 196.98 27.7
-1 -12 5 181.78 33.5
0 -12 5 92.29 22.6
0 -12 5 87.59 27.9
0 -12 5 65.89 38.8
1 -12 5 135.49 24.7
1 -12 5 196.68 47.4
1 -12 5 129.89 29.7
2 -12 5 -27.1 26.9
2 -12 5 -2.8 50.29
-3 -11 5 535.85 74.89
2 11 -5 698.13 62.69
-2 -11 5 448.86 69.89
-2 -11 5 661.43 71.39
-2 -11 5 686.83 50.09
1 11 -5 1004.6 68.19
-1 -11 5 881.51 60.59
-1 -11 5 884.81 82.49
-1 -11 5 927.11 54.69
0 -11 5 657.13 45.8
0 -11 5 733.43 66.59
0 -11 5 700.53 50.99
1 -11 5 1030 79.39
1 -11 5 883.81 54.29
1 -11 5 876.91 57.19
2 -11 5 383.16 35.4
2 -11 5 251.87 59.19
2 -11 5 430.06 40.7
3 -11 5 558.54 77.19
3 -11 5 576.84 50.79
3 -11 5 568.54 56.99
3 10 -5 838.42 74.49
-3 -10 5 868.41 93.09
-3 -10 5 820.22 58.59
2 10 -5 1124.69 77.19
-2 -10 5 1190.98 64.89
-2 -10 5 1178.38 85.09
-2 -10 5 971.6 89.59
1 10 -5 1611.14 82.19
-1 -10 5 1254.77 93.39
-1 -10 5 1325.67 75.79
-1 -10 5 1402.66 70.39
0 -10 5 1373.06 70.29
0 -10 5 1470.45 88.09
0 -10 5 1465.35 74.39
1 -10 5 1456.95 76.59
1 -10 5 1576.84 97.09
2 -10 5 1244.78 65.29
2 -10 5 1203.98 67.49
2 -10 5 1131.29 88.59
3 -10 5 873.71 58.89
3 -10 5 806.12 75.59
3 -10 5 872.01 64.29
3 9 -5 368.66 49.99
-3 -9 5 416.66 64.99
-3 -9 5 311.57 34.8
2 9 -5 1129.29 74.09
-2 -9 5 1105.79 78.69
-2 -9 5 1093.69 60.79
-2 -9 5 1017.7 84.79
1 9 -5 676.33 52.19
-1 -9 5 721.23 39.4
-1 -9 5 435.06 55.69
-1 -9 5 557.44 46.1
0 9 -5 1454.05 75.79
0 -9 5 1544.75 85.89
0 -9 5 1478.35 70.89
0 -9 5 1501.85 74.49
1 -9 5 739.53 68.69
1 -9 5 801.82 48.1
2 -9 5 1593.04 94.29
2 -9 5 1550.64 79.09
2 -9 5 1636.94 79.59
3 -9 5 542.85 56.79
3 -9 5 606.74 62.49
3 -9 5 611.24 49.2
3 -9 5 541.15 53.09
4 8 -5 129.99 44.2
-4 -8 5 179.28 55.79
-4 -8 5 44.9 33
3 8 -5 104.39 34.4
-3 -8 5 5.4 43.5
-3 -8 5 74.79 27.3
-3 -8 5 36.8 20.8
2 8 -5 205.18 34.1
-2 -8 5 174.38 33.2
-2 -8 5 206.68 42.9
-2 -8 5 190.98 23.4
-2 -8 5 259.37 29.6
1 8 -5 16.5 19.7
-1 -8 5 -0.6 20.6
-1 -8 5 9.2 28.6
-1 -8 5 22.7 13.2
0 8 -5 448.26 39
0 8 -5 444.16 34.9
0 -8 5 470.25 45.1
0 -8 5 446.76 30.6
0 -8 5 436.36 35.5
1 -8 5 160.18 22.9
1 -8 5 127.39 18.9
1 -8 5 104.99 36.8
2 -8 5 345.17 46.3
2 -8 5 326.17 31.3
2 -8 5 278.07 28.6
3 -8 5 326.07 38.3
3 -8 5 279.37 34.4
3 -8 5 274.57 32.3
4 -8 5 227.98 45.9
4 -8 5 136.59 42.3
4 -8 5 183.18 35.1
4 7 -5 244.28 44.9
-4 -7 5 178.28 54.59
-4 -7 5 160.38 31.2
3 7 -5 501.45 53.19
-3 -7 5 485.85 39.9
-3 -7 5 564.34 68.09
-3 -7 5 492.75 44.5
2 7 -5 206.28 32.2
-2 -7 5 275.07 26.8
-2 -7 5 215.88 26.9
-2 -7 5 222.48 38.6
1 7 -5 133.39 21.9
1 7 -5 209.68 27.7
-1 -7 5 143.59 16.3
-1 -7 5 205.88 25.1
-1 -7 5 188.38 32.9
0 7 -5 580.94 37.6
0 7 -5 568.24 40.5
0 -7 5 581.14 45.1
0 -7 5 540.85 32.6
0 -7 5 617.64 37.4
-1 7 -5 89.79 21.3
1 -7 5 121.99 18.5
1 -7 5 93.89 16.9
1 -7 5 123.89 29.1
2 -7 5 478.35 36.2
2 -7 5 436.86 36.2
3 -7 5 6.5 23.3
3 -7 5 5.5 24.4
3 -7 5 20.9 20.9
4 -7 5 10.4 27.6
4 -7 5 14.8 35.5
4 -7 5 66.89 36.9
4 6 -5 1250.77 84.29
-4 -6 5 1029.7 67.09
-4 -6 5 1238.68 95.09
3 6 -5 1129.09 71.89
-3 -6 5 1056.89 62.19
-3 -6 5 1127.09 79.79
-3 -6 5 1113.29 58.29
2 6 -5 2170.98 104.69
2 6 -5 2078.19 101.29
-2 -6 5 2112.99 97.19
-2 -6 5 2094.99 108.39
-2 -6 5 2224.78 94.99
1 6 -5 2011.4 94.89
1 6 -5 1962.8 95.39
-1 -6 5 2055.59 99.89
-1 -6 5 2035.8 91.49
-1 -6 5 2036.8 87.99
0 6 -5 2800.02 123.79
0 6 -5 2711.33 121.19
0 -6 5 2786.42 119.49
0 -6 5 2731.13 125.19
-1 6 -5 1188.28 60.99
1 -6 5 1148.19 56.69
1 -6 5 1138.79 55.39
1 -6 5 1237.98 64.19
-2 6 -5 1794.42 103.29
-2 6 -5 1816.02 84.99
2 -6 5 1775.92 85.59
2 -6 5 1788.42 83.09
2 -6 5 1865.21 84.79
-3 6 -5 1293.97 90.09
3 -6 5 1321.07 70.79
3 -6 5 1312.37 73.19
3 -6 5 1284.97 70.79
4 -6 5 486.45 53.39
4 -6 5 555.54 54.99
4 -6 5 428.76 44.1
4 5 -5 998.1 75.29
4 5 -5 929.81 65.99
-4 -5 5 949.6 84.09
3 5 -5 1781.62 95.69
-3 -5 5 1836.22 102.09
-3 -5 5 1844.02 83.59
-3 -5 5 1743.33 87.39
2 5 -5 2224.38 109.49
2 5 -5 2249.77 106.09
-2 -5 5 2347.57 103.39
-2 -5 5 2434.36 100.69
-2 -5 5 2317.47 112.69
1 5 -5 3466.15 152.98
1 5 -5 3455.05 151.98
-1 -5 5 3515.75 145.89
-1 -5 5 3565.64 154.98
-1 -5 5 3425.26 148.39
0 5 -5 3652.03 158.08
0 5 -5 3546.55 156.08
0 -5 5 3671.83 154.68
0 -5 5 3644.54 159.78
0 -5 5 3769.32 154.08
-1 5 -5 4417.76 183.68
-1 5 -5 4422.06 196.28
1 -5 5 4363.16 184.58
1 -5 5 4278.07 180.88
1 -5 5 4052.59 179.58
-2 5 -5 2414.06 120.69
-2 5 -5 2210.48 103.19
2 -5 5 2351.16 105.99
2 -5 5 2386.96 104.49
2 -5 5 2337.37 102.79
-3 5 -5 1897.71 108.79
3 -5 5 1942.81 94.69
3 -5 5 1898.71 90.69
3 -5 5 1766.72 91.69
4 -5 5 1027.2 72.19
4 -5 5 1024.8 68.79
4 -5 5 1147.09 71.09
4 4 -5 350.66 40.3
4 4 -5 409.66 50.39
-4 -4 5 379.46 57.49
3 4 -5 1356.26 67.29
3 4 -5 1262.77 68.59
3 4 -5 1316.47 75.99
-3 -4 5 1262.97 79.79
-3 -4 5 1324.17 68.79
2 4 -5 1012.6 56.59
2 4 -5 957 51.29
-2 -4 5 976.6 50.29
-2 -4 5 957.9 59.69
1 4 -5 1465.05 73.19
1 4 -5 1476.65 71.39
-1 -4 5 1559.44 74.79
-1 -4 5 1530.85 69.09
0 4 -5 3457.95 144.09
0 4 -5 3107.39 141.79
0 4 -5 3544.15 152.48
0 -4 5 3432.76 140.69
0 -4 5 3250.57 145.19
0 -4 5 3274.87 140.69
-1 4 -5 2145.49 103.69
-1 4 -5 2056.59 90.89
1 -4 5 1923.51 87.69
1 -4 5 2018.2 89.09
1 -4 5 2035.4 89.29
-2 4 -5 2352.96 118.99
2 -4 5 2390.66 103.59
2 -4 5 2325.87 105.49
2 -4 5 2274.37 101.69
-3 4 -5 969.9 56.19
-3 4 -5 938.91 72.49
3 -4 5 1133.19 57.59
3 -4 5 1011.2 57.69
3 -4 5 1082.29 62.69
-4 4 -5 935.41 60.79
4 -4 5 1026.2 68.59
4 -4 5 990.9 65.39
4 -4 5 1035.1 75.09
5 3 -5 -18.3 36
5 3 -5 84.89 41.6
-5 -3 5 50.59 54.49
4 3 -5 -23.3 21.8
4 3 -5 30.3 32.9
4 3 -5 11.8 26.6
-4 -3 5 28.8 41.1
3 3 -5 58.69 16.4
3 3 -5 81.39 26.9
3 3 -5 88.59 21
-3 -3 5 48.7 30.9
-3 -3 5 78.29 23.7
2 3 -5 175.68 22.6
2 3 -5 197.48 26
2 3 -5 244.48 24.4
-2 -3 5 244.88 23.3
-2 -3 5 245.58 35.5
1 3 -5 6.1 11.3
1 3 -5 9.6 14.9
-1 -3 5 17.3 11
-1 -3 5 13.9 12.8
-1 -3 5 36.5 18.5
0 3 -5 252.37 19.6
0 3 -5 286.17 21.4
0 3 -5 295.07 28.2
0 -3 5 232.38 19.3
0 -3 5 282.97 20.2
-1 3 -5 27 11.8
-1 3 -5 18.7 11.5
-1 3 -5 12.7 18.7
1 -3 5 12.8 11.4
1 -3 5 15.4 11.7
1 -3 5 17.9 12.7
-2 3 -5 752.52 40.7
-2 3 -5 726.33 55.49
2 -3 5 778.32 45
2 -3 5 748.43 39.7
2 -3 5 737.63 40.6
-3 3 -5 306.07 31.8
-3 3 -5 340.37 49.8
3 -3 5 348.27 38.6
3 -3 5 357.66 32.6
-4 3 -5 125.49 29.2
4 -3 5 129.99 34.6
4 -3 5 128.29 28.6
4 -3 5 226.18 37.5
5 2 -5 531.95 70.19
5 2 -5 427.76 45.9
5 2 -5 421.86 54.09
-5 -2 5 488.65 69.19
4 2 -5 429.36 49.99
4 2 -5 433.66 51.29
4 2 -5 395.16 39.1
-4 -2 5 472.65 59.19
3 2 -5 776.42 48.8
3 2 -5 736.83 52.39
-3 -2 5 746.23 59.99
2 2 -5 422.06 29.8
2 2 -5 436.46 37.6
2 2 -5 533.75 32.8
-2 -2 5 469.75 32.5
-2 -2 5 472.95 39.6
1 2 -5 949.01 45.9
1 2 -5 943.31 48.4
-1 -2 5 927.91 44.4
-1 -2 5 909.91 43.6
0 2 -5 614.44 33.2
0 2 -5 703.63 34.8
0 2 -5 748.33 40.7
0 -2 5 694.63 33.3
0 -2 5 665.53 32.4
-1 2 -5 692.43 35.4
-1 2 -5 724.13 36
-1 2 -5 792.62 48.3
1 -2 5 676.23 37.5
1 -2 5 671.33 36.4
-2 2 -5 537.15 33.7
-2 2 -5 641.14 48.3
2 -2 5 591.44 34.3
2 -2 5 579.34 38.9
-3 2 -5 178.58 37.2
-3 2 -5 198.58 25
3 -2 5 207.18 29.1
3 -2 5 175.98 22.5
-4 2 -5 -6.7 23.8
4 -2 5 92.89 32.2
4 -2 5 -16.4 28.5
4 -2 5 14.5 22.4
5 1 -5 717.13 61.09
5 1 -5 710.83 74.89
4 1 -5 1188.88 71.69
4 1 -5 1241.38 76.29
4 1 -5 1291.47 78.79
-4 -1 5 1177.28 87.99
3 1 -5 2056.59 99.89
3 1 -5 1980.8 97.39
-3 -1 5 2020.7 105.29
2 1 -5 1911.91 92.39
2 1 -5 1976 89.59
2 1 -5 2013 87.69
-2 -1 5 1969.4 94.29
-2 -1 5 1992.8 89.29
1 1 -5 4008.2 175.48
1 1 -5 4389.76 174.38
-1 -1 5 4069.69 172.98
0 1 -5 2139.29 92.09
0 1 -5 2010.5 91.19
0 1 -5 2307.07 97.29
0 -1 5 2277.57 90.39
0 -1 5 1950.3 91.19
-1 1 -5 4101.59 178.18
-1 1 -5 4325.97 179.48
-1 1 -5 4620.84 189.88
1 -1 5 4296.57 178.38
1 -1 5 4126.19 179.58
-2 1 -5 1333.97 73.19
-2 1 -5 1165.88 57.69
2 -1 5 1160.48 57.19
2 -1 5 1213.68 61.39
-3 1 -5 1730.13 86.09
-3 1 -5 1901.51 103.99
3 -1 5 1853.11 91.29
3 -1 5 1817.12 84.89
-4 1 -5 351.46 36.7
4 -1 5 438.26 50.09
4 -1 5 401.56 38.5
5 0 -5 604.14 72.29
5 0 -5 720.03 60.09
4 0 -5 1175.58 69.89
4 0 -5 1130.29 76.19
4 0 -5 1242.68 74.39
3 0 -5 2317.07 111.49
3 0 -5 2455.35 112.89
-3 0 5 2307.37 117.09
2 0 -5 2230.48 99.19
2 0 -5 2280.77 95.99
2 0 -5 2211.48 101.29
-2 0 5 2095.19 101.99
1 0 -5 6021.2 243.08
1 0 -5 5696.93 244.28
-1 0 5 5861.81 242.08
0 0 -5 1962.7 89.59
0 0 -5 2034.2 89.99
0 0 -5 2241.18 95.59
0 0 5 2142.59 87.99
0 0 5 2047.9 89.49
-1 0 -5 6643.24 280.67
-1 0 -5 7084.59 290.47
-1 0 -5 6720.13 279.47
1 0 5 6702.03 280.57
-2 0 -5 1609.34 72.69
-2 0 -5 1585.94 74.19
-2 0 -5 1778.72 89.89
2 0 5 1549.54 76.49
-3 0 -5 2849.22 141.69
-3 0 -5 3123.19 150.88
-3 0 -5 2996 132.69
3 0 5 2966.8 135.99
-4 0 -5 603.64 48.7
4 0 5 744.23 57.59
4 0 5 673.83 48.7
5 -1 -5 379.16 55.59
5 -1 -5 425.86 46.3
4 -1 -5 347.07 43.8
4 -1 -5 371.26 37.5
4 -1 -5 354.36 46.3
3 -1 -5 1588.34 82.79
3 -1 -5 1628.94 83.09
2 -1 -5 593.94 37.4
2 -1 -5 620.24 32
2 -1 -5 559.14 37.1
1 -1 -5 4034.3 164.38
1 -1 -5 3838.02 161.78
1 -1 -5 3662.03 163.28
0 -1 -5 2077.39 91.79
0 -1 -5 1944.81 85.79
0 1 5 1880.41 85.09
-1 -1 -5 3672.03 165.98
-1 -1 -5 3974.3 164.58
-1 -1 -5 4117.99 176.18
1 1 5 3988.2 166.08
-2 -1 -5 1455.45 66.99
-2 -1 -5 1494.75 81.19
-2 -1 -5 1398.96 67.19
2 1 5 1460.65 69.89
-3 -1 -5 1684.83 97.49
-3 -1 -5 1530.25 89.99
-3 -1 -5 1598.34 78.99
3 1 5 1705.13 83.19
-4 -1 -5 654.23 69.79
-4 -1 -5 656.43 49.2
4 1 5 642.24 55.09
5 -2 -5 40.5 39.5
5 -2 -5 16.5 28.8
4 -2 -5 3.8 22.6
4 -2 -5 24.6 30
4 -2 -5 -3 28.6
3 -2 -5 26.5 21.1
3 -2 -5 27.6 21.4
2 -2 -5 50.59 10.5
2 -2 -5 58.89 15.9
2 -2 -5 52.39 14.8
1 -2 -5 116.09 16.8
1 -2 -5 94.89 11.8
1 -2 -5 80.89 14.8
0 -2 -5 86.49 8.4
0 -2 -5 86.59 16.2
0 -2 -5 102.39 12.8
-1 -2 -5 621.24 33.2
-1 -2 -5 663.93 35.5
-1 -2 -5 666.43 44.5
1 2 5 647.04 37.5
-2 -2 -5 192.28 20.4
-2 -2 -5 186.98 31.5
-2 -2 -5 204.78 20.5
2 2 5 199.98 22.3
-3 -2 -5 458.65 50.49
-3 -2 -5 397.16 48.2
-3 -2 -5 414.06 30.6
-3 -2 -5 390.56 33.6
3 2 5 396.86 38.9
-4 -2 -5 168.18 46.5
-4 -2 -5 143.69 27.2
4 2 5 180.18 32.9
4 -3 -5 220.08 38.8
4 -3 -5 245.28 32.8
3 -3 -5 638.04 46.3
3 -3 -5 649.93 46.1
3 -3 -5 677.13 50.19
2 -3 -5 532.05 30.1
2 -3 -5 495.75 35.7
2 -3 -5 490.45 34.2
1 -3 -5 623.74 36.1
1 -3 -5 626.24 39.6
1 -3 -5 604.64 33.7
0 -3 -5 1122.59 54.79
0 -3 -5 1124.39 61.79
0 -3 -5 1121.49 50.09
-1 -3 -5 291.67 23.4
-1 -3 -5 297.07 21.1
-1 -3 -5 305.37 31.1
1 3 5 305.47 24.5
-2 -3 -5 322.47 26.5
-2 -3 -5 336.57 38
-2 -3 -5 316.27 25.1
2 3 5 310.07 30.5
-3 -3 -5 70.39 15.9
-3 -3 -5 88.99 32.5
-3 -3 -5 69.79 27.9
-3 -3 -5 68.59 18.8
3 3 5 42.1 22.4
-4 -3 -5 91.69 43.3
-4 -3 -5 67.39 26.3
4 3 5 71.79 28.7
4 -4 -5 1176.68 80.99
4 -4 -5 1130.19 72.19
3 -4 -5 1531.55 79.19
3 -4 -5 1539.65 83.59
3 -4 -5 1563.54 79.09
2 -4 -5 1976.1 95.09
2 -4 -5 2073.29 98.69
2 -4 -5 2012.9 91.79
2 -4 -5 2088.59 95.19
1 -4 -5 2208.88 99.39
1 -4 -5 2217.08 106.29
1 -4 -5 2288.67 94.39
1 -4 -5 2175.08 99.99
0 -4 -5 2350.46 116.19
0 -4 -5 2344.67 103.09
0 -4 -5 2588.34 109.59
-1 -4 -5 1677.73 87.39
-1 -4 -5 2006.1 83.39
-1 -4 -5 1933.81 97.69
1 4 5 1899.91 83.69
-2 -4 -5 1784.62 98.29
-2 -4 -5 1879.01 85.89
-2 -4 -5 1707.83 82.09
2 4 5 1781.92 83.19
-3 -4 -5 874.41 51.69
-3 -4 -5 834.42 65.79
-3 -4 -5 892.21 68.49
-3 -4 -5 941.51 51.29
3 4 5 822.92 53.79
-4 -4 -5 435.76 42.1
-4 -4 -5 490.25 61.99
4 4 5 350.56 41.2
4 -5 -5 951.4 74.29
4 -5 -5 980.2 66.89
3 -5 -5 1637.24 80.89
3 -5 -5 1596.74 85.09
3 -5 -5 1476.15 80.09
2 -5 -5 2256.07 103.99
2 -5 -5 2299.57 110.59
2 -5 -5 2152.08 103.89
2 -5 -5 2243.08 102.69
2 -5 -5 2264.87 101.79
1 -5 -5 2711.63 117.49
1 -5 -5 2768.12 131.49
1 -5 -5 2856.51 123.99
0 -5 -5 3070.99 129.69
0 -5 -5 3159.08 137.09
0 -5 -5 2948.8 144.29
-1 -5 -5 2159.38 95.79
-1 -5 -5 2199.58 112.49
-2 -5 -5 1913.81 105.29
-2 -5 -5 1876.91 92.79
-2 -5 -5 1915.91 87.79
-3 -5 -5 1438.46 72.49
-3 -5 -5 1517.25 74.69
-3 -5 -5 1389.96 90.79
-3 -5 -5 1417.26 87.49
3 5 5 1271.67 73.29
-4 -5 -5 756.92 77.69
-4 -5 -5 836.02 55.59
4 -6 -5 199.28 34.5
4 -6 -5 156.28 38.8
3 -6 -5 714.13 48.8
3 -6 -5 725.53 55.99
3 -6 -5 605.24 49.2
2 -6 -5 686.93 45.6
2 -6 -5 689.63 43.2
2 -6 -5 692.23 52.29
2 -6 -5 709.83 38.3
2 -6 -5 732.53 46.6
2 -6 -5 651.33 41.3
2 -6 -5 713.43 48.4
1 -6 -5 648.64 48.8
1 -6 -5 633.44 33.3
1 -6 -5 612.44 40.1
0 -6 -5 1916.01 101.29
0 -6 -5 1902.01 84.69
-1 -6 -5 1008.9 65.89
-1 -6 -5 916.41 48.5
-2 -6 -5 1028.4 66.19
-2 -6 -5 1093.39 61.79
-2 -6 -5 978.7 71.89
-2 -6 -5 1058.49 55.19
-3 -6 -5 602.94 45.4
-3 -6 -5 696.03 63.59
-3 -6 -5 627.54 63.09
-3 -6 -5 657.33 46.8
4 -7 -5 48.9 35.9
4 -7 -5 20.5 27.2
4 -7 -5 4.6 35.9
3 -7 -5 47.6 27.2
3 -7 -5 24.7 21.7
3 -7 -5 28.7 27.2
2 -7 -5 19.4 20.5
2 -7 -5 12.3 15.6
2 -7 -5 9.8 19.1
2 -7 -5 7.1 12.5
2 -7 -5 9.8 12.4
2 -7 -5 -20.4 16.8
1 -7 -5 6.8 13.8
1 -7 -5 5.2 10.7
1 -7 -5 11.9 18.3
0 -7 -5 70.19 13.6
0 -7 -5 50.59 20.9
-1 -7 -5 49.5 13.6
-1 -7 -5 43.6 20.7
-2 -7 -5 191.88 22.2
-2 -7 -5 160.68 34.7
-3 -7 -5 60.89 20.7
-3 -7 -5 45.5 20.5
-3 -7 -5 34.4 28.2
3 -8 -5 406.26 44
3 -8 -5 398.66 44.6
3 -8 -5 345.57 36.1
3 -8 -5 357.46 47.8
2 -8 -5 254.57 43.4
2 -8 -5 335.37 48.8
2 -8 -5 271.67 26.4
2 -8 -5 222.88 30.7
2 -8 -5 281.37 30.7
2 -8 -5 274.67 31.7
1 -8 -5 561.14 35.1
1 -8 -5 600.34 55.59
0 -8 -5 405.56 46.5
0 -8 -5 438.46 30.9
-1 -8 -5 216.48 22.2
-1 -8 -5 195.08 36.1
-2 -8 -5 210.58 39.3
-2 -8 -5 193.68 38.5
-2 -8 -5 159.28 23.5
-3 -8 -5 28.1 21.5
-3 -8 -5 31.5 28.9
-3 -8 -5 69.09 39.6
-3 -8 -5 82.89 23.9
3 -9 -5 639.24 49.3
3 -9 -5 623.34 64.99
3 -9 -5 656.13 59.59
3 -9 -5 614.24 53.19
3 -9 -5 517.65 40.3
2 -9 -5 1220.38 68.79
2 -9 -5 1276.07 86.29
2 -9 -5 1181.48 70.19
2 -9 -5 1251.47 62.79
1 -9 -5 554.54 49.6
1 -9 -5 731.63 64.99
1 -9 -5 768.72 42.4
0 -9 -5 1204.68 61.59
0 -9 -5 1212.18 84.09
-1 -9 -5 620.64 40.2
-1 -9 -5 642.34 62.09
-2 -9 -5 950 71.19
-2 -9 -5 930.71 79.19
-2 -9 -5 913.21 55.89
2 -10 -5 903.21 76.19
2 -10 -5 863.41 49.4
2 -10 -5 796.32 56.09
1 -10 -5 635.74 43
1 -10 -5 757.22 55.69
1 -10 -5 711.73 68.59
0 -10 -5 1043.7 81.49
0 -10 -5 1086.29 57.89
-1 -10 -5 791.22 71.69
-1 -10 -5 800.42 48.5
-2 -10 -5 653.73 48.8
-2 -10 -5 714.53 59.99
-2 -10 -5 715.93 72.49
1 -11 -5 508.95 50.79
1 -11 -5 598.64 68.69
1 -11 -5 528.25 40.1
0 -11 -5 260.87 27.8
0 -11 -5 209.98 44.3
0 -11 -5 304.87 43.5
-1 -11 -5 461.95 38.3
-1 -11 -5 472.65 62.19
-1 -13 6 895.91 59.79
-1 -13 6 946.21 91.99
0 -13 6 418.66 59.79
0 -13 6 425.16 41.8
0 -13 6 451.45 49.6
1 -13 6 686.13 75.09
1 -13 6 622.74 49
1 -13 6 529.15 53.59
2 12 -6 446.26 55.79
-2 -12 6 476.45 43.4
-2 -12 6 474.05 69.39
1 12 -6 1507.35 89.99
-1 -12 6 1501.05 77.99
-1 -12 6 1488.05 84.19
-1 -12 6 1452.25 107.19
0 -12 6 768.22 73.59
0 -12 6 806.22 56.99
0 -12 6 747.53 51.49
1 -12 6 1454.65 76.99
1 -12 6 1528.25 98.39
1 -12 6 1437.36 79.79
2 -12 6 518.95 71.89
2 -12 6 502.05 49.1
2 -12 6 388.66 43.2
3 11 -6 661.33 70.29
-3 -11 6 648.34 91.29
-3 -11 6 625.94 53.69
2 11 -6 470.95 55.39
-2 -11 6 242.18 36.7
-2 -11 6 388.96 37
-2 -11 6 158.68 55.69
-2 -11 6 288.37 48.8
1 11 -6 853.31 63.79
-1 -11 6 832.82 83.29
-1 -11 6 883.71 52.69
-1 -11 6 900.21 61.69
0 -11 6 664.83 66.09
0 -11 6 665.93 50.19
0 -11 6 610.04 44.4
1 -11 6 862.21 55.39
1 -11 6 1035.3 80.29
1 -11 6 924.01 58.79
2 -11 6 632.84 51.99
2 -11 6 525.85 76.79
2 -11 6 599.44 46.9
3 10 -6 25.2 35.9
-3 -10 6 44.6 24.3
-3 -10 6 103.59 54.19
2 10 -6 101.79 34.3
-2 -10 6 30.7 44.3
-2 -10 6 74.19 26.7
-2 -10 6 67.09 22.1
-2 -10 6 30.9 29.5
1 10 -6 77.79 28.2
-1 -10 6 43.2 42
-1 -10 6 34.1 18
-1 -10 6 47.7 27.2
0 10 -6 198.08 28.2
0 -10 6 252.37 30.6
0 -10 6 264.87 43.9
0 -10 6 236.28 24.9
1 -10 6 28.7 41.8
1 -10 6 -11.2 16.8
1 -10 6 63.19 24.2
2 -10 6 456.65 60.89
2 -10 6 417.16 38.7
2 -10 6 352.16 38.5
3 -10 6 51.39 42.7
3 -10 6 13.1 30.8
3 -10 6 24.2 24.5
3 9 -6 493.05 58.19
-3 -9 6 484.45 50.99
-3 -9 6 413.66 43
-3 -9 6 424.36 67.79
2 9 -6 171.68 35.7
-2 -9 6 202.38 26.1
-2 -9 6 232.68 49.6
-2 -9 6 216.78 30.7
1 9 -6 308.47 41.9
-1 -9 6 217.68 45.6
-1 -9 6 303.67 29.4
-1 -9 6 312.77 34.5
0 9 -6 154.88 23.1
0 -9 6 191.38 35.3
0 -9 6 170.08 25.7
0 -9 6 146.29 20.2
1 -9 6 320.97 28.8
1 -9 6 350.76 51.19
1 -9 6 378.56 33.7
2 -9 6 128.49 41.2
2 -9 6 93.79 24.3
2 -9 6 86.29 21.3
3 -9 6 126.99 40.4
3 -9 6 61.99 26.1
3 -9 6 63.49 32.9
3 -9 6 68.39 30.1
4 8 -6 875.41 77.09
-4 -8 6 771.42 92.49
3 8 -6 1092.89 76.59
-3 -8 6 1071.29 68.39
-3 -8 6 1109.49 62.49
-3 -8 6 1228.78 95.39
2 8 -6 1252.87 76.09
-2 -8 6 1310.87 69.59
-2 -8 6 1298.87 65.09
-2 -8 6 1202.28 85.49
1 8 -6 1618.04 81.29
1 8 -6 1515.85 80.59
-1 -8 6 1563.14 71.49
-1 -8 6 1402.96 76.49
0 8 -6 1508.05 80.89
0 8 -6 1585.24 77.69
0 -8 6 1511.95 83.79
0 -8 6 1529.55 72.59
0 -8 6 1663.03 75.59
-1 8 -6 989.2 58.69
1 -8 6 926.11 51.99
1 -8 6 937.01 50.69
2 -8 6 1029.1 58.49
2 -8 6 1118.29 70.29
2 -8 6 1052.99 58.09
3 -8 6 856.21 55.59
3 -8 6 760.62 61.59
3 -8 6 864.71 59.89
4 -8 6 274.67 47.6
4 -8 6 267.27 40
4 -8 6 326.57 49.5
4 7 -6 1090.99 84.09
-4 -7 6 1086.79 97.49
-4 -7 6 996 73.99
3 7 -6 1172.28 79.19
-3 -7 6 1296.37 90.99
-3 -7 6 1187.08 63.89
-3 -7 6 1206.18 69.69
2 7 -6 2903.21 141.69
2 7 -6 2969.3 139.39
-2 -7 6 3002.3 135.29
-2 -7 6 3148.59 131.89
-2 -7 6 3104.89 147.89
1 7 -6 1414.96 75.49
1 7 -6 1549.24 75.19
-1 -7 6 1524.85 67.29
-1 -7 6 1466.05 71.89
-1 -7 6 1324.27 81.49
0 7 -6 3414.86 155.78
0 7 -6 3572.34 153.18
0 -7 6 3565.94 157.78
0 -7 6 3473.85 150.48
-1 7 -6 2602.04 113.79
1 -7 6 2382.96 107.59
1 -7 6 2454.35 107.99
1 -7 6 2327.57 117.59
-2 7 -6 1703.53 81.59
2 -7 6 1556.74 77.59
2 -7 6 1631.84 78.89
3 -7 6 1697.73 89.49
3 -7 6 1827.52 91.69
3 -7 6 1765.72 90.39
4 -7 6 730.83 66.09
4 -7 6 674.83 59.39
4 -7 6 614.64 67.49
4 6 -6 616.14 68.69
-4 -6 6 646.34 81.29
-4 -6 6 685.23 60.49
3 6 -6 619.04 56.59
-3 -6 6 667.43 66.79
-3 -6 6 620.74 49
-3 -6 6 679.43 41.6
2 6 -6 1093.79 63.89
2 6 -6 1195.68 68.99
-2 -6 6 1272.07 75.09
-2 -6 6 1215.68 61.79
-2 -6 6 1195.38 57.29
1 6 -6 1897.41 94.19
1 6 -6 1888.51 92.79
-1 -6 6 2045.3 86.19
-1 -6 6 2076.29 99.29
-1 -6 6 1956.1 89.59
0 6 -6 1932.21 88.99
0 6 -6 1858.41 86.29
0 -6 6 1954.1 83.59
0 -6 6 1844.12 90.89
0 -6 6 1795.12 84.19
-1 6 -6 2436.56 123.29
-1 6 -6 2453.95 108.79
1 -6 6 2195.58 103.49
1 -6 6 2437.96 104.99
1 -6 6 2407.06 110.89
-2 6 -6 1078.49 75.49
-2 6 -6 1125.19 57.89
2 -6 6 1095.69 56.99
2 -6 6 1063.79 55.89
2 -6 6 1069.99 59.09
-3 6 -6 1352.06 93.39
3 -6 6 1390.36 72.59
3 -6 6 1368.36 76.49
3 -6 6 1359.46 73.19
4 -6 6 608.94 67.69
4 -6 6 711.03 59.29
4 -6 6 598.74 54.89
4 5 -6 42.5 35.5
4 5 -6 9.9 26.3
-4 -5 6 22.6 43.8
3 5 -6 62.69 29.7
3 5 -6 62.09 20.2
-3 -5 6 89.69 24.5
-3 -5 6 141.99 38.9
2 5 -6 66.19 17.9
2 5 -6 95.39 24.1
-2 -5 6 103.19 29.3
-2 -5 6 104.99 19.3
1 5 -6 274.87 31.2
1 5 -6 294.97 28
-1 -5 6 331.17 36.2
-1 -5 6 352.76 28.4
0 5 -6 69.79 23.8
0 5 -6 80.89 16.8
0 5 -6 49.99 14.7
0 -5 6 68.69 22
0 -5 6 77.79 14.8
0 -5 6 71.19 16
-1 5 -6 423.26 43.2
-1 5 -6 418.86 30.8
1 -5 6 401.26 27.1
1 -5 6 445.26 34.2
1 -5 6 395.36 29
-2 5 -6 366.76 29
-2 5 -6 361.66 45.3
2 -5 6 365.46 34.1
2 -5 6 421.96 31.3
2 -5 6 403.46 30.2
-3 5 -6 297.17 46.9
3 -5 6 404.96 35.6
3 -5 6 331.17 35.9
3 -5 6 371.56 35.3
4 -5 6 105.69 33.9
4 -5 6 131.69 33.7
4 -5 6 90.39 27.7
4 4 -6 523.55 52.29
4 4 -6 528.15 58.89
-4 -4 6 562.24 71.69
3 4 -6 629.14 53.59
3 4 -6 631.54 44.6
3 4 -6 665.53 43
-3 -4 6 650.53 45.9
-3 -4 6 617.64 59.49
2 4 -6 309.57 33.3
2 4 -6 281.47 27.2
-2 -4 6 297.67 39.5
-2 -4 6 295.47 28.2
1 4 -6 789.62 44.8
1 4 -6 759.02 47
-1 -4 6 817.82 48.7
-1 -4 6 790.62 41
-1 -4 6 817.72 42.9
0 4 -6 469.45 41.3
0 4 -6 430.76 30.1
0 4 -6 415.76 31.5
0 -4 6 421.36 29.4
0 -4 6 446.06 29.3
-1 4 -6 329.87 38.6
-1 4 -6 325.27 27.1
1 -4 6 316.97 25.3
1 -4 6 268.67 22.6
1 -4 6 262.97 24.6
-2 4 -6 826.32 43.1
-2 4 -6 809.92 44.3
-2 4 -6 840.52 61.99
2 -4 6 812.22 43.1
2 -4 6 773.52 44.3
2 -4 6 827.32 47.6
-3 4 -6 31.1 19.9
-3 4 -6 -3.3 28.8
3 -4 6 11.9 23.4
3 -4 6 -13.2 17.1
3 -4 6 26.4 22
-4 4 -6 201.18 31.5
4 -4 6 291.87 39.1
4 -4 6 149.19 30.6
4 -4 6 194.78 39.2
5 3 -6 839.62 79.49
5 3 -6 1030.6 82.59
-5 -3 6 827.52 93.19
4 3 -6 1257.57 80.09
4 3 -6 1229.08 77.89
-4 -3 6 1211.68 90.19
3 3 -6 2311.07 102.29
3 3 -6 2171.08 105.19
3 3 -6 2272.57 111.39
-3 -3 6 2194.68 104.99
-3 -3 6 2250.37 115.89
2 3 -6 3250.57 136.69
2 3 -6 3226.98 141.19
2 3 -6 3010.3 134.89
-2 -3 6 3047.7 135.19
-2 -3 6 3102.49 141.69
1 3 -6 2574.04 113.79
1 3 -6 2542.05 115.29
-1 -3 6 2562.84 111.09
-1 -3 6 2622.54 110.39
0 3 -6 5224.28 211.68
0 3 -6 4505.25 201.18
0 3 -6 4718.03 203.18
0 -3 6 4762.22 199.68
0 -3 6 4895.31 200.18
-1 3 -6 1897.91 80.99
-1 3 -6 1926.11 95.59
-1 3 -6 1757.02 82.69
1 -3 6 1758.92 81.79
1 -3 6 1835.32 81.39
-2 3 -6 3569.84 155.18
-2 3 -6 3468.55 154.48
-2 3 -6 3757.22 172.48
2 -3 6 3666.93 155.18
2 -3 6 3712.53 157.68
-3 3 -6 535.45 40.5
-3 3 -6 582.14 60.99
3 -3 6 587.34 42.3
3 -3 6 610.14 47.3
3 -3 6 535.45 39.4
-4 3 -6 1133.39 71.79
4 -3 6 1263.57 85.29
4 -3 6 1331.17 71.49
4 -3 6 1448.85 78.39
5 2 -6 765.92 62.69
5 2 -6 862.31 73.79
5 2 -6 732.53 74.49
-5 -2 6 751.32 87.59
4 2 -6 1219.48 80.79
4 2 -6 1347.57 82.39
-4 -2 6 1376.16 93.99
3 2 -6 2041.3 99.79
3 2 -6 2041.7 93.89
3 2 -6 2075.79 103.69
-3 -2 6 2177.68 109.49
2 2 -6 3587.24 159.48
2 2 -6 3853.11 159.88
2 2 -6 3825.02 164.58
-2 -2 6 3726.03 159.28
-2 -2 6 3640.94 164.28
1 2 -6 4294.27 186.68
1 2 -6 4492.95 185.38
-1 -2 6 4375.46 182.78
-1 -2 6 4354.46 182.58
0 2 -6 5249.57 237.78
0 2 -6 6073.49 239.68
0 2 -6 6261.57 246.68
0 -2 6 5038.7 237.18
0 -2 6 6113.29 237.38
-1 2 -6 3745.13 166.28
-1 2 -6 3585.64 153.18
-1 2 -6 3847.22 155.28
1 -2 6 3470.85 154.48
1 -2 6 3627.44 153.78
-2 2 -6 2809.32 130.59
-2 2 -6 2564.44 112.59
-2 2 -6 2423.06 111.09
2 -2 6 2588.74 114.89
2 -2 6 2534.95 111.99
-3 2 -6 2302.97 109.89
-3 2 -6 2506.85 130.89
3 -2 6 2372.86 114.19
3 -2 6 2411.06 108.39
-4 2 -6 878.51 60.99
4 -2 6 905.11 59.59
4 -2 6 1187.18 67.09
4 -2 6 1017.7 72.69
5 1 -6 387.76 44.8
5 1 -6 430.86 54.99
4 1 -6 361.96 45.3
4 1 -6 376.86 43.9
-4 -1 6 446.96 57.09
3 1 -6 1567.24 80.89
3 1 -6 1587.04 84.89
-3 -1 6 1596.04 89.59
2 1 -6 569.44 41.4
2 1 -6 621.14 34.5
2 1 -6 512.55 36.5
-2 -1 6 572.14 37
1 1 -6 3874.71 157.88
1 1 -6 3628.34 159.48
-1 -1 6 3662.73 156.28
0 1 -6 1888.11 87.09
0 1 -6 2172.68 94.19
0 1 -6 1962.3 87.99
0 -1 6 2084.39 85.89
0 -1 6 1929.51 87.39
-1 1 -6 4209.08 180.58
-1 1 -6 3894.21 167.48
-1 1 -6 4102.59 169.68
1 -1 6 3910.21 169.18
1 -1 6 3966.4 167.88
-2 1 -6 1489.05 82.29
-2 1 -6 1402.16 65.79
-2 1 -6 1415.76 64.79
2 -1 6 1402.86 68.49
2 -1 6 1349.77 64.79
-3 1 -6 1665.03 99.19
-3 1 -6 1612.54 80.59
3 -1 6 1745.43 85.59
3 -1 6 1622.94 78.69
-4 1 -6 649.83 48.9
4 -1 6 687.93 58.59
4 -1 6 602.44 46.6
5 0 -6 38.6 39.7
5 0 -6 55.89 29.3
4 0 -6 154.18 29.7
4 0 -6 210.18 37.1
4 0 -6 194.98 36.4
3 0 -6 368.26 38.4
3 0 -6 373.86 41.9
-3 0 6 373.16 44.7
2 0 -6 79.59 12.5
2 0 -6 48.2 16.5
2 0 -6 86.19 18.7
1 0 -6 545.55 34.3
1 0 -6 598.04 31.9
-1 0 6 541.85 32.7
0 0 -6 180.28 17.8
0 0 -6 230.98 23.5
0 0 -6 186.08 16.7
0 0 6 207.68 17.1
0 0 6 187.68 20.9
-1 0 -6 794.72 49.7
-1 0 -6 748.93 38.7
-1 0 -6 730.53 36.9
1 0 6 692.13 41.3
-2 0 -6 159.08 17.9
-2 0 -6 162.18 28.4
-2 0 -6 175.78 18.8
2 0 6 187.58 22
-3 0 -6 273.17 40.5
-3 0 -6 266.47 27.7
-3 0 -6 302.27 48.1
3 0 6 265.97 31.9
-4 0 -6 307.07 35.2
4 0 6 294.07 39.5
4 0 6 253.67 32
5 -1 -6 162.38 47.2
5 -1 -6 163.08 36.8
4 -1 -6 722.73 60.89
4 -1 -6 804.42 64.19
4 -1 -6 726.13 56.49
3 -1 -6 398.86 42.4
3 -1 -6 387.56 41.1
2 -1 -6 1001.3 54.59
2 -1 -6 998.7 48.9
2 -1 -6 999.2 53.89
1 -1 -6 777.82 39.6
1 -1 -6 759.12 42.5
1 -1 -6 765.42 42.1
0 -1 -6 859.61 44.8
0 -1 -6 939.91 51.19
0 -1 -6 906.11 44.5
0 1 6 900.31 45.7
-1 -1 -6 798.32 42.1
-1 -1 -6 846.62 52.59
-1 -1 -6 816.32 39.8
1 1 6 824.82 44.7
-2 -1 -6 318.07 24.6
-2 -1 -6 307.97 37.5
-2 -1 -6 342.97 25.3
2 1 6 320.57 31
-3 -1 -6 197.28 25.5
-3 -1 -6 223.88 38.9
-3 -1 -6 245.88 38.9
3 1 6 221.38 29.2
-4 -1 -6 34.2 24.1
-4 -1 -6 41.1 41.2
4 1 6 48.8 28.9
4 -2 -6 1168.18 73.59
4 -2 -6 1115.19 78.49
4 -2 -6 1134.29 69.99
3 -2 -6 1810.12 91.69
3 -2 -6 1804.92 91.79
2 -2 -6 2415.76 103.99
2 -2 -6 2350.96 107.69
2 -2 -6 2320.07 107.69
1 -2 -6 2316.37 105.19
1 -2 -6 2443.16 108.59
1 -2 -6 2306.67 103.49
0 -2 -6 3326.37 139.29
0 -2 -6 3392.46 151.28
0 -2 -6 3334.87 144.19
-1 -2 -6 2769.82 123.29
-1 -2 -6 2882.61 133.69
-1 -2 -6 2855.51 120.39
1 2 6 2776.12 121.69
-2 -2 -6 1811.22 82.99
-2 -2 -6 1799.52 98.09
-2 -2 -6 1840.92 84.49
2 2 6 1838.82 85.39
-3 -2 -6 1416.66 89.69
-3 -2 -6 1305.97 69.99
-3 -2 -6 1448.06 68.99
-3 -2 -6 1448.26 83.59
3 2 6 1345.47 74.19
-4 -2 -6 442.36 42.7
-4 -2 -6 584.44 66.09
4 2 6 480.65 51.99
4 -3 -6 1251.37 75.19
4 -3 -6 1258.47 81.79
3 -3 -6 1454.45 78.09
3 -3 -6 1399.46 76.59
2 -3 -6 3396.46 149.88
2 -3 -6 3358.36 146.39
2 -3 -6 3431.76 149.79
1 -3 -6 2652.73 117.29
1 -3 -6 2597.44 118.19
1 -3 -6 2759.22 123.49
0 -3 -6 3823.52 158.38
0 -3 -6 3883.31 171.98
0 -3 -6 3702.63 163.28
-1 -3 -6 2714.73 120.09
-1 -3 -6 2779.52 116.59
-1 -3 -6 2708.13 130.49
1 3 6 2655.23 117.39
-2 -3 -6 2349.06 105.19
-2 -3 -6 2348.86 107.29
-2 -3 -6 2328.17 121.19
2 3 6 2425.06 107.09
-3 -3 -6 1757.72 88.89
-3 -3 -6 1967.3 89.49
-3 -3 -6 1877.71 109.49
-3 -3 -6 1870.11 101.19
3 3 6 1825.52 92.59
-4 -3 -6 891.01 59.29
-4 -3 -6 971 79.49
4 3 6 905.91 66.89
4 -4 -6 555.64 51.29
4 -4 -6 631.64 61.19
3 -4 -6 465.55 41.9
3 -4 -6 417.76 45.8
3 -4 -6 481.85 42.8
2 -4 -6 1262.17 61.99
2 -4 -6 1288.57 66.19
2 -4 -6 1249.18 66.19
2 -4 -6 1260.57 69.29
1 -4 -6 1159.28 59.39
1 -4 -6 1212.78 65.79
1 -4 -6 1157.68 58.29
0 -4 -6 1688.93 88.49
0 -4 -6 1696.63 80.29
0 -4 -6 1739.13 74.79
-1 -4 -6 1637.54 72.79
-1 -4 -6 1603.94 77.29
-1 -4 -6 1551.24 87.29
1 4 6 1642.34 74.69
-2 -4 -6 1135.89 74.19
-2 -4 -6 1129.39 60.69
-2 -4 -6 1176.28 58.19
2 4 6 1181.48 60.49
-3 -4 -6 1158.18 74.39
-3 -4 -6 1203.88 61.59
-3 -4 -6 1075.39 60.49
-3 -4 -6 1083.19 79.19
3 4 6 972.7 63.19
-4 -4 -6 539.25 46.2
-4 -4 -6 569.74 68.99
4 4 6 495.15 53.59
4 -5 -6 -14.4 25.3
4 -5 -6 52.49 33.8
3 -5 -6 43.8 21.2
3 -5 -6 6.3 24.4
3 -5 -6 28.3 22.2
2 -5 -6 3 17.9
2 -5 -6 36.4 18.9
2 -5 -6 35.4 17.7
2 -5 -6 42.8 13.3
2 -5 -6 53.39 19.6
1 -5 -6 2.2 9.8
1 -5 -6 8.7 13.7
1 -5 -6 17.3 8
1 -5 -6 7 14.4
0 -5 -6 95.39 12.5
0 -5 -6 95.59 21.5
0 -5 -6 101.69 16
-1 -5 -6 64.79 20.9
-1 -5 -6 86.29 16.5
-1 -5 -6 72.39 13.1
-2 -5 -6 140.59 19.2
-2 -5 -6 120.79 20.3
-2 -5 -6 128.69 29.2
-3 -5 -6 57.29 19.7
-3 -5 -6 60.49 18.5
-3 -5 -6 39.2 29.6
3 5 6 78.19 23.3
-4 -5 -6 164.38 30.1
-4 -5 -6 168.38 50.59
4 -6 -6 241.48 44.6
4 -6 -6 263.47 38.9
3 -6 -6 660.73 54.99
3 -6 -6 608.24 50.39
3 -6 -6 629.54 47.6
2 -6 -6 260.47 22.3
2 -6 -6 197.18 25.1
2 -6 -6 225.58 25
2 -6 -6 238.48 28.6
2 -6 -6 224.28 27.1
2 -6 -6 203.78 34.9
1 -6 -6 899.41 51.89
1 -6 -6 957.6 45.1
1 -6 -6 885.31 61.39
0 -6 -6 615.04 39.9
0 -6 -6 553.14 47.3
0 -6 -6 557.34 32.9
-1 -6 -6 381.36 42.4
-1 -6 -6 375.76 27.6
-1 -6 -6 381.46 34
-2 -6 -6 207.88 26.2
-2 -6 -6 212.88 37
-2 -6 -6 200.68 22.9
-3 -6 -6 131.49 25
-3 -6 -6 145.09 36.2
-3 -6 -6 147.99 24.1
3 -7 -6 1261.27 71.99
3 -7 -6 1228.28 71.09
3 -7 -6 1203.58 76.59
2 -7 -6 1382.26 75.39
2 -7 -6 1340.47 71.99
2 -7 -6 1412.16 74.59
2 -7 -6 1393.76 84.89
2 -7 -6 1497.55 66.59
1 -7 -6 1128.09 75.19
1 -7 -6 1228.38 56.39
1 -7 -6 1128.49 63.59
0 -7 -6 1297.87 63.09
0 -7 -6 1221.08 80.89
0 -7 -6 1468.05 73.19
-1 -7 -6 1080.49 71.09
-1 -7 -6 1422.06 86.29
-1 -7 -6 1445.26 64.79
-2 -7 -6 1051.19 78.29
-2 -7 -6 1141.49 65.49
-2 -7 -6 1071.19 58.79
-3 -7 -6 423.06 59.39
-3 -7 -6 511.45 41.8
-3 -7 -6 483.45 44.1
3 -8 -6 896.31 57.59
3 -8 -6 842.32 56.29
3 -8 -6 691.83 54.39
3 -8 -6 815.42 64.89
2 -8 -6 1230.78 71.19
2 -8 -6 1252.97 61.39
2 -8 -6 1254.27 70.69
2 -8 -6 1250.37 67.89
2 -8 -6 1241.08 83.29
1 -8 -6 988.4 58.69
1 -8 -6 915.41 70.99
1 -8 -6 960.6 49.5
0 -8 -6 1819.22 105.29
0 -8 -6 1858.41 83.19
0 -8 -6 1672.33 92.19
-1 -8 -6 610.34 49.4
-1 -8 -6 649.34 60.09
-1 -8 -6 682.53 40.6
-2 -8 -6 1478.65 100.69
-2 -8 -6 1622.04 85.89
-2 -8 -6 1545.35 77.99
-3 -8 -6 500.05 46.6
-3 -8 -6 419.56 62.79
-3 -8 -6 521.65 42.9
2 -9 -6 496.15 46.8
2 -9 -6 532.35 42.2
2 -9 -6 557.84 36.2
2 -9 -6 557.74 59.99
1 -9 -6 300.57 48.2
1 -9 -6 283.67 35.9
1 -9 -6 327.27 28.5
0 -9 -6 742.33 44
0 -9 -6 821.12 56.59
0 -9 -6 701.23 65.09
-1 -9 -6 203.88 39.2
-1 -9 -6 230.68 35.6
-1 -9 -6 232.68 24.1
-2 -9 -6 703.33 54.69
-2 -9 -6 692.93 70.39
-2 -9 -6 704.03 47.7
2 -10 -6 16 15.8
2 -10 -6 5 25.1
2 -10 -6 30.6 16.2
1 -10 -6 40.1 16.1
1 -10 -6 -10.3 17.6
1 -10 -6 0.1 23.8
0 -10 -6 16.5 18.8
0 -10 -6 16.3 23.8
0 -10 -6 16.2 14.6
-1 -10 -6 33.6 22.8
-1 -10 -6 52.49 18.1
-1 -10 -6 19.1 24.8
0 -11 -6 179.28 43
0 -11 -6 210.88 34.6
0 -11 -6 161.28 23.6
-1 -13 7 612.34 49.7
-1 -13 7 682.03 61.19
-1 -13 7 589.14 85.19
0 -13 7 482.05 62.89
0 -13 7 470.25 51.49
0 -13 7 378.46 37
1 -13 7 914.21 82.69
1 -13 7 833.62 62.69
1 -13 7 896.81 58.09
2 12 -7 92.39 34.5
-2 -12 7 93.49 33.3
-2 -12 7 -71.29 50.19
-2 -12 7 8 33.4
-2 -12 7 -5.5 24
1 12 -7 118.09 34.4
-1 -12 7 143.09 35
-1 -12 7 176.58 26.8
-1 -12 7 139.69 53.69
0 -12 7 93.39 28.9
0 -12 7 59.19 40.6
0 -12 7 23.8 22.5
1 -12 7 182.68 33.3
1 -12 7 201.38 50.09
1 -12 7 113.19 26.5
2 -12 7 157.48 29.9
2 -12 7 176.58 58.29
2 -12 7 194.88 36.3
3 11 -7 262.57 49.99
-3 -11 7 245.68 66.39
-3 -11 7 198.18 31.6
-3 -11 7 277.87 41.3
2 11 -7 161.38 39.2
-2 -11 7 127.69 26.7
-2 -11 7 21.2 50.89
1 11 -7 335.87 43.2
-1 -11 7 354.66 60.99
-1 -11 7 329.37 32.1
-1 -11 7 408.76 42.3
0 11 -7 39.2 21.7
0 -11 7 76.79 27.4
0 -11 7 19.5 20
0 -11 7 99.29 40.3
1 -11 7 320.97 37.3
1 -11 7 354.26 55.39
2 -11 7 -12.6 21.3
2 -11 7 11.7 26.9
2 -11 7 -38.7 48.1
3 10 -7 995.5 78.99
-3 -10 7 1048.1 100.39
-3 -10 7 940.11 62.29
2 10 -7 767.32 63.69
-2 -10 7 717.33 48.8
-2 -10 7 628.14 81.29
-2 -10 7 571.44 53.99
1 10 -7 1520.85 84.89
-1 -10 7 1475.65 80.19
-1 -10 7 1451.75 73.09
-1 -10 7 1349.27 98.69
0 10 -7 804.32 52.59
0 -10 7 880.81 55.29
0 -10 7 799.82 49
0 -10 7 934.21 70.79
1 -10 7 973.6 60.09
1 -10 7 1006.6 56.29
1 -10 7 1105.19 82.49
2 -10 7 532.95 45.1
2 -10 7 577.04 70.39
2 -10 7 659.93 48.5
3 -10 7 419.86 58.19
3 -10 7 369.36 41.2
3 -10 7 411.66 45.6
3 9 -7 1150.08 78.49
-3 -9 7 1119.49 99.39
-3 -9 7 963.4 62.39
-3 -9 7 1042.1 70.79
2 9 -7 1544.55 90.09
-2 -9 7 1650.03 78.79
-2 -9 7 1559.24 84.39
-2 -9 7 1548.74 104.49
1 9 -7 1513.35 80.79
1 9 -7 1448.66 81.19
-1 -9 7 1625.24 71.69
-1 -9 7 1461.65 77.79
-1 -9 7 1185.88 92.29
0 9 -7 2133.89 103.79
0 9 -7 2252.87 109.39
0 -9 7 2218.98 101.89
0 -9 7 2167.08 111.89
0 -9 7 2107.79 98.29
-1 9 -7 1822.42 93.29
1 -9 7 1744.13 83.29
1 -9 7 1655.43 85.09
1 -9 7 1805.92 102.89
2 -9 7 1479.75 89.49
2 -9 7 1358.46 73.09
2 -9 7 1379.46 72.89
3 -9 7 836.32 64.79
3 -9 7 879.51 73.39
3 -9 7 1017.5 59.99
3 -9 7 939.11 66.39
4 8 -7 502.25 65.89
-4 -8 7 545.75 61.09
-4 -8 7 506.35 74.89
3 8 -7 531.35 59.89
-3 -8 7 468.25 41.6
-3 -8 7 556.74 78.39
-3 -8 7 571.54 52.69
2 8 -7 794.32 62.39
2 8 -7 806.62 57.49
-2 -8 7 914.01 50.19
-2 -8 7 902.41 56.99
-2 -8 7 910.21 74.99
1 8 -7 1319.87 72.19
1 8 -7 1296.07 73.59
-1 -8 7 1278.27 69.89
-1 -8 7 1350.66 63.49
0 8 -7 1434.36 72.79
0 8 -7 1439.56 76.89
0 -8 7 1451.95 71.89
0 -8 7 1499.75 81.49
-1 8 -7 1737.43 85.29
1 -8 7 1546.35 78.99
1 -8 7 1681.93 78.39
-2 8 -7 966.2 60.59
2 -8 7 967.3 55.79
2 -8 7 1038.8 68.19
2 -8 7 1022.1 57.19
3 -8 7 977.3 66.99
3 -8 7 895.61 66.09
3 -8 7 999.8 60.59
4 -8 7 539.65 57.19
4 -8 7 708.83 76.39
4 -8 7 504.55 57.39
4 7 -7 57.99 41.2
-4 -7 7 10.1 49.99
-4 -7 7 13.6 32.4
3 7 -7 14.8 30.5
-3 -7 7 33.5 26.7
-3 -7 7 -13.2 17.6
-3 -7 7 57.49 43.6
2 7 -7 38 20.9
2 7 -7 56.89 26.5
-2 -7 7 88.19 24.5
-2 -7 7 65.49 16.6
-2 -7 7 76.89 35.1
1 7 -7 246.58 30
1 7 -7 242.58 30
-1 -7 7 194.38 35.7
-1 -7 7 228.58 27.5
-1 -7 7 221.98 22.6
0 7 -7 12.9 16
0 7 -7 2.3 15.4
0 -7 7 21.6 23.1
0 -7 7 45 17.4
0 -7 7 16.2 14.1
-1 7 -7 694.53 44.6
1 -7 7 630.24 39.6
1 -7 7 641.84 39.8
1 -7 7 587.44 53.29
-2 7 -7 175.18 42.2
-2 7 -7 207.88 25.5
2 -7 7 222.18 26.3
2 -7 7 214.98 25
2 -7 7 180.68 24
-3 7 -7 196.28 47.2
3 -7 7 248.08 34.5
3 -7 7 225.08 29.3
3 -7 7 198.38 32.3
4 -7 7 207.88 41.1
4 -7 7 102.09 39.8
4 -7 7 193.88 35.9
4 6 -7 492.85 63.29
-4 -6 7 549.35 76.79
-4 -6 7 453.05 49.6
3 6 -7 279.47 41.1
3 6 -7 239.98 30.9
-3 -6 7 313.27 49.5
-3 -6 7 273.67 34.3
2 6 -7 817.22 51.59
2 6 -7 772.72 55.69
-2 -6 7 890.71 63.99
-2 -6 7 842.92 50.19
1 6 -7 178.98 26.5
1 6 -7 146.19 20.5
-1 -6 7 175.18 15.9
-1 -6 7 187.98 22.4
-1 -6 7 178.88 32
0 6 -7 497.45 36.3
0 6 -7 506.55 34.6
0 -6 7 552.74 33.5
0 -6 7 559.14 42.2
0 -6 7 523.85 34.3
-1 6 -7 165.18 31.2
-1 6 -7 150.48 21.4
1 -6 7 161.58 19.6
1 -6 7 173.08 20.1
1 -6 7 196.18 29.4
-2 6 -7 190.78 37.9
-2 6 -7 169.28 22.5
2 -6 7 185.48 22
2 -6 7 232.88 24.3
2 -6 7 192.08 23.8
-3 6 -7 44.9 32.8
3 -6 7 31.1 25.6
3 -6 7 36.7 21.2
3 -6 7 46.6 25.3
4 -6 7 34.8 28.9
4 -6 7 8.8 34.6
4 -6 7 12.5 33.3
4 5 -7 1243.58 84.39
-4 -5 7 1117.19 93.19
3 5 -7 1549.64 77.89
3 5 -7 1494.95 86.19
-3 -5 7 1492.45 78.69
-3 -5 7 1494.85 93.29
2 5 -7 2669.33 126.39
2 5 -7 2773.92 122.59
-2 -5 7 2683.33 119.99
-2 -5 7 2645.84 128.39
1 5 -7 1727.43 82.89
1 5 -7 1704.83 83.79
-1 -5 7 1784.52 85.79
-1 -5 7 1748.53 79.89
0 5 -7 3844.12 166.48
0 5 -7 3268.27 152.18
0 5 -7 3650.03 155.18
0 -5 7 3463.45 155.18
0 -5 7 3612.14 150.78
0 -5 7 3506.25 150.98
-1 5 -7 1702.93 92.49
-1 5 -7 1693.73 78.09
1 -5 7 1656.73 75.29
1 -5 7 1635.74 78.69
1 -5 7 1528.25 73.59
-2 5 -7 2240.68 100.49
-2 5 -7 2113.49 119.49
2 -5 7 2211.68 98.69
2 -5 7 2219.18 99.89
2 -5 7 2271.87 101.79
-3 5 -7 541.15 62.79
3 -5 7 605.24 49.6
3 -5 7 638.44 45.8
3 -5 7 584.84 43.2
-4 5 -7 803.92 102.19
4 -5 7 878.11 62.49
4 -5 7 817.12 71.89
4 -5 7 752.22 61.79
4 4 -7 1257.27 78.99
4 4 -7 1329.37 85.69
-4 -4 7 1258.77 94.59
3 4 -7 1655.33 79.39
3 4 -7 1603.74 80.19
3 4 -7 1508.05 88.09
-3 -4 7 1590.04 81.29
-3 -4 7 1623.24 93.89
2 4 -7 3865.51 173.48
2 4 -7 4022.2 169.98
-2 -4 7 3942.61 167.58
-2 -4 7 3794.42 174.18
1 4 -7 2728.43 125.29
1 4 -7 2855.11 124.49
-1 -4 7 2780.52 119.89
-1 -4 7 2801.82 120.89
0 4 -7 7863.71 325.27
0 4 -7 7355.06 322.77
0 4 -7 8141.59 334.77
0 -4 7 7645.33 320.87
0 -4 7 7915.81 321.17
-1 4 -7 1469.05 82.59
-1 4 -7 1462.95 68.39
1 -4 7 1311.07 63.39
1 -4 7 1323.97 64.69
1 -4 7 1461.75 65.49
-2 4 -7 4469.95 211.38
-2 4 -7 4607.44 191.18
-2 4 -7 4562.74 191.28
2 -4 7 4437.76 190.48
2 -4 7 4336.37 188.58
2 -4 7 4528.45 192.18
-3 4 -7 1013.5 61.99
-3 4 -7 1158.58 86.29
3 -4 7 1222.28 67.69
3 -4 7 1168.38 61.89
3 -4 7 1169.68 62.09
-4 4 -7 1505.45 84.39
-4 4 -7 1509.65 114.49
4 -4 7 1619.44 90.89
4 -4 7 1591.84 86.79
4 -4 7 1710.33 88.29
4 3 -7 651.83 60.49
4 3 -7 710.53 64.89
-4 -3 7 745.03 75.19
3 3 -7 341.17 38.1
3 3 -7 370.86 32.8
3 3 -7 374.16 45.3
-3 -3 7 438.86 54.39
-3 -3 7 394.36 39.7
2 3 -7 2404.36 113.29
2 3 -7 2562.54 109.09
2 3 -7 2403.16 107.09
-2 -3 7 2442.76 107.39
-2 -3 7 2235.48 113.19
1 3 -7 1135.69 56.79
1 3 -7 1018.3 56.99
-1 -3 7 1114.79 52.69
-1 -3 7 1072.99 53.29
0 3 -7 5255.97 216.08
0 3 -7 4531.15 204.38
0 3 -7 4989.7 206.68
0 -3 7 5077.99 203.38
0 -3 7 4519.25 203.18
0 -3 7 4893.11 202.48
-1 3 -7 2266.77 111.79
-1 3 -7 2293.67 98.69
-1 3 -7 2227.68 95.79
1 -3 7 2139.19 96.19
1 -3 7 2065.39 96.29
-2 3 -7 2395.56 108.29
-2 3 -7 2529.95 127.69
-2 3 -7 2431.96 108.59
2 -3 7 2457.75 108.49
2 -3 7 2470.85 110.29
-3 3 -7 903.21 53.69
-3 3 -7 920.71 75.99
3 -3 7 887.01 57.99
3 -3 7 956.7 52.69
-4 3 -7 598.64 51.19
-4 3 -7 624.84 76.09
4 -3 7 722.23 49.9
4 -3 7 694.13 62.19
4 -3 7 813.72 56.79
5 2 -7 36.8 29.6
5 2 -7 31.5 37.9
5 2 -7 84.39 42.3
-5 -2 7 12 53.09
4 2 -7 37.3 28.4
4 2 -7 22.1 33.4
-4 -2 7 6.4 42.4
3 2 -7 6.3 26.4
3 2 -7 13.5 15.4
3 2 -7 -11.1 19.7
-3 -2 7 19 32.9
2 2 -7 65.49 16.8
2 2 -7 56.49 18.4
2 2 -7 51.99 15.7
-2 -2 7 71.79 17.5
1 2 -7 94.09 16
1 2 -7 95.19 19.3
-1 -2 7 67.09 14.8
-1 -2 7 90.09 16.5
0 2 -7 117.79 15.6
0 2 -7 93.39 15
0 2 -7 91.79 19.5
0 -2 7 72.59 16.3
0 -2 7 78.79 14.3
-1 2 -7 663.73 49
-1 2 -7 653.63 34.5
-1 2 -7 710.13 37.1
-1 2 -7 606.14 33.1
1 -2 7 609.54 38.3
1 -2 7 685.93 36.7
-2 2 -7 193.48 32.9
-2 2 -7 169.88 20.7
-2 2 -7 180.58 20.2
2 -2 7 187.38 22.3
2 -2 7 172.68 19.6
-3 2 -7 389.16 54.39
-3 2 -7 325.97 34.5
3 -2 7 356.66 33
3 -2 7 422.96 40.9
-4 2 -7 143.69 30.3
-4 2 -7 91.29 41.1
4 -2 7 180.88 33.2
4 -2 7 145.09 35
4 -2 7 157.58 29.1
5 1 -7 163.58 45.5
5 1 -7 229.98 36.9
4 1 -7 784.32 64.09
4 1 -7 841.72 63.39
-4 -1 7 807.12 74.49
3 1 -7 499.45 41.5
3 1 -7 430.06 46.3
-3 -1 7 429.06 52.99
2 1 -7 1027.6 57.59
2 1 -7 932.61 53.39
2 1 -7 1040.1 51.49
-2 -1 7 1017.2 53.09
1 1 -7 783.52 43.4
1 1 -7 750.72 40.8
-1 -1 7 747.13 40.8
-1 -1 7 733.13 39.4
0 1 -7 854.41 44.9
0 1 -7 969.3 52.99
0 1 -7 924.11 45.4
0 -1 7 814.02 46.3
0 -1 7 932.31 43.8
-1 1 -7 898.41 54.99
-1 1 -7 816.22 39.9
-1 1 -7 734.93 40
-1 1 -7 817.72 42.6
1 -1 7 790.82 44.1
-2 1 -7 295.27 24
-2 1 -7 362.86 41
-2 1 -7 292.17 25.2
2 -1 7 244.48 25.6
2 -1 7 297.27 30.7
-3 1 -7 243.38 43.4
-3 1 -7 213.28 26.6
3 -1 7 179.78 22.6
3 -1 7 209.68 29.6
-4 1 -7 4.6 24.6
-4 1 -7 10.2 36.6
4 -1 7 2.9 21.4
4 -1 7 49.8 29.1
5 0 -7 499.85 51.19
5 0 -7 491.25 59.89
4 0 -7 1503.05 92.69
4 0 -7 1606.74 91.99
3 0 -7 1959.6 99.19
3 0 -7 1899.11 95.79
2 0 -7 2341.87 106.49
2 0 -7 2310.57 108.49
2 0 -7 2379.16 103.79
1 0 -7 2638.44 116.09
1 0 -7 2646.34 114.09
1 0 -7 2527.25 115.29
0 0 -7 2623.74 116.59
0 0 -7 2555.84 115.99
0 0 -7 2831.32 124.19
0 0 7 2738.43 113.69
0 0 7 2648.44 116.39
-1 0 -7 3763.72 169.28
-1 0 -7 3813.42 155.18
-1 0 -7 3534.15 157.58
1 0 7 3652.73 157.38
-2 0 -7 1164.18 58.99
-2 0 -7 1224.38 59.29
-2 0 -7 1228.78 76.59
2 0 7 1240.98 62.29
-3 0 -7 1568.14 79.69
-3 0 -7 1712.73 102.89
3 0 7 1578.74 82.99
-4 0 -7 658.83 71.39
-4 0 -7 660.43 51.39
4 0 7 655.43 53.29
4 0 7 703.63 56.89
4 -1 -7 816.22 67.79
4 -1 -7 768.92 64.49
4 -1 -7 789.52 59.29
3 -1 -7 2038.7 103.19
3 -1 -7 2034.7 100.69
2 -1 -7 2585.74 111.99
2 -1 -7 2556.04 115.29
2 -1 -7 2494.15 115.99
1 -1 -7 5033.6 211.18
1 -1 -7 4937.31 207.88
1 -1 -7 4793.12 209.08
0 -1 -7 2453.45 110.69
0 -1 -7 2247.78 102.49
0 -1 -7 2275.87 102.69
-1 -1 -7 3334.67 146.59
-1 -1 -7 3521.05 158.38
-1 -1 -7 3415.16 143.69
1 1 7 3329.27 145.69
-2 -1 -7 2396.46 107.59
-2 -1 -7 2453.65 124.89
-2 -1 -7 2437.46 108.59
2 1 7 2433.16 109.69
-3 -1 -7 1347.07 81.09
-3 -1 -7 1370.86 69.69
-3 -1 -7 1335.27 91.19
3 1 7 1364.06 74.59
-4 -1 -7 1102.89 67.39
-4 -1 -7 1083.39 90.59
-4 -1 -7 1278.77 93.69
4 1 7 1138.29 74.49
4 -2 -7 455.55 55.29
4 -2 -7 530.05 58.89
4 -2 -7 441.56 49.8
3 -2 -7 665.93 51.29
3 -2 -7 617.64 49.4
2 -2 -7 1271.27 60.89
2 -2 -7 1278.97 65.89
2 -2 -7 1214.28 64.99
1 -2 -7 1544.85 76.29
1 -2 -7 1620.24 74.99
1 -2 -7 1688.93 80.09
0 -2 -7 2114.09 95.69
0 -2 -7 2132.79 103.39
-1 -2 -7 1771.82 83.19
-1 -2 -7 1813.42 79.69
-1 -2 -7 1840.82 94.19
1 2 7 1772.82 81.69
-2 -2 -7 1489.45 68.69
-2 -2 -7 1389.26 84.99
-2 -2 -7 1416.36 70.19
2 2 7 1445.66 71.99
-3 -2 -7 936.11 52.69
-3 -2 -7 919.91 74.09
-3 -2 -7 896.41 52.89
3 2 7 941.81 58.99
-4 -2 -7 601.74 71.09
-4 -2 -7 788.42 71.09
-4 -2 -7 648.04 49.6
4 2 7 624.14 60.89
4 -3 -7 17.4 34.4
4 -3 -7 29.3 25.4
4 -3 -7 34.3 31.4
3 -3 -7 33.7 23.1
3 -3 -7 24.8 22.7
2 -3 -7 40.8 18.7
2 -3 -7 40.1 12.2
2 -3 -7 41.1 16.9
1 -3 -7 162.98 21.8
1 -3 -7 127.29 20.5
1 -3 -7 129.29 16.1
0 -3 -7 92.69 19.6
0 -3 -7 90.19 10.2
0 -3 -7 81.89 14.2
-1 -3 -7 255.37 31.6
-1 -3 -7 274.37 20.6
-1 -3 -7 253.17 23.5
1 3 7 227.88 26.5
-2 -3 -7 63.19 15.1
-2 -3 -7 61.99 23.7
-2 -3 -7 70.19 16.1
2 3 7 95.79 21.8
-3 -3 -7 182.88 38.6
-3 -3 -7 170.78 22.9
-3 -3 -7 169.58 24.7
3 3 7 176.08 29.3
-4 -3 -7 95.19 42.4
-4 -3 -7 96.29 27.3
4 3 7 81.09 31.7
4 -4 -7 323.57 39.1
4 -4 -7 326.57 46.6
3 -4 -7 469.45 46.3
3 -4 -7 428.36 43.5
3 -4 -7 412.66 41.5
2 -4 -7 538.05 35
2 -4 -7 524.35 42.4
2 -4 -7 565.74 41.1
2 -4 -7 533.95 42.7
1 -4 -7 418.86 31.7
1 -4 -7 400.86 29.7
1 -4 -7 410.96 36.5
0 -4 -7 653.83 33.7
0 -4 -7 661.13 47.7
0 -4 -7 702.43 39.8
-1 -4 -7 371.86 29
-1 -4 -7 357.66 37.7
-1 -4 -7 339.37 24.9
1 4 7 402.66 31.5
-2 -4 -7 103.19 16.9
-2 -4 -7 105.39 17.9
-2 -4 -7 100.09 27.3
2 4 7 92.59 21.4
-3 -4 -7 332.07 33.6
-3 -4 -7 256.77 42.6
-3 -4 -7 324.97 31
3 4 7 250.77 31.6
-4 -4 -7 -9.3 37.6
-4 -4 -7 -9.9 22.5
4 4 7 1.5 30.1
4 -5 -7 658.73 56.09
4 -5 -7 670.73 69.69
3 -5 -7 1622.04 86.39
3 -5 -7 1558.34 82.69
3 -5 -7 1540.85 87.59
2 -5 -7 1407.46 74.89
2 -5 -7 1394.66 70.89
2 -5 -7 1471.35 75.39
2 -5 -7 1435.16 79.99
1 -5 -7 1877.41 82.49
1 -5 -7 1879.61 89.99
1 -5 -7 1915.81 99.09
1 -5 -7 1898.01 90.29
0 -5 -7 1137.89 53.09
0 -5 -7 1128.89 69.29
0 -5 -7 1121.69 59.09
-1 -5 -7 2183.68 103.39
-1 -5 -7 2192.38 97.69
-1 -5 -7 2209.18 116.39
-2 -5 -7 714.23 60.39
-2 -5 -7 674.13 42.4
-2 -5 -7 697.93 45.7
2 5 7 711.03 44.2
-3 -5 -7 1019.6 81.59
-3 -5 -7 1101.49 62.89
-3 -5 -7 1096.19 60.89
3 5 7 1019.7 63.79
4 -6 -7 726.23 60.39
4 -6 -7 753.52 72.39
3 -6 -7 1484.95 83.49
3 -6 -7 1468.05 85.59
3 -6 -7 1442.16 79.59
2 -6 -7 1420.16 73.99
2 -6 -7 1444.96 77.69
2 -6 -7 1477.45 84.79
2 -6 -7 1547.85 74.49
2 -6 -7 1418.16 76.59
1 -6 -7 1835.82 92.29
1 -6 -7 1909.21 91.79
1 -6 -7 1934.41 84.09
1 -6 -7 1918.91 102.99
0 -6 -7 1814.42 101.19
0 -6 -7 1814.72 90.19
0 -6 -7 1907.61 83.29
-1 -6 -7 1594.34 78.89
-1 -6 -7 1484.95 91.09
-1 -6 -7 1500.55 71.89
-2 -6 -7 1450.15 72.19
-2 -6 -7 1467.15 93.69
-2 -6 -7 1454.45 77.69
-3 -6 -7 997 58.79
-3 -6 -7 851.31 54.99
-3 -6 -7 850.31 76.99
3 -7 -7 283.97 38.3
3 -7 -7 241.38 32.3
3 -7 -7 280.07 36.1
2 -7 -7 985.9 53.79
2 -7 -7 857.01 46.6
2 -7 -7 934.11 57.49
2 -7 -7 955 67.39
2 -7 -7 805.12 53.09
2 -7 -7 948.51 58.39
1 -7 -7 656.53 36.5
1 -7 -7 596.04 43.1
1 -7 -7 630.84 45.9
1 -7 -7 672.93 56.29
0 -7 -7 922.51 48.3
0 -7 -7 918.31 66.89
0 -7 -7 953.5 56.09
-1 -7 -7 448.66 37.6
-1 -7 -7 413.96 31.3
-1 -7 -7 443.66 48.8
-2 -7 -7 908.41 74.39
-2 -7 -7 918.01 52.99
-2 -7 -7 910.11 58.39
-3 -7 -7 306.97 34
-3 -7 -7 372.26 39.7
-3 -7 -7 272.47 48.4
3 -8 -7 45.5 30.3
3 -8 -7 93.69 24.8
2 -8 -7 97.69 24.8
2 -8 -7 101.89 28.4
2 -8 -7 75.09 24
2 -8 -7 74.79 18.9
2 -8 -7 46.2 14.2
1 -8 -7 14.4 22.8
1 -8 -7 56.79 18.6
1 -8 -7 87.29 15.3
0 -8 -7 260.87 26.3
0 -8 -7 346.97 36.8
0 -8 -7 260.87 42.5
-1 -8 -7 -4 19.2
-1 -8 -7 0.4 13.4
-1 -8 -7 5 14.7
-2 -8 -7 38.8 18.5
-2 -8 -7 72.99 30.5
-2 -8 -7 79.59 22.5
2 -9 -7 186.98 31.2
2 -9 -7 201.68 27.9
2 -9 -7 210.28 39.7
2 -9 -7 213.48 22.4
1 -9 -7 377.46 39.4
1 -9 -7 422.96 32.5
1 -9 -7 427.46 54.79
0 -9 -7 193.28 30.6
0 -9 -7 138.99 34.1
0 -9 -7 141.39 19.8
-1 -9 -7 298.67 30.4
-1 -9 -7 334.57 38.6
-1 -9 -7 315.17 49.9
-2 -9 -7 68.79 23.9
-2 -9 -7 61.59 31.6
-2 -9 -7 74.09 21.3
1 -10 -7 776.72 73.59
1 -10 -7 752.32 57.49
1 -10 -7 823.52 48.5
1 -10 -7 833.32 57.59
0 -10 -7 652.93 51.39
0 -10 -7 589.14 63.69
0 -10 -7 578.74 40.3
-1 -10 -7 744.13 54.69
-1 -10 -7 635.34 67.79
-1 -10 -7 601.24 44
1 13 -8 64.59 32.9
-1 -13 8 31.6 50.79
-1 -13 8 23.5 32.9
-1 -13 8 44.5 23.6
0 -13 8 251.17 33.2
0 -13 8 304.67 56.69
0 -13 8 243.18 38.1
1 -13 8 16.6 31.2
1 -13 8 80.89 47.8
1 -13 8 38.9 24.4
2 12 -8 600.54 63.39
-2 -12 8 551.34 60.39
-2 -12 8 522.95 50.39
-2 -12 8 441.56 75.49
1 12 -8 760.72 62.99
-1 -12 8 755.72 52.29
-1 -12 8 790.52 63.59
-1 -12 8 811.72 88.99
0 -12 8 612.54 53.29
0 -12 8 571.94 47.2
0 -12 8 700.93 72.19
1 -12 8 708.53 74.59
1 -12 8 687.83 55.69
1 -12 8 614.84 50.09
2 -12 8 496.95 48.5
2 -12 8 536.45 75.09
2 -12 8 408.66 44.5
-3 -11 8 979.4 105.69
-2 -11 8 411.06 71.19
-2 -11 8 385.86 46.6
-2 -11 8 600.24 46.3
1 11 -8 1647.44 92.29
-1 -11 8 1579.84 79.29
-1 -11 8 1523.95 87.19
-1 -11 8 1487.15 108.09
0 11 -8 1146.69 85.89
0 -11 8 1344.57 67.29
0 -11 8 1206.48 72.09
0 -11 8 1324.67 87.79
1 -11 8 1134.49 83.99
1 -11 8 993.6 64.19
2 -11 8 1233.58 68.09
2 -11 8 1348.27 72.09
2 -11 8 897.91 93.89
3 10 -8 506.65 62.29
-3 -10 8 522.05 77.39
-3 -10 8 656.93 60.29
2 10 -8 542.75 56.39
-2 -10 8 495.75 68.99
-2 -10 8 481.25 46.6
-2 -10 8 466.45 41.8
1 10 -8 603.84 51.99
1 10 -8 550.44 51.89
-1 -10 8 523.45 72.79
-1 -10 8 512.05 51.59
-1 -10 8 524.95 40.4
0 10 -8 1186.78 77.39
0 10 -8 1285.17 72.29
0 -10 8 1397.76 86.79
0 -10 8 1356.76 67.19
0 -10 8 1363.66 72.39
-1 10 -8 724.43 57.39
1 -10 8 660.23 46
1 -10 8 743.13 51.89
1 -10 8 826.22 73.49
2 -10 8 1017.8 86.29
2 -10 8 1105.79 66.29
2 -10 8 1174.98 63.79
3 -10 8 495.65 68.99
3 -10 8 471.85 51.89
3 -10 8 490.75 50.29
3 9 -8 60.19 35.8
-3 -9 8 40.2 52.59
-3 -9 8 80.09 32.3
2 9 -8 89.89 33
2 9 -8 96.29 28
-2 -9 8 64.39 45.9
-2 -9 8 112.99 29.8
-2 -9 8 89.29 21.5
1 9 -8 46 24.7
1 9 -8 49.4 21.6
-1 -9 8 64.59 41.4
-1 -9 8 65.89 26.6
-1 -9 8 43.7 17.6
0 9 -8 44.2 22.6
0 9 -8 38.5 19.6
0 -9 8 36.2 17.4
0 -9 8 43.7 23.6
0 -9 8 48.5 33.8
-1 9 -8 146.09 28
1 -9 8 140.39 26.8
1 -9 8 151.68 44
1 -9 8 100.19 21.6
-2 9 -8 173.78 30.9
2 -9 8 262.87 47
2 -9 8 229.78 30.7
2 -9 8 168.08 26.3
3 -9 8 108.39 29.1
3 -9 8 152.48 36.1
3 -9 8 104.29 30.6
3 -9 8 167.98 45.8
4 8 -8 326.17 54.09
-4 -8 8 331.07 66.39
-4 -8 8 288.77 44.6
3 8 -8 423.06 55.89
-3 -8 8 401.86 63.59
-3 -8 8 317.67 41.3
2 8 -8 405.26 50.19
2 8 -8 467.75 44.3
-2 -8 8 422.16 46.1
-2 -8 8 466.05 36.1
-2 -8 8 466.65 58.09
1 8 -8 354.86 37.8
1 8 -8 376.56 41.3
-1 -8 8 371.66 40.1
-1 -8 8 353.66 48.7
-1 -8 8 442.46 30.8
0 8 -8 165.28 26.9
0 8 -8 204.88 26.7
0 -8 8 203.48 35
0 -8 8 238.28 27.1
0 -8 8 226.58 22.9
-1 8 -8 517.35 43.3
1 -8 8 407.86 57.09
1 -8 8 540.85 40.1
1 -8 8 490.15 36.9
-2 8 -8 48 21.4
2 -8 8 80.19 34.3
2 -8 8 10.2 20.3
2 -8 8 29.4 22.6
3 -8 8 190.78 33.4
3 -8 8 305.07 38.6
3 -8 8 209.78 33.2
4 7 -8 1007.6 82.49
-4 -7 8 957.8 73.99
-4 -7 8 1020.3 97.49
3 7 -8 985.3 63.59
3 7 -8 901.31 69.89
-3 -7 8 850.71 63.49
-3 -7 8 987.2 83.89
2 7 -8 1433.56 84.99
2 7 -8 1551.44 81.49
-2 -7 8 1584.74 92.69
-2 -7 8 1532.05 79.19
1 7 -8 1580.64 83.49
1 7 -8 1722.73 85.79
-1 -7 8 1554.54 91.89
-1 -7 8 1702.83 75.49
-1 -7 8 1737.93 81.29
0 7 -8 1587.84 78.69
0 7 -8 1657.53 82.09
0 -7 8 1583.64 76.99
0 -7 8 1630.44 84.69
0 -7 8 1678.13 75.89
-1 7 -8 1926.81 111.59
-1 7 -8 2040.2 94.69
1 -7 8 1951.8 89.39
1 -7 8 1755.22 99.69
1 -7 8 2021 89.59
-2 7 -8 586.24 63.89
-2 7 -8 705.53 45.4
2 -7 8 591.44 43.9
2 -7 8 612.74 42
2 -7 8 644.64 41.6
2 -7 8 634.74 51.79
-3 7 -8 973.5 86.29
3 -7 8 1072.09 65.69
3 -7 8 1059.89 64.29
3 -7 8 1131.49 63.09
-4 7 -8 211.68 61.69
4 -7 8 241.08 37.7
4 -7 8 210.88 38.4
4 -7 8 324.57 45.1
4 6 -8 1092.09 83.09
-4 -6 8 1018.3 77.09
-4 -6 8 1076.59 94.49
3 6 -8 1221.58 67.99
3 6 -8 1142.39 76.49
-3 -6 8 1154.98 68.69
-3 -6 8 1119.79 84.99
2 6 -8 2397.36 111.79
2 6 -8 2277.87 115.39
-2 -6 8 2319.37 119.09
-2 -6 8 2413.06 108.89
1 6 -8 2232.68 106.39
1 6 -8 2223.48 104.99
-1 -6 8 2294.57 101.49
-1 -6 8 2220.08 108.99
0 6 -8 2810.72 126.19
0 6 -8 2929.51 142.09
0 6 -8 2752.42 128.29
0 -6 8 2932.21 129.79
0 -6 8 2768.12 123.79
0 -6 8 2907.11 123.69
-1 6 -8 2606.74 114.39
-1 6 -8 2340.77 127.49
1 -6 8 2502.65 109.89
1 -6 8 2573.64 116.19
1 -6 8 2394.66 108.89
-2 6 -8 2032.1 122.19
-2 6 -8 2297.37 102.79
2 -6 8 2227.38 101.09
2 -6 8 2215.88 100.59
2 -6 8 2154.98 98.69
-3 6 -8 1264.57 96.19
3 -6 8 1328.47 75.09
3 -6 8 1443.06 72.19
3 -6 8 1406.36 73.09
-4 6 -8 829.42 86.29
4 -6 8 851.71 64.29
4 -6 8 936.21 66.79
4 -6 8 872.41 72.69
4 5 -8 688.13 58.79
4 5 -8 700.33 68.49
-4 -5 8 693.53 80.39
3 5 -8 261.27 41.1
3 5 -8 235.68 29.8
-3 -5 8 315.87 47.5
-3 -5 8 273.87 34.1
2 5 -8 1625.24 87.09
2 5 -8 1716.03 83.39
-2 -5 8 1662.73 90.49
-2 -5 8 1734.83 81.39
1 5 -8 725.93 47.2
1 5 -8 783.72 45.8
-1 -5 8 771.72 43.3
-1 -5 8 764.82 41.7
0 5 -8 2653.93 118.89
0 5 -8 2759.52 130.39
0 5 -8 2546.25 116.09
0 -5 8 2610.44 113.99
0 -5 8 2561.14 113.69
-1 5 -8 1495.75 72.39
-1 5 -8 1525.25 87.49
1 -5 8 1326.67 66.59
1 -5 8 1378.76 67.19
1 -5 8 1524.05 72.79
1 -5 8 1477.45 68.29
-2 5 -8 1739.53 107.19
-2 5 -8 1883.91 86.89
2 -5 8 1908.71 85.99
2 -5 8 1783.92 86.29
2 -5 8 1798.02 83.29
-3 5 -8 665.93 71.79
3 -5 8 808.62 48.8
3 -5 8 773.82 50.89
3 -5 8 730.13 53.29
-4 5 -8 725.13 82.09
4 -5 8 792.42 68.89
4 -5 8 814.52 60.09
4 -5 8 701.43 59.99
4 4 -8 149.09 42.3
4 4 -8 79.89 33.1
-4 -4 8 192.88 49.99
3 4 -8 18.4 20.8
3 4 -8 75.89 19.8
3 4 -8 16.2 28.1
-3 -4 8 38.5 36
-3 -4 8 41.8 24.4
2 4 -8 238.78 29.3
2 4 -8 222.28 30.8
-2 -4 8 267.17 26.6
-2 -4 8 288.77 36.8
1 4 -8 11.4 15.7
1 4 -8 28.8 18.2
1 4 -8 3.3 16.5
-1 -4 8 1.1 15.7
-1 -4 8 19.9 13.9
0 4 -8 563.84 48.7
0 4 -8 517.95 35.8
0 4 -8 571.54 37.9
0 -4 8 524.25 32.9
0 -4 8 510.55 32.9
-1 4 -8 131.39 19.6
-1 4 -8 75.59 25.5
1 -4 8 123.99 16.9
1 -4 8 92.59 16.1
-2 4 -8 360.16 29.7
-2 4 -8 351.76 31
-2 4 -8 301.47 49
2 -4 8 293.07 32.6
2 -4 8 339.37 30.4
-3 4 -8 170.68 44.9
-3 4 -8 224.88 28.9
3 -4 8 262.37 27
3 -4 8 257.87 32.3
-4 4 -8 81.29 43.1
-4 4 -8 70.39 28.8
4 -4 8 108.79 32.7
4 -4 8 119.79 27.2
4 -4 8 147.49 34
4 3 -8 262.97 39.2
4 3 -8 288.77 46.3
-4 -3 8 241.28 52.39
3 3 -8 662.13 47.9
3 3 -8 636.54 55.49
3 3 -8 578.94 42.8
-3 -3 8 683.33 62.59
-3 -3 8 640.24 48.1
2 3 -8 483.85 35.8
2 3 -8 522.35 43
2 3 -8 529.95 37.3
-2 -3 8 471.55 36.2
1 3 -8 615.14 39.9
1 3 -8 615.14 42.5
-1 -3 8 602.24 36.2
-1 -3 8 620.84 36.6
0 3 -8 1096.39 56.79
0 3 -8 1175.68 58.59
0 3 -8 1271.77 69.09
0 -3 8 1164.98 55.49
0 -3 8 1060.49 56.39
-1 3 -8 338.17 24.4
-1 3 -8 337.67 28.1
-1 3 -8 345.17 39.7
1 -3 8 269.87 25.9
1 -3 8 288.87 27.6
-2 3 -8 301.37 45.2
-2 3 -8 304.07 27.5
-2 3 -8 303.37 28.2
2 -3 8 282.87 28.7
2 -3 8 316.67 31.8
-3 3 -8 69.79 37.4
-3 3 -8 34.6 22.5
3 -3 8 41.6 19.6
3 -3 8 62.69 24.8
-4 3 -8 13.7 42.7
-4 3 -8 22.3 27.4
4 -3 8 85.39 30.4
4 -3 8 54.59 26
4 -3 8 54.59 33.6
4 2 -8 1286.37 83.39
4 2 -8 1127.59 78.79
-4 -2 8 1268.27 91.09
3 2 -8 1828.92 94.29
3 2 -8 1951.1 101.09
3 2 -8 1863.21 90.09
-3 -2 8 1958.3 103.49
2 2 -8 2235.68 109.59
2 2 -8 2391.76 105.39
-2 -2 8 2264.57 103.39
1 2 -8 2547.05 108.79
1 2 -8 2336.17 104.29
1 2 -8 2205.78 105.19
-1 -2 8 2287.77 101.09
-1 -2 8 2168.18 100.59
0 2 -8 3237.98 147.89
0 2 -8 3606.64 149.88
0 2 -8 3802.42 159.18
0 -2 8 3209.08 147.69
0 -2 8 3467.25 146.29
-1 2 -8 2731.63 121.99
-1 2 -8 2983.9 125.89
-1 2 -8 2871.51 122.09
-1 2 -8 2981.5 139.19
1 -2 8 2904.51 123.09
1 -2 8 2736.53 124.09
-2 2 -8 1939.61 104.99
-2 2 -8 1867.91 85.29
-2 2 -8 1861.11 85.59
2 -2 8 1819.52 87.49
2 -2 8 1821.82 84.99
-3 2 -8 1251.67 90.49
-3 2 -8 1237.28 66.69
3 -2 8 1245.08 65.69
3 -2 8 1276.27 70.99
-4 2 -8 443.86 42.7
-4 2 -8 443.86 70.49
4 -2 8 514.75 51.29
4 -2 8 427.76 47.1
4 1 -8 819.42 66.39
4 1 -8 829.62 65.49
-4 -1 8 698.23 74.29
3 1 -8 2094.69 103.09
3 1 -8 1963.4 92.19
3 1 -8 1874.31 95.99
-3 -1 8 1852.01 102.79
2 1 -8 2576.84 121.89
2 1 -8 2695.53 117.59
-2 -1 8 2615.14 116.99
1 1 -8 5309.47 216.68
1 1 -8 5254.27 213.58
1 1 -8 4746.53 214.08
-1 -1 8 4820.62 210.38
0 1 -8 2244.08 105.19
0 1 -8 2446.36 106.29
0 1 -8 2602.24 115.19
0 -1 8 2229.88 105.19
0 -1 8 2446.86 103.39
-1 1 -8 3383.16 142.79
-1 1 -8 3199.28 143.69
-1 1 -8 3511.75 146.69
-1 1 -8 3484.85 158.98
1 -1 8 3378.86 145.49
1 -1 8 3348.06 143.29
-2 1 -8 2444.16 107.89
-2 1 -8 2479.35 127.69
-2 1 -8 2471.45 108.79
2 -1 8 2308.47 106.59
2 -1 8 2455.25 110.29
-3 1 -8 1369.76 70.39
-3 1 -8 1358.66 92.99
3 -1 8 1270.57 67.69
3 -1 8 1374.76 74.29
-4 1 -8 1046.7 92.19
-4 1 -8 1052.59 65.89
4 -1 8 1188.58 72.49
4 0 -8 306.17 47.5
4 0 -8 263.37 42.1
3 0 -8 1063.19 64.49
3 0 -8 1029.6 57.39
3 0 -8 1113.69 69.59
2 0 -8 571.04 41.9
2 0 -8 632.34 36.9
1 0 -8 2561.84 112.49
1 0 -8 2600.64 115.49
1 0 -8 2444.16 113.39
0 0 -8 1611.14 77.09
0 0 -8 1799.22 86.09
0 0 -8 1636.44 77.19
0 0 8 1635.24 77.79
0 0 8 1678.93 73.99
-1 0 -8 2406.36 117.49
-1 0 -8 2358.26 104.99
-1 0 -8 2399.66 101.39
1 0 8 2228.58 103.99
-2 0 -8 1649.73 76.59
-2 0 -8 1599.54 75.29
-2 0 -8 1594.04 94.59
2 0 8 1587.54 78.19
-3 0 -8 500.25 39.5
-3 0 -8 484.55 59.89
3 0 8 501.25 46.4
-4 0 -8 673.03 77.49
-4 0 -8 778.12 55.19
4 0 8 810.32 61.89
4 -1 -8 -0.9 30.7
4 -1 -8 7.1 33.9
3 -1 -8 4.8 26.6
3 -1 -8 6.2 15
3 -1 -8 15.2 22.1
2 -1 -8 -3.3 10.4
2 -1 -8 26.4 17.3
1 -1 -8 74.49 16.6
1 -1 -8 66.59 15.3
1 -1 -8 35.2 11.4
0 -1 -8 313.57 32
0 -1 -8 319.07 25.8
0 -1 -8 319.47 24.6
-1 -1 -8 24.7 17
-1 -1 -8 28.5 10.1
-1 -1 -8 24.1 10.9
1 1 8 35.6 15.3
-2 -1 -8 388.16 45.9
-2 -1 -8 428.36 31.8
-2 -1 -8 455.45 31
2 1 8 423.46 37.8
-3 -1 -8 152.58 38.6
-3 -1 -8 178.98 24.7
3 1 8 184.68 31
-4 -1 -8 26 25.6
-4 -1 -8 3.7 38.4
4 1 8 51.99 31.6
4 -2 -8 439.76 57.79
4 -2 -8 494.55 59.79
4 -2 -8 512.95 47.8
3 -2 -8 476.65 45.6
3 -2 -8 458.15 47.3
3 -2 -8 403.46 33.2
2 -2 -8 577.74 41.9
2 -2 -8 572.84 36.2
1 -2 -8 951.9 53.39
1 -2 -8 886.21 48
1 -2 -8 905.41 50.09
0 -2 -8 661.73 45.6
0 -2 -8 620.64 38.2
0 -2 -8 667.53 37.8
-1 -2 -8 369.96 28.1
-1 -2 -8 376.16 24.7
-1 -2 -8 397.56 38
1 2 8 331.47 30.7
-2 -2 -8 331.67 43.6
-2 -2 -8 342.17 29.8
-2 -2 -8 305.07 28.1
2 2 8 331.37 36
-3 -2 -8 61.09 22.2
-3 -2 -8 82.59 21.4
-3 -2 -8 54.99 31.5
3 2 8 78.09 27.5
-4 -2 -8 46.2 38.8
-4 -2 -8 56.89 25
-4 -2 -8 75.79 45.1
4 2 8 77.99 32.9
4 -3 -8 1154.88 81.49
4 -3 -8 1025 76.99
4 -3 -8 1115.29 71.79
3 -3 -8 1101.39 70.29
3 -3 -8 1259.47 72.29
2 -3 -8 2107.29 101.49
2 -3 -8 2117.79 97.39
1 -3 -8 1868.91 90.69
1 -3 -8 1761.32 84.59
1 -3 -8 1669.93 82.69
0 -3 -8 1803.02 78.59
0 -3 -8 1781.42 93.59
0 -3 -8 1837.12 85.19
-1 -3 -8 1860.31 101.59
-1 -3 -8 1934.31 90.49
-1 -3 -8 1857.91 85.29
1 3 8 2011.9 89.09
-2 -3 -8 1005.4 71.29
-2 -3 -8 1002.8 55.89
-2 -3 -8 965.6 52.09
2 3 8 975.5 56.79
-3 -3 -8 1069.39 59.59
-3 -3 -8 996.2 80.39
-3 -3 -8 1175.08 61.39
3 3 8 984.7 64.09
-4 -3 -8 342.37 58.59
-4 -3 -8 197.18 32.7
-4 -3 -8 220.78 50.99
4 3 8 235.58 38.6
4 -4 -8 885.01 74.49
4 -4 -8 955.7 66.09
3 -4 -8 1344.67 80.99
3 -4 -8 1468.25 80.49
2 -4 -8 1517.75 75.39
2 -4 -8 1583.84 80.59
2 -4 -8 1478.05 81.89
2 -4 -8 1581.34 80.19
1 -4 -8 2938.71 135.49
1 -4 -8 3029.2 135.19
1 -4 -8 3083.09 143.49
0 -4 -8 1268.17 74.59
0 -4 -8 1207.88 57.89
0 -4 -8 1346.17 65.39
-1 -4 -8 3500.15 152.88
-1 -4 -8 3509.65 158.48
-1 -4 -8 3445.96 171.08
1 4 8 3841.82 155.38
-2 -4 -8 589.94 56.79
-2 -4 -8 644.64 43.6
-2 -4 -8 609.34 40
2 4 8 660.03 43.4
-3 -4 -8 1774.22 86.79
-3 -4 -8 1737.73 84.39
-3 -4 -8 1652.93 108.49
3 4 8 1582.64 86.69
-4 -4 -8 379.66 39.5
-4 -4 -8 347.17 57.29
4 4 8 374.56 43.3
4 -5 -8 120.49 32.4
4 -5 -8 175.78 41.5
3 -5 -8 663.13 50.99
3 -5 -8 662.33 55.59
3 -5 -8 613.24 53.69
2 -5 -8 398.36 38.2
2 -5 -8 387.86 32.2
2 -5 -8 331.97 38.7
2 -5 -8 356.26 40.1
1 -5 -8 1874.21 88.49
1 -5 -8 1758.72 88.39
1 -5 -8 1801.22 96.99
0 -5 -8 496.95 29.9
0 -5 -8 574.34 36.9
0 -5 -8 488.05 45.3
-1 -5 -8 1327.17 62.59
-1 -5 -8 1270.77 67.79
-1 -5 -8 1273.07 80.39
-2 -5 -8 666.53 42.4
-2 -5 -8 669.03 61.99
-2 -5 -8 718.03 47.4
2 5 8 712.13 45.3
-3 -5 -8 722.73 71.09
-3 -5 -8 764.62 50.09
-3 -5 -8 826.12 53.49
3 5 8 682.53 53.59
3 -6 -8 -3.7 25.2
3 -6 -8 22.2 22.5
3 -6 -8 16.4 26.9
2 -6 -8 7.2 17.5
2 -6 -8 6 18.8
2 -6 -8 -5.4 21
2 -6 -8 0.4 12.9
2 -6 -8 12.2 19.3
1 -6 -8 9.8 13.2
1 -6 -8 16.6 10.8
1 -6 -8 23.8 17.4
1 -6 -8 -3.1 16.4
0 -6 -8 112.29 27.4
0 -6 -8 135.29 15.8
0 -6 -8 107.49 18.7
-1 -6 -8 90.79 15.9
-1 -6 -8 81.89 17.8
-1 -6 -8 79.69 24.9
-2 -6 -8 35.4 16.4
-2 -6 -8 35.4 25.4
-2 -6 -8 4.2 15.9
-3 -6 -8 117.29 24.6
-3 -6 -8 104.19 37.6
-3 -6 -8 96.09 23.6
3 -7 -8 516.55 55.39
3 -7 -8 545.15 46.9
3 -7 -8 501.85 55.19
2 -7 -8 325.07 33.8
2 -7 -8 321.97 45
2 -7 -8 349.67 39.6
2 -7 -8 311.97 34.8
2 -7 -8 309.97 33.1
1 -7 -8 441.66 30.2
1 -7 -8 414.56 36.9
1 -7 -8 492.25 49.7
1 -7 -8 456.45 40.5
0 -7 -8 414.46 28.8
0 -7 -8 402.36 35.3
0 -7 -8 378.26 46.4
-1 -7 -8 158.38 34.1
-1 -7 -8 174.68 25
-1 -7 -8 198.38 21
-2 -7 -8 209.98 28.2
-2 -7 -8 232.98 26.3
-2 -7 -8 181.58 37.4
-3 -7 -8 16.3 32.2
-3 -7 -8 57.19 22.6
-3 -7 -8 46 23
3 -8 -8 893.91 60.29
3 -8 -8 869.31 69.79
2 -8 -8 882.51 59.89
2 -8 -8 929.81 47.9
2 -8 -8 951 59.39
2 -8 -8 852.91 69.79
2 -8 -8 795.02 55.39
1 -8 -8 1030.9 60.19
1 -8 -8 1003.5 51.69
1 -8 -8 970.6 73.99
1 -8 -8 920.01 60.79
0 -8 -8 1298.97 69.79
0 -8 -8 1112.29 81.69
0 -8 -8 1130.39 58.89
-1 -8 -8 586.24 60.19
-1 -8 -8 601.84 39.4
-1 -8 -8 602.24 47.2
-2 -8 -8 824.52 52.59
-2 -8 -8 887.81 58.99
-2 -8 -8 883.91 77.49
2 -9 -8 662.83 55.29
2 -9 -8 713.13 67.59
2 -9 -8 721.93 51.49
1 -9 -8 923.31 49.3
1 -9 -8 821.42 72.69
1 -9 -8 845.12 58.59
1 -9 -8 867.11 57.49
0 -9 -8 851.61 71.89
0 -9 -8 742.03 45.4
0 -9 -8 791.52 55.39
-1 -9 -8 668.13 67.69
-1 -9 -8 702.03 45
-1 -9 -8 722.23 53.09
1 -10 -8 359.06 42.4
1 -10 -8 311.97 39.3
1 -10 -8 337.37 56.09
1 -10 -8 346.97 32.7
0 -10 -8 418.16 45.4
0 -10 -8 345.07 31.6
0 -10 -8 311.57 51.19
1 13 -9 629.44 63.69
-1 -13 9 694.23 50.89
-1 -13 9 696.83 90.69
-1 -13 9 621.54 62.99
0 -13 9 774.52 81.69
0 -13 9 879.61 63.09
0 -13 9 724.93 55.59
1 -13 9 812.52 81.49
1 -13 9 697.73 59.49
2 12 -9 412.26 54.09
-2 -12 9 237.58 69.19
-2 -12 9 274.87 44.4
-2 -12 9 272.37 35.1
1 12 -9 608.64 59.79
-1 -12 9 671.03 78.59
-1 -12 9 627.24 60.89
-1 -12 9 597.44 47
0 -12 9 764.02 75.69
0 -12 9 725.03 57.99
0 -12 9 743.13 50.99
1 -12 9 478.65 43.7
1 -12 9 609.94 71.59
1 -12 9 505.05 51.39
2 -12 9 488.05 55.69
2 -12 9 518.55 48.1
2 -12 9 572.54 77.49
2 11 -9 51.29 32.8
-2 -11 9 60.89 33.2
-2 -11 9 -9.5 53.79
-2 -11 9 33.8 22.6
1 11 -9 26.4 29.8
-1 -11 9 15.8 20.5
-1 -11 9 47.2 30.9
-1 -11 9 -17 46
0 11 -9 159.78 34.2
0 -11 9 186.98 46.5
0 -11 9 204.48 32.9
0 -11 9 168.88 26
1 -11 9 16.9 20.9
1 -11 9 56.49 42.7
1 -11 9 -16.3 26.9
2 -11 9 116.49 27.9
2 -11 9 184.68 35.3
2 -11 9 110.89 54.89
3 10 -9 499.95 62.09
-3 -10 9 511.25 77.49
-3 -10 9 439.76 49.6
2 10 -9 150.28 36.9
2 10 -9 140.09 33.5
-2 -10 9 79.99 22.7
-2 -10 9 152.98 35.2
-2 -10 9 72.49 52.59
1 10 -9 527.25 49.8
1 10 -9 506.05 49.99
-1 -10 9 512.45 51.79
-1 -10 9 484.55 39.3
-1 -10 9 507.65 74.09
0 10 -9 152.28 27.7
0 10 -9 141.39 30.5
0 -10 9 213.18 31.2
0 -10 9 167.28 24.1
0 -10 9 148.79 41.5
-1 10 -9 377.36 46.9
1 -10 9 353.76 37.5
1 -10 9 317.77 31.4
1 -10 9 425.46 55.89
2 -10 9 178.08 51.99
2 -10 9 116.39 27.1
2 -10 9 166.98 32.4
3 -10 9 62.49 30.1
3 -10 9 165.88 48.8
3 -10 9 118.99 35.7
3 9 -9 1116.29 84.39
-3 -9 9 1196.08 103.79
-3 -9 9 1191.58 77.19
2 9 -9 974.6 71.29
2 9 -9 997.5 67.49
-2 -9 9 951.9 86.69
-2 -9 9 1042.8 66.89
-2 -9 9 931.71 55.29
1 9 -9 1284.47 76.19
1 9 -9 1443.56 79.29
-1 -9 9 1321.87 74.99
-1 -9 9 1286.67 92.39
-1 -9 9 1345.17 66.69
0 9 -9 921.41 56.49
0 9 -9 891.41 61.59
0 -9 9 965.6 52.89
0 -9 9 1017.9 70.79
0 -9 9 954.3 57.89
-1 9 -9 1779.72 89.09
1 -9 9 1596.94 80.99
1 -9 9 1524.65 78.79
1 -9 9 1577.64 97.89
-2 9 -9 579.94 49.9
2 -9 9 430.76 42.5
2 -9 9 618.94 62.89
2 -9 9 556.54 47.2
3 -9 9 943.41 77.49
3 -9 9 975.5 61.19
3 -9 9 924.51 66.29
3 -9 9 961.2 67.89
4 8 -9 552.24 74.69
-4 -8 9 641.34 66.79
-4 -8 9 659.93 81.69
3 8 -9 1648.24 92.49
3 8 -9 1578.54 98.39
-3 -8 9 1656.93 92.39
-3 -8 9 1631.34 112.69
2 8 -9 893.11 66.99
2 8 -9 956 62.29
-2 -8 9 1010.8 80.09
-2 -8 9 975.8 63.29
1 8 -9 2932.01 138.69
1 8 -9 3093.09 139.49
-1 -8 9 3016.3 129.09
-1 -8 9 2912.31 133.99
-1 -8 9 2860.41 146.09
0 8 -9 896.91 53.89
0 8 -9 871.31 57.59
0 -8 9 910.61 53.59
0 -8 9 903.01 64.09
0 -8 9 935.61 50.49
-1 8 -9 3181.58 137.49
1 -8 9 3059.59 129.99
1 -8 9 2528.95 141.69
1 -8 9 2916.71 129.79
-2 8 -9 900.81 56.59
-2 8 -9 680.53 75.59
2 -8 9 858.01 53.29
2 -8 9 854.61 52.59
2 -8 9 937.81 66.59
-3 8 -9 1216.68 102.49
3 -8 9 1350.46 76.39
3 -8 9 1366.06 74.39
3 -8 9 1308.37 76.99
4 7 -9 384.56 56.19
-4 -7 9 323.77 64.09
-4 -7 9 338.47 46.3
3 7 -9 815.72 58.39
3 7 -9 728.23 66.29
-3 -7 9 758.22 78.29
-3 -7 9 798.82 62.59
2 7 -9 342.17 39.4
2 7 -9 327.67 41.8
-2 -7 9 428.16 57.19
-2 -7 9 348.67 37
1 7 -9 1729.23 87.79
1 7 -9 1669.53 85.89
-1 -7 9 1684.93 93.59
-1 -7 9 1649.54 82.09
0 7 -9 637.24 46.6
0 7 -9 675.13 44.5
0 -7 9 708.43 41.4
0 -7 9 662.73 43
0 -7 9 730.83 52.49
-1 7 -9 1839.62 84.69
-1 7 -9 1575.24 98.99
1 -7 9 1423.46 88.59
1 -7 9 1584.44 77.19
1 -7 9 1709.83 78.19
-2 7 -9 816.62 74.49
-2 7 -9 934.71 54.59
2 -7 9 855.31 52.09
2 -7 9 906.11 60.99
2 -7 9 827.32 51.29
2 -7 9 853.91 50.59
-3 7 -9 683.83 77.09
3 -7 9 818.22 56.09
3 -7 9 770.22 55.09
3 -7 9 892.51 56.69
-4 7 -9 517.75 80.39
4 -7 9 581.34 59.09
4 -7 9 624.14 61.59
4 -7 9 592.94 64.29
4 6 -9 11.7 37.9
-4 -6 9 76.29 37.5
-4 -6 9 -3.3 47.9
3 6 -9 34.1 23
3 6 -9 13.6 32.8
-3 -6 9 21.6 27.8
-3 -6 9 21.8 39.5
2 6 -9 28.4 27.8
2 6 -9 32.4 20.5
-2 -6 9 38.6 22.6
-2 -6 9 70.49 36.2
1 6 -9 40.6 16.6
1 6 -9 35.3 20.2
-1 -6 9 38.3 16.2
-1 -6 9 38.9 27.7
-1 -6 9 58.19 19.6
0 6 -9 79.19 18
0 6 -9 73.39 25.5
0 6 -9 71.09 19
0 -6 9 84.79 19.2
0 -6 9 69.99 16.3
-1 6 -9 41.6 27.6
-1 6 -9 54.09 19.1
1 -6 9 43.9 16.7
1 -6 9 81.79 27.5
1 -6 9 55.89 18.3
-2 6 -9 232.58 27.4
-2 6 -9 178.58 41.6
2 -6 9 220.08 25.8
2 -6 9 239.68 25.3
2 -6 9 218.48 26.1
-3 6 -9 80.99 41.4
3 -6 9 92.59 25.3
3 -6 9 102.39 27.4
3 -6 9 100.79 26.4
-4 6 -9 102.49 50.69
4 -6 9 152.48 34.3
4 -6 9 210.68 39.6
4 -6 9 172.78 36.2
4 5 -9 220.18 46.9
4 5 -9 159.78 35.8
-4 -5 9 200.48 53.79
-4 -5 9 247.28 40.9
3 5 -9 639.14 46.6
3 5 -9 607.24 58.79
-3 -5 9 611.44 67.19
-3 -5 9 558.34 49.5
2 5 -9 362.66 36.1
2 5 -9 358.86 43
-2 -5 9 343.67 36.2
-2 -5 9 351.16 47.9
1 5 -9 623.34 42.7
1 5 -9 605.94 45.4
1 5 -9 681.53 52.49
-1 -5 9 655.63 40.1
-1 -5 9 670.43 38.9
0 5 -9 408.56 44.3
0 5 -9 383.06 31.1
0 5 -9 339.87 32.8
0 -5 9 383.86 29.4
0 -5 9 368.06 28.7
-1 5 -9 484.45 51.09
-1 5 -9 540.85 37.8
1 -5 9 490.45 33.2
1 -5 9 441.26 32
1 -5 9 443.36 32.7
-2 5 -9 154.58 40.6
-2 5 -9 142.89 23.4
2 -5 9 142.59 23.6
2 -5 9 130.69 21.7
2 -5 9 162.48 21
-3 5 -9 127.49 43.3
-3 5 -9 129.29 26.3
3 -5 9 87.29 27.7
3 -5 9 120.09 26.8
3 -5 9 119.29 27.2
-4 5 -9 58.69 42.6
4 -5 9 23.8 27.6
4 -5 9 32.7 33.8
4 -5 9 47.6 34.4
4 4 -9 1167.58 76.59
4 4 -9 1191.68 83.99
-4 -4 9 1098.19 90.29
3 4 -9 1472.25 79.49
3 4 -9 1541.65 88.89
3 4 -9 1536.25 78.99
-3 -4 9 1530.35 93.59
-3 -4 9 1539.65 80.59
2 4 -9 1981.9 92.39
2 4 -9 2080.69 96.19
2 4 -9 1980.5 100.99
-2 -4 9 1936.01 92.89
1 4 -9 2484.55 113.79
1 4 -9 2150.88 106.89
1 4 -9 2279.57 106.69
-1 -4 9 2296.07 101.79
-1 -4 9 2271.37 102.19
0 4 -9 2411.66 108.59
0 4 -9 2507.55 111.09
0 4 -9 2544.75 122.99
0 -4 9 2443.86 105.79
0 -4 9 2341.27 104.79
0 -4 9 2236.18 105.39
-1 4 -9 2026.4 109.49
-1 4 -9 2197.98 95.49
1 -4 9 1879.91 90.39
1 -4 9 1984.4 90.39
-2 4 -9 1882.51 88.09
-2 4 -9 1810.52 110.79
-2 4 -9 1926.01 90.79
2 -4 9 1911.21 89.89
2 -4 9 1895.01 88.29
-3 4 -9 828.92 80.49
-3 4 -9 807.72 53.29
3 -4 9 873.01 52.99
3 -4 9 895.41 57.69
-4 4 -9 352.66 40.3
-4 4 -9 349.77 62.59
4 -4 9 357.96 43
4 -4 9 434.56 44
4 -4 9 460.75 50.29
4 3 -9 1423.76 89.69
4 3 -9 1238.78 82.59
-4 -3 9 1268.57 95.19
3 3 -9 1428.86 74.19
3 3 -9 1455.95 85.99
3 3 -9 1421.96 76.89
-3 -3 9 1384.66 87.99
-3 -3 9 1449.95 76.69
2 3 -9 3393.56 148.59
2 3 -9 3285.67 152.28
-2 -3 9 3292.07 145.49
1 3 -9 2959.6 130.39
1 3 -9 2825.92 123.89
1 3 -9 2572.04 124.49
-1 -3 9 2731.93 119.69
-1 -3 9 2646.44 119.29
0 3 -9 3794.92 170.48
0 3 -9 4327.47 173.68
0 3 -9 4315.07 183.88
0 -3 9 3602.44 168.68
0 -3 9 3910.91 168.28
-1 3 -9 2978.5 143.09
-1 3 -9 2924.71 123.99
-1 3 -9 3158.08 129.19
1 -3 9 2654.83 125.39
1 -3 9 2757.32 124.69
-2 3 -9 2457.05 109.99
-2 3 -9 2478.25 107.89
-2 3 -9 2259.17 128.59
2 -3 9 2441.66 109.89
2 -3 9 2346.87 107.29
-3 3 -9 1732.33 86.49
-3 3 -9 1648.64 111.79
3 -3 9 1776.82 89.49
3 -3 9 1812.32 86.29
-4 3 -9 825.92 59.09
-4 3 -9 846.22 90.09
4 -3 9 903.31 64.19
4 -3 9 894.41 68.89
4 2 -9 535.75 56.79
4 2 -9 503.55 61.49
-4 -2 9 499.75 69.79
3 2 -9 630.04 46.3
3 2 -9 718.53 51.09
3 2 -9 675.43 58.09
2 2 -9 1245.78 71.29
2 2 -9 1304.37 66.49
-2 -2 9 1282.47 64.99
1 2 -9 1680.53 77.79
1 2 -9 1702.33 82.59
1 2 -9 1485.55 78.19
-1 -2 9 1628.34 74.79
0 2 -9 2307.17 104.69
0 2 -9 2017.1 93.59
0 2 -9 1957.9 92.29
0 -2 9 2084.99 90.39
0 -2 9 1873.01 91.89
-1 2 -9 1924.81 85.69
-1 2 -9 1805.52 98.39
-1 2 -9 1865.11 81.19
-1 2 -9 1710.13 81.69
1 -2 9 1858.51 82.49
1 -2 9 1853.11 84.29
-2 2 -9 1503.05 70.29
-2 2 -9 1387.36 68.19
-2 2 -9 1374.96 88.79
2 -2 9 1373.36 68.19
2 -2 9 1421.56 71.39
-3 2 -9 1004.1 55.79
-3 2 -9 901.61 79.79
3 -2 9 923.81 60.69
3 -2 9 859.91 53.49
-4 2 -9 599.04 50.99
-4 2 -9 496.25 75.19
4 -2 9 598.14 52.89
4 -2 9 632.84 56.29
4 1 -9 -21.3 34.8
4 1 -9 46.7 31.9
-4 -1 9 -26.5 41.6
3 1 -9 7.6 27.7
3 1 -9 -8.6 19.6
3 1 -9 25.9 22.5
2 1 -9 23.1 19.3
2 1 -9 -1.4 13.9
-2 -1 9 -5.7 19.8
1 1 -9 50.09 16.5
1 1 -9 54.29 13.4
1 1 -9 64.69 17.9
-1 -1 9 52.09 14.7
0 1 -9 338.37 26.4
0 1 -9 304.07 26.8
0 1 -9 354.96 35.4
0 -1 9 255.47 30.5
0 -1 9 317.37 25.2
-1 1 -9 22.4 12.2
-1 1 -9 30.2 18.9
-1 1 -9 23.7 12.7
-1 1 -9 6.9 10.3
1 -1 9 9 12.5
1 -1 9 17.1 15.8
-2 1 -9 413.26 32
-2 1 -9 458.65 31.4
-2 1 -9 388.86 47.9
2 -1 9 391.56 36.6
2 -1 9 370.86 30.8
-3 1 -9 169.48 42.2
-3 1 -9 216.18 28
3 -1 9 213.18 32.5
3 -1 9 145.19 24.3
-4 1 -9 -23.8 41
-4 1 -9 42.9 26.9
4 -1 9 47.7 31.5
4 -1 9 -17.4 26
4 0 -9 795.52 69.49
4 0 -9 751.12 67.29
3 0 -9 357.56 48.6
3 0 -9 298.37 34.2
3 0 -9 355.86 40.3
2 0 -9 838.42 47.7
2 0 -9 861.01 54.29
1 0 -9 1669.43 80.09
1 0 -9 1612.24 76.39
1 0 -9 1527.25 77.09
0 0 -9 1053.89 53.89
0 0 -9 1078.19 53.89
0 0 -9 1068.59 62.19
0 0 9 999.4 53.89
0 0 9 1032.9 50.09
-1 0 -9 486.65 32.4
-1 0 -9 453.75 27.8
-1 0 -9 537.25 45.1
1 0 9 435.96 33.8
-2 0 -9 542.85 37.1
-2 0 -9 534.85 35.7
-2 0 -9 591.14 55.69
2 0 9 487.65 41.7
-3 0 -9 26.3 22.1
-3 0 -9 28.3 32.5
3 0 9 32 26.6
-4 0 -9 207.08 50.79
-4 0 -9 161.28 30.8
4 0 9 142.49 36.5
4 -1 -9 1100.39 82.09
4 -1 -9 1138.39 78.39
3 -1 -9 1882.71 95.49
3 -1 -9 1766.52 88.49
3 -1 -9 1944.71 100.89
2 -1 -9 2093.99 102.19
2 -1 -9 2107.89 96.99
1 -1 -9 2276.67 105.89
1 -1 -9 2209.08 102.29
1 -1 -9 2146.19 100.39
0 -1 -9 3011 134.39
0 -1 -9 2952.3 133.89
0 -1 -9 3186.48 143.89
-1 -1 -9 1714.43 93.89
-1 -1 -9 1701.93 76.09
-1 -1 -9 1718.43 80.79
1 1 9 1649.33 79.39
-2 -1 -9 2946.11 155.38
-2 -1 -9 3084.79 135.49
-2 -1 -9 3202.58 138.39
2 1 9 3134.59 138.39
-3 -1 -9 436.76 59.69
-3 -1 -9 471.85 38.5
3 1 9 446.46 46.6
-4 -1 -9 714.13 81.49
-4 -1 -9 739.53 54.89
4 1 9 791.12 66.09
4 -2 -9 1035.8 76.19
4 -2 -9 1001.9 77.39
3 -2 -9 1556.54 82.49
3 -2 -9 1386.26 74.09
3 -2 -9 1567.14 86.39
2 -2 -9 1988.5 97.69
2 -2 -9 1980.6 93.09
1 -2 -9 2347.47 111.19
1 -2 -9 2235.08 106.19
1 -2 -9 2320.37 105.09
0 -2 -9 3208.48 138.99
0 -2 -9 3147.08 148.09
0 -2 -9 3056.19 138.19
-1 -2 -9 2087.79 90.79
-1 -2 -9 2048.4 95.69
-1 -2 -9 2028 108.59
1 2 9 2018.8 94.19
-2 -2 -9 1790.72 108.09
-2 -2 -9 1993 88.29
-2 -2 -9 1884.61 90.79
2 2 9 1878.01 91.39
-3 -2 -9 1318.47 95.09
-3 -2 -9 1295.47 68.89
3 2 9 1259.67 74.39
-4 -2 -9 648.74 76.69
-4 -2 -9 726.73 52.49
4 2 9 729.83 62.79
4 -3 -9 208.08 41.2
4 -3 -9 233.28 36
4 -3 -9 167.88 43.4
3 -3 -9 571.94 53.89
3 -3 -9 540.35 49.99
2 -3 -9 402.96 32.3
2 -3 -9 403.96 39.3
2 -3 -9 398.46 36.3
1 -3 -9 1972.4 98.29
1 -3 -9 1918.11 92.69
1 -3 -9 1889.71 90.69
0 -3 -9 513.25 35
0 -3 -9 519.75 28.3
0 -3 -9 517.15 43.3
-1 -3 -9 1922.41 85.39
-1 -3 -9 1851.61 103.19
-1 -3 -9 1888.71 90.89
1 3 9 1907.61 89.39
-2 -3 -9 555.94 55.49
-2 -3 -9 533.05 40.3
-2 -3 -9 598.04 37.7
2 3 9 536.15 42.2
-3 -3 -9 1120.59 60.49
-3 -3 -9 900.11 79.59
-3 -3 -9 1011.5 58.29
3 3 9 934.91 62.69
-4 -3 -9 268.57 34.2
-4 -3 -9 264.57 54.49
4 3 9 315.57 42
4 -4 -9 74.19 29.9
4 -4 -9 85.09 36.5
3 -4 -9 106.19 31
3 -4 -9 119.39 29
2 -4 -9 155.38 25.4
2 -4 -9 210.58 26.3
2 -4 -9 220.98 29.7
1 -4 -9 139.99 23.1
1 -4 -9 145.89 21
1 -4 -9 110.79 23.7
0 -4 -9 39.7 10.1
0 -4 -9 31.6 17.2
0 -4 -9 42.5 13.3
-1 -4 -9 337.37 25.8
-1 -4 -9 297.17 39.7
-1 -4 -9 293.97 30.1
1 4 9 334.67 34.1
-2 -4 -9 -7.7 14.8
-2 -4 -9 16.9 15.6
-2 -4 -9 14.4 23.4
2 4 9 49.1 21.2
-3 -4 -9 113.79 23.2
-3 -4 -9 65.69 35.5
-3 -4 -9 102.19 23.8
3 4 9 70.29 28.2
4 -5 -9 492.55 57.39
4 -5 -9 496.35 52.99
3 -5 -9 321.87 41.8
3 -5 -9 319.27 39
3 -5 -9 366.46 36.9
2 -5 -9 687.73 50.39
2 -5 -9 625.84 49.9
2 -5 -9 662.23 43.7
2 -5 -9 614.14 50.59
1 -5 -9 488.95 36.8
1 -5 -9 428.46 38.9
1 -5 -9 498.25 45.8
0 -5 -9 481.45 28.8
0 -5 -9 476.25 36.4
0 -5 -9 441.26 45
-1 -5 -9 440.46 37.2
-1 -5 -9 470.55 48.1
-1 -5 -9 478.95 31.6
-2 -5 -9 191.38 26.6
-2 -5 -9 199.78 37.1
-2 -5 -9 202.88 23.2
2 5 9 221.58 27.6
-3 -5 -9 63.39 22.9
-3 -5 -9 63.89 22.5
-3 -5 -9 58.49 34.4
3 5 9 146.69 27.1
3 -6 -9 831.92 57.89
3 -6 -9 835.82 65.09
3 -6 -9 846.92 63.79
2 -6 -9 1125.39 68.29
2 -6 -9 1135.69 73.99
2 -6 -9 1114.79 63.29
2 -6 -9 1161.88 68.69
1 -6 -9 1224.88 67.19
1 -6 -9 1224.78 68.89
1 -6 -9 1174.18 77.99
1 -6 -9 1251.07 58.29
0 -6 -9 1531.75 81.39
0 -6 -9 1631.24 95.29
0 -6 -9 1584.94 73.29
-1 -6 -9 721.53 42.3
-1 -6 -9 709.33 48.5
-1 -6 -9 762.72 62.29
-2 -6 -9 1108.09 84.59
-2 -6 -9 1155.98 61.59
-2 -6 -9 1174.78 68.09
-3 -6 -9 442.76 41.9
-3 -6 -9 425.36 63.69
-3 -6 -9 512.35 46.2
3 -7 -9 622.04 58.89
3 -7 -9 645.24 52.29
3 -7 -9 690.93 60.89
2 -7 -9 1302.67 72.39
2 -7 -9 1356.16 75.69
2 -7 -9 1270.67 84.19
2 -7 -9 1382.06 77.79
1 -7 -9 745.93 50.19
1 -7 -9 739.53 52.49
1 -7 -9 704.93 61.69
1 -7 -9 748.93 41
0 -7 -9 1583.04 97.59
0 -7 -9 1522.35 82.59
0 -7 -9 1612.44 73.99
-1 -7 -9 991.6 59.99
-1 -7 -9 970 53.19
-1 -7 -9 932.51 73.09
-2 -7 -9 960.4 56.29
-2 -7 -9 969.1 61.99
-2 -7 -9 928.41 79.39
2 -8 -9 528.15 48.3
2 -8 -9 517.25 48.9
2 -8 -9 471.75 42.5
2 -8 -9 492.65 55.19
1 -8 -9 239.78 40.9
1 -8 -9 325.37 38.1
1 -8 -9 249.88 26.1
1 -8 -9 240.18 31.3
0 -8 -9 570.54 44.7
0 -8 -9 606.24 37.1
0 -8 -9 563.54 58.39
-1 -8 -9 364.66 38.9
-1 -8 -9 381.26 32.7
-1 -8 -9 373.86 50.89
-2 -8 -9 258.67 29.9
-2 -8 -9 354.16 57.29
-2 -8 -9 312.47 37.6
1 -9 -9 -1.4 17.4
1 -9 -9 -3.8 24.4
1 -9 -9 3.6 20.6
1 -9 -9 7.1 13.5
0 -9 -9 3.8 16.1
0 -9 -9 8.8 23.7
0 -9 -9 15.9 13.9
-1 -9 -9 13.1 23.5
-1 -9 -9 20.3 15.7
-1 -9 -9 7.6 16.2
1 13 -10 107.09 37.3
-1 -13 10 135.39 60.19
-1 -13 10 135.29 28.5
-1 -13 10 133.39 38.2
0 -13 10 79.29 33.4
0 -13 10 -15.9 24.2
0 -13 10 56.49 47.9
2 12 -10 172.88 44.9
-2 -12 10 172.38 42.1
-2 -12 10 168.68 45.7
-2 -12 10 123.89 63.19
1 12 -10 144.39 38.3
-1 -12 10 124.19 27.1
-1 -12 10 170.68 38.1
-1 -12 10 133.69 56.99
0 -12 10 195.18 50.29
0 -12 10 200.68 29.2
0 -12 10 215.68 36.2
1 -12 10 113.19 48.3
1 -12 10 38.2 23.5
1 -12 10 64.69 31.1
2 -12 10 137.79 36.7
2 -12 10 127.89 60.29
2 -12 10 154.38 30.5
2 11 -10 675.23 61.69
-2 -11 10 322.67 38.8
-2 -11 10 520.65 52.59
-2 -11 10 485.25 76.19
1 11 -10 985.7 70.89
1 11 -10 961.9 67.69
-1 -11 10 1003.5 91.59
-1 -11 10 941.11 68.69
-1 -11 10 922.61 56.79
0 11 -10 757.92 62.09
0 -11 10 811.62 73.49
0 -11 10 690.53 48.5
0 -11 10 762.02 56.69
-1 11 -10 773.72 62.19
1 -11 10 871.51 74.09
1 -11 10 636.44 48.6
1 -11 10 665.83 55.29
2 -11 10 704.13 51.99
2 -11 10 628.44 76.79
2 -11 10 687.33 58.29
3 10 -10 1106.59 84.69
-3 -10 10 1057.49 108.09
-3 -10 10 1119.39 79.69
2 10 -10 1158.28 78.29
2 10 -10 1073.59 73.89
-2 -10 10 1015.4 74.09
-2 -10 10 915.71 93.99
1 10 -10 1712.53 92.39
1 10 -10 1610.84 91.09
-1 -10 10 1601.14 106.99
-1 -10 10 1624.64 79.59
-1 -10 10 1570.84 88.59
0 10 -10 1386.36 83.09
0 10 -10 1402.56 77.59
0 -10 10 1450.45 77.49
0 -10 10 1511.55 72.89
0 -10 10 1427.16 91.09
-1 10 -10 1195.88 74.49
1 -10 10 1214.38 64.99
1 -10 10 1128.19 68.59
1 -10 10 1266.57 85.99
-2 10 -10 1072.09 92.09
2 -10 10 794.32 82.99
2 -10 10 930.61 58.29
2 -10 10 978.7 63.09
3 -10 10 689.03 58.79
3 -10 10 768.82 66.29
3 -10 10 793.82 78.79
3 9 -10 746.83 70.39
3 9 -10 648.04 61.29
-3 -9 10 694.73 64.79
-3 -9 10 649.93 90.39
2 9 -10 491.55 56.89
2 9 -10 478.75 49
-2 -9 10 442.16 63.09
-2 -9 10 484.95 53.59
-2 -9 10 346.97 36.4
1 9 -10 1339.67 78.89
1 9 -10 1376.26 79.69
-1 -9 10 1359.26 67.29
-1 -9 10 1339.97 75.89
-1 -9 10 1340.27 91.99
0 9 -10 652.13 50.39
0 9 -10 717.13 55.69
0 -9 10 825.72 64.79
0 -9 10 729.23 46.5
0 -9 10 728.73 50.59
-1 9 -10 1674.23 88.49
1 -9 10 1549.24 81.39
1 -9 10 1657.03 97.99
1 -9 10 1570.44 79.19
-2 9 -10 609.44 51.69
2 -9 10 564.64 64.89
2 -9 10 582.84 45.6
2 -9 10 530.65 47.9
3 -9 10 836.22 59.29
3 -9 10 719.53 74.79
3 -9 10 849.72 62.09
3 -9 10 759.32 61.19
4 8 -10 120.89 45.4
-4 -8 10 55.09 39
-4 -8 10 93.49 57.79
3 8 -10 129.79 40.3
3 8 -10 130.59 30.5
-3 -8 10 108.19 51.69
-3 -8 10 125.69 35.8
2 8 -10 18.9 30.7
2 8 -10 -11.5 22.6
-2 -8 10 32.9 41.9
-2 -8 10 -12 27.6
1 8 -10 198.48 32.9
1 8 -10 152.18 26.5
-1 -8 10 153.58 23.2
-1 -8 10 146.39 19.9
-1 -8 10 152.38 28.4
-1 -8 10 192.98 43.2
0 8 -10 16 21.2
0 8 -10 8.1 19.7
0 -8 10 44.9 31.2
0 -8 10 26.6 18.2
0 -8 10 6 22.5
-1 8 -10 98.59 37.4
-1 8 -10 130.89 27.5
1 -8 10 119.19 40.7
1 -8 10 89.79 21.4
1 -8 10 118.49 25.8
-2 8 -10 216.28 30.4
-2 8 -10 173.28 45
2 -8 10 244.88 42.2
2 -8 10 264.07 31.4
2 -8 10 237.58 29
2 -8 10 201.38 26.1
-3 8 -10 126.89 46.8
3 -8 10 67.29 27.5
3 -8 10 111.99 31.5
3 -8 10 78.89 29.5
4 7 -10 696.93 73.99
-4 -7 10 617.04 66.59
-4 -7 10 586.14 75.89
3 7 -10 153.68 40.7
3 7 -10 192.68 33.1
-3 -7 10 202.38 51.69
-3 -7 10 230.38 38.6
2 7 -10 664.03 59.29
2 7 -10 644.34 51.09
-2 -7 10 809.12 67.29
-2 -7 10 661.83 52.59
1 7 -10 437.96 44.3
1 7 -10 393.96 39.9
-1 -7 10 370.76 52.09
-1 -7 10 365.36 38.4
-1 -7 10 420.46 35.6
0 7 -10 217.08 28.1
0 7 -10 206.88 28.1
0 7 -10 196.98 38.8
0 -7 10 232.38 24.1
0 -7 10 196.78 33.8
0 -7 10 219.68 26.9
-1 7 -10 622.04 45.5
-1 7 -10 534.15 58.79
1 -7 10 539.85 40.4
1 -7 10 415.16 53.19
1 -7 10 585.14 39.7
-2 7 -10 106.79 25
-2 7 -10 86.99 38.8
2 -7 10 113.39 32.7
2 -7 10 90.89 23.1
2 -7 10 125.59 25.7
2 -7 10 80.29 21.7
-3 7 -10 122.59 44.9
3 -7 10 130.89 29.2
3 -7 10 162.48 32.2
3 -7 10 172.88 30
4 6 -10 1029.1 83.69
-4 -6 10 1019.8 92.69
-4 -6 10 971.7 77.49
3 6 -10 1591.74 85.39
3 6 -10 1608.44 95.69
-3 -6 10 1527.15 100.59
-3 -6 10 1577.24 86.59
2 6 -10 1357.46 75.19
2 6 -10 1398.36 80.49
-2 -6 10 1301.07 83.99
-2 -6 10 1371.26 72.79
1 6 -10 2210.88 106.09
1 6 -10 2185.68 107.09
-1 -6 10 2247.58 100.59
-1 -6 10 2192.68 101.29
0 6 -10 1616.94 92.29
0 6 -10 1525.05 79.29
0 6 -10 1555.44 76.59
0 -6 10 1485.65 73.19
0 -6 10 1499.75 72.79
-1 6 -10 1400.76 94.59
-1 6 -10 1666.93 80.39
1 -6 10 1593.64 73.99
1 -6 10 1514.85 73.39
1 -6 10 1497.35 72.49
-2 6 -10 1370.56 68.99
-2 6 -10 1058.19 88.79
2 -6 10 1279.37 65.69
2 -6 10 1213.78 63.39
2 -6 10 1222.28 65.69
-3 6 -10 595.94 74.69
3 -6 10 657.43 52.59
3 -6 10 658.43 49.2
3 -6 10 746.43 53.49
-4 6 -10 512.85 80.19
4 -6 10 391.06 47.4
4 -6 10 440.06 53.19
4 -6 10 524.95 53.29
4 5 -10 891.11 68.29
4 5 -10 917.01 79.69
-4 -5 10 851.71 87.39
-4 -5 10 993 73.09
3 5 -10 1584.74 92.99
3 5 -10 1547.85 82.59
-3 -5 10 1581.24 84.19
-3 -5 10 1477.55 97.39
2 5 -10 2299.87 107.49
2 5 -10 2238.88 112.59
-2 -5 10 2121.69 103.79
1 5 -10 2781.42 132.99
1 5 -10 2929.41 133.19
1 5 -10 3146.39 142.29
-1 -5 10 2795.92 127.49
-1 -5 10 2845.62 126.99
0 5 -10 3089.89 138.59
0 5 -10 3141.79 141.49
0 5 -10 3346.17 155.08
0 -5 10 3124.29 135.29
0 -5 10 2922.91 134.29
-1 5 -10 2111.29 121.09
-1 5 -10 2439.46 105.99
1 -5 10 2136.69 98.89
1 -5 10 2131.29 98.99
-2 5 -10 1739.93 116.19
-2 5 -10 2008.9 94.39
2 -5 10 1954.1 92.19
2 -5 10 1969.3 91.29
-3 5 -10 1258.07 72.39
-3 5 -10 1239.98 102.49
3 -5 10 1436.46 77.19
3 -5 10 1525.45 74.19
-4 5 -10 633.44 54.39
-4 5 -10 706.13 87.09
4 -5 10 669.63 61.99
4 -5 10 760.42 60.49
4 -5 10 673.83 61.39
4 4 -10 455.65 53.89
4 4 -10 525.75 64.79
-4 -4 10 602.24 74.69
3 4 -10 493.75 55.49
3 4 -10 510.35 43.3
3 4 -10 483.65 43.8
-3 -4 10 455.35 61.39
-3 -4 10 463.75 47.3
2 4 -10 1304.47 69.99
2 4 -10 1251.17 74.69
-2 -4 10 1223.48 66.39
1 4 -10 1330.27 73.49
1 4 -10 1170.38 64.89
1 4 -10 1135.09 66.89
-1 -4 10 1168.58 60.29
-1 -4 10 1236.48 60.29
0 4 -10 1725.83 83.09
0 4 -10 1936.11 99.19
0 4 -10 1669.93 84.39
0 -4 10 1722.23 78.69
0 -4 10 1789.82 79.79
0 -4 10 1604.24 79.89
-1 4 -10 1481.35 92.09
-1 4 -10 1656.73 78.69
1 -4 10 1535.45 72.89
1 -4 10 1565.54 73.99
-2 4 -10 992.6 81.89
-2 4 -10 1172.78 59.99
-2 4 -10 1180.98 63.49
2 -4 10 1164.28 60.39
2 -4 10 1165.18 62.39
-3 4 -10 1031.8 62.99
-3 4 -10 984.8 91.49
3 -4 10 1147.49 63.79
3 -4 10 1223.88 68.59
-4 4 -10 426.06 69.69
-4 4 -10 473.75 45.9
4 -4 10 560.84 56.89
4 -4 10 552.34 55.69
4 3 -10 15.2 30
4 3 -10 24.6 38.6
-4 -3 10 56.89 45.1
3 3 -10 23.9 22.8
3 3 -10 11.1 20.9
3 3 -10 7 31.7
-3 -3 10 30 26.9
2 3 -10 24.2 19.1
2 3 -10 33.1 22.2
-2 -3 10 25.5 20.8
1 3 -10 156.38 28.6
1 3 -10 165.68 21.9
1 3 -10 137.99 24.5
-1 -3 10 147.29 19.3
-1 -3 10 124.69 20.2
0 3 -10 70.79 16.1
0 3 -10 108.69 18.5
0 3 -10 67.89 23.4
0 -3 10 77.69 15.4
0 -3 10 77.79 18.4
-1 3 -10 253.17 40
-1 3 -10 293.37 29.1
-1 3 -10 316.37 23.6
-1 3 -10 243.38 24
1 -3 10 314.87 29.5
1 -3 10 286.27 26.6
-2 3 -10 86.39 21.7
-2 3 -10 75.79 19.7
-2 3 -10 57.49 31.1
2 -3 10 79.99 19.7
2 -3 10 90.99 22.9
-3 3 -10 146.99 44.5
-3 3 -10 135.59 27.5
3 -3 10 198.58 32.2
3 -3 10 139.39 26
-4 3 -10 44.8 49.3
-4 3 -10 27.4 28.4
4 -3 10 108.89 33.2
4 -3 10 110.19 37.8
4 2 -10 517.65 64.49
4 2 -10 527.95 59.09
3 2 -10 431.36 42.2
3 2 -10 548.05 45.7
3 2 -10 492.05 55.69
2 2 -10 594.14 42.5
2 2 -10 617.54 49.5
-2 -2 10 584.44 42.7
1 2 -10 919.61 54.79
1 2 -10 995.2 59.19
1 2 -10 948.71 52.19
-1 -2 10 958.9 50.09
0 2 -10 649.54 39.6
0 2 -10 754.52 51.29
0 2 -10 663.13 40.1
0 -2 10 576.14 41.1
0 -2 10 627.14 37.1
-1 2 -10 370.46 25.5
-1 2 -10 357.66 42
-1 2 -10 394.86 30.3
-1 2 -10 351.56 26.7
1 -2 10 325.07 31
1 -2 10 368.86 28.3
-2 2 -10 302.67 30.8
-2 2 -10 278.27 26.7
-2 2 -10 280.67 44.3
2 -2 10 294.97 30.6
2 -2 10 260.77 29.7
-3 2 -10 47.7 37.2
-3 2 -10 18.6 22.9
3 -2 10 45.2 22.2
3 -2 10 83.19 28.6
-4 2 -10 32.8 29.7
-4 2 -10 6.8 44.6
4 -2 10 69.79 36.3
4 -2 10 24.3 29.6
4 1 -10 1050.19 82.79
4 1 -10 1099.59 75.89
3 1 -10 1896.81 102.19
3 1 -10 1763.12 93.79
3 1 -10 1805.42 90.79
2 1 -10 2228.18 101.99
2 1 -10 2150.08 106.99
-2 -1 10 2141.09 101.29
1 1 -10 2273.57 102.49
1 1 -10 2135.99 103.59
1 1 -10 2331.47 107.99
-1 -1 10 2182.48 99.39
0 1 -10 2956.4 133.39
0 1 -10 3217.68 144.89
0 1 -10 3007.2 134.39
0 -1 10 3022.5 130.19
0 -1 10 2983.3 132.79
-1 1 -10 1660.63 78.29
-1 1 -10 1784.72 81.59
-1 1 -10 1713.33 75.99
-1 1 -10 1664.23 93.69
1 -1 10 1641.54 79.29
-2 1 -10 3130.99 137.69
-2 1 -10 3120.39 135.19
-2 1 -10 2867.71 156.88
2 -1 10 3171.18 138.39
-3 1 -10 415.26 62.69
-3 1 -10 427.56 39.6
3 -1 10 492.75 46.1
-4 1 -10 710.13 86.09
-4 1 -10 705.03 55.19
4 -1 10 765.02 65.49
4 0 -10 1455.95 92.29
4 0 -10 1528.05 97.59
3 0 -10 1328.67 71.79
3 0 -10 1440.26 84.99
3 0 -10 1350.86 77.79
2 0 -10 2477.85 117.39
2 0 -10 2690.03 123.69
1 0 -10 1505.05 77.79
1 0 -10 1643.44 77.19
1 0 -10 1628.24 82.29
0 0 -10 4867.11 211.38
0 0 -10 4897.01 212.48
0 0 -10 5107.59 222.28
0 0 10 4959.5 207.58
-1 0 -10 1108.99 57.29
-1 0 -10 1159.08 53.69
-1 0 -10 1152.88 73.29
-1 0 -10 1107.19 58.69
1 0 10 1086.59 58.09
-2 0 -10 3147.19 137.09
-2 0 -10 3020.1 159.98
-2 0 -10 3283.57 140.89
2 0 10 3036 139.99
-3 0 -10 1181.48 64.99
-3 0 -10 1149.78 91.09
3 0 10 1174.88 72.09
-4 0 -10 1073.29 67.39
-4 0 -10 976.6 94.79
4 0 10 1146.19 77.89
4 -1 -10 353.96 53.39
4 -1 -10 327.37 47.3
3 -1 -10 295.17 41.9
3 -1 -10 276.97 33.5
3 -1 -10 325.57 37.3
2 -1 -10 2251.97 101.99
2 -1 -10 2103.89 106.69
1 -1 -10 587.44 42
1 -1 -10 513.45 35.6
1 -1 -10 502.45 38.5
0 -1 -10 2001.1 94.09
0 -1 -10 1985.7 94.39
0 -1 -10 2084.29 104.79
-1 -1 -10 695.13 41.7
-1 -1 -10 612.74 35.5
-1 -1 -10 629.84 52.59
1 1 10 632.84 42.3
-2 -1 -10 1240.98 66.19
-2 -1 -10 1145.99 83.79
-2 -1 -10 1323.37 63.09
2 1 10 1257.17 68.09
-3 -1 -10 528.45 41
-3 -1 -10 458.05 63.99
3 1 10 559.64 51.69
-4 -1 -10 475.15 76.49
-4 -1 -10 460.55 47.9
4 1 10 603.74 62.99
4 -2 -10 -3 32.8
4 -2 -10 -16.4 38.2
3 -2 -10 -18.3 15.7
3 -2 -10 -9.7 24.1
3 -2 -10 -26.5 27.2
2 -2 -10 1.8 20
2 -2 -10 3.2 14
1 -2 -10 6.8 15.2
1 -2 -10 13.9 12.9
1 -2 -10 -1.5 14.3
0 -2 -10 70.79 15
0 -2 -10 85.59 21.5
0 -2 -10 63.19 17.2
-1 -2 -10 135.69 20.1
-1 -2 -10 130.89 16.2
-1 -2 -10 93.59 25.7
1 2 10 116.09 24.5
-2 -2 -10 79.69 29.9
-2 -2 -10 119.09 20.8
-2 -2 -10 119.89 20.6
2 2 10 90.89 24.8
-3 -2 -10 33.5 21.3
-3 -2 -10 2.2 33.7
3 2 10 46.5 27.5
-4 -2 -10 120.89 29.2
-4 -2 -10 69.79 43.6
4 2 10 127.49 36.7
4 -3 -10 553.54 66.09
4 -3 -10 538.25 67.29
4 -3 -10 558.74 55.29
3 -3 -10 226.88 35.9
3 -3 -10 249.88 35.4
3 -3 -10 276.47 40.3
2 -3 -10 992.9 55.29
2 -3 -10 1013.3 61.29
2 -3 -10 881.51 58.39
1 -3 -10 330.17 29.7
1 -3 -10 325.57 33.7
1 -3 -10 297.87 35.2
0 -3 -10 760.62 55.89
0 -3 -10 807.72 46.8
0 -3 -10 733.53 47
-1 -3 -10 565.14 33.9
-1 -3 -10 552.64 51.09
-1 -3 -10 535.95 39.3
1 3 10 580.24 43.4
-2 -3 -10 175.78 36.8
-2 -3 -10 183.08 23.5
-2 -3 -10 196.78 25.5
2 3 10 188.08 27.4
-3 -3 -10 170.78 26.9
-3 -3 -10 133.39 30.7
-3 -3 -10 92.69 37.2
3 3 10 150.88 30.3
4 -4 -10 988 83.39
4 -4 -10 1064.89 72.39
4 -4 -10 1059.09 111.69
3 -4 -10 934.01 65.89
3 -4 -10 966.1 68.69
2 -4 -10 1084.59 67.59
2 -4 -10 1148.49 62.69
2 -4 -10 1164.78 68.19
1 -4 -10 1614.64 81.89
1 -4 -10 1574.64 88.19
1 -4 -10 1550.64 79.69
0 -4 -10 1422.16 65.19
0 -4 -10 1487.55 74.29
0 -4 -10 1363.86 84.09
-1 -4 -10 1460.15 70.39
-1 -4 -10 1474.75 91.09
-1 -4 -10 1503.55 77.49
1 4 10 1510.15 75.69
-2 -4 -10 728.83 67.49
-2 -4 -10 748.93 45.9
-2 -4 -10 795.62 51.29
2 4 10 747.13 50.49
-3 -4 -10 971 58.69
-3 -4 -10 729.23 77.19
-3 -4 -10 886.61 54.99
3 4 10 837.82 59.29
3 -5 -10 1289.67 78.49
3 -5 -10 1243.78 81.29
2 -5 -10 1157.58 71.19
2 -5 -10 1126.89 72.19
2 -5 -10 1214.88 65.49
1 -5 -10 1519.75 88.59
1 -5 -10 1470.55 79.89
1 -5 -10 1565.64 79.09
0 -5 -10 1135.29 75.19
0 -5 -10 1100.99 63.99
0 -5 -10 1208.68 55.79
-1 -5 -10 1475.55 77.69
-1 -5 -10 1504.75 70.59
-1 -5 -10 1404.16 91.29
-2 -5 -10 1060.29 82.69
-2 -5 -10 1139.99 59.69
-2 -5 -10 1101.69 65.19
2 5 10 1016.5 62.59
-3 -5 -10 671.23 75.79
-3 -5 -10 692.13 52.29
-3 -5 -10 764.52 50.49
3 5 10 637.34 53.79
3 -6 -10 239.18 34.7
3 -6 -10 248.58 37.7
3 -6 -10 254.57 42.3
2 -6 -10 518.15 50.49
2 -6 -10 488.95 41.1
2 -6 -10 516.25 47.9
2 -6 -10 519.45 48.9
1 -6 -10 539.05 46.2
1 -6 -10 571.04 53.59
1 -6 -10 598.34 43.8
0 -6 -10 628.14 56.69
0 -6 -10 662.33 46.1
0 -6 -10 622.34 36.9
-1 -6 -10 659.23 40.9
-1 -6 -10 679.33 61.49
-1 -6 -10 661.33 48.1
-2 -6 -10 470.85 36.5
-2 -6 -10 427.06 42.1
-2 -6 -10 368.96 56.29
2 6 10 384.06 41.2
3 -7 -10 22.8 28.2
3 -7 -10 -8.9 30.7
3 -7 -10 -2.8 22.7
2 -7 -10 5.1 16.4
2 -7 -10 -0.7 22.6
2 -7 -10 7.3 23.7
2 -7 -10 14.6 20.8
1 -7 -10 8.6 16.5
1 -7 -10 22.6 12.5
1 -7 -10 6.7 20.6
1 -7 -10 7.5 20.3
0 -7 -10 15.8 20.7
0 -7 -10 -6 13.5
0 -7 -10 -7.6 11
-1 -7 -10 71.49 29.3
-1 -7 -10 79.29 16.9
-1 -7 -10 78.89 20.6
-2 -7 -10 2.8 17.7
-2 -7 -10 12.4 18.5
-2 -7 -10 1.8 28.1
2 -8 -10 255.37 42.3
2 -8 -10 232.38 30
2 -8 -10 245.78 37.6
2 -8 -10 321.07 37.9
1 -8 -10 293.47 37.4
1 -8 -10 261.17 42.8
1 -8 -10 237.98 23.3
1 -8 -10 264.17 34
0 -8 -10 250.97 26.4
0 -8 -10 278.87 47.2
0 -8 -10 294.07 35.9
-1 -8 -10 121.49 34.2
-1 -8 -10 137.39 26.1
-1 -8 -10 163.38 22
1 -9 -10 951.1 55.29
1 -9 -10 965.2 79.09
1 -9 -10 944.61 63.39
1 -9 -10 878.71 64.89
0 -9 -10 471.85 34.8
0 -9 -10 468.75 45.2
0 -9 -10 444.86 57.79
0 -13 11 806.72 56.69
0 -13 11 865.31 85.59
0 -13 11 823.62 65.09
2 12 -11 929.41 75.09
-2 -12 11 706.33 90.49
-2 -12 11 878.81 75.49
1 12 -11 644.24 64.89
1 12 -11 645.24 63.29
-1 -12 11 646.24 61.99
-1 -12 11 675.13 86.49
-1 -12 11 669.33 49.6
0 12 -11 1246.78 83.59
0 -12 11 1236.98 75.59
0 -12 11 1192.88 67.99
0 -12 11 1290.07 93.19
-1 12 -11 592.14 59.79
1 -12 11 493.05 45.9
1 -12 11 609.94 73.99
1 -12 11 531.75 52.69
2 11 -11 569.54 62.29
2 11 -11 524.05 60.99
-2 -11 11 567.94 80.19
-2 -11 11 561.04 56.79
1 11 -11 514.15 51.99
1 11 -11 453.35 54.59
-1 -11 11 511.55 49.8
-1 -11 11 492.65 67.19
-1 -11 11 442.56 41.5
0 11 -11 965.6 70.29
0 -11 11 1032.3 65.19
0 -11 11 1056.59 58.39
0 -11 11 937.41 79.89
0 -11 11 962.5 57.79
-1 11 -11 585.24 55.69
1 -11 11 477.25 43.3
1 -11 11 485.85 66.69
1 -11 11 534.15 49.8
2 -11 11 580.94 83.59
2 -11 11 711.83 58.59
2 -11 11 690.53 52.39
3 10 -11 48.9 41.1
3 10 -11 6.1 30.3
-3 -10 11 28.6 35.9
-3 -10 11 11 58.99
2 10 -11 30.7 33.8
2 10 -11 29.3 28.7
-2 -10 11 31.8 34.9
-2 -10 11 4.8 49.8
1 10 -11 31.2 25
1 10 -11 16.7 28.2
-1 -10 11 31.1 19.4
-1 -10 11 33.9 45.9
-1 -10 11 -3.2 29.7
0 10 -11 115.99 30
0 -10 11 77.79 22.1
0 -10 11 137.19 41.6
0 -10 11 103.89 28.9
0 -10 11 79.09 22
-1 10 -11 175.28 32.6
1 -10 11 158.88 32
1 -10 11 151.08 26.2
1 -10 11 208.68 47.1
2 -10 11 22.7 48.1
2 -10 11 22.8 31.2
2 -10 11 50.39 24.8
3 9 -11 176.88 36
3 9 -11 220.78 46.9
-3 -9 11 228.28 62.79
-3 -9 11 223.38 43
2 9 -11 531.65 53.09
2 9 -11 491.45 56.99
-2 -9 11 491.65 55.99
-2 -9 11 557.14 73.69
1 9 -11 276.67 38.2
1 9 -11 250.07 34.7
-1 -9 11 203.78 34.2
-1 -9 11 216.38 24.5
-1 -9 11 228.18 27.6
-1 -9 11 267.87 50.39
0 9 -11 537.15 44.9
0 9 -11 528.25 50.29
0 -9 11 528.15 41.3
0 -9 11 534.85 46.5
0 -9 11 617.34 59.79
-1 9 -11 106.49 28.6
1 -9 11 102.19 22.6
1 -9 11 151.28 42.8
1 -9 11 108.79 28.8
-2 9 -11 245.18 34.3
-2 9 -11 204.78 49.5
2 -9 11 225.08 30.9
2 -9 11 263.07 35.3
2 -9 11 238.38 49.2
-3 9 -11 24.3 43.5
3 -9 11 -32.8 25.9
3 -9 11 7.1 35.9
3 -9 11 -17.3 29.9
3 -9 11 58.19 44
3 8 -11 1210.38 75.59
3 8 -11 1167.48 85.59
-3 -8 11 1225.08 81.19
-3 -8 11 1027.1 94.99
2 8 -11 902.61 69.89
2 8 -11 886.81 62.89
-2 -8 11 930.01 78.39
-2 -8 11 912.41 64.59
1 8 -11 1793.82 92.29
1 8 -11 1694.53 90.49
-1 -8 11 1598.44 82.49
-1 -8 11 1631.44 85.59
-1 -8 11 1700.73 98.39
0 8 -11 1037.9 65.99
0 8 -11 1093.09 62.49
0 -8 11 1027.5 60.49
0 -8 11 1113.19 58.49
0 -8 11 1035 69.39
-1 8 -11 1502.95 79.29
-1 8 -11 1110.69 93.29
1 -8 11 1436.96 71.99
1 -8 11 1439.86 85.49
1 -8 11 1369.86 70.29
-2 8 -11 983.4 60.09
-2 8 -11 721.63 78.69
2 -8 11 977.9 56.49
2 -8 11 907.51 70.09
2 -8 11 839.92 52.89
2 -8 11 846.32 54.99
-3 8 -11 508.25 76.69
3 -8 11 674.53 53.29
3 -8 11 609.54 54.29
3 -8 11 696.73 56.29
4 7 -11 647.34 76.49
-4 -7 11 667.23 78.59
-4 -7 11 712.03 69.09
3 7 -11 1333.47 80.49
3 7 -11 1275.27 90.39
-3 -7 11 1499.85 84.89
-3 -7 11 1305.37 96.59
2 7 -11 1195.98 79.39
2 7 -11 1185.98 72.79
-2 -7 11 1235.88 71.79
-2 -7 11 1229.38 66.19
-2 -7 11 1235.18 83.89
1 7 -11 3019.4 137.49
1 7 -11 2827.62 135.69
-1 -7 11 2909.31 130.49
-1 -7 11 2843.32 129.09
-1 -7 11 2839.72 137.99
0 7 -11 1545.95 82.39
0 7 -11 1632.74 85.99
0 7 -11 1634.24 100.89
0 -7 11 1698.43 78.79
0 -7 11 1613.94 79.09
-1 7 -11 1503.45 105.19
-1 7 -11 1935.41 91.09
1 -7 11 1743.83 82.49
1 -7 11 1685.63 82.59
-2 7 -11 1620.74 79.19
-2 7 -11 1187.58 98.79
2 -7 11 1400.96 81.09
2 -7 11 1447.96 72.09
2 -7 11 1352.46 72.99
2 -7 11 1401.46 72.49
-3 7 -11 692.23 83.79
3 -7 11 875.51 62.49
3 -7 11 914.31 58.79
3 -7 11 871.71 60.19
4 6 -11 187.48 49.9
-4 -6 11 200.88 55.69
-4 -6 11 183.48 43.8
3 6 -11 641.24 54.09
3 6 -11 640.24 66.09
-3 -6 11 759.02 73.59
-3 -6 11 708.93 58.49
2 6 -11 718.23 52.59
2 6 -11 659.53 58.89
-2 -6 11 676.43 50.89
1 6 -11 671.53 53.39
1 6 -11 734.13 62.39
1 6 -11 659.53 49.7
-1 -6 11 661.33 44.1
-1 -6 11 683.33 45.7
0 6 -11 1850.41 93.59
0 6 -11 2006.4 111.59
0 6 -11 2000 97.99
0 -6 11 1871.51 89.59
0 -6 11 1975.6 89.89
-1 6 -11 1008.6 59.99
-1 6 -11 857.41 74.69
1 -6 11 911.31 51.49
1 -6 11 935.61 51.69
-2 6 -11 1080.79 62.39
-2 6 -11 839.82 81.99
2 -6 11 1024.2 57.89
2 -6 11 1058.79 58.79
-3 6 -11 450.95 74.79
3 -6 11 630.84 48.9
3 -6 11 624.44 49.6
3 -6 11 650.13 52.09
4 5 -11 5.7 29.9
4 5 -11 9.6 41.2
-4 -5 11 -4.2 35.8
-4 -5 11 49.4 47.6
3 5 -11 40.3 24
3 5 -11 27.7 34.4
3 5 -11 41.2 24.6
-3 -5 11 59.89 30.7
2 5 -11 22.3 28.8
2 5 -11 34.1 23
-2 -5 11 63.29 25
1 5 -11 17.4 25.5
1 5 -11 1.7 22.8
1 5 -11 -13.6 17.2
-1 -5 11 12.4 20.2
-1 -5 11 9.4 17.1
0 5 -11 99.99 22.6
0 5 -11 105.89 23.5
0 5 -11 99.89 31.6
0 -5 11 81.29 19.4
0 -5 11 90.79 20.6
0 -5 11 84.59 18.4
-1 5 -11 72.09 33.4
-1 5 -11 55.49 22.8
1 -5 11 73.39 18.7
1 -5 11 58.89 19.9
1 -5 11 80.19 19.6
-2 5 -11 125.29 42.1
-2 5 -11 119.59 25.9
2 -5 11 163.28 24.8
2 -5 11 127.09 25.5
-3 5 -11 67.19 24.6
-3 5 -11 47.1 43.3
3 -5 11 19.4 26.8
3 -5 11 56.59 24.4
3 -5 11 73.19 28.8
-4 5 -11 182.38 35.1
-4 5 -11 114.39 53.39
4 -5 11 136.09 42.9
4 -5 11 114.49 35.2
4 4 -11 399.46 56.59
4 4 -11 298.37 43.5
-4 -4 11 346.87 58.09
3 4 -11 411.76 43.3
3 4 -11 460.05 44.8
3 4 -11 421.96 57.59
-3 -4 11 473.35 49.1
2 4 -11 530.55 52.99
2 4 -11 579.74 46.4
-2 -4 11 495.45 43.8
1 4 -11 443.56 38.2
1 4 -11 507.25 48.7
1 4 -11 426.76 42.5
-1 -4 11 446.86 35.2
-1 -4 11 415.86 34.2
0 4 -11 700.93 44.7
0 4 -11 660.83 45.2
0 4 -11 746.13 58.19
0 -4 11 642.94 39.4
0 -4 11 636.74 42.7
-1 4 -11 394.86 49.5
-1 4 -11 418.36 29.4
-1 4 -11 404.36 36.6
1 -4 11 339.57 31.3
1 -4 11 312.97 32.9
-2 4 -11 75.49 23
-2 4 -11 90.49 37.7
-2 4 -11 75.19 21.7
2 -4 11 108.59 24.9
2 -4 11 110.19 22.6
-3 4 -11 252.47 55.69
-3 4 -11 318.07 35.4
3 -4 11 331.47 37.3
3 -4 11 257.97 33
-4 4 -11 -14.7 29.9
-4 4 -11 -32.4 48.3
4 -4 11 -33.8 29.1
4 -4 11 10.5 35.8
4 3 -11 1038.8 76.29
4 3 -11 1092.79 83.59
-4 -3 11 935.61 85.39
3 3 -11 1115.09 68.99
3 3 -11 1191.28 69.79
3 3 -11 1194.88 80.79
-3 -3 11 1186.18 71.09
2 3 -11 2189.58 111.79
2 3 -11 2298.27 107.19
-2 -3 11 2090.39 102.19
1 3 -11 1730.73 91.69
1 3 -11 1981.9 99.09
1 3 -11 1890.01 90.59
-1 -3 11 1867.71 86.09
-1 -3 11 1804.62 85.19
0 3 -11 1847.62 88.09
0 3 -11 1742.33 85.69
0 3 -11 2006 100.79
0 -3 11 1775.52 82.99
0 -3 11 1754.52 85.19
-1 3 -11 1865.71 87.19
-1 3 -11 1970 85.59
-1 3 -11 2145.79 93.39
-1 3 -11 1885.91 108.29
1 -3 11 1834.72 88.29
1 -3 11 1776.12 86.69
-2 3 -11 987.9 54.19
-2 3 -11 1042.3 58.59
-2 3 -11 857.01 76.69
2 -3 11 1060.79 59.19
2 -3 11 946.71 54.29
-3 3 -11 875.31 87.49
-3 3 -11 932.81 59.19
3 -3 11 1154.98 65.89
3 -3 11 1038.3 59.89
-4 3 -11 125.99 55.19
-4 3 -11 208.28 35.7
4 -3 11 198.68 37.1
4 -3 11 277.27 40.9
4 2 -11 995 76.19
4 2 -11 1096.99 85.09
3 2 -11 1522.75 82.79
3 2 -11 1549.34 84.69
3 2 -11 1553.44 93.39
2 2 -11 2011.2 96.09
2 2 -11 1932.01 101.49
-2 -2 11 1939.21 93.69
1 2 -11 2484.85 117.69
1 2 -11 2262.17 111.29
1 2 -11 2384.36 110.19
-1 -2 11 2380.46 106.49
0 2 -11 3007 137.89
0 2 -11 3153.48 139.79
0 2 -11 3355.96 151.78
0 -2 11 3063.09 134.89
0 -2 11 3070.79 137.49
-1 2 -11 2113.79 95.19
-1 2 -11 2076.79 88.79
-1 2 -11 1889.81 108.99
-1 2 -11 1976.7 90.79
1 -2 11 1977.2 89.79
1 -2 11 1917.21 91.79
-2 2 -11 1649.54 108.09
-2 2 -11 1808.62 84.69
-2 2 -11 1913.21 88.89
2 -2 11 1853.31 88.49
2 -2 11 1711.53 83.99
-3 2 -11 1304.57 69.59
-3 2 -11 1234.98 98.19
3 -2 11 1184.08 67.09
3 -2 11 1351.86 75.79
-4 2 -11 518.95 53.09
-4 2 -11 641.24 86.49
4 -2 11 652.73 58.99
4 -2 11 716.23 67.89
4 1 -11 407.56 56.69
4 1 -11 392.56 49.2
3 1 -11 304.27 38.1
3 1 -11 319.57 35.3
3 1 -11 325.97 46.5
2 1 -11 2126.59 100.39
2 1 -11 2072.89 105.39
-2 -1 11 2087.89 99.49
1 1 -11 547.75 36.7
1 1 -11 489.25 39.6
1 1 -11 558.44 43.7
-1 -1 11 539.55 36
0 1 -11 2117.99 97.79
0 1 -11 2075.69 96.89
0 1 -11 2097.89 107.59
0 -1 11 2052.49 92.89
-1 1 -11 643.44 39.8
-1 1 -11 652.63 35.8
-1 1 -11 673.63 41.7
-1 1 -11 588.54 52.49
1 -1 11 617.54 37.6
1 -1 11 594.54 41.7
-2 1 -11 1306.67 67.39
-2 1 -11 1278.47 62.79
-2 1 -11 1245.98 63.39
-2 1 -11 1124.29 85.09
2 -1 11 1329.27 69.19
2 -1 11 1175.68 62.39
-3 1 -11 465.35 67.49
-3 1 -11 532.65 43.1
3 -1 11 612.94 51.39
-4 1 -11 474.55 71.69
-4 1 -11 495.55 46.3
4 -1 11 621.44 64.39
4 0 -11 69.09 43.1
4 0 -11 40.9 35.1
3 0 -11 86.69 36.1
3 0 -11 16.9 21
3 0 -11 37.9 28
2 0 -11 116.99 21.7
2 0 -11 102.89 26.7
1 0 -11 13.2 17.2
1 0 -11 4.9 12.5
1 0 -11 -0.5 15.2
0 0 -11 325.87 38.4
0 0 -11 341.37 29
0 0 -11 294.27 29.4
0 0 11 301.97 26.7
-1 0 -11 126.89 20.4
-1 0 -11 105.79 28.7
-1 0 -11 151.58 21.4
-1 0 -11 131.89 16.8
1 0 11 118.09 22.7
-2 0 -11 74.49 20.4
-2 0 -11 49 30.1
-2 0 -11 75.19 18.4
2 0 11 41.9 25.4
-3 0 -11 16 21.3
-3 0 -11 7.1 33.8
3 0 11 50.49 30.3
-4 0 -11 32 28.7
-4 0 -11 22.4 42
4 0 11 53.29 37.8
4 -1 -11 235.48 44.5
4 -1 -11 270.47 50.99
3 -1 -11 1121.89 71.49
3 -1 -11 1014.5 62.69
3 -1 -11 1152.48 77.19
2 -1 -11 384.96 42.3
2 -1 -11 340.97 33.4
1 -1 -11 748.43 48.8
1 -1 -11 761.52 46.6
1 -1 -11 769.72 53.19
0 -1 -11 628.34 49.99
0 -1 -11 561.94 39.6
0 -1 -11 559.14 38.7
-1 -1 -11 440.26 35.3
-1 -1 -11 447.36 29.6
-1 -1 -11 382.96 45.5
-1 -1 -11 463.45 35.7
1 1 11 428.16 39.3
-2 -1 -11 146.49 21
-2 -1 -11 123.09 35.8
-2 -1 -11 149.59 23.3
2 1 11 142.19 27.6
-3 -1 -11 102.89 23.8
-3 -1 -11 71.49 38
3 1 11 76.99 30.7
4 -2 -11 900.41 77.09
4 -2 -11 928.81 81.39
3 -2 -11 1433.26 85.59
3 -2 -11 1341.47 72.59
3 -2 -11 1287.17 80.59
2 -2 -11 1218.08 65.59
2 -2 -11 1178.08 71.09
1 -2 -11 2205.88 107.19
1 -2 -11 2319.37 113.89
1 -2 -11 2232.18 106.19
0 -2 -11 1514.65 86.59
0 -2 -11 1463.95 75.29
0 -2 -11 1462.15 74.99
-1 -2 -11 1865.01 84.19
-1 -2 -11 1776.72 90.39
-1 -2 -11 1856.91 106.09
1 2 11 1891.81 90.49
-2 -2 -11 881.81 74.89
-2 -2 -11 985.5 58.29
-2 -2 -11 1020.2 54.19
2 2 11 993.3 59.19
-3 -2 -11 832.92 52.29
-3 -2 -11 667.63 76.39
3 2 11 771.72 58.09
4 -3 -11 576.24 72.59
4 -3 -11 621.14 67.79
3 -3 -11 1138.19 90.49
3 -3 -11 1384.56 82.49
3 -3 -11 1441.76 86.39
2 -3 -11 1437.06 73.69
2 -3 -11 1434.96 79.79
2 -3 -11 1310.87 76.69
1 -3 -11 1871.71 93.49
1 -3 -11 1797.52 91.29
1 -3 -11 1937.21 100.59
0 -3 -11 1010.1 56.99
0 -3 -11 998.9 57.69
0 -3 -11 972.5 67.39
-1 -3 -11 1915.81 88.49
-1 -3 -11 1948.31 95.59
-1 -3 -11 1802.62 109.49
1 3 11 2102.49 94.69
-2 -3 -11 1125.79 86.39
-2 -3 -11 1214.78 62.09
-2 -3 -11 1245.58 67.69
2 3 11 1117.89 65.79
-3 -3 -11 870.01 53.39
-3 -3 -11 753.82 79.39
3 3 11 798.42 60.69
3 -4 -11 539.65 55.39
3 -4 -11 578.74 58.79
2 -4 -11 259.57 37.3
2 -4 -11 328.87 34.1
2 -4 -11 325.27 41.3
1 -4 -11 1000.2 58.99
1 -4 -11 996.1 67.29
1 -4 -11 1016.4 61.69
0 -4 -11 691.73 46.7
0 -4 -11 711.83 48.8
0 -4 -11 729.83 38.1
0 -4 -11 697.03 57.69
-1 -4 -11 690.43 47
-1 -4 -11 647.24 59.29
-1 -4 -11 688.93 40.2
-2 -4 -11 375.36 55.69
-2 -4 -11 452.45 40.7
-2 -4 -11 426.16 35.9
2 4 11 437.36 43.6
-3 -4 -11 380.66 49.7
-3 -4 -11 415.26 39.7
-3 -4 -11 302.67 53.19
3 4 11 474.25 48.2
3 -5 -11 17.2 26.6
3 -5 -11 14.5 31.9
2 -5 -11 -3.8 18.5
2 -5 -11 6.7 16.1
2 -5 -11 30.6 25.7
1 -5 -11 14.9 15.7
1 -5 -11 22.3 20.4
1 -5 -11 7.1 19.1
0 -5 -11 3.8 19
0 -5 -11 -0.1 10.9
0 -5 -11 2.7 13.6
0 -5 -11 17.6 20.3
-1 -5 -11 11.4 23
-1 -5 -11 23.5 14
-1 -5 -11 25 16.8
-2 -5 -11 43.6 30.8
-2 -5 -11 78.99 23.2
-2 -5 -11 99.79 20.2
2 5 11 103.59 26.7
-3 -5 -11 76.29 25.6
-3 -5 -11 46.5 37.8
-3 -5 -11 35.8 22.8
3 5 11 57.59 27.8
3 -6 -11 264.17 36.5
3 -6 -11 273.27 46.3
3 -6 -11 299.27 40
2 -6 -11 535.55 44.3
2 -6 -11 565.54 52.39
2 -6 -11 552.94 52.09
1 -6 -11 204.68 34.3
1 -6 -11 230.28 29.3
1 -6 -11 214.28 31.2
0 -6 -11 474.65 52.59
0 -6 -11 512.05 32.4
0 -6 -11 511.25 42.2
-1 -6 -11 127.59 20.1
-1 -6 -11 97.19 30.7
-1 -6 -11 122.89 25.8
-2 -6 -11 253.87 33.3
-2 -6 -11 236.08 47
-2 -6 -11 260.17 29.6
2 -7 -11 821.22 61.49
2 -7 -11 846.12 62.69
2 -7 -11 761.02 54.99
1 -7 -11 716.63 54.49
1 -7 -11 634.84 60.89
1 -7 -11 651.93 49.8
0 -7 -11 936.01 60.59
0 -7 -11 890.81 72.59
0 -7 -11 935.91 49.6
-1 -7 -11 678.93 66.59
-1 -7 -11 700.53 52.09
-1 -7 -11 688.63 43.8
-2 -7 -11 457.95 40.4
-2 -7 -11 470.65 63.99
-2 -7 -11 520.05 47.8
1 -8 -11 776.32 69.29
1 -8 -11 823.82 60.59
1 -8 -11 734.53 55.89
0 -8 -11 476.35 35.9
0 -8 -11 582.24 47.8
0 -8 -11 521.65 58.59
-1 -8 -11 919.21 80.49
-1 -8 -11 961.4 56.29
-1 -8 -11 1064.19 66.49
1 12 -12 37.6 29.8
1 12 -12 62.89 30.7
-1 -12 12 -19.4 51.09
-1 -12 12 17.7 33.9
-1 -12 12 6.8 23.9
0 12 -12 64.39 32.1
0 -12 12 103.09 49.4
0 -12 12 126.29 25.4
0 -12 12 105.79 33.5
-1 12 -12 -0.1 29.5
1 -12 12 9.1 23.8
1 -12 12 -19.3 45.4
1 -12 12 2.7 31.9
2 11 -12 144.09 42.3
2 11 -12 123.09 35.8
-2 -11 12 163.88 42.5
-2 -11 12 168.88 60.49
1 11 -12 284.67 41.8
1 11 -12 271.37 40.8
-1 -11 12 260.07 30.4
-1 -11 12 264.87 42
-1 -11 12 255.77 57.39
0 11 -12 305.37 41.2
0 -11 12 390.96 54.29
0 -11 12 363.36 41.5
0 -11 12 373.56 38.1
0 -11 12 268.97 31.7
-1 11 -12 108.49 32.2
1 -11 12 68.99 44.9
1 -11 12 66.29 32.2
1 -11 12 77.49 25.1
2 -11 12 98.79 29.2
2 -11 12 81.29 57.29
2 -11 12 142.99 38.8
3 10 -12 594.74 70.79
3 10 -12 556.84 63.79
-3 -10 12 691.93 86.89
-3 -10 12 642.74 71.19
2 10 -12 992 73.19
2 10 -12 1151.68 80.39
-2 -10 12 887.81 91.89
-2 -10 12 1083.99 76.89
1 10 -12 623.44 57.19
1 10 -12 575.34 56.09
-1 -10 12 553.34 41.7
-1 -10 12 597.14 55.99
-1 -10 12 496.65 72.09
0 10 -12 1313.97 86.59
0 -10 12 1592.94 93.29
0 -10 12 1581.84 81.09
0 -10 12 1463.25 76.29
-1 10 -12 671.83 56.49
1 -10 12 666.33 66.39
1 -10 12 587.74 46.6
1 -10 12 535.85 50.09
2 -10 12 1008 66.59
2 -10 12 738.93 84.69
2 -10 12 996.8 61.99
3 9 -12 800.52 73.19
3 9 -12 785.02 65.89
-3 -9 12 637.84 90.19
-3 -9 12 870.21 74.49
2 9 -12 1312.97 80.69
2 9 -12 1223.98 84.29
-2 -9 12 1177.18 92.79
-2 -9 12 1251.37 80.39
1 9 -12 1056.59 70.19
1 9 -12 1140.29 72.29
-1 -9 12 1004.9 81.79
-1 -9 12 1063.99 67.99
-1 -9 12 1109.09 62.39
0 9 -12 1429.46 84.59
0 9 -12 1487.45 79.49
0 -9 12 1419.96 74.59
0 -9 12 1500.05 87.99
0 -9 12 1477.05 77.99
-1 9 -12 1222.68 73.29
-1 9 -12 1040.5 92.79
1 -9 12 1149.69 66.19
1 -9 12 1124.79 63.69
1 -9 12 1209.48 80.79
-2 9 -12 1110.39 68.49
-2 9 -12 719.63 87.29
2 -9 12 954 59.79
2 -9 12 962.6 80.49
2 -9 12 1119.89 64.69
-3 9 -12 625.24 91.49
3 -9 12 939.61 70.59
3 -9 12 818.82 79.59
3 -9 12 879.41 61.19
3 -9 12 854.41 69.39
3 8 -12 812.32 74.49
3 8 -12 730.13 62.49
-3 -8 12 596.84 80.29
-3 -8 12 716.33 69.19
2 8 -12 427.06 47.9
2 8 -12 374.16 50.39
-2 -8 12 426.26 42.8
-2 -8 12 470.95 59.49
-2 -8 12 452.45 46.1
1 8 -12 703.03 55.59
1 8 -12 754.52 59.29
-1 -8 12 747.43 49.7
-1 -8 12 689.73 53.19
0 8 -12 941.31 65.89
0 8 -12 1023.1 85.29
0 8 -12 1123.69 64.39
0 -8 12 1000.6 61.29
0 -8 12 1136.39 59.39
-1 8 -12 878.31 59.99
-1 8 -12 670.63 73.89
1 -8 12 807.82 53.09
1 -8 12 895.41 66.79
1 -8 12 810.82 50.79
-2 8 -12 505.15 72.19
-2 8 -12 726.53 55.29
2 -8 12 700.03 65.09
2 -8 12 658.73 47.6
2 -8 12 756.32 51.29
2 -8 12 677.23 48.9
-3 8 -12 295.67 59.59
3 -8 12 531.25 51.79
3 -8 12 412.96 48.8
3 -8 12 457.85 49.6
3 -8 12 438.96 62.89
4 7 -12 0.4 43.3
-4 -7 12 61.69 40.6
-4 -7 12 28.4 52.29
3 7 -12 -6.1 26.8
3 7 -12 -3.6 37.9
-3 -7 12 13.7 43.7
-3 -7 12 44.4 34.5
2 7 -12 -10.6 31.6
2 7 -12 -6.9 24.6
-2 -7 12 38.9 23.2
-2 -7 12 30.1 28.1
1 7 -12 8.3 21.5
1 7 -12 4.4 25.4
-1 -7 12 1.5 24
-1 -7 12 -13.9 20.2
0 7 -12 45.6 23.2
0 7 -12 53.59 23.3
0 7 -12 39.5 32.4
0 -7 12 65.09 24.6
0 -7 12 39.3 20.6
-1 7 -12 1.1 32.8
-1 7 -12 36.3 24.8
1 -7 12 38 20
1 -7 12 5.2 23
1 -7 12 32.6 17.8
-2 7 -12 177.78 30.2
-2 7 -12 112.29 44.4
2 -7 12 168.08 27.2
2 -7 12 149.59 26.8
2 -7 12 253.77 31.6
-3 7 -12 11.3 44.6
3 -7 12 42 31.6
3 -7 12 32.4 31.2
3 -7 12 -5 27.1
4 6 -12 213.78 53.59
-4 -6 12 296.87 47.9
-4 -6 12 302.57 60.29
3 6 -12 574.14 66.19
3 6 -12 590.34 54.79
-3 -6 12 751.02 72.99
-3 -6 12 726.83 60.59
2 6 -12 202.98 32.5
2 6 -12 217.28 40.9
-2 -6 12 258.17 34
1 6 -12 1022.3 73.49
1 6 -12 908.61 61.69
1 6 -12 903.31 63.49
-1 -6 12 932.91 54.29
-1 -6 12 881.01 55.59
0 6 -12 635.44 46.2
0 6 -12 557.04 60.49
0 6 -12 597.64 49.1
0 -6 12 597.04 41.8
0 -6 12 611.94 42.9
-1 6 -12 395.56 42.5
-1 6 -12 398.66 58.89
1 -6 12 397.06 36.1
1 -6 12 381.66 34.7
-2 6 -12 218.58 33
-2 6 -12 216.48 50.99
2 -6 12 169.88 27.6
2 -6 12 173.08 27.4
-3 6 -12 128.59 50.29
3 -6 12 121.89 31.1
3 -6 12 174.28 35.3
3 -6 12 128.59 32.5
4 5 -12 713.23 76.29
4 5 -12 726.03 65.09
-4 -5 12 665.13 68.89
3 5 -12 1574.44 86.69
3 5 -12 1522.35 83.79
3 5 -12 1612.34 97.99
-3 -5 12 1529.95 87.49
2 5 -12 1440.66 85.59
2 5 -12 1388.66 79.69
-2 -5 12 1377.96 75.49
1 5 -12 2061.99 103.19
1 5 -12 2033.3 101.79
1 5 -12 2149.48 111.99
-1 -5 12 1908.01 94.49
-1 -5 12 1961.9 95.09
0 5 -12 1104.29 66.19
0 5 -12 1210.18 81.59
0 5 -12 1104.19 63.69
0 -5 12 1074.29 57.79
0 -5 12 1115.79 59.89
-1 5 -12 2071.99 124.69
-1 5 -12 2280.17 107.29
1 -5 12 2106.69 98.59
1 -5 12 2147.69 98.79
-2 5 -12 562.84 72.39
-2 5 -12 687.83 52.69
2 -5 12 714.23 46.3
2 -5 12 694.03 49.3
-3 5 -12 916.01 94.69
-3 5 -12 893.91 59.99
3 -5 12 1085.59 68.39
3 -5 12 996.1 60.19
4 4 -12 943.01 81.89
4 4 -12 782.72 70.29
3 4 -12 1454.95 80.49
3 4 -12 1521.65 94.29
3 4 -12 1507.15 82.29
-3 -4 12 1321.67 82.29
2 4 -12 1564.14 90.29
2 4 -12 1597.24 84.99
-2 -4 12 1511.25 80.39
1 4 -12 3041.3 143.49
1 4 -12 3392.26 154.68
1 4 -12 3084.49 144.89
-1 -4 12 3028.6 136.99
-1 -4 12 3026.2 137.39
0 4 -12 1267.87 69.49
0 4 -12 1426.06 85.39
0 4 -12 1314.77 71.59
0 -4 12 1327.37 67.59
0 -4 12 1280.87 65.09
-1 4 -12 3057.39 170.18
-1 4 -12 3703.83 147.09
-1 4 -12 3716.43 155.78
-1 4 -12 3344.07 148.59
1 -4 12 3325.57 148.39
1 -4 12 3282.97 147.69
-2 4 -12 662.63 49.3
-2 4 -12 621.84 42.9
-2 4 -12 507.55 67.29
2 -4 12 671.03 47.8
2 -4 12 569.54 42.9
-3 4 -12 1487.35 115.99
-3 4 -12 1577.64 83.59
3 -4 12 1566.44 81.99
3 -4 12 1743.13 88.09
-4 4 -12 318.97 42.5
-4 4 -12 303.07 69.09
4 -4 12 419.46 50.39
4 -4 12 321.57 43.9
4 3 -12 214.88 51.49
4 3 -12 223.98 40.6
3 3 -12 495.65 62.39
3 3 -12 512.05 50.49
3 3 -12 584.24 49.9
-3 -3 12 562.74 53.99
2 3 -12 401.26 50.59
2 3 -12 426.76 42.5
-2 -3 12 441.66 42.1
1 3 -12 1977.5 96.89
1 3 -12 2093.59 106.09
1 3 -12 1948.01 98.59
-1 -3 12 1891.11 91.89
0 3 -12 510.15 38.9
0 3 -12 510.05 50.19
0 3 -12 533.85 39.7
0 -3 12 481.55 34.8
0 -3 12 517.05 40.3
-1 3 -12 2019.5 83.19
-1 3 -12 1773.52 85.19
-1 3 -12 1946.11 91.29
-1 3 -12 1717.73 106.39
1 -3 12 1693.63 84.09
1 -3 12 1793.72 86.59
-2 3 -12 519.75 38.6
-2 3 -12 457.25 62.29
-2 3 -12 491.75 42.9
2 -3 12 466.15 38.1
2 -3 12 565.44 44.8
-3 3 -12 824.82 87.19
-3 3 -12 1043.7 59.69
3 -3 12 1011.8 64.99
3 -3 12 895.71 57.19
-4 3 -12 303.07 39.5
-4 3 -12 193.08 60.39
4 -3 12 370.76 50.69
4 -3 12 288.37 40.4
4 2 -12 9 42.4
4 2 -12 1.6 33.5
3 2 -12 -37.3 23.8
3 2 -12 -10.1 33.8
3 2 -12 23.4 28.1
2 2 -12 -2.8 26.3
2 2 -12 -17.8 19
-2 -2 12 -2.3 24.6
1 2 -12 -9 14.3
1 2 -12 0 19.4
1 2 -12 -6 20.4
-1 -2 12 -7 16.8
0 2 -12 78.59 20.2
0 2 -12 82.79 17.8
0 2 -12 55.09 23.7
0 -2 12 70.79 17.1
-1 2 -12 90.89 19.8
-1 2 -12 90.69 28.6
-1 2 -12 80.09 16.2
-1 2 -12 106.99 19.5
1 -2 12 89.09 18.9
1 -2 12 102.69 22.4
-2 2 -12 103.89 25.6
-2 2 -12 87.09 22.3
-2 2 -12 116.39 21.4
-2 2 -12 55.89 33.8
2 -2 12 99.59 21.6
2 -2 12 125.19 27.4
-3 2 -12 23.9 24.5
-3 2 -12 24.6 38.4
3 -2 12 38.1 30.4
3 -2 12 17.3 22.7
-4 2 -12 56.19 31.5
-4 2 -12 37.8 49.99
4 -2 12 79.99 38.4
4 1 -12 194.78 49.9
4 1 -12 200.48 42.8
3 1 -12 1168.28 80.79
3 1 -12 1079.19 72.39
3 1 -12 1035.1 66.29
2 1 -12 407.26 38.4
2 1 -12 404.86 45.3
-2 -1 12 383.36 39
1 1 -12 736.73 53.99
1 1 -12 723.73 49.6
1 1 -12 726.53 45.9
-1 -1 12 731.33 45
0 1 -12 630.24 41.2
0 1 -12 625.74 51.09
0 1 -12 582.64 41.4
0 -1 12 581.84 37.2
-1 1 -12 388.66 29.1
-1 1 -12 446.56 36.2
-1 1 -12 424.06 47.9
-1 1 -12 436.16 34.7
1 -1 12 417.46 38.1
1 -1 12 384.96 31.5
-2 1 -12 138.89 22.6
-2 1 -12 112.69 35.4
-2 1 -12 113.69 21.7
-2 1 -12 156.38 25.1
2 -1 12 90.59 20.5
2 -1 12 138.09 28.5
-3 1 -12 70.59 40.6
-3 1 -12 96.89 25.9
3 -1 12 135.29 32.3
4 0 -12 776.32 79.29
4 0 -12 786.52 71.59
3 0 -12 1200.28 77.39
3 0 -12 1131.69 70.09
3 0 -12 1347.47 85.59
2 0 -12 2028.6 103.19
2 0 -12 1959.3 97.29
1 0 -12 2289.67 112.09
1 0 -12 2101.39 104.29
1 0 -12 2125.19 102.79
0 0 -12 2315.37 110.89
0 0 -12 2431.96 112.39
0 0 -12 2466.85 124.79
0 0 12 2371.36 106.69
-1 0 -12 1572.24 71.29
-1 0 -12 1487.85 78.69
-1 0 -12 1569.84 77.19
-1 0 -12 1545.15 95.49
1 0 12 1478.45 77.89
-2 0 -12 1088.49 87.79
-2 0 -12 1418.16 68.89
-2 0 -12 1361.06 72.19
-2 0 -12 1375.56 66.79
2 0 12 1244.98 71.59
-3 0 -12 544.55 44.9
-3 0 -12 485.95 69.89
3 0 12 630.64 52.39
4 -1 -12 722.23 72.09
4 -1 -12 747.43 78.49
3 -1 -12 1254.67 79.59
3 -1 -12 1181.98 70.39
3 -1 -12 1311.47 85.29
2 -1 -12 1984.4 101.99
2 -1 -12 1895.51 95.49
1 -1 -12 1477.55 76.09
1 -1 -12 1413.06 76.79
1 -1 -12 1472.85 82.69
0 -1 -12 2327.97 121.39
0 -1 -12 2304.87 109.49
0 -1 -12 2295.87 109.39
0 1 12 2349.96 103.79
-1 -1 -12 1855.41 88.49
-1 -1 -12 1788.92 82.19
-1 -1 -12 1632.64 103.19
-1 -1 -12 1822.42 90.09
1 1 12 1894.71 89.69
-2 -1 -12 1984.3 88.69
-2 -1 -12 1928.61 93.59
-2 -1 -12 1689.23 113.59
2 1 12 1772.82 91.49
-3 -1 -12 699.73 78.39
-3 -1 -12 926.51 54.79
3 1 12 862.11 62.89
4 -2 -12 185.88 51.89
4 -2 -12 175.18 43.6
3 -2 -12 458.55 47.8
3 -2 -12 413.76 41.7
3 -2 -12 529.55 58.49
2 -2 -12 430.56 41.9
2 -2 -12 435.46 38.9
2 -2 -12 475.15 47.3
1 -2 -12 898.61 60.39
1 -2 -12 830.52 54.79
1 -2 -12 801.02 51.69
0 -2 -12 975.9 68.29
0 -2 -12 988.7 57.39
0 -2 -12 970.2 57.49
-1 -2 -12 511.65 41.4
-1 -2 -12 546.85 41.4
-1 -2 -12 443.26 53.39
-1 -2 -12 505.95 33.9
1 2 12 570.04 45.4
-2 -2 -12 813.42 52.19
-2 -2 -12 653.33 67.89
-2 -2 -12 761.72 46.1
2 2 12 705.53 52.39
-3 -2 -12 374.46 38.7
-3 -2 -12 301.77 54.29
3 2 12 365.96 41.8
3 -3 -12 36.7 30.1
3 -3 -12 30.5 33.8
2 -3 -12 9.1 19
2 -3 -12 28.1 18.8
2 -3 -12 7.2 25.4
1 -3 -12 11.8 16.4
1 -3 -12 8.2 19.1
1 -3 -12 18.7 20.6
0 -3 -12 3.8 13.6
0 -3 -12 -6.5 17.6
0 -3 -12 2.8 20.3
-1 -3 -12 27.5 13.9
-1 -3 -12 21.2 16.3
-1 -3 -12 21.6 24.2
1 3 12 21.1 24.2
-2 -3 -12 64.29 21.3
-2 -3 -12 72.09 34.1
-2 -3 -12 69.99 20.3
2 3 12 84.09 26.6
-3 -3 -12 -3.9 35.9
-3 -3 -12 1.2 21.8
3 3 12 33.3 28
3 -4 -12 398.96 51.59
3 -4 -12 418.66 46.8
2 -4 -12 698.03 55.39
2 -4 -12 732.43 49.99
2 -4 -12 580.34 73.59
1 -4 -12 728.03 53.79
1 -4 -12 797.32 51.59
1 -4 -12 746.63 59.69
0 -4 -12 403.76 40.6
0 -4 -12 434.76 48.6
0 -4 -12 400.76 37.5
-1 -4 -12 231.68 23.5
-1 -4 -12 254.07 30.2
-1 -4 -12 235.18 41
-2 -4 -12 260.87 46.9
-2 -4 -12 264.87 28.6
-2 -4 -12 272.47 32.2
2 4 12 330.37 35.4
-3 -4 -12 65.19 24.7
-3 -4 -12 32.9 37.5
3 4 12 90.19 29.8
3 -5 -12 787.12 64.99
3 -5 -12 814.92 71.39
2 -5 -12 931.91 60.29
2 -5 -12 995.8 67.99
1 -5 -12 923.61 62.59
1 -5 -12 971.5 59.49
1 -5 -12 955.2 69.99
0 -5 -12 1406.26 65.09
0 -5 -12 1390.76 89.99
0 -5 -12 1326.57 76.39
0 -5 -12 1328.67 75.09
-1 -5 -12 795.92 47.7
-1 -5 -12 876.11 56.49
-1 -5 -12 883.31 72.19
-2 -5 -12 818.12 78.39
-2 -5 -12 919.31 61.29
-2 -5 -12 923.71 54.69
2 5 12 943.91 60.19
2 -6 -12 984.3 62.19
2 -6 -12 916.41 68.59
1 -6 -12 701.93 51.79
1 -6 -12 764.32 56.99
1 -6 -12 720.53 63.69
0 -6 -12 895.41 48.9
0 -6 -12 907.11 73.19
0 -6 -12 951.2 62.59
0 -6 -12 933.51 59.79
-1 -6 -12 739.73 47
-1 -6 -12 911.91 58.39
-1 -6 -12 768.12 71.19
-2 -6 -12 540.85 68.89
-2 -6 -12 653.73 52.29
-2 -6 -12 641.24 45.7
2 -7 -12 186.78 35.6
2 -7 -12 199.28 30.8
2 -7 -12 210.18 37.9
1 -7 -12 501.05 49.6
1 -7 -12 496.15 56.39
1 -7 -12 463.55 43.9
0 -7 -12 143.49 35.6
0 -7 -12 172.98 21.1
0 -7 -12 235.28 36.3
0 -7 -12 185.88 31.2
-1 -7 -12 500.15 61.69
-1 -7 -12 477.35 38
-1 -7 -12 536.05 47.2
0 -8 -12 49.3 28.5
0 -8 -12 -1.4 17.5
0 -8 -12 11.2 14.3
0 -8 -12 7.2 26.2
1 12 -13 603.84 78.19
1 12 -13 354.36 48.1
-1 -12 13 563.94 58.89
-1 -12 13 434.26 67.29
0 12 -13 833.32 66.99
0 -12 13 686.73 79.19
0 -12 13 733.43 51.59
0 -12 13 757.92 61.09
-1 12 -13 398.06 49.99
1 -12 13 508.35 71.39
1 -12 13 492.55 53.59
1 -12 13 454.55 45
2 11 -13 1154.98 83.49
2 11 -13 1042 78.59
-2 -11 13 866.21 96.89
-2 -11 13 1084.79 82.49
1 11 -13 687.73 61.99
1 11 -13 576.84 60.09
-1 -11 13 566.64 59.59
-1 -11 13 605.64 77.09
0 11 -13 982.1 74.19
0 -11 13 1131.19 62.99
0 -11 13 1058.59 61.39
0 -11 13 1105.09 68.89
0 -11 13 1050.19 83.49
-1 11 -13 916.81 69.69
1 -11 13 908.51 63.69
1 -11 13 807.82 56.89
1 -11 13 986 79.69
2 -11 13 593.94 77.39
2 -11 13 557.24 50.19
2 -11 13 579.44 59.39
2 10 -13 654.53 63.59
2 10 -13 694.63 66.09
-2 -10 13 566.54 79.49
-2 -10 13 691.53 68.49
1 10 -13 546.05 55.99
1 10 -13 608.44 57.49
-1 -10 13 489.15 55.29
-1 -10 13 583.24 70.99
0 10 -13 400.66 50.79
0 -10 13 471.65 61.09
0 -10 13 502.45 49
0 -10 13 500.75 42.6
-1 10 -13 775.92 62.89
1 -10 13 946.51 72.99
1 -10 13 738.63 52.49
1 -10 13 783.02 57.89
2 -10 13 245.28 61.59
2 -10 13 356.56 43
2 -10 13 298.87 35.3
3 9 -13 28.6 31.6
3 9 -13 70.79 42.8
-3 -9 13 59.39 39.1
-3 -9 13 29.7 54.19
2 9 -13 12.2 28.6
2 9 -13 -14.3 34.2
-2 -9 13 53.09 45.8
-2 -9 13 18.5 34.5
1 9 -13 135.39 30.8
1 9 -13 133.19 35.3
-1 -9 13 87.59 25.3
-1 -9 13 126.99 43.8
-1 -9 13 108.79 31.8
0 9 -13 26 26.4
0 9 -13 -28.4 34.3
0 -9 13 35 21.5
0 -9 13 25.8 27
-1 9 -13 106.19 45.9
-1 9 -13 225.48 34.9
1 -9 13 194.58 28.2
1 -9 13 201.78 33
-2 9 -13 61.69 31.1
-2 9 -13 54.89 41.6
2 -9 13 15.1 23.8
2 -9 13 75.49 32
2 -9 13 30.9 45.2
3 8 -13 318.67 43.3
3 8 -13 353.36 55.39
-3 -8 13 414.66 52.19
-3 -8 13 337.67 60.89
2 8 -13 316.37 47.7
2 8 -13 208.98 36.1
-2 -8 13 274.07 52.69
-2 -8 13 341.37 43.5
-2 -8 13 206.58 32.1
1 8 -13 565.44 53.89
1 8 -13 475.25 49.8
-1 -8 13 470.85 47.8
-1 -8 13 512.35 43.8
0 8 -13 377.86 62.89
0 8 -13 435.96 44.4
0 8 -13 365.36 46.3
0 -8 13 434.96 43.2
0 -8 13 468.25 40.3
-1 8 -13 142.39 43.2
-1 8 -13 175.98 32.4
1 -8 13 200.38 27.3
1 -8 13 262.27 32.6
-2 8 -13 160.18 33.3
-2 8 -13 136.09 47.6
2 -8 13 153.38 27
2 -8 13 206.78 35.1
2 -8 13 166.08 28.4
-3 8 -13 43.8 45.2
3 -8 13 27.1 44.2
3 -8 13 20.1 29.9
3 -8 13 72.89 38.2
3 -8 13 56.89 31.4
3 7 -13 1245.18 91.09
3 7 -13 1239.28 79.19
-3 -7 13 1285.97 85.39
2 7 -13 1368.16 82.19
2 7 -13 1453.35 88.69
-2 -7 13 1405.06 79.99
-2 -7 13 1359.86 77.09
1 7 -13 1092.49 70.29
1 7 -13 1267.77 87.99
1 7 -13 1126.19 73.49
-1 -7 13 1077.19 63.79
-1 -7 13 1158.98 66.79
0 7 -13 1312.47 93.09
0 7 -13 1246.58 77.19
0 7 -13 1323.07 74.19
0 -7 13 1300.17 69.49
0 -7 13 1357.36 68.49
-1 7 -13 1549.84 81.49
-1 7 -13 1171.08 96.19
1 -7 13 1412.16 70.69
1 -7 13 1342.47 68.69
-2 7 -13 1133.79 68.69
-2 7 -13 814.82 86.99
2 -7 13 1056.29 60.49
2 -7 13 1060.69 61.29
-3 7 -13 338.67 65.69
3 -7 13 528.15 51.19
3 -7 13 476.65 48.5
3 -7 13 466.55 47.4
4 6 -13 827.32 83.89
-4 -6 13 753.02 73.69
-4 -6 13 698.13 86.89
3 6 -13 1426.26 86.09
3 6 -13 1542.15 96.69
-3 -6 13 1392.46 88.29
2 6 -13 1412.76 82.49
2 6 -13 1454.75 89.99
-2 -6 13 1433.96 77.09
-2 -6 13 1390.96 78.69
1 6 -13 1897.51 102.09
1 6 -13 1974 103.79
1 6 -13 2142.29 115.09
-1 -6 13 1971.8 94.99
-1 -6 13 1893.81 95.79
0 6 -13 1862.51 98.49
0 6 -13 1901.81 94.99
0 6 -13 1842.02 113.09
0 -6 13 1819.82 88.09
0 -6 13 1882.91 89.09
-1 6 -13 1198.08 96.69
-1 6 -13 1448.56 80.39
1 -6 13 1454.85 70.39
1 -6 13 1415.46 70.79
-2 6 -13 1144.19 102.29
-2 6 -13 1600.84 81.79
2 -6 13 1369.26 72.99
2 -6 13 1400.46 74.39
-3 6 -13 731.23 90.59
3 -6 13 889.91 58.59
3 -6 13 884.11 62.89
4 5 -13 123.79 37.3
4 5 -13 142.59 50.09
-4 -5 13 150.18 43.3
3 5 -13 677.73 69.59
3 5 -13 679.33 56.79
3 5 -13 679.63 53.79
-3 -5 13 695.63 61.79
2 5 -13 406.06 54.89
2 5 -13 381.06 42.8
-2 -5 13 398.66 44.5
1 5 -13 1858.91 99.89
1 5 -13 2038.2 110.29
1 5 -13 1966.1 100.19
-1 -5 13 1869.81 91.79
-1 -5 13 1804.62 91.49
0 5 -13 525.25 46
0 5 -13 508.35 46.2
0 5 -13 527.45 60.59
0 -5 13 491.25 38
-1 5 -13 1386.66 74.69
-1 5 -13 1092.39 90.39
1 -5 13 1263.07 64.39
1 -5 13 1224.68 65.19
-2 5 -13 575.94 74.99
-2 5 -13 729.53 54.89
2 -5 13 678.83 50.09
2 -5 13 652.03 46.2
-3 5 -13 707.53 52.29
-3 5 -13 655.83 87.19
3 -5 13 665.83 50.49
3 -5 13 764.82 60.49
4 4 -13 118.09 38.3
4 4 -13 98.89 49.2
3 4 -13 55.89 39.7
3 4 -13 110.49 30.9
3 4 -13 96.69 30.7
-3 -4 13 138.29 35.7
2 4 -13 173.18 33.2
2 4 -13 218.38 39.1
-2 -4 13 176.48 32.4
1 4 -13 163.88 33.2
1 4 -13 116.49 33.1
1 4 -13 152.48 28.7
-1 -4 13 148.79 26.9
-1 -4 13 125.99 24
0 4 -13 68.69 23.9
0 4 -13 33.4 28.5
0 4 -13 27 20.4
0 -4 13 21.2 18.1
-1 4 -13 297.67 33.8
-1 4 -13 319.87 28.7
-1 4 -13 236.58 44.3
-1 4 -13 263.77 31.8
1 -4 13 277.27 29.6
1 -4 13 280.57 31.4
-2 4 -13 -7 34.6
-2 4 -13 -9.9 20.4
-2 4 -13 1 22.8
2 -4 13 -0.2 19.9
2 -4 13 28.4 25.8
-3 4 -13 80.39 29.4
-3 4 -13 66.49 48.2
3 -4 13 108.69 29
3 -4 13 87.89 32.8
4 3 -13 595.74 75.29
4 3 -13 605.54 64.99
3 3 -13 283.37 50.89
3 3 -13 179.18 35.5
3 3 -13 250.77 37.2
-3 -3 13 307.97 41.7
2 3 -13 978.1 71.69
2 3 -13 1004.4 64.09
-2 -3 13 992.4 61.49
1 3 -13 334.47 36.8
1 3 -13 352.06 46.3
1 3 -13 329.77 41.9
-1 -3 13 330.07 35.3
0 3 -13 757.52 49.99
0 3 -13 760.92 62.99
0 3 -13 744.93 50.39
0 -3 13 767.02 45.8
-1 3 -13 510.25 43.2
-1 3 -13 532.05 38.6
-1 3 -13 495.85 57.39
-1 3 -13 535.15 34.1
1 -3 13 526.65 42.2
1 -3 13 469.75 37.7
-2 3 -13 159.08 24.8
-2 3 -13 136.39 42.9
-2 3 -13 161.08 28.4
2 -3 13 203.28 31.1
2 -3 13 165.78 25
-3 3 -13 128.79 28.5
-3 3 -13 80.19 47.6
3 -3 13 143.49 35
3 -3 13 121.69 26.8
4 2 -13 957.1 85.99
4 2 -13 836.02 75.19
3 2 -13 1417.56 90.49
3 2 -13 1242.58 77.69
3 2 -13 1222.68 79.79
2 2 -13 1192.68 70.99
2 2 -13 1216.88 77.59
-2 -2 13 1260.87 69.49
1 2 -13 2368.36 113.89
1 2 -13 2341.27 115.29
1 2 -13 2449.16 122.09
-1 -2 13 2425.16 109.79
0 2 -13 1499.95 75.09
0 2 -13 1414.16 75.39
0 2 -13 1444.56 87.79
0 -2 13 1408.86 70.29
-1 2 -13 1600.94 104.59
-1 2 -13 1802.72 89.29
-1 2 -13 1931.51 81.39
-1 2 -13 1862.01 85.99
1 -2 13 1612.94 82.59
1 -2 13 1769.02 86.59
-2 2 -13 933.71 52.19
-2 2 -13 1011.8 58.99
-2 2 -13 765.52 76.29
2 -2 13 813.42 51.39
2 -2 13 948.31 59.49
-3 2 -13 624.34 80.19
-3 2 -13 720.83 50.59
3 -2 13 776.42 60.69
3 -2 13 613.14 49.1
4 1 -13 774.82 81.19
4 1 -13 684.33 71.79
3 1 -13 1175.48 77.59
3 1 -13 1254.67 87.09
3 1 -13 1181.68 72.79
2 1 -13 1936.21 102.89
2 1 -13 1951.9 97.49
-2 -1 13 1909.61 95.59
1 1 -13 1446.46 83.69
1 1 -13 1437.96 78.29
-1 -1 13 1426.46 72.59
0 1 -13 2183.58 107.09
0 1 -13 2225.68 105.99
0 1 -13 2355.76 119.99
0 -1 13 2199.78 101.49
-1 1 -13 1776.02 86.09
-1 1 -13 1825.62 89.19
-1 1 -13 1900.91 81.19
-1 1 -13 1702.43 104.59
1 -1 13 1794.42 87.79
1 -1 13 1565.44 81.49
-2 1 -13 1916.31 87.19
-2 1 -13 1873.41 86.09
-2 1 -13 1902.71 92.79
-2 1 -13 1536.95 110.69
2 -1 13 1891.71 90.69
2 -1 13 1552.14 83.39
-3 1 -13 867.71 55.19
-3 1 -13 737.33 84.89
3 -1 13 890.01 65.09
4 0 -13 478.05 55.59
4 0 -13 460.95 65.09
3 0 -13 177.38 37.3
3 0 -13 156.28 29.9
3 0 -13 173.28 43.7
2 0 -13 799.32 53.69
2 0 -13 880.21 61.99
1 0 -13 639.84 44.8
1 0 -13 621.84 48.1
1 0 -13 642.24 53.59
0 0 -13 1029.2 59.79
0 0 -13 1084.79 60.59
0 0 -13 1054.39 73.49
0 0 13 993.2 55.29
-1 0 -13 692.13 39.4
-1 0 -13 620.04 61.89
-1 0 -13 682.03 48.3
-1 0 -13 741.83 47.4
1 0 13 712.63 51.29
1 0 13 656.03 41.2
-2 0 -13 717.73 52.49
-2 0 -13 752.42 46.8
-2 0 -13 829.12 50.09
-2 0 -13 643.34 68.69
2 0 13 795.62 53.59
-3 0 -13 657.63 48.9
-3 0 -13 592.94 77.49
3 0 13 665.63 60.29
4 -1 -13 -38.9 44.3
4 -1 -13 10.9 35.1
3 -1 -13 14.6 32.2
3 -1 -13 11.5 22.5
3 -1 -13 36.4 37.3
2 -1 -13 61.59 22.1
2 -1 -13 79.29 29.7
1 -1 -13 13.1 18.3
1 -1 -13 2.9 19.5
1 -1 -13 -0.1 20.6
0 -1 -13 18.1 22.7
0 -1 -13 45.7 20.7
0 -1 -13 23.6 16.6
-1 -1 -13 40.4 21
-1 -1 -13 10.5 17.3
-1 -1 -13 19.2 25.4
-1 -1 -13 14.7 13.9
1 1 13 33.7 26.3
-2 -1 -13 45.6 20.3
-2 -1 -13 19 20
-2 -1 -13 3.4 31.1
2 1 13 37.9 25.9
-3 -1 -13 17.1 36.3
-3 -1 -13 15.5 22.6
3 1 13 22.6 32
3 -2 -13 442.66 59.99
3 -2 -13 398.46 42.8
3 -2 -13 540.65 58.69
2 -2 -13 578.34 52.49
2 -2 -13 507.55 43.9
1 -2 -13 823.22 62.19
1 -2 -13 849.41 53.59
1 -2 -13 812.82 56.79
0 -2 -13 252.07 42.3
0 -2 -13 266.17 35.8
0 -2 -13 258.57 32.5
-1 -2 -13 420.76 40.1
-1 -2 -13 378.06 50.59
-1 -2 -13 394.06 38.6
-1 -2 -13 400.16 31.4
1 2 13 413.06 44.5
-2 -2 -13 190.78 29.3
-2 -2 -13 187.98 25.4
-2 -2 -13 172.98 41.7
2 2 13 178.78 30.9
-3 -2 -13 118.99 45.9
-3 -2 -13 164.38 28.7
3 2 13 125.29 32.4
3 -3 -13 1023.6 79.09
3 -3 -13 1010.7 75.19
2 -3 -13 1174.88 74.69
2 -3 -13 1136.89 68.19
1 -3 -13 1247.98 80.79
1 -3 -13 1255.67 73.49
1 -3 -13 1272.67 71.39
0 -3 -13 1908.41 93.69
0 -3 -13 1802.12 92.59
0 -3 -13 1706.63 104.79
-1 -3 -13 1093.79 57.99
-1 -3 -13 1182.08 67.29
-1 -3 -13 1122.29 66.89
-1 -3 -13 1102.69 82.49
-2 -3 -13 927.61 83.69
-2 -3 -13 998.9 58.29
-2 -3 -13 1094.99 65.89
2 3 13 1081.59 66.49
-3 -3 -13 287.37 33.6
-3 -3 -13 268.87 57.59
3 3 13 253.37 39.7
3 -4 -13 740.43 70.19
3 -4 -13 729.33 66.69
2 -4 -13 1099.69 72.99
2 -4 -13 1131.59 67.89
1 -4 -13 809.62 64.09
1 -4 -13 842.32 58.69
1 -4 -13 802.32 55.39
0 -4 -13 1583.74 100.49
0 -4 -13 1638.04 87.19
0 -4 -13 1729.83 89.29
-1 -4 -13 577.04 46.1
-1 -4 -13 528.25 59.79
-1 -4 -13 559.84 38
-2 -4 -13 1336.77 105.19
-2 -4 -13 1574.74 85.39
-2 -4 -13 1607.94 78.09
2 4 13 1524.15 83.29
2 -5 -13 563.64 55.39
2 -5 -13 575.44 49.1
1 -5 -13 171.08 30.9
1 -5 -13 138.29 26
1 -5 -13 146.09 33.3
0 -5 -13 641.24 62.29
0 -5 -13 700.73 53.89
0 -5 -13 614.64 49
-1 -5 -13 212.68 24
-1 -5 -13 188.38 41
-1 -5 -13 199.08 30.8
-2 -5 -13 465.05 66.79
-2 -5 -13 676.13 45.5
-2 -5 -13 598.64 51.39
2 5 13 613.34 52.39
2 -6 -13 19.3 30.2
2 -6 -13 26.9 21.6
1 -6 -13 25.9 25.4
1 -6 -13 29.6 25.6
1 -6 -13 26 20.1
0 -6 -13 21.9 24.6
0 -6 -13 -6.9 23.2
0 -6 -13 -2.4 14.2
0 -6 -13 1.1 17
-1 -6 -13 16.4 27.3
-1 -6 -13 26.6 17.1
-1 -6 -13 3.5 19
1 -7 -13 251.67 38.9
1 -7 -13 201.08 31
1 -7 -13 224.88 42
0 -7 -13 344.17 41.5
0 -7 -13 227.98 42.9
0 -7 -13 212.98 30.6
1 12 -14 317.07 45.9
-1 -12 14 374.56 62.89
-1 -12 14 393.86 46.9
0 12 -14 331.87 46.6
0 -12 14 374.66 44.3
0 -12 14 306.77 58.19
0 -12 14 291.07 33.8
2 11 -14 49.5 30.6
2 11 -14 47.7 38.1
-2 -11 14 1.2 39.8
-2 -11 14 38.3 53.79
1 11 -14 95.29 33.2
1 11 -14 89.49 36.1
-1 -11 14 131.99 28.5
-1 -11 14 107.29 35.6
-1 -11 14 60.09 47.5
0 11 -14 51.29 31.7
0 -11 14 38.7 23.3
0 -11 14 14 30.1
0 -11 14 2.9 42.2
0 -11 14 -42.5 21.8
-1 11 -14 136.19 35.7
1 -11 14 105.09 45.9
1 -11 14 161.38 35.8
1 -11 14 76.49 25.8
2 10 -14 552.74 64.89
2 10 -14 541.95 61.19
-2 -10 14 527.05 76.09
-2 -10 14 524.45 56.39
1 10 -14 98.79 34.8
1 10 -14 92.29 30.5
-1 -10 14 88.99 26.8
-1 -10 14 82.89 33.8
0 10 -14 416.76 52.19
0 -10 14 457.75 42.1
0 -10 14 449.86 49
-1 10 -14 82.09 30.7
1 -10 14 22.2 23.1
1 -10 14 48.4 40.2
1 -10 14 40 30.5
-2 10 -14 101.69 49.8
2 -10 14 156.98 39.7
2 -10 14 133.19 30.3
2 -10 14 100.59 55.29
3 9 -14 591.84 64.69
3 9 -14 583.04 73.99
-3 -9 14 578.94 75.39
-3 -9 14 653.13 72.69
2 9 -14 1206.88 86.19
2 9 -14 1120.19 79.49
-2 -9 14 1194.78 91.49
-2 -9 14 1234.48 82.19
1 9 -14 671.83 59.89
1 9 -14 696.83 62.99
-1 -9 14 690.43 57.79
-1 -9 14 776.02 52.49
0 9 -14 1097.09 76.99
0 -9 14 1197.18 65.89
0 -9 14 1229.68 69.09
-1 9 -14 479.95 73.59
-1 9 -14 629.44 57.29
1 -9 14 654.73 46.4
1 -9 14 602.64 50.69
-2 9 -14 1005.7 94.69
2 -9 14 858.41 60.29
2 -9 14 953.8 69.59
2 -9 14 926.51 59.29
3 8 -14 809.02 80.29
3 8 -14 825.02 68.59
-3 -8 14 879.21 76.19
2 8 -14 1235.18 84.79
2 8 -14 1314.17 80.09
-2 -8 14 988.3 71.19
-2 -8 14 1245.88 77.29
1 8 -14 947.41 69.19
1 8 -14 872.81 65.59
-1 -8 14 1006.5 59.69
-1 -8 14 961.4 62.79
0 8 -14 1764.82 117.59
0 8 -14 1999.6 97.19
0 8 -14 1695.43 98.79
0 -8 14 1831.02 89.79
0 -8 14 1855.51 91.39
-1 8 -14 693.93 57.49
-1 8 -14 524.35 71.79
1 -8 14 664.03 46.4
1 -8 14 703.13 50.29
-2 8 -14 1748.82 92.19
2 -8 14 1484.05 81.79
2 -8 14 1499.95 81.69
-3 8 -14 312.67 66.69
3 -8 14 446.16 47.8
3 -8 14 411.86 49.6
3 -8 14 441.46 52.39
3 7 -14 244.98 52.89
3 7 -14 215.68 38.4
-3 -7 14 299.97 47.1
2 7 -14 901.01 73.89
2 7 -14 818.72 65.59
-2 -7 14 933.01 64.49
-2 -7 14 951.6 63.29
1 7 -14 635.84 54.89
1 7 -14 574.64 58.49
1 7 -14 660.83 71.19
-1 -7 14 682.03 51.99
-1 -7 14 699.23 49.8
0 7 -14 796.82 64.59
0 7 -14 868.91 79.89
0 7 -14 990.9 63.19
0 -7 14 931.01 57.89
0 -7 14 926.51 54.09
-1 7 -14 450.85 50.59
-1 7 -14 365.06 62.49
1 -7 14 457.65 41.6
1 -7 14 424.36 38.4
1 -7 14 422.16 38.3
-2 7 -14 677.03 85.69
-2 7 -14 975.1 65.59
2 -7 14 885.21 57.09
2 -7 14 868.61 55.19
-3 7 -14 234.68 61.59
3 -7 14 295.07 38.5
3 -7 14 322.27 40.4
3 -7 14 258.87 44.5
3 6 -14 -2.3 28.2
3 6 -14 57.79 42.9
-3 -6 14 83.69 36.6
2 6 -14 -8.3 26.1
2 6 -14 16.1 36.2
-2 -6 14 38.6 26.7
-2 -6 14 6.5 29.1
1 6 -14 20.7 30.5
1 6 -14 38.5 33.9
1 6 -14 14.4 27.2
-1 -6 14 2.7 23.1
-1 -6 14 9.2 26
0 6 -14 94.09 28.7
0 6 -14 132.29 30.8
0 6 -14 105.69 39.5
0 -6 14 76.89 27.3
0 -6 14 114.49 23.3
-1 6 -14 34.2 38.5
-1 6 -14 43.1 29.4
1 -6 14 54.59 22.5
1 -6 14 38.8 20.6
-2 6 -14 -34.1 36.2
-2 6 -14 -6 26.5
2 -6 14 44.4 23.7
2 -6 14 16.4 25.5
-3 6 -14 40.5 49.7
3 -6 14 85.49 40
3 -6 14 105.19 32.1
4 5 -14 457.35 59.09
4 5 -14 499.35 68.09
-4 -5 14 500.35 57.59
3 5 -14 276.97 40
3 5 -14 310.27 53.39
3 5 -14 315.47 39.7
-3 -5 14 402.66 47.8
2 5 -14 622.24 64.59
2 5 -14 662.83 56.39
-2 -5 14 645.74 52.99
1 5 -14 469.75 51.89
1 5 -14 430.06 48.3
1 5 -14 543.75 59.79
-1 -5 14 431.36 41.9
-1 -5 14 425.76 44.5
0 5 -14 441.36 59.79
0 5 -14 441.86 47
0 5 -14 482.15 47
0 -5 14 437.46 37.7
-1 5 -14 411.26 61.89
-1 5 -14 431.96 46.7
1 -5 14 449.16 40.2
1 -5 14 404.86 37.2
-2 5 -14 186.28 33.8
-2 5 -14 137.19 47.3
2 -5 14 188.38 28.5
2 -5 14 180.08 31.1
-3 5 -14 54.89 29
-3 5 -14 53.49 51.09
3 -5 14 90.39 34
3 -5 14 73.29 27.5
4 4 -14 1198.68 95.59
4 4 -14 1029.2 81.59
3 4 -14 795.72 75.69
3 4 -14 869.01 65.79
3 4 -14 765.22 65.09
-3 -4 14 978 66.79
2 4 -14 1133.89 80.09
2 4 -14 1109.49 72.89
-2 -4 14 1129.89 69.39
1 4 -14 1772.12 100.19
1 4 -14 1521.65 88.59
1 4 -14 1503.55 85.99
-1 -4 14 1566.74 80.29
-1 -4 14 1553.04 79.19
0 4 -14 1357.46 90.69
0 4 -14 1420.26 74.89
0 4 -14 1370.56 76.89
0 -4 14 1256.07 68.69
-1 4 -14 1344.57 77.99
-1 4 -14 1501.05 67.19
-1 4 -14 1228.88 93.99
1 -4 14 1285.47 68.79
1 -4 14 1374.76 71.69
-2 4 -14 715.83 47.9
-2 4 -14 598.74 75.19
-2 4 -14 810.72 57.29
2 -4 14 656.43 47.7
2 -4 14 741.43 54.39
-3 4 -14 638.14 88.69
-3 4 -14 750.52 55.89
3 -4 14 971.1 67.39
3 -4 14 809.42 59.69
4 3 -14 658.73 80.49
4 3 -14 653.53 67.59
3 3 -14 1349.66 94.69
3 3 -14 1443.06 84.79
3 3 -14 1341.67 83.09
-3 -3 14 1349.47 82.69
2 3 -14 1332.27 85.49
2 3 -14 1284.17 77.59
-2 -3 14 1372.26 74.99
1 3 -14 1997.6 107.49
1 3 -14 1874.31 98.49
1 3 -14 1815.42 96.19
-1 -3 14 1835.42 91.29
0 3 -14 919.21 73.69
0 3 -14 993.8 59.99
0 3 -14 995.1 60.29
0 -3 14 949.11 54.29
-1 3 -14 1615.24 108.39
-1 3 -14 1827.32 92.59
-1 3 -14 1841.82 86.59
1 -3 14 1673.53 83.99
1 -3 14 1830.42 87.79
-2 3 -14 1002.8 90.69
-2 3 -14 1207.28 70.19
-2 3 -14 1189.08 61.69
2 -3 14 1160.78 67.29
2 -3 14 1023.3 60.79
-3 3 -14 820.82 54.69
-3 3 -14 670.83 86.59
3 -3 14 850.91 62.09
3 -3 14 741.43 53.39
4 2 -14 132.59 41.9
4 2 -14 154.78 52.59
3 2 -14 451.45 49.2
3 2 -14 409.76 50.39
3 2 -14 458.95 57.19
2 2 -14 433.76 44.4
2 2 -14 441.76 54.59
-2 -2 14 452.35 46.4
1 2 -14 857.51 63.59
1 2 -14 845.82 58.59
1 2 -14 816.02 54.69
-1 -2 14 857.11 52.39
0 2 -14 937.01 56.99
0 2 -14 918.11 69.59
0 2 -14 886.51 57.09
0 -2 14 895.51 51.59
-1 2 -14 392.16 54.99
-1 2 -14 539.25 39.9
-1 2 -14 457.45 41.5
1 -2 14 469.25 44.4
1 -2 14 405.16 35.1
-2 2 -14 768.02 53.49
-2 2 -14 626.34 72.29
-2 2 -14 722.13 46
2 -2 14 596.74 44.5
2 -2 14 781.22 52.99
-3 2 -14 267.87 56.89
-3 2 -14 347.37 36.2
3 -2 14 414.76 45.8
3 -2 14 272.47 32.4
4 1 -14 -17.7 47.1
4 1 -14 2.8 36.5
3 1 -14 13.1 32.4
3 1 -14 -0.3 25.6
3 1 -14 38.9 40.8
2 1 -14 25.2 22.3
2 1 -14 40 29.9
1 1 -14 3 22.8
1 1 -14 -23.8 21.9
1 1 -14 -17 15.8
-1 -1 14 9.5 19.9
0 1 -14 23.3 20.4
0 1 -14 21.8 19.1
0 1 -14 30.2 24.4
0 -1 14 36.7 18.8
-1 1 -14 23.5 21.1
-1 1 -14 13.2 15.4
-1 1 -14 17.5 26.5
-1 1 -14 22.8 20.2
1 -1 14 54.19 27.6
1 -1 14 26.9 18
-2 1 -14 46 26.1
-2 1 -14 20.1 20.2
-2 1 -14 -5.6 21.5
-2 1 -14 38.7 34.1
2 -1 14 43.9 26.8
-3 1 -14 47.7 26
-3 1 -14 5.3 38.6
3 -1 14 77.09 34.5
4 0 -14 182.68 44.7
4 0 -14 215.78 57.19
3 0 -14 396.96 47
3 0 -14 516.45 59.09
3 0 -14 541.55 61.89
2 0 -14 478.75 43.3
2 0 -14 509.95 52.39
1 0 -14 362.46 45.6
1 0 -14 354.76 37.6
1 0 -14 333.17 41.3
0 0 -14 444.76 39.8
0 0 -14 471.55 52.29
0 0 -14 456.25 41.7
0 0 14 458.15 36.8
-1 0 -14 193.48 29.3
-1 0 -14 197.68 21.4
-1 0 -14 202.68 41.7
-1 0 -14 219.78 30
1 0 14 230.38 33.4
-2 0 -14 223.18 46.5
-2 0 -14 216.68 30.4
-2 0 -14 266.27 32.3
-2 0 -14 235.98 27.8
2 0 14 235.38 33.6
-3 0 -14 90.69 46
-3 0 -14 87.29 28
3 0 14 101.99 36.4
3 -1 -14 738.23 59.59
3 -1 -14 967.2 77.79
3 -1 -14 933.31 72.59
2 -1 -14 1251.77 79.69
2 -1 -14 1277.47 73.19
1 -1 -14 1228.18 78.39
1 -1 -14 1214.28 70.99
1 -1 -14 1165.38 68.89
0 -1 -14 1383.06 74.69
0 -1 -14 1301.27 73.79
0 -1 -14 1285.57 85.99
0 1 14 1318.37 67.49
-1 -1 -14 1313.97 63.59
-1 -1 -14 1366.26 72.59
-1 -1 -14 1113.89 88.09
-1 -1 -14 1264.87 72.59
1 1 14 1323.07 73.19
-2 -1 -14 511.15 65.99
-2 -1 -14 676.03 48.2
-2 -1 -14 613.04 42.2
-2 -1 -14 552.84 49.5
2 1 14 608.64 52.09
-3 -1 -14 498.15 74.79
-3 -1 -14 633.44 49.5
3 1 14 673.03 58.59
3 -2 -14 1020.3 78.89
3 -2 -14 766.52 61.69
3 -2 -14 975.1 74.09
2 -2 -14 983.2 67.69
2 -2 -14 847.22 58.69
1 -2 -14 1541.15 85.29
1 -2 -14 1468.65 91.89
1 -2 -14 1581.14 83.49
0 -2 -14 1099.99 80.29
0 -2 -14 1252.07 70.09
0 -2 -14 1131.29 67.99
-1 -2 -14 1061.39 85.19
-1 -2 -14 1338.37 72.49
-1 -2 -14 1206.28 71.89
-1 -2 -14 1240.78 62.09
1 2 14 1279.27 72.59
-2 -2 -14 1173.18 67.39
-2 -2 -14 869.91 85.79
-2 -2 -14 1088.89 60.39
-2 -2 -14 1131.09 68.89
2 2 14 1093.69 69.29
-3 -2 -14 727.63 50.79
-3 -2 -14 557.14 78.09
3 2 14 688.33 61.19
3 -3 -14 232.58 47.9
3 -3 -14 324.07 46
2 -3 -14 611.14 57.49
2 -3 -14 594.84 49.7
1 -3 -14 170.88 31.1
1 -3 -14 156.78 26.7
1 -3 -14 198.58 36
0 -3 -14 737.83 53.49
0 -3 -14 591.54 61.19
0 -3 -14 677.93 50.59
-1 -3 -14 358.96 41.3
-1 -3 -14 243.78 45
-1 -3 -14 311.17 30
-1 -3 -14 308.47 34.7
-2 -3 -14 623.24 43.8
-2 -3 -14 640.74 51.59
-2 -3 -14 419.86 65.59
2 3 14 612.24 53.49
3 -4 -14 95.49 37.3
3 -4 -14 45.4 39.8
2 -4 -14 76.69 25.3
2 -4 -14 48.9 31.4
1 -4 -14 21.9 20.1
1 -4 -14 -8.8 22.9
1 -4 -14 37.9 24.5
0 -4 -14 148.39 29.6
0 -4 -14 163.38 37.4
0 -4 -14 107.49 24.2
-1 -4 -14 40.4 29.6
-1 -4 -14 2.8 16.6
-1 -4 -14 11.6 19.9
-1 -4 -14 42.4 26.4
-2 -4 -14 47 21.8
-2 -4 -14 3.2 22.3
-2 -4 -14 -7.4 33
2 4 14 72.99 29.3
2 -5 -14 271.97 40.9
2 -5 -14 214.98 32.4
1 -5 -14 496.45 57.09
1 -5 -14 547.95 48
1 -5 -14 545.25 52.59
0 -5 -14 173.58 29.8
0 -5 -14 252.77 36.8
0 -5 -14 149.19 38.1
-1 -5 -14 270.97 27.5
-1 -5 -14 346.97 45.4
-1 -5 -14 261.07 47.3
-1 -5 -14 255.97 33.2
1 -6 -14 779.42 58.69
1 -6 -14 818.62 71.39
1 -6 -14 849.41 63.69
0 -6 -14 588.74 65.29
0 -6 -14 676.83 57.29
0 -6 -14 614.34 51.29
-1 -6 -14 751.52 75.79
-1 -6 -14 721.53 49.4
-1 -6 -14 763.02 58.99
-1 -6 -14 922.61 63.99
0 12 -15 159.48 39.7
0 -12 15 197.68 39.3
0 -12 15 144.89 30.1
0 -12 15 116.69 53.49
1 11 -15 729.83 67.99
1 11 -15 771.42 73.09
-1 -11 15 780.82 56.59
-1 -11 15 785.22 65.39
0 11 -15 609.44 61.79
0 -11 15 625.14 56.39
0 -11 15 639.44 49.3
-1 11 -15 735.63 65.49
1 -11 15 687.83 72.69
1 -11 15 614.94 50.79
1 -11 15 782.62 59.19
2 10 -15 930.11 77.59
2 10 -15 817.22 69.59
-2 -10 15 753.22 82.39
-2 -10 15 511.05 60.59
-2 -10 15 763.72 72.69
1 10 -15 721.73 65.29
1 10 -15 549.45 59.19
-1 -10 15 748.93 53.59
-1 -10 15 684.53 59.79
0 10 -15 927.31 74.19
0 -10 15 1139.59 67.59
0 -10 15 1022.8 61.99
-1 10 -15 604.64 85.99
-1 10 -15 811.02 65.69
1 -10 15 752.52 57.39
1 -10 15 790.62 52.49
2 -10 15 743.73 56.99
2 -10 15 712.73 62.49
2 9 -15 561.94 67.09
2 9 -15 559.34 60.09
-2 -9 15 558.74 63.49
1 9 -15 327.67 46.5
1 9 -15 271.07 42.4
-1 -9 15 318.77 41.7
-1 -9 15 296.97 35.1
0 9 -15 634.34 80.79
0 9 -15 605.94 60.39
0 -9 15 713.73 54.69
0 -9 15 735.93 49.7
-1 9 -15 148.09 47.8
-1 9 -15 231.18 38.4
1 -9 15 215.18 29.5
1 -9 15 233.98 34.4
-2 9 -15 495.85 81.59
2 -9 15 662.83 53.69
2 -9 15 718.83 60.29
2 -9 15 728.53 62.49
3 8 -15 98.49 46.8
3 8 -15 54.59 32.7
-3 -8 15 47.8 42
2 8 -15 56.89 39.4
2 8 -15 56.09 33.5
-2 -8 15 77.49 31.8
-2 -8 15 92.29 36.2
1 8 -15 38.9 32
1 8 -15 33.4 27.6
-1 -8 15 45.7 26
-1 -8 15 103.89 31.9
0 8 -15 191.78 48.5
0 8 -15 203.88 38.5
0 8 -15 227.38 42.2
0 -8 15 240.48 29.6
0 -8 15 298.17 36.5
-1 8 -15 -10.2 26.3
-1 8 -15 -10.8 37.3
1 -8 15 2.7 21.4
1 -8 15 24.2 27.1
-2 8 -15 11.8 44.2
-2 8 -15 70.79 32.3
2 -8 15 84.79 27.8
2 -8 15 76.39 27.1
3 7 -15 574.34 71.99
3 7 -15 535.75 59.89
-3 -7 15 658.43 67.59
2 7 -15 391.16 53.39
2 7 -15 357.86 43.6
-2 -7 15 407.36 44.1
-2 -7 15 318.77 40.3
1 7 -15 410.16 54.69
1 7 -15 528.75 66.09
1 7 -15 408.76 51.79
-1 -7 15 414.06 40.1
-1 -7 15 507.55 49.1
0 7 -15 298.67 52.49
0 7 -15 326.27 42.1
0 7 -15 357.16 47.5
0 -7 15 399.56 43.1
0 -7 15 384.96 38.8
-1 7 -15 173.88 48.2
-1 7 -15 150.08 33.6
1 -7 15 192.58 29.8
1 -7 15 172.98 26.4
1 -7 15 130.89 26.5
-2 7 -15 203.18 37.4
-2 7 -15 186.58 52.49
2 -7 15 241.98 33.2
2 -7 15 245.48 32
-3 7 -15 -46 45.5
3 -7 15 58.39 32
3 -7 15 -6.6 29.5
3 6 -15 910.51 82.89
3 6 -15 862.51 68.89
-3 -6 15 948.51 74.79
2 6 -15 1130.99 77.09
2 6 -15 1104.59 83.79
-2 -6 15 1103.69 71.69
-2 -6 15 1241.68 72.39
1 6 -15 1316.17 90.59
1 6 -15 1210.18 79.29
1 6 -15 1092.99 76.69
-1 -6 15 1250.07 70.09
-1 -6 15 1155.48 69.29
0 6 -15 1516.15 106.09
0 6 -15 1490.05 90.29
0 6 -15 1672.73 88.39
0 -6 15 1492.45 77.89
-1 6 -15 547.05 73.19
-1 6 -15 722.63 59.49
1 -6 15 655.53 45.7
1 -6 15 660.03 48.3
-2 6 -15 1055.99 70.99
-2 6 -15 754.42 90.59
2 -6 15 956.5 60.39
2 -6 15 1052.19 62.69
-3 6 -15 349.77 73.29
3 -6 15 410.86 43.2
3 -6 15 470.75 54.59
3 5 -15 1158.68 78.89
3 5 -15 1260.97 78.19
3 5 -15 1198.68 91.99
-3 -5 15 1104.69 80.29
2 5 -15 1203.38 84.29
2 5 -15 1055.59 75.09
-2 -5 15 1200.88 71.89
1 5 -15 1516.45 89.19
1 5 -15 1629.14 100.79
1 5 -15 1356.56 85.59
-1 -5 15 1517.55 79.69
-1 -5 15 1508.05 79.89
0 5 -15 1082.79 71.09
0 5 -15 1113.29 69.69
0 5 -15 1081.39 86.69
0 -5 15 1065.99 61.09
-1 5 -15 1376.96 80.79
-1 5 -15 1137.29 96.29
1 -5 15 1416.56 72.09
1 -5 15 1295.57 69.09
-2 5 -15 756.32 87.59
-2 5 -15 919.31 66.89
2 -5 15 957.6 57.19
2 -5 15 1002.9 61.39
-3 5 -15 599.74 51.99
-3 5 -15 580.94 86.39
3 -5 15 748.43 63.69
3 -5 15 727.43 58.99
3 4 -15 507.55 56.49
3 4 -15 561.64 59.09
3 4 -15 547.15 71.09
-3 -4 15 567.74 59.19
2 4 -15 284.87 39.7
2 4 -15 292.37 46.7
-2 -4 15 328.77 40.8
1 4 -15 899.11 64.29
1 4 -15 1027.1 78.09
1 4 -15 964.6 68.39
-1 -4 15 961.2 59.49
0 4 -15 606.64 65.59
0 4 -15 751.82 52.69
0 4 -15 620.44 52.69
0 -4 15 610.64 45.2
-1 4 -15 680.73 40.3
-1 4 -15 584.64 52.49
-1 4 -15 625.04 46.2
-1 4 -15 513.55 66.49
1 -4 15 639.44 49.2
1 -4 15 519.35 42.9
-2 4 -15 388.16 38.4
-2 4 -15 411.06 48.1
-2 4 -15 354.76 60.69
2 -4 15 399.06 38.4
2 -4 15 412.36 44.9
-3 4 -15 246.68 65.09
-3 4 -15 305.47 37.5
3 -4 15 485.85 57.19
3 -4 15 357.96 39.8
3 3 -15 -14.6 31.2
3 3 -15 14.7 42.2
3 3 -15 -11.3 33.1
-3 -3 15 5.9 34.2
2 3 -15 7.2 26
2 3 -15 -6.2 33.5
-2 -3 15 19.7 29.8
1 3 -15 16 29.8
1 3 -15 43.6 28.3
1 3 -15 13.7 22.3
-1 -3 15 29.3 22.9
0 3 -15 5 29.9
0 3 -15 7.8 21.2
0 3 -15 -1.8 23
0 -3 15 15.4 19.5
-1 3 -15 22.1 21.2
-1 3 -15 15.8 17.8
-1 3 -15 12.9 30.8
-1 3 -15 18.4 22.7
1 -3 15 15.7 27.4
1 -3 15 6.9 19
-2 3 -15 46.8 26.9
-2 3 -15 37.4 22.3
-2 3 -15 31.7 38.3
2 -3 15 70.19 28.3
2 -3 15 86.19 22.8
-3 3 -15 -16.8 44.1
-3 3 -15 -12.7 24.8
3 -3 15 40.3 35.2
3 -3 15 15.6 26.7
3 2 -15 409.46 47.4
3 2 -15 499.55 59.49
3 2 -15 559.94 68.89
2 2 -15 584.74 60.29
2 2 -15 420.36 47.8
1 2 -15 794.02 65.19
1 2 -15 891.41 60.69
1 2 -15 773.32 55.69
-1 -2 15 825.62 53.19
0 2 -15 265.07 32.5
0 2 -15 241.48 42
0 2 -15 287.37 38.2
0 -2 15 259.27 27.9
-1 2 -15 352.96 40.8
-1 2 -15 362.96 54.99
-1 2 -15 367.46 38
1 -2 15 405.26 44.9
1 -2 15 345.37 34.3
-2 2 -15 141.49 44.8
-2 2 -15 159.28 30
-2 2 -15 158.28 26.2
2 -2 15 193.88 32.1
2 -2 15 135.59 24.4
-3 2 -15 109.59 30.2
-3 2 -15 86.49 49.9
3 -2 15 139.29 39.3
3 1 -15 860.61 71.89
3 1 -15 838.92 64.29
3 1 -15 922.31 80.69
2 1 -15 1275.27 80.59
2 1 -15 1099.49 70.99
1 1 -15 1194.78 70.19
1 1 -15 1207.68 80.89
1 1 -15 1278.47 75.29
0 1 -15 1120.29 68.49
0 1 -15 1264.37 69.39
0 1 -15 1205.98 83.39
0 -1 15 1129.69 62.99
-1 1 -15 1315.97 69.19
-1 1 -15 1207.88 71.89
-1 1 -15 1031.7 85.99
-1 1 -15 1340.07 61.49
1 -1 15 1062.19 62.39
1 -1 15 1324.37 71.89
-2 1 -15 586.14 42.1
-2 1 -15 542.95 50.09
-2 1 -15 480.25 68.59
2 -1 15 627.04 51.09
-3 1 -15 477.75 79.09
-3 1 -15 612.34 49.1
3 -1 15 658.53 62.29
3 0 -15 946.11 81.19
3 0 -15 802.52 63.39
3 0 -15 908.51 73.79
2 0 -15 1072.59 72.79
2 0 -15 963.5 64.39
1 0 -15 1727.13 91.79
1 0 -15 1659.93 88.89
1 0 -15 1613.94 97.69
0 0 -15 805.92 69.69
0 0 -15 908.61 56.99
0 0 -15 931.31 59.49
0 0 15 786.92 51.19
-1 0 -15 1656.93 93.59
-1 0 -15 1578.64 109.89
-1 0 -15 1851.91 92.79
-1 0 -15 1884.01 84.49
1 0 15 2050.49 94.09
-2 0 -15 412.26 46.2
-2 0 -15 436.96 65.19
-2 0 -15 554.64 40.8
-2 0 -15 567.54 46.3
2 0 15 544.05 49.99
-3 0 -15 935.11 99.59
-3 0 -15 1195.28 68.29
3 0 15 1263.57 79.59
3 -1 -15 326.67 48
3 -1 -15 370.56 55.59
3 -1 -15 331.77 41.9
2 -1 -15 200.48 38.5
2 -1 -15 177.68 31.1
1 -1 -15 771.82 65.29
1 -1 -15 737.93 53.89
1 -1 -15 801.82 58.39
0 -1 -15 223.28 30.3
0 -1 -15 231.58 42.4
0 -1 -15 279.17 34.9
0 1 15 242.68 27.4
-1 -1 -15 911.81 63.09
-1 -1 -15 873.21 79.09
-1 -1 -15 925.81 51.89
-1 -1 -15 1049 62.89
1 1 15 1023.8 64.99
-2 -1 -15 243.08 28.7
-2 -1 -15 291.27 36.3
-2 -1 -15 195.78 32.8
-2 -1 -15 189.18 47.9
2 1 15 245.28 37.3
3 -2 -15 -26 27.7
3 -2 -15 25.8 35.7
3 -2 -15 -10.9 39.2
2 -2 -15 -23.1 29.4
2 -2 -15 0.5 21.1
1 -2 -15 -23.5 23
1 -2 -15 27.1 21.7
1 -2 -15 25.9 26.2
0 -2 -15 17.5 19.5
0 -2 -15 28.1 24.1
0 -2 -15 11.3 27.4
-1 -2 -15 -20.5 26.8
-1 -2 -15 -15.8 19.1
-1 -2 -15 16 24.1
-1 -2 -15 5.4 16.8
-2 -2 -15 19.4 25.4
-2 -2 -15 -1.2 20.9
-2 -2 -15 2.8 22
-2 -2 -15 -16.2 33.8
2 2 15 45.2 31.3
3 -3 -15 642.64 73.89
3 -3 -15 631.54 67.89
2 -3 -15 200.38 33.2
2 -3 -15 266.87 41.4
1 -3 -15 549.35 47.6
1 -3 -15 487.25 56.89
1 -3 -15 554.54 51.79
0 -3 -15 303.67 38.2
0 -3 -15 310.97 36.3
0 -3 -15 256.97 44
-1 -3 -15 255.27 36.4
-1 -3 -15 202.38 31.8
-1 -3 -15 164.08 41.7
-1 -3 -15 224.98 25
-2 -3 -15 236.78 36.1
-2 -3 -15 178.28 32.2
-2 -3 -15 187.98 27.8
-2 -3 -15 175.38 46
2 3 15 244.48 36.4
2 -4 -15 803.62 67.79
2 -4 -15 780.82 59.89
1 -4 -15 957.4 74.99
1 -4 -15 949.21 66.99
1 -4 -15 952.6 64.89
0 -4 -15 897.81 61.39
0 -4 -15 819.22 73.79
0 -4 -15 942.21 64.99
-1 -4 -15 681.63 44.6
-1 -4 -15 747.63 58.29
-1 -4 -15 613.84 53.69
-1 -4 -15 648.94 71.59
2 -5 -15 519.95 50.99
2 -5 -15 537.25 58.89
1 -5 -15 554.04 62.59
1 -5 -15 602.24 52.19
1 -5 -15 606.54 56.79
0 -5 -15 919.61 65.09
0 -5 -15 819.92 61.19
0 -5 -15 782.02 74.09
-1 -5 -15 586.54 52.29
-1 -5 -15 668.43 57.19
-1 -5 -15 498.75 66.29
-1 -5 -15 542.55 42.2
1 11 -16 342.47 48.9
-1 -11 16 565.74 50.99
-1 -11 16 520.65 57.99
0 11 -16 202.38 42.1
0 -11 16 238.18 41.7
0 -11 16 220.08 32.8
-1 11 -16 519.95 60.89
1 -11 16 500.95 47
1 -11 16 557.94 53.99
2 10 -16 34.8 41.6
2 10 -16 48.7 33
-2 -10 16 43.4 40.2
-2 -10 16 8.4 32.3
1 10 -16 2.9 30.5
1 10 -16 6.5 35.6
-1 -10 16 49.8 27.9
-1 -10 16 50.99 35.2
0 10 -16 9.1 29.8
0 -10 16 10.3 32.8
0 -10 16 2.1 24.1
-1 10 -16 39 48.8
-1 10 -16 22.5 31.9
1 -10 16 22.1 30.4
1 -10 16 12.7 24.5
2 9 -16 151.78 38.6
2 9 -16 214.78 49.3
-2 -9 16 211.68 43.5
-2 -9 16 130.39 36
1 9 -16 460.75 58.69
1 9 -16 367.96 46.5
-1 -9 16 499.95 48.6
-1 -9 16 485.75 48.9
0 9 -16 120.49 49.4
0 9 -16 111.99 34.2
0 -9 16 161.38 35.6
0 -9 16 137.59 28.3
-1 9 -16 258.57 41.1
-1 9 -16 199.98 53.69
1 -9 16 245.38 31.6
1 -9 16 336.47 37.1
-2 9 -16 52.49 46.3
2 -9 16 -8.6 37.2
2 -9 16 43.7 28.3
3 8 -16 880.11 85.89
3 8 -16 835.42 73.29
-3 -8 16 817.52 79.29
2 8 -16 872.41 77.09
2 8 -16 866.71 70.29
-2 -8 16 819.32 66.89
-2 -8 16 871.21 67.49
1 8 -16 1110.09 92.89
1 8 -16 1015.6 75.19
-1 -8 16 909.41 66.89
-1 -8 16 1067.89 66.19
0 8 -16 1026.5 76.59
0 8 -16 1128.59 94.89
0 -8 16 1149.58 68.09
0 -8 16 1211.58 66.19
-1 8 -16 563.54 57.39
-1 8 -16 441.96 74.89
1 -8 16 583.64 44.9
-2 8 -16 585.34 86.69
-2 8 -16 827.92 80.99
2 -8 16 769.72 56.39
2 -8 16 733.93 53.69
3 7 -16 696.13 67.19
3 7 -16 716.73 78.09
-3 -7 16 672.63 71.49
2 7 -16 1246.38 90.29
2 7 -16 1138.59 81.89
-2 -7 16 1317.97 78.89
-2 -7 16 1304.47 79.69
1 7 -16 625.24 61.79
1 7 -16 758.12 76.49
1 7 -16 666.63 64.19
-1 -7 16 792.42 57.49
-1 -7 16 750.12 56.49
0 7 -16 1492.55 91.69
0 7 -16 1609.94 88.69
0 7 -16 1475.05 108.89
0 -7 16 1480.35 79.69
0 -7 16 1512.85 78.99
-1 7 -16 884.01 68.39
-1 7 -16 729.63 84.99
1 -7 16 1009.5 58.19
1 -7 16 857.31 55.29
-2 7 -16 617.64 88.69
-2 7 -16 814.32 68.29
2 -7 16 889.11 56.79
2 -7 16 922.31 58.39
3 6 -16 221.98 54.79
3 6 -16 267.77 42
-3 -6 16 347.37 48.5
2 6 -16 452.35 51.39
2 6 -16 529.35 65.79
-2 -6 16 556.24 54.09
1 6 -16 583.64 60.09
1 6 -16 551.54 67.29
1 6 -16 444.06 53.19
-1 -6 16 589.24 49.5
-1 -6 16 481.25 50.69
0 6 -16 544.15 58.29
0 6 -16 647.94 57.19
0 6 -16 587.04 72.49
0 -6 16 703.03 47.9
-1 6 -16 662.93 59.99
-1 6 -16 478.75 72.99
1 -6 16 631.34 49.9
1 -6 16 635.54 46.5
-2 6 -16 317.17 44
-2 6 -16 226.58 59.29
2 -6 16 370.66 41.2
2 -6 16 433.56 44.4
3 5 -16 -61.19 44.2
3 5 -16 -6.9 30.8
3 5 -16 10 33
-3 -5 16 47.3 37.6
2 5 -16 39.6 39.9
2 5 -16 -26.2 30.3
-2 -5 16 15.3 31.7
1 5 -16 -15.1 31.7
1 5 -16 8.3 35.7
1 5 -16 8.6 29
-1 -5 16 38.3 25.9
-1 -5 16 34.8 27.5
0 5 -16 -19.1 34.4
0 5 -16 -24.8 27.8
0 5 -16 -15.7 25.5
0 -5 16 13.4 21.8
-1 5 -16 16.9 28.3
-1 5 -16 19.6 38.1
1 -5 16 39.4 27.2
1 -5 16 15.8 22
-2 5 -16 35.7 43.8
-2 5 -16 12 30.9
2 -5 16 44.1 23.5
2 -5 16 78.59 29.3
-3 5 -16 20.6 29.7
-3 5 -16 -80.09 46
3 -5 16 -0.1 27.6
3 -5 16 9.2 35.7
3 4 -16 330.17 47.6
3 4 -16 404.26 62.59
3 4 -16 264.17 44.6
-3 -4 16 386.36 47.4
2 4 -16 631.14 60.69
2 4 -16 766.82 70.59
-2 -4 16 733.23 59.89
1 4 -16 654.13 57.49
1 4 -16 776.92 63.29
1 4 -16 685.13 70.59
-1 -4 16 750.02 52.69
0 4 -16 296.87 38.2
0 4 -16 405.66 46
0 4 -16 367.66 58.79
0 -4 16 389.96 38.7
-1 4 -16 203.98 35.8
-1 4 -16 156.18 45.5
1 -4 16 241.68 27.3
1 -4 16 250.87 34.3
-2 4 -16 294.87 33.3
-2 4 -16 217.88 56.29
-2 4 -16 210.58 37.8
2 -4 16 293.67 31.1
2 -4 16 301.67 37
-3 4 -16 -33 47.7
-3 4 -16 19.4 29.8
3 -4 16 49.4 37.5
3 -4 16 29 26.5
3 3 -16 892.41 74.09
3 3 -16 1012.5 76.29
3 3 -16 1060.09 87.09
-3 -3 16 905.21 72.19
2 3 -16 1165.28 82.59
2 3 -16 957.5 70.79
-2 -3 16 1127.99 69.89
1 3 -16 1232.08 85.39
1 3 -16 1055.99 71.69
1 3 -16 1194.68 76.59
-1 -3 16 1251.67 68.49
0 3 -16 1612.94 89.29
0 3 -16 1822.32 89.99
0 3 -16 1543.25 104.99
0 -3 16 1590.74 81.59
-1 3 -16 1045.8 62.09
-1 3 -16 830.82 82.39
-1 3 -16 1016.5 67.19
1 -3 16 890.31 56.49
1 -3 16 1246.88 66.49
-2 3 -16 1023.6 55.69
-2 3 -16 847.62 65.49
-2 3 -16 799.72 87.49
2 -3 16 1037.3 63.49
2 -3 16 810.12 54.79
-3 3 -16 289.97 38
-3 3 -16 177.28 59.49
3 -3 16 312.37 47.9
3 -3 16 247.78 35.6
3 2 -16 914.41 74.49
3 2 -16 859.71 83.09
3 2 -16 810.92 68.59
2 2 -16 846.42 63.19
2 2 -16 897.01 72.79
1 2 -16 1307.17 80.09
1 2 -16 1486.25 84.49
1 2 -16 1407.06 91.49
-1 -2 16 1493.95 77.29
0 2 -16 1033.1 66.39
0 2 -16 1024.7 80.99
0 2 -16 1171.98 67.49
0 -2 16 1023.5 60.29
-1 2 -16 1175.18 64.89
-1 2 -16 1018.8 66.99
-1 2 -16 987.4 85.39
1 -2 16 1263.37 68.49
1 -2 16 898.41 58.29
-2 2 -16 813.72 86.39
-2 2 -16 1024.9 67.29
-2 2 -16 1070.59 57.69
2 -2 16 858.91 56.29
2 -2 16 1091.99 65.39
-3 2 -16 694.43 53.19
-3 2 -16 494.85 85.19
3 -2 16 719.53 67.29
3 1 -16 263.47 40.2
3 1 -16 361.46 50.99
3 1 -16 405.36 59.49
2 1 -16 189.68 42.3
2 1 -16 177.68 32.1
1 1 -16 808.52 61.99
1 1 -16 765.02 66.59
1 1 -16 774.72 56.09
0 1 -16 258.17 35.2
0 1 -16 196.48 41
0 1 -16 237.98 32.5
0 -1 16 257.27 29.2
-1 1 -16 764.42 58.89
-1 1 -16 1018.8 58.99
-1 1 -16 736.13 74.59
1 -1 16 729.33 49.6
1 -1 16 935.61 60.39
-2 1 -16 235.68 28.5
-2 1 -16 186.58 33.5
-2 1 -16 200.28 50.29
2 -1 16 276.67 37.8
3 0 -16 33.3 37.5
3 0 -16 6.1 42.3
3 0 -16 11.3 29.2
2 0 -16 120.19 29.1
2 0 -16 132.59 38.7
1 0 -16 77.99 29.3
1 0 -16 38.9 28.7
1 0 -16 19.4 21.5
0 0 -16 27.6 28.6
0 0 -16 16.3 21.1
0 0 -16 43.1 26
0 0 16 66.29 21.9
-1 0 -16 108.39 37.8
-1 0 -16 83.39 25.6
-1 0 -16 160.98 30.4
1 0 16 149.19 33.9
-2 0 -16 0.7 21
-2 0 -16 16 24.6
-2 0 -16 -11.9 33.9
2 0 16 29.7 31.6
3 -1 -16 199.38 36.6
3 -1 -16 273.87 48.2
3 -1 -16 248.28 52.79
2 -1 -16 592.94 52.29
2 -1 -16 623.94 62.59
1 -1 -16 253.67 42.4
1 -1 -16 274.17 34.4
1 -1 -16 279.27 38.9
0 -1 -16 540.15 49.4
0 -1 -16 474.85 60.19
0 -1 -16 433.86 45.3
-1 -1 -16 171.68 30.9
-1 -1 -16 212.48 33.9
-1 -1 -16 181.58 43.7
1 1 16 236.98 36.2
-2 -1 -16 171.18 32.7
-2 -1 -16 117.39 29.8
-2 -1 -16 90.09 42.5
-2 -1 -16 125.69 25.1
2 1 16 92.89 35.3
3 -2 -16 617.24 75.99
3 -2 -16 848.42 79.49
2 -2 -16 780.02 61.59
2 -2 -16 927.51 71.29
1 -2 -16 965.2 75.69
1 -2 -16 1010.7 68.19
1 -2 -16 915.81 64.59
0 -2 -16 900.31 63.49
0 -2 -16 886.81 75.69
0 -2 -16 991.8 65.39
-1 -2 -16 804.62 56.09
-1 -2 -16 829.52 59.69
-1 -2 -16 786.12 58.69
-1 -2 -16 666.93 74.09
-2 -2 -16 572.04 44
-2 -2 -16 455.65 69.29
-2 -2 -16 629.14 54.19
-2 -2 -16 499.55 53.09
2 2 16 624.34 57.79
2 -3 -16 687.93 57.69
2 -3 -16 788.42 66.79
1 -3 -16 765.02 61.39
1 -3 -16 649.43 65.99
1 -3 -16 722.33 56.89
0 -3 -16 1189.68 74.39
0 -3 -16 1294.37 76.79
0 -3 -16 1066.79 87.19
-1 -3 -16 810.72 59.39
-1 -3 -16 614.74 54.49
-1 -3 -16 567.24 70.09
2 -4 -16 434.76 58.39
2 -4 -16 342.07 42.3
1 -4 -16 89.69 34.5
1 -4 -16 86.79 31.1
1 -4 -16 52.59 26.7
0 -4 -16 464.65 51.89
0 -4 -16 416.46 61.49
0 -4 -16 468.55 48.9
-1 -4 -16 152.48 43.3
-1 -4 -16 145.99 30.1
-1 -4 -16 257.57 40.4
0 -5 -16 8.2 23
0 -5 -16 3.3 30.6
0 -5 -16 22.7 28.4
0 11 -17 129.19 38.4
0 -11 17 124.39 37.9
0 -11 17 178.18 31.6
1 10 -17 817.52 76.49
1 10 -17 688.53 68.89
-1 -10 17 844.72 67.39
-1 -10 17 935.91 62.79
0 10 -17 513.45 62.39
0 -10 17 594.14 49.9
0 -10 17 585.94 54.89
-1 10 -17 729.23 68.19
-1 10 -17 563.24 89.79
1 -10 17 694.63 53.39
1 -10 17 875.51 61.49
2 9 -17 700.53 67.39
2 9 -17 688.33 75.69
-2 -9 17 647.64 65.69
-2 -9 17 677.63 66.69
1 9 -17 840.82 73.89
1 9 -17 690.83 68.39
-1 -9 17 925.21 63.19
-1 -9 17 911.71 65.59
0 9 -17 659.53 64.49
0 9 -17 654.63 85.29
0 -9 17 767.12 57.59
0 -9 17 796.72 54.19
-1 9 -17 707.83 66.69
-1 9 -17 516.45 81.99
1 -9 17 889.21 57.59
1 -9 17 754.22 53.19
2 8 -17 525.75 67.39
2 8 -17 355.06 48.8
-2 -8 17 530.65 52.79
-2 -8 17 483.65 50.39
1 8 -17 201.88 39.9
1 8 -17 196.78 43.8
1 8 -17 216.18 53.39
-1 -8 17 280.87 37.5
-1 -8 17 307.77 40.3
0 8 -17 363.36 60.39
0 8 -17 465.85 56.49
0 -8 17 538.85 45.9
0 -8 17 533.65 48.9
-1 8 -17 257.37 59.89
-1 8 -17 337.67 45.6
1 -8 17 337.07 36
1 -8 17 413.66 43.3
-2 8 -17 186.98 59.79
2 -8 17 258.07 36
2 -8 17 295.57 35.7
3 7 -17 14.5 46.3
3 7 -17 33.4 34.7
-3 -7 17 41.5 43
2 7 -17 -10 40.3
2 7 -17 13.8 31.9
-2 -7 17 34.5 35.2
-2 -7 17 -6.8 31.4
1 7 -17 63.69 39
1 7 -17 22.5 31.4
1 7 -17 4.7 33.9
-1 -7 17 5.4 28
-1 -7 17 5.2 31.1
0 7 -17 -7.1 33.9
0 7 -17 10.5 37.9
0 7 -17 -3.7 31.4
0 -7 17 14 28.6
0 -7 17 13.9 23.9
-1 7 -17 57.89 45.3
-1 7 -17 69.99 34.7
1 -7 17 70.99 27.8
1 -7 17 89.09 26.3
-2 7 -17 -26 42.7
-2 7 -17 19 33.6
2 -7 17 -4.2 27.7
2 -7 17 -18.9 24.8
3 6 -17 223.18 58.09
3 6 -17 203.68 40.8
-3 -6 17 271.17 48.8
2 6 -17 581.24 65.79
2 6 -17 464.65 58.49
-2 -6 17 652.73 57.59
1 6 -17 190.98 38.6
1 6 -17 152.98 44.4
1 6 -17 270.17 45.9
-1 -6 17 176.78 33.3
-1 -6 17 229.88 37.7
0 6 -17 319.77 44.4
0 6 -17 446.36 53.29
0 6 -17 371.86 59.99
0 -6 17 456.45 42.5
-1 6 -17 134.59 36
-1 6 -17 56.99 44.4
1 -6 17 112.39 29.7
1 -6 17 132.49 26.3
-2 6 -17 112.99 52.79
-2 6 -17 216.18 42.4
2 -6 17 238.68 35.6
2 -6 17 230.78 31.6
3 5 -17 669.53 68.39
3 5 -17 681.13 69.99
3 5 -17 799.72 83.19
-3 -5 17 807.12 70.29
2 5 -17 922.01 79.59
2 5 -17 833.62 70.59
-2 -5 17 862.01 66.39
1 5 -17 954.2 81.49
1 5 -17 700.23 64.29
1 5 -17 868.91 70.59
-1 -5 17 846.12 59.49
0 5 -17 1141.99 77.99
0 5 -17 1338.87 78.29
0 5 -17 1129.19 95.59
0 -5 17 1145.29 67.09
-1 5 -17 583.14 76.49
-1 5 -17 594.84 60.09
1 -5 17 728.03 47.5
-2 5 -17 753.72 67.19
-2 5 -17 617.24 86.69
2 -5 17 898.01 59.79
2 -5 17 693.83 51.69
3 4 -17 584.24 78.09
3 4 -17 557.24 64.69
3 4 -17 651.63 68.49
-3 -4 17 705.73 66.39
2 4 -17 1070.49 83.99
2 4 -17 1000.7 75.09
-2 -4 17 1148.49 72.69
1 4 -17 583.94 57.69
1 4 -17 764.22 74.99
1 4 -17 817.82 66.59
-1 -4 17 784.32 55.29
0 4 -17 1606.34 84.59
0 4 -17 1405.46 101.29
0 4 -17 1190.28 83.29
0 -4 17 1419.66 74.79
-1 4 -17 417.06 46.5
-1 4 -17 313.17 56.99
1 -4 17 612.74 50.59
1 -4 17 497.35 40.9
-2 4 -17 1407.26 86.59
-2 4 -17 1094.99 106.99
-2 4 -17 1489.55 73.89
2 -4 17 1455.65 79.79
2 -4 17 1272.97 73.79
3 3 -17 275.07 48.2
3 3 -17 208.38 55.59
3 3 -17 220.68 43.8
2 3 -17 543.75 57.59
2 3 -17 621.34 68.99
-2 -3 17 658.23 56.29
1 3 -17 160.28 31.9
1 3 -17 108.69 38.3
1 3 -17 223.08 39.3
-1 -3 17 249.58 32.1
0 3 -17 484.05 51.29
0 3 -17 687.43 53.99
0 3 -17 581.14 67.89
0 -3 17 569.64 45.2
-1 3 -17 193.58 34
-1 3 -17 229.58 51.29
-1 3 -17 356.56 42.5
1 -3 17 265.67 29.9
1 -3 17 387.36 46.5
-2 3 -17 396.76 45.4
-2 3 -17 582.24 42.5
-2 3 -17 331.47 61.69
2 -3 17 635.64 53.89
2 -3 17 469.35 42.1
3 2 -17 -19.4 32.4
3 2 -17 6.9 37.4
3 2 -17 -51.39 43.8
2 2 -17 -1.8 26.8
2 2 -17 -20.2 35.2
1 2 -17 -10.8 22.9
1 2 -17 -15.3 28.9
1 2 -17 6.6 31.1
-1 -2 17 -12.3 23.9
0 2 -17 9.2 27.2
0 2 -17 -6.3 30.6
0 2 -17 1.6 22.8
0 -2 17 20.2 22.3
-1 2 -17 -11.2 31.9
-1 2 -17 9 24.3
-1 2 -17 -0.3 24.7
1 -2 17 8.9 19.9
1 -2 17 21.3 29.6
-2 2 -17 9.2 37.8
-2 2 -17 -53.19 24.6
-2 2 -17 -20.2 22.3
2 -2 17 15.4 20.3
2 -2 17 -6.6 30.8
3 1 -17 241.48 55.99
3 1 -17 165.88 38.2
2 1 -17 540.25 53.39
2 1 -17 627.04 65.39
1 1 -17 253.77 45.2
1 1 -17 308.37 42.7
1 1 -17 223.98 33
0 1 -17 393.16 45.4
0 1 -17 404.36 59.39
0 1 -17 581.14 51.29
0 -1 17 461.95 42.4
-1 1 -17 173.58 32.5
-1 1 -17 170.78 32.1
-1 1 -17 128.59 43.5
1 -1 17 188.08 35.9
1 -1 17 196.98 25.7
-2 1 -17 104.49 25.6
-2 1 -17 65.89 29.1
-2 1 -17 92.99 45.6
2 -1 17 135.09 25.1
2 -1 17 149.29 37
3 0 -17 646.04 72.19
3 0 -17 551.44 59.29
3 0 -17 629.74 77.69
2 0 -17 854.61 70.89
2 0 -17 672.93 58.29
1 0 -17 965.3 66.19
1 0 -17 758.22 70.39
1 0 -17 785.32 59.49
0 0 -17 1012.6 64.99
0 0 -17 860.11 63.39
0 0 -17 823.62 75.29
0 0 17 939.41 56.49
-1 0 -17 986 61.99
-1 0 -17 677.03 74.89
-1 0 -17 781.12 61.09
1 0 17 892.11 62.59
-2 0 -17 357.36 42.7
-2 0 -17 437.16 39.6
-2 0 -17 314.77 59.19
2 0 17 435.16 53.09
2 -1 -17 672.03 58.19
2 -1 -17 745.73 68.39
1 -1 -17 733.63 58.99
1 -1 -17 925.31 66.69
1 -1 -17 806.22 71.99
0 -1 -17 561.14 52.99
0 -1 -17 595.64 67.49
0 -1 -17 709.33 57.19
-1 -1 -17 1250.07 72.59
-1 -1 -17 993.6 89.59
-1 -1 -17 1000.2 70.59
-2 -1 -17 532.55 43.7
-2 -1 -17 563.84 74.69
-2 -1 -17 497.75 53.09
-2 -1 -17 399.96 69.19
2 1 17 640.14 58.29
2 -2 -17 256.17 38.6
2 -2 -17 329.07 48.9
1 -2 -17 265.57 39.8
1 -2 -17 184.78 41.9
1 -2 -17 193.58 33.1
0 -2 -17 221.18 46.2
0 -2 -17 340.97 41.7
0 -2 -17 279.67 37.7
-1 -2 -17 360.96 47.8
-1 -2 -17 269.27 37.7
-1 -2 -17 241.28 52.99
2 -3 -17 -0.6 25.4
2 -3 -17 -1.1 34.1
1 -3 -17 -43.2 23.2
1 -3 -17 -5 28.7
1 -3 -17 -16 29.4
0 -3 -17 15.3 31.4
0 -3 -17 -7.5 27.1
0 -3 -17 6.1 23
-1 -3 -17 10.4 28.7
-1 -3 -17 4.9 24.4
-1 -3 -17 -25.3 31.6
0 -4 -17 179.38 45.2
0 -4 -17 249.58 39.7
0 -4 -17 256.07 36.4
1 10 -18 253.07 46.3
-1 -10 18 370.56 46.9
-1 -10 18 362.46 43.1
0 10 -18 257.87 44.5
0 -10 18 291.87 36.7
0 -10 18 290.27 42.4
1 9 -18 -3.5 32.1
1 9 -18 -33.6 36
-1 -9 18 43.6 34.4
-1 -9 18 60.19 32
0 9 -18 15 43.2
0 9 -18 52.59 35.6
0 -9 18 17.6 33.1
0 -9 18 41.9 26.9
-1 9 -18 30.3 33
-1 9 -18 6.2 44.2
1 -9 18 50.59 27.1
1 -9 18 10.1 31.5
2 8 -18 217.78 44.2
2 8 -18 254.47 52.59
-2 -8 18 243.38 42.2
-2 -8 18 232.28 43.5
1 8 -18 231.98 40.7
1 8 -18 266.17 57.19
1 8 -18 278.07 49.3
-1 -8 18 227.18 40
-1 -8 18 281.67 39.1
0 8 -18 191.58 53.39
0 8 -18 173.68 41
0 -8 18 276.37 34.8
0 -8 18 273.17 37.4
-1 8 -18 135.69 39.5
-1 8 -18 106.39 51.39
1 -8 18 141.39 29
1 -8 18 153.08 30.6
2 7 -18 866.81 81.99
2 7 -18 689.83 69.99
-2 -7 18 898.91 69.69
-2 -7 18 902.41 67.19
1 7 -18 500.85 61.09
1 7 -18 677.53 76.79
1 7 -18 625.44 67.79
-1 -7 18 527.65 56.79
-1 -7 18 664.63 56.79
0 7 -18 651.63 67.09
0 7 -18 671.33 82.29
0 -7 18 862.01 54.99
-1 7 -18 515.95 80.39
-1 7 -18 507.75 62.39
1 -7 18 548.45 46.6
1 -7 18 676.63 51.29
-2 7 -18 297.87 58.59
-2 7 -18 251.17 64.39
2 -7 18 367.46 41.3
2 -7 18 422.06 43.9
2 6 -18 774.82 73.29
2 6 -18 975 84.19
-2 -6 18 967.1 70.09
1 6 -18 639.24 66.99
1 6 -18 720.13 76.79
1 6 -18 547.05 63.09
-1 -6 18 741.33 57.09
0 6 -18 656.83 81.39
0 6 -18 774.62 68.99
0 6 -18 851.81 67.89
0 -6 18 862.71 56.59
-1 6 -18 589.94 83.39
-1 6 -18 615.74 64.89
1 -6 18 735.53 49.5
1 -6 18 750.72 54.99
-2 6 -18 412.16 75.49
-2 6 -18 407.26 53.29
2 -6 18 559.34 47
2 -6 18 567.64 54.39
3 5 -18 69.69 39.9
3 5 -18 92.89 52.29
-3 -5 18 100.59 42.2
2 5 -18 594.74 70.49
2 5 -18 379.66 52.89
-2 -5 18 554.74 58.89
1 5 -18 126.69 46.9
1 5 -18 189.78 42.7
1 5 -18 98.49 35.3
-1 -5 18 234.78 34.1
0 5 -18 478.25 56.19
0 5 -18 521.15 56.89
0 5 -18 489.05 73.59
0 -5 18 578.14 46.3
-1 5 -18 92.79 46.4
-1 5 -18 95.39 35
1 -5 18 232.08 35.1
1 -5 18 168.38 28.1
-2 5 -18 389.66 70.99
-2 5 -18 406.46 51.39
2 -5 18 461.25 46.2
2 -5 18 467.55 53.09
3 4 -18 -1 38.2
3 4 -18 83.59 41.4
3 4 -18 65.59 52.69
-3 -4 18 80.19 42.5
2 4 -18 25 34.6
2 4 -18 4.4 41.2
-2 -4 18 87.79 35.7
1 4 -18 -7.5 37.7
1 4 -18 -29.4 26.6
1 4 -18 6.4 34.2
-1 -4 18 7.9 26.7
0 4 -18 35 29.2
0 4 -18 43.6 39.5
0 4 -18 103.69 35.1
0 -4 18 136.89 26.9
-1 4 -18 -44 35.9
-1 4 -18 -12.4 28.8
1 -4 18 31.1 30.3
1 -4 18 41.4 23.1
-2 4 -18 -7.8 25.2
-2 4 -18 -22 42.2
-2 4 -18 -33.8 30.9
2 -4 18 24.6 33.4
2 -4 18 72.79 26.4
3 3 -18 444.06 55.99
3 3 -18 578.84 71.69
2 3 -18 264.57 51.09
2 3 -18 171.58 39.9
1 3 -18 476.45 53.29
1 3 -18 558.84 58.49
1 3 -18 410.66 62.59
-1 -3 18 531.05 49.7
0 3 -18 243.08 51.79
0 3 -18 302.07 40.9
0 3 -18 245.48 39
0 -3 18 298.97 32.6
-1 3 -18 161.18 34.2
-1 3 -18 110.69 46.3
1 -3 18 193.98 36.8
1 -3 18 182.08 27.4
-2 3 -18 175.78 30.1
-2 3 -18 74.89 33.8
-2 3 -18 49.2 46.1
2 -3 18 161.28 26.2
2 -3 18 196.08 39.3
3 2 -18 613.34 66.79
2 2 -18 783.82 73.39
2 2 -18 609.54 60.49
1 2 -18 981.8 71.99
1 2 -18 793.42 64.49
1 2 -18 842.42 77.29
-1 -2 18 1063.69 62.89
0 2 -18 780.22 60.69
0 2 -18 742.63 75.79
0 2 -18 864.21 63.19
0 -2 18 720.43 52.99
-1 2 -18 586.44 56.49
-1 2 -18 744.93 56.79
-1 2 -18 559.64 74.39
1 -2 18 857.61 60.49
1 -2 18 600.94 46.8
-2 2 -18 429.66 53.59
-2 2 -18 535.15 43.8
-2 2 -18 335.47 62.89
2 -2 18 641.04 60.29
2 -2 18 462.55 42.4
2 1 -18 734.13 70.49
2 1 -18 601.64 58.09
1 1 -18 893.21 67.09
1 1 -18 695.83 70.29
1 1 -18 661.53 57.39
0 1 -18 548.35 52.89
0 1 -18 696.23 57.39
0 1 -18 537.15 68.39
0 -1 18 561.14 47.1
-1 1 -18 958.6 91.29
-1 1 -18 1167.78 70.39
-1 1 -18 1038.7 71.99
1 -1 18 905.51 59.59
1 -1 18 1248.78 72.39
-2 1 -18 312.17 61.69
-2 1 -18 433.06 46.9
-2 1 -18 465.05 43.5
2 -1 18 587.94 58.39
2 0 -18 117.79 42.4
2 0 -18 99.19 33.4
1 0 -18 304.97 49.2
1 0 -18 454.45 55.09
1 0 -18 375.66 43.6
0 0 -18 160.28 33
0 0 -18 169.08 35.1
0 0 -18 119.69 39
0 0 18 165.78 28.7
-1 0 -18 345.07 41.1
-1 0 -18 266.97 37.9
-1 0 -18 238.58 52.09
2 -1 -18 8 26
2 -1 -18 42.4 38
1 -1 -18 -36.9 28.4
1 -1 -18 -0.4 31.5
1 -1 -18 -12.4 24.3
0 -1 -18 -2.7 28.7
0 -1 -18 -0.6 32.5
0 -1 -18 -8.9 23.2
-1 -1 -18 2.6 27.4
-1 -1 -18 -19.1 25.3
-1 -1 -18 -7.2 34.4
1 -2 -18 254.97 38.9
1 -2 -18 261.57 43
1 -2 -18 221.38 47.2
0 -2 -18 243.48 38.7
0 -2 -18 260.07 40.3
0 -2 -18 227.08 48.7
-1 -2 -18 104.69 31.5
-1 -2 -18 150.88 46.2
-1 -2 -18 164.48 36.3
1 9 -19 776.22 74.09
1 9 -19 899.71 81.29
-1 -9 19 960.7 69.29
-1 -9 19 955.9 69.49
0 9 -19 337.57 64.29
0 9 -19 410.46 55.29
0 -9 19 532.85 51.59
0 -9 19 447.26 47.6
1 8 -19 668.93 72.89
1 8 -19 585.74 66.39
1 8 -19 760.02 88.59
-1 -8 19 803.12 63.89
-1 -8 19 813.42 63.69
0 8 -19 449.16 69.79
0 8 -19 393.16 52.69
0 -8 19 589.64 49.3
0 -8 19 504.25 50.29
-1 8 -19 651.13 91.39
-1 8 -19 716.93 72.99
1 -8 19 921.11 56.19
2 7 -19 171.08 52.49
2 7 -19 118.99 41.6
-2 -7 19 253.37 43.7
1 7 -19 494.55 59.29
1 7 -19 345.07 48.5
1 7 -19 331.67 58.89
-1 -7 19 476.65 45.9
0 7 -19 85.69 39.5
0 7 -19 111.79 49.4
0 -7 19 207.58 32
-1 7 -19 357.66 68.99
-1 7 -19 389.96 53.39
1 -7 19 438.06 44
1 -7 19 549.45 51.09
2 6 -19 -32.7 42.9
2 6 -19 -7.8 34.8
-2 -6 19 37.9 37.6
1 6 -19 -37.4 31.4
1 6 -19 8 38.8
1 6 -19 23.3 40.5
-1 -6 19 5.6 28.8
0 6 -19 -16 31.8
0 6 -19 -35.1 40
0 6 -19 -22.8 49.4
0 -6 19 31 25.4
-1 6 -19 -7.9 44
-1 6 -19 -16.8 34.1
1 -6 19 43.6 31.3
1 -6 19 65.79 25.4
2 5 -19 229.08 54.69
2 5 -19 223.38 48
-2 -5 19 310.67 45.8
1 5 -19 408.76 51.09
1 5 -19 381.86 61.19
1 5 -19 559.44 61.29
-1 -5 19 606.94 53.69
0 5 -19 63.99 37.3
0 5 -19 111.89 39.8
0 5 -19 64.49 45.2
0 -5 19 176.78 29.6
-1 5 -19 168.48 54.19
-1 5 -19 165.68 41.2
1 -5 19 328.07 40.1
1 -5 19 234.88 31.6
2 4 -19 725.83 75.99
2 4 -19 461.05 55.49
1 4 -19 771.12 68.39
1 4 -19 947.21 75.59
1 4 -19 885.21 86.39
-1 -4 19 910.81 62.89
0 4 -19 778.12 64.39
0 4 -19 646.24 63.89
0 4 -19 671.33 79.79
0 -4 19 792.12 53.29
-1 4 -19 443.46 69.69
-1 4 -19 497.35 59.99
1 -4 19 486.95 46.2
1 -4 19 687.73 57.59
2 3 -19 628.24 65.39
2 3 -19 764.92 77.89
1 3 -19 631.54 64.19
1 3 -19 593.74 71.29
1 3 -19 472.55 56.89
-1 -3 19 707.93 56.19
0 3 -19 885.91 70.19
0 3 -19 1087.89 71.19
0 3 -19 874.11 85.89
0 -3 19 982.4 62.09
-1 3 -19 501.05 57.59
-1 3 -19 431.16 74.09
1 -3 19 682.03 58.19
1 -3 19 547.45 45.7
2 2 -19 287.37 53.09
2 2 -19 246.68 43.1
1 2 -19 190.98 35.3
1 2 -19 173.68 48.2
1 2 -19 237.08 44.5
0 2 -19 230.68 38.6
0 2 -19 251.27 51.49
0 2 -19 375.76 45.3
0 -2 19 302.07 34.4
-1 2 -19 223.98 38
-1 2 -19 199.08 52.09
-1 2 -19 246.18 48.4
1 -2 19 245.88 29.8
2 1 -19 49.1 41.7
2 1 -19 5.9 30.9
1 1 -19 -4.2 33.7
1 1 -19 -20 34.8
1 1 -19 -31 24.5
0 1 -19 5.8 34.7
0 1 -19 3.2 29.9
0 1 -19 4.4 23.8
0 -1 19 43 24.4
-1 1 -19 -8.6 36.7
-1 1 -19 -23.1 27.8
-1 1 -19 -18.8 25.8
1 -1 19 -1.4 22.3
2 0 -19 346.87 46
2 0 -19 515.75 68.59
1 0 -19 251.37 37.8
1 0 -19 341.57 54.69
1 0 -19 394.46 49.7
0 0 -19 147.89 43.7
0 0 -19 142.59 33
0 0 -19 192.88 38.5
0 0 19 236.18 31.8
-1 0 -19 127.29 33.6
-1 0 -19 169.18 49.3
-1 0 -19 261.67 40.5
1 -1 -19 685.13 63.79
1 -1 -19 512.85 55.39
1 -1 -19 586.04 68.79
0 -1 -19 747.13 62.29
0 -1 -19 585.94 57.79
0 -1 -19 529.25 70.29
0 8 -20 7.4 36.4
0 8 -20 -16.4 44.7
0 -8 20 64.99 29
1 7 -20 175.18 79.49
1 7 -20 127.69 40.1
1 7 -20 153.58 49.2
-1 -7 20 239.58 39.7
-1 -7 20 196.38 37
0 7 -20 182.18 55.49
0 7 -20 157.38 43.6
0 -7 20 240.08 34
1 6 -20 726.03 75.19
1 6 -20 703.83 107.09
1 6 -20 619.44 69.99
-1 -6 20 722.53 62.19
0 6 -20 376.06 66.79
0 6 -20 488.15 58.29
0 -6 20 521.15 48.8
-1 6 -20 619.74 69.19
-1 6 -20 531.35 81.99
1 -6 20 628.54 51.39
1 -6 20 742.63 60.09
2 5 -20 499.85 66.29
2 5 -20 344.07 53.59
1 5 -20 480.75 91.19
1 5 -20 521.85 68.19
1 5 -20 486.55 56.29
-1 -5 20 541.05 54.79
0 5 -20 586.14 66.49
0 5 -20 605.24 83.69
0 5 -20 756.62 68.09
0 -5 20 802.82 55.89
-1 5 -20 406.36 71.29
-1 5 -20 436.06 53.79
1 -5 20 457.45 45.8
1 -5 20 562.54 54.59
2 4 -20 441.46 64.89
2 4 -20 254.77 48.4
1 4 -20 106.29 42.8
1 4 -20 8 32.3
1 4 -20 27.3 52.99
-1 -4 20 97.99 31.7
0 4 -20 281.97 58.39
0 4 -20 350.46 46.2
0 4 -20 429.76 50.39
0 -4 20 374.66 39.7
-1 4 -20 99.29 37.4
-1 4 -20 52.79 47.7
1 -4 20 151.68 28.9
2 3 -20 -22.4 33.4
2 3 -20 -26.4 43.7
1 3 -20 -74.49 62.09
1 3 -20 -26 28.8
1 3 -20 -46.4 34.9
-1 -3 20 26.3 28.4
0 3 -20 -16 28.7
0 3 -20 -38.1 35.9
0 3 -20 6 33.7
0 -3 20 -1 24.6
-1 3 -20 -41.5 28.7
-1 3 -20 -53.39 38.5
1 -3 20 46.8 23.6
1 2 -20 159.38 37.7
1 2 -20 256.97 47.2
0 2 -20 177.38 37.3
0 2 -20 217.78 52.09
0 2 -20 254.47 43.4
0 -2 20 256.07 33.6
-1 2 -20 92.99 46.6
-1 2 -20 77.89 33.4
1 -2 20 128.79 26.9
1 1 -20 641.14 66.19
1 1 -20 570.44 58.79
0 1 -20 555.34 75.39
0 1 -20 663.43 61.99
0 1 -20 506.75 57.49
0 -1 20 650.33 52.19
0 5 -21 -47.5 33.1
0 5 -21 -43.2 44.5
0 -5 21 25 28.2
0 4 -21 127.39 38.5
0 4 -21 126.49 51.59
0 4 -21 149.49 42.6
0 -4 21 177.48 33.4
loop_
_exptl_crystal_face_index_h
_exptl_crystal_face_index_k
_exptl_crystal_face_index_l
_exptl_crystal_face_perp_dist
-1.00 -1.00 0.00 0.0710
1.00 0.00 0.00 0.0850
0.00 1.00 -1.00 0.0090
0.00 -1.00 1.00 0.0220
0.00 1.00 -2.00 0.0120
0.00 -1.00 2.00 0.0170
0.00 -1.00 -1.00 0.0220
0.00 1.00 1.00 0.0090
loop_
_geom_angle_atom_site_label_1
_geom_angle_atom_site_label_2
_geom_angle_atom_site_label_3
_geom_angle
_geom_angle_site_symmetry_1
_geom_angle_site_symmetry_3
_geom_angle_publ_flag
S1A Bi1 S2A 93.10(7) . . ?
S1A Bi1 S2 58.73(6) 1_655 1_655 ?
S1A Bi1 S2 124.93(7) . 1_655 ?
S1 Bi1 S1A 123.43(7) . 1_655 ?
S1 Bi1 S1 90.75(7) . 1_655 ?
S1 Bi1 S2A 111.57(7) . 1_655 ?
S1 Bi1 S2 170.05(7) . 1_655 ?
S2A Bi1 S2 123.53(7) . 1_655 ?
S2 Bi1 S1A 124.94(7) . 1_655 ?
S2 Bi1 S1 82.57(7) 1_655 1_655 ?
S2 Bi1 S1 171.00(6) . 1_655 ?
S2 Bi1 S1 93.18(7) . . ?
S2 Bi1 S2A 58.50(7) 1_655 1_655 ?
S2 Bi1 S2A 123.73(7) . 1_655 ?
S2 Bi1 S2 92.43(7) . 1_655 ?
C1 Bi1 S1A 125.9(3) . 1_655 ?
C1 Bi1 S1 82.6(3) . 1_655 ?
C1 Bi1 S1 89.6(3) . . ?
C1 Bi1 S2A 43.9(3) . 1_655 ?
C1 Bi1 S2 89.4(3) . . ?
C1 Bi1 S2 82.3(3) . 1_655 ?
C1A Bi1 S1A 88.9(3) . . ?
C1A Bi1 S2A 89.5(3) . . ?
C1A Bi1 S2 126.3(3) . 1_655 ?
Bi1 S1A Bi1 92.52(7) . 1_455 ?
C2A S1A Bi1 96.8(4) . . ?
Bi1 S1 Bi1 90.75(7) . 1_455 ?
C2 S1 Bi1 97.6(3) . . ?
C2 S1 Bi1 108.1(3) . 1_455 ?
Bi1 S2A Bi1 90.81(7) . 1_455 ?
C8A S2A Bi1 97.4(3) . . ?
Bi1 S2 Bi1 92.43(7) . 1_455 ?
C8 S2 Bi1 109.7(4) . 1_455 ?
C8 S2 Bi1 97.7(4) . . ?
Bi1 C1 H1A 109.5 . . ?
Bi1 C1 H1B 109.5 . . ?
Bi1 C1 H1C 109.5 . . ?
H1A C1 H1B 109.5 . . ?
H1A C1 H1C 109.5 . . ?
H1B C1 H1C 109.5 . . ?
Bi1 C1A H1AA 109.5 . . ?
Bi1 C1A H1AB 109.5 . . ?
Bi1 C1A H1AC 109.5 . . ?
H1AA C1A H1AB 109.5 . . ?
H1AA C1A H1AC 109.5 . . ?
H1AB C1A H1AC 109.5 . . ?
C4 C3 H3 120.5 . . ?
C2 C3 H3 120.5 . . ?
C2 C3 C4 119(2) . . ?
C3 C4 H4 119.0 . . ?
C5 C4 C3 122(4) . . ?
C5 C4 H4 119.0 . . ?
C4 C5 H5 120.5 . . ?
C4 C5 C6 119(2) . . ?
C6 C5 H5 120.5 . . ?
C5 C6 H6 119.3 . . ?
C5 C6 C7 121.4(11) . . ?
C7 C6 H6 119.3 . . ?
C6 C7 H7 120.2 . . ?
C6 C7 C2 119.5(10) . . ?
C2 C7 H7 120.2 . . ?
C3 C2 S1 119.0(8) . . ?
C3 C2 C7 119.1(9) . . ?
C7 C2 S1 121.9(8) . . ?
C13A C8A S2A 122.3(8) . . ?
C9A C8A S2A 119.7(8) . . ?
C9A C8A C13A 118.0(9) . . ?
C8A C13A H13A 119.9 . . ?
C12A C13A C8A 120.2(10) . . ?
C12A C13A H13A 119.9 . . ?
C13A C12A H12A 119.9 . . ?
C11A C12A C13A 120.1(11) . . ?
C11A C12A H12A 119.9 . . ?
C8A C9A H9A 118.2 . . ?
C8A C9A C10A 124(2) . . ?
C10A C9A H9A 118.2 . . ?
C12A C11A H11A 119.4 . . ?
C12A C11A C10A 121(2) . . ?
C10A C11A H11A 119.3 . . ?
C9A C10A C11A 117(3) . . ?
C9A C10A H10A 121.6 . . ?
C11A C10A H10A 121.6 . . ?
C3A C2A S1A 118.3(10) . . ?
C7A C2A S1A 122.4(10) . . ?
C7A C2A C3A 119.1(12) . . ?
C2A C3A H3A 119.8 . . ?
C4A C3A C2A 120.4(10) . . ?
C4A C3A H3A 119.8 . . ?
C3A C4A H4A 119.9 . . ?
C3A C4A C5A 120.2(12) . . ?
C5A C4A H4A 119.9 . . ?
C4A C5A H5A 120.8 . . ?
C6A C5A C4A 118.5(17) . . ?
C6A C5A H5A 120.8 . . ?
C5A C6A H6A 119.1 . . ?
C5A C6A C7A 121.7(13) . . ?
C7A C6A H6A 119.1 . . ?
C2A C7A C6A 120.0(12) . . ?
C2A C7A H7A 120.0 . . ?
C6A C7A H7A 120.0 . . ?
C9 C8 S2 117.1(9) . . ?
C9 C8 C13 121.4(11) . . ?
C13 C8 S2 121.5(8) . . ?
C8 C9 H9 120.5 . . ?
C8 C9 C10 118.9(10) . . ?
C10 C9 H9 120.5 . . ?
C9 C10 H10 119.8 . . ?
C9 C10 C11 120.5(12) . . ?
C11 C10 H10 119.8 . . ?
C10 C11 H11 120.8 . . ?
C12 C11 C10 118.5(16) . . ?
C12 C11 H11 120.8 . . ?
C11 C12 H12 118.7 . . ?
C11 C12 C13 122.7(12) . . ?
C13 C12 H12 118.7 . . ?
C8 C13 H13 121.0 . . ?
C12 C13 C8 118.0(11) . . ?
C12 C13 H13 121.0 . . ?
loop_
_geom_bond_atom_site_label_1
_geom_bond_atom_site_label_2
_geom_bond_distance
_geom_bond_site_symmetry_2
_geom_bond_publ_flag
Bi1 S1A 2.696(2) . ?
Bi1 S1A 2.969(2) 1_655 ?
Bi1 S1 3.014(2) 1_655 ?
Bi1 S1 2.736(2) . ?
Bi1 S2A 2.735(2) . ?
Bi1 S2A 3.012(2) 1_655 ?
Bi1 S2 2.699(2) . ?
Bi1 S2 2.970(2) 1_655 ?
Bi1 C1 2.208(10) . ?
Bi1 C1A 2.214(9) . ?
S1A C2A 1.786(14) . ?
S1 C2 1.782(9) . ?
S2A C8A 1.787(9) . ?
S2 C8 1.802(12) . ?
C1 H1A 0.9800 . ?
C1 H1B 0.9800 . ?
C1 H1C 0.9800 . ?
C1A H1AA 0.9800 . ?
C1A H1AB 0.9800 . ?
C1A H1AC 0.9800 . ?
C3 H3 0.9500 . ?
C3 C4 1.41(4) . ?
C3 C2 1.400(14) . ?
C4 H4 0.9500 . ?
C4 C5 1.37(5) . ?
C5 H5 0.9500 . ?
C5 C6 1.38(2) . ?
C6 H6 0.9500 . ?
C6 C7 1.401(14) . ?
C7 H7 0.9500 . ?
C7 C2 1.418(14) . ?
C8A C13A 1.400(14) . ?
C8A C9A 1.386(14) . ?
C13A H13A 0.9500 . ?
C13A C12A 1.400(14) . ?
C12A H12A 0.9500 . ?
C12A C11A 1.382(19) . ?
C9A H9A 0.9500 . ?
C9A C10A 1.39(4) . ?
C11A H11A 0.9500 . ?
C11A C10A 1.41(5) . ?
C10A H10A 0.9500 . ?
C2A C3A 1.401(16) . ?
C2A C7A 1.390(18) . ?
C3A H3A 0.9500 . ?
C3A C4A 1.396(14) . ?
C4A H4A 0.9500 . ?
C4A C5A 1.42(2) . ?
C5A H5A 0.9500 . ?
C5A C6A 1.37(2) . ?
C6A H6A 0.9500 . ?
C6A C7A 1.405(16) . ?
C7A H7A 0.9500 . ?
C8 C9 1.389(15) . ?
C8 C13 1.406(16) . ?
C9 H9 0.9500 . ?
C9 C10 1.403(14) . ?
C10 H10 0.9500 . ?
C10 C11 1.425(19) . ?
C11 H11 0.9500 . ?
C11 C12 1.36(2) . ?
C12 H12 0.9500 . ?
C12 C13 1.401(16) . ?
C13 H13 0.9500 . ?
loop_
_geom_torsion_atom_site_label_1
_geom_torsion_atom_site_label_2
_geom_torsion_atom_site_label_3
_geom_torsion_atom_site_label_4
_geom_torsion
_geom_torsion_site_symmetry_1
_geom_torsion_site_symmetry_2
_geom_torsion_site_symmetry_3
_geom_torsion_site_symmetry_4
_geom_torsion_publ_flag
Bi1 S1A C2A C3A 104.6(9) . . . . ?
Bi1 S1A C2A C3A -160.2(8) 1_455 . . . ?
Bi1 S1A C2A C7A 15.0(13) 1_455 . . . ?
Bi1 S1A C2A C7A -80.2(12) . . . . ?
Bi1 S1 C2 C3 -155.0(8) 1_455 . . . ?
Bi1 S1 C2 C3 111.7(8) . . . . ?
Bi1 S1 C2 C7 -67.5(8) . . . . ?
Bi1 S1 C2 C7 25.8(9) 1_455 . . . ?
Bi1 S2A C8A C13A -26.6(9) 1_455 . . . ?
Bi1 S2A C8A C13A 66.7(9) . . . . ?
Bi1 S2A C8A C9A 154.3(8) 1_455 . . . ?
Bi1 S2A C8A C9A -112.4(9) . . . . ?
Bi1 S2 C8 C9 -102.8(9) . . . . ?
Bi1 S2 C8 C9 161.8(8) 1_455 . . . ?
Bi1 S2 C8 C13 77.2(11) . . . . ?
Bi1 S2 C8 C13 -18.2(12) 1_455 . . . ?
S1A C2A C3A C4A 177.5(8) . . . . ?
S1A C2A C7A C6A -178.8(9) . . . . ?
S2A C8A C13A C12A -179.7(8) . . . . ?
S2A C8A C9A C10A 180(3) . . . . ?
S2 C8 C9 C10 -179.2(8) . . . . ?
S2 C8 C13 C12 178.9(9) . . . . ?
C3 C4 C5 C6 0(6) . . . . ?
C4 C3 C2 S1 -179(3) . . . . ?
C4 C3 C2 C7 0(3) . . . . ?
C4 C5 C6 C7 0(4) . . . . ?
C5 C6 C7 C2 -0.5(18) . . . . ?
C6 C7 C2 S1 179.5(8) . . . . ?
C6 C7 C2 C3 0.3(16) . . . . ?
C2 C3 C4 C5 -1(6) . . . . ?
C8A C13A C12A C11A 0.7(17) . . . . ?
C8A C9A C10A C11A -1(5) . . . . ?
C13A C8A C9A C10A 1(3) . . . . ?
C13A C12A C11A C10A -1(3) . . . . ?
C12A C11A C10A C9A 1(5) . . . . ?
C9A C8A C13A C12A -0.5(16) . . . . ?
C2A C3A C4A C5A 0.9(18) . . . . ?
C3A C2A C7A C6A -4(2) . . . . ?
C3A C4A C5A C6A -2(2) . . . . ?
C4A C5A C6A C7A 1(3) . . . . ?
C5A C6A C7A C2A 2(2) . . . . ?
C7A C2A C3A C4A 2.2(17) . . . . ?
C8 C9 C10 C11 -1.3(18) . . . . ?
C9 C8 C13 C12 -1(2) . . . . ?
C9 C10 C11 C12 2(2) . . . . ?
C10 C11 C12 C13 -2(3) . . . . ?
C11 C12 C13 C8 2(2) . . . . ?
C13 C8 C9 C10 0.8(18) . . . . ?
