#------------------------------------------------------------------------------
#$Date: 2022-06-22 09:23:47 +0300 (Wed, 22 Jun 2022) $
#$Revision: 276143 $
#$URL: file:///home/coder/svn-repositories/cod/cif/1/55/83/1558315.cif $
#------------------------------------------------------------------------------
#
# This file is available in the Crystallography Open Database (COD),
# http://www.crystallography.net/
#
# All data on this site have been placed in the public domain by the
# contributors.
#
data_1558315
loop_
_publ_author_name
'Singh, Pijush'
'Misra, Souvik'
'Sepay, Nayim'
'Mondal, Sanjoy'
'Ray, Debes'
'Aswal, Vinod K.'
'Nanda, Jayanta'
_publ_section_title
;
 Self-assembling behaviour of a modified aromatic amino acid in
 competitive medium.
;
_journal_issue                   28
_journal_name_full               'Soft matter'
_journal_page_first              6599
_journal_page_last               6607
_journal_paper_doi               10.1039/d0sm00584c
_journal_volume                  16
_journal_year                    2020
_chemical_formula_moiety         'C9 H10 N2 O4, H2 O'
_chemical_formula_sum            'C9 H12 N2 O5'
_chemical_formula_weight         228.20
_space_group_crystal_system      monoclinic
_space_group_IT_number           4
_space_group_name_Hall           'P 2yb'
_space_group_name_H-M_alt        'P 1 21 1'
_atom_sites_solution_hydrogens   mixed
_atom_sites_solution_primary     dual
_audit_block_doi                 10.5517/ccdc.csd.cc23v3x0
_audit_creation_date             2020-02-02
_audit_creation_method
;
Olex2 1.2
(compiled 2018.05.29 svn.r3508 for OlexSys, GUI svn.r5506)
;
_audit_update_record
;
2020-02-03 deposited with the CCDC.	2020-06-11 downloaded from the CCDC.
;
_cell_angle_alpha                90
_cell_angle_beta                 101.19(2)
_cell_angle_gamma                90
_cell_formula_units_Z            2
_cell_length_a                   6.241(5)
_cell_length_b                   5.293(4)
_cell_length_c                   15.726(9)
_cell_measurement_reflns_used    1818
_cell_measurement_temperature    293(2)
_cell_measurement_theta_max      25.1
_cell_measurement_theta_min      2.6
_cell_volume                     509.6(6)
_computing_molecular_graphics    'Olex2 (Dolomanov et al., 2009)'
_computing_publication_material  'Olex2 (Dolomanov et al., 2009)'
_computing_structure_refinement  'XL (Sheldrick, 2008)'
_computing_structure_solution    'XT (Sheldrick, 2015)'
_diffrn_ambient_temperature      293.63
_diffrn_measured_fraction_theta_full 0.996
_diffrn_measured_fraction_theta_max 0.996
_diffrn_measurement_device_type  CCD
_diffrn_measurement_method       'omega and phi scans'
_diffrn_radiation_type           MoK\a
_diffrn_radiation_wavelength     0.71073
_diffrn_reflns_av_R_equivalents  0.2193
_diffrn_reflns_av_unetI/netI     0.0801
_diffrn_reflns_Laue_measured_fraction_full 0.996
_diffrn_reflns_Laue_measured_fraction_max 0.996
_diffrn_reflns_limit_h_max       7
_diffrn_reflns_limit_h_min       -7
_diffrn_reflns_limit_k_max       6
_diffrn_reflns_limit_k_min       -6
_diffrn_reflns_limit_l_max       18
_diffrn_reflns_limit_l_min       -18
_diffrn_reflns_number            12375
_diffrn_reflns_point_group_measured_fraction_full 0.995
_diffrn_reflns_point_group_measured_fraction_max 0.995
_diffrn_reflns_theta_full        25.104
_diffrn_reflns_theta_max         25.104
_diffrn_reflns_theta_min         2.641
_exptl_absorpt_coefficient_mu    0.123
_exptl_crystal_colour            yellow
_exptl_crystal_colour_primary    yellow
_exptl_crystal_density_diffrn    1.487
_exptl_crystal_density_meas      1.487
_exptl_crystal_description       niddle
_exptl_crystal_F_000             240
_refine_diff_density_max         0.261
_refine_diff_density_min         -0.302
_refine_diff_density_rms         0.077
_refine_ls_abs_structure_details
;
 Flack x determined using 719 quotients [(I+)-(I-)]/[(I+)+(I-)]
 (Parsons, Flack and Wagner, Acta Cryst. B69 (2013) 249-259).
;
_refine_ls_abs_structure_Flack   0.4(10)
_refine_ls_extinction_method     none
_refine_ls_goodness_of_fit_ref   1.071
_refine_ls_hydrogen_treatment    mixed
_refine_ls_matrix_type           full
_refine_ls_number_parameters     154
_refine_ls_number_reflns         1818
_refine_ls_number_restraints     1
_refine_ls_restrained_S_all      1.071
_refine_ls_R_factor_all          0.0794
_refine_ls_R_factor_gt           0.0772
_refine_ls_shift/su_max          0.000
_refine_ls_shift/su_mean         0.000
_refine_ls_structure_factor_coef Fsqd
_refine_ls_weighting_details
'w=1/[\s^2^(Fo^2^)+(0.1440P)^2^+0.1350P] where P=(Fo^2^+2Fc^2^)/3'
_refine_ls_weighting_scheme      calc
_refine_ls_wR_factor_gt          0.1973
_refine_ls_wR_factor_ref         0.2010
_reflns_Friedel_coverage         0.788
_reflns_Friedel_fraction_full    0.994
_reflns_Friedel_fraction_max     0.994
_reflns_number_gt                1728
_reflns_number_total             1818
_reflns_threshold_expression     'I > 2\s(I)'
_cod_data_source_file            d0sm00584c2.cif
_cod_data_source_block           4np_0m_a
_cod_depositor_comments
;
 Adding full bibliography for 1558315.cif.

2022-06-21
Z value and formula fixed to values more according to usual
chemical conventions.                 miguel
;
_cod_original_formula_weight         57.05
_cod_original_formula_moiety         '0.25(C9 H10 N2 O4), 0.25(H2 O)'
_cod_original_formula_units_Z            8
_cod_original_formula_sum        'C2.25 H3 N0.50 O1.25'
_cod_database_code               1558315
_shelx_shelxl_version_number     2016/6
_shelx_space_group_comment
;
The symmetry employed for this shelxl refinement is uniquely defined
by the following loop, which should always be used as a source of
symmetry information in preference to the above space-group names.
They are only intended as comments.
;
_olex2_refinement_description
;
1. Fixed Uiso
 At 1.2 times of:
  All C(H) groups, All C(H,H) groups, All N(H,H,H) groups
2.a Ternary CH refined with riding coordinates:
 C11(H11)
2.b Secondary CH2 refined with riding coordinates:
 C12(H12A,H12B)
2.c Aromatic/amide H refined with riding coordinates:
 C15(H15), C14(H14), C17(H17), C18(H18)
2.d Idealised Me refined as rotating group:
 N9(H9A,H9B,H9C)
;
_shelx_res_file
;
TITL 4np_0m_a_a.res in P2(1)
    4np_0m_a.res
    created by SHELXL-2016/6 at 01:48:47 on 02-Feb-2020
REM Old TITL 4np_0m_a_a.res in P2(1)
REM SHELXT solution in P2(1)
REM R1 0.121, Rweak 0.037, Alpha 0.002, Orientation as input
REM Flack x = -2.510 ( 3.541 ) from Parsons' quotients
REM Formula found by SHELXT: C10 O6
CELL 0.71073 6.2413 5.2929 15.7258 90 101.191 90
ZERR 8 0.0051 0.0036 0.0094 0 0.022 0
LATT -1
SYMM -X,0.5+Y,-Z
SFAC C H N O
UNIT 18 24 4 10

L.S. 40
PLAN  2
TEMP 20.48
BOND $H
list 4
fmap 2
acta
REM <olex2.extras>
REM <HklSrc "%.\\4NP_0m_a.hkl">
REM </olex2.extras>

WGHT    0.144000    0.135000
FVAR       1.14467
O7    4    0.634474    0.315540    0.071727    11.00000    0.04062    0.03966 =
         0.04294    0.00160    0.02656   -0.00134
O8    4    0.554077    0.633197    0.151884    11.00000    0.04060    0.03145 =
         0.04021   -0.00440    0.01140   -0.00884
O11   4    0.860586   -0.122631    0.071329    11.00000    0.03181    0.04295 =
         0.05171    0.00323    0.01615   -0.00481
N9    3    0.289965    0.036540    0.089300    11.00000    0.02985    0.03107 =
         0.02987   -0.00618    0.01264   -0.00664
AFIX 137
H9A   2    0.309165    0.063002    0.035391    11.00000   -1.20000
H9B   2    0.154976   -0.019617    0.088046    11.00000   -1.20000
H9C   2    0.385804   -0.077850    0.114803    11.00000   -1.20000
AFIX   0
O10   4   -0.153061    1.091373    0.399722    11.00000    0.05988    0.05673 =
         0.05381   -0.00306    0.01533    0.02294
O9    4    0.160739    1.124748    0.482813    11.00000    0.06438    0.05327 =
         0.04387   -0.01928    0.01375   -0.00481
N8    3    0.035133    1.024251    0.422824    11.00000    0.04917    0.03628 =
         0.02981    0.00035    0.01972    0.00428
C10   1    0.520232    0.418571    0.118553    11.00000    0.02381    0.02789 =
         0.02408    0.00635    0.00611   -0.00128
C11   1    0.323163    0.276307    0.138655    11.00000    0.02799    0.02350 =
         0.02241    0.00047    0.01114   -0.00049
AFIX  13
H11   2    0.193412    0.381870    0.120341    11.00000   -1.20000
AFIX   0
C13   1    0.268182    0.432184    0.286246    11.00000    0.03775    0.03570 =
         0.01769    0.00204    0.01398   -0.00102
C16   1    0.116533    0.815177    0.376965    11.00000    0.04367    0.02969 =
         0.02359    0.00138    0.01615    0.00038
C15   1    0.330537    0.739654    0.401685    11.00000    0.04061    0.04575 =
         0.02002   -0.00409    0.00634   -0.00177
AFIX  43
H15   2    0.421914    0.815524    0.448467    11.00000   -1.20000
AFIX   0
C14   1    0.407107    0.547875    0.355323    11.00000    0.03393    0.04305 =
         0.02370    0.00123    0.00698    0.00134
AFIX  43
H14   2    0.551951    0.496284    0.370442    11.00000   -1.20000
AFIX   0
C17   1   -0.025486    0.703837    0.310074    11.00000    0.02732    0.04874 =
         0.03333   -0.00319    0.01370    0.00034
AFIX  43
H17   2   -0.170224    0.756082    0.295372    11.00000   -1.20000
AFIX   0
C12   1    0.345539    0.221091    0.236072    11.00000    0.04295    0.03463 =
         0.02521    0.00433    0.01589    0.00242
AFIX  23
H12A  2    0.262750    0.069960    0.243048    11.00000   -1.20000
H12B  2    0.497736    0.186811    0.260457    11.00000   -1.20000
AFIX   0
C18   1    0.053335    0.510632    0.264921    11.00000    0.03362    0.04512 =
         0.03237   -0.00824    0.01034   -0.00276
AFIX  43
H18   2   -0.040477    0.432376    0.219359    11.00000   -1.20000
AFIX   0

H11A  2    0.769882   -0.000878    0.067672    11.00000    0.04668
H11B  2    0.789647   -0.230188    0.092777    11.00000    0.07521
HKLF 4




REM  4np_0m_a_a.res in P2(1)
REM R1 =  0.0772 for    1728 Fo > 4sig(Fo)  and  0.0794 for all    1818 data
REM    154 parameters refined using      1 restraints

END

WGHT      0.1440      0.1349

REM Highest difference peak  0.261,  deepest hole -0.302,  1-sigma level  0.077
Q1    1   0.6903  0.1775  0.0977  11.00000  0.05    0.26
Q2    1   0.6964  0.3266  0.3960  11.00000  0.05    0.22
;
_shelx_res_checksum              3928
_shelx_hkl_file
;
   0   0  -2   42.77    0.60
   0   0  -2   34.63    0.56
   0   0  -2   32.82    0.51
   0   0  -2   66.01    0.93
   0   0  -2   53.65    0.79
   0   0  -2   45.23    0.69
   0   0  -2   68.79    0.93
   0   0  -2   54.49    0.74
   0   0   2   35.83    0.56
   0   0   2   34.39    0.51
   0   0   2   65.78    0.93
   0   0   2   62.08    0.83
   0   0   2   42.31    0.65
   0   0   2   62.49    0.88
   0   0   2   56.24    0.74
   0   0  -3    3.01    0.37
   0   0  -3    0.79    0.28
   0   0  -3    0.65    0.23
   0   0  -3    2.22    0.37
   0   0  -3    1.16    0.32
   0   0  -3    0.97    0.28
   0   0  -3    1.20    0.32
   0   0  -3    2.08    0.37
   0   0   3    0.46    0.23
   0   0   3    0.60    0.28
   0   0   3    1.76    0.32
   0   0   3    0.93    0.37
   0   0   3    0.83    0.28
   0   0   3    0.46    0.42
   0   0  -4 2989.05   14.58
   0   0  -4 2616.03   12.27
   0   0  -4 2321.90    8.84
   0   0  -4 3943.86   14.86
   0   0  -4 3776.98   18.05
   0   0  -4 3233.80   12.78
   0   0  -4 4768.04   20.97
   0   0  -4 3421.88   13.10
   0   0   4 2767.59   12.36
   0   0   4 2492.16   10.60
   0   0   4 3329.81   17.27
   0   0   4 4763.41   20.23
   0   0   4 2727.92   12.73
   0   0   4 4321.93   16.90
   0   0   4 3658.06   14.81
   0   0  -5 1138.64    4.77
   0   0  -5  943.15    4.35
   0   0  -5  731.36    3.38
   0   0  -5 1237.47    5.97
   0   0  -5 1351.67    5.97
   0   0  -5 1205.81    5.23
   0   0  -5 1788.62    7.18
   0   0  -5 1271.63    5.32
   0   0   5  948.10    4.35
   0   0   5  866.30    3.66
   0   0   5 1456.52    6.57
   0   0   5 1756.82    6.71
   0   0   5 1011.24    4.81
   0   0   5 1594.38    6.71
   0   0   5 1478.09    5.79
   0   0  -6 2364.12    7.55
   0   0  -6 1888.38    6.76
   0   0  -6 1882.36    5.93
   0   0  -6 2628.07    9.12
   0   0  -6 2197.97    7.73
   0   0  -6 3545.52   11.11
   0   0  -6 2278.01    7.82
   0   0   6 1906.52    5.93
   0   0   6 2826.06   10.05
   0   0   6 1981.10    7.41
   0   0   6 2893.88    8.89
   0   0  -7    5.83    0.69
   0   0  -7    2.96    0.83
   0   0  -7    4.26    0.65
   0   0  -7    8.10    0.97
   0   0  -7    9.21    1.11
   0   0   7    4.03    0.79
   0   0   7    5.28    0.88
   0   0   7    4.86    0.74
   0   0   7    5.74    0.83
   0   0  -8  212.43    2.78
   0   0  -8  170.91    2.27
   0   0  -8  201.51    3.06
   0   0  -8  309.00    3.98
   0   0   8  170.58    2.41
   0   0   8  207.57    3.29
   0   0   8  171.19    2.73
   0   0   8  231.09    3.10
   0   0  -9  687.52    5.14
   0   0  -9  423.15    3.56
   0   0  -9  590.91    5.46
   0   0  -9  889.26    7.04
   0   0   9  533.51    4.07
   0   0   9  583.41    7.04
   0   0   9  503.42    4.77
   0   0   9  685.58    5.51
   0   0 -10   33.93    1.62
   0   0 -10   28.65    1.53
   0   0 -10   32.40    2.18
   0   0 -10   44.39    2.31
   0   0  10   36.66    2.22
   0   0  10   26.85    1.85
   0   0  10   36.15    1.94
   0   0 -11   62.68    2.18
   0   0 -11   43.98    1.76
   0   0 -11   55.32    2.59
   0   0 -11   74.44    2.92
   0   0  11   60.18    2.73
   0   0  11   50.83    2.41
   0   0  11   67.54    2.36
   0   0 -12   71.52    2.55
   0   0 -12   54.44    2.18
   0   0 -12   57.73    2.87
   0   0 -12   84.90    3.61
   0   0  12   64.35    2.96
   0   0  12   52.82    2.78
   0   0  12   69.34    2.82
   0   0 -13   85.73    2.68
   0   0 -13   90.64    3.80
   0   0 -13  129.71    4.35
   0   0  13   93.69    4.03
   0   0  13   81.24    3.19
   0   0  13  109.94    3.43
   0   0 -14  113.65    3.66
   0   0 -14   83.32    2.87
   0   0 -14   96.29    4.12
   0   0 -14  119.62    4.58
   0   0  14   71.06    3.19
   0   0  14   92.31    3.93
   0   0  14   87.07    3.56
   0   0  14  111.79    3.70
   0   0 -15   27.68    3.24
   0   0 -15    4.40    1.76
   0   0 -15   12.04    2.78
   0   0 -15   14.58    2.68
   0   0  15    8.89    1.99
   0   0  15   13.19    2.41
   0   0  15   13.66    2.08
   0   0  15   12.22    2.18
   0   0 -16    8.84    2.45
   0   0 -16    5.69    2.68
   0   0 -16    2.55    2.73
   0   0  16    2.64    2.27
   0   0  16    3.10    2.41
   0   0  16    2.50    2.96
   0   0 -17   15.04    2.78
   0   0 -17    7.50    3.19
   0   0 -17   11.06    3.15
   0   0  17    7.73    2.82
   0   0  17    6.16    2.31
   0   0  17    9.91    2.78
   0   0 -18   25.00    3.98
   0   0 -18   24.49    4.21
   0   0  18   25.92    3.52
   0   0  18   21.76    3.10
   0   0  18   38.14    4.44
   0  -1   0   -0.19    0.23
   0  -1   0    0.00    0.28
   0  -1   0   -0.14    0.19
   0  -1   0    0.28    0.23
   0  -1   0   -0.09    0.19
   0  -1   0   -0.32    0.23
   0  -1   0    0.05    0.23
   0   1   0    0.19    0.28
   0   1   0    0.28    0.32
   0   1   0   -0.19    0.23
   0   1   0    0.00    0.28
   0   1   0   -0.14    0.28
   0   1   0    0.14    0.28
   0   1   0    0.56    0.28
   0  -1  -1  335.20    1.94
   0  -1  -1  373.06    2.59
   0  -1  -1  222.29    1.76
   0  -1  -1  219.10    1.94
   0  -1  -1  273.44    1.62
   0  -1  -1  221.00    1.85
   0  -1  -1  323.63    2.36
   0  -1  -1  341.59    2.41
   0  -1   1  396.16    2.59
   0  -1   1  367.65    2.13
   0  -1   1  217.25    1.76
   0  -1   1  237.75    1.90
   0  -1   1  345.24    2.36
   0  -1   1  216.41    1.90
   0  -1   1  270.44    1.76
   0   1  -1  370.15    2.50
   0   1  -1  355.61    2.13
   0   1  -1  373.25    2.13
   0   1  -1  246.23    1.85
   0   1  -1  234.93    1.85
   0   1  -1  235.30    1.85
   0   1  -1  393.25    2.50
   0   1  -1  222.39    1.94
   0   1  -1  231.83    1.99
   0   1  -1  252.34    1.71
   0   1   1  313.02    1.85
   0   1   1  378.43    2.59
   0   1   1  232.89    1.81
   0   1   1  215.77    1.71
   0   1   1  232.80    2.04
   0   1   1  267.20    1.62
   0   1   1  300.11    1.71
   0   1   1  225.21    1.85
   0   1   1  341.73    2.41
   0   1   1  318.72    2.31
   0  -1  -2  787.88    2.64
   0  -1  -2  900.33    4.35
   0  -1  -2  680.53    3.38
   0  -1  -2  616.42    3.56
   0  -1  -2  692.43    2.36
   0  -1  -2  597.26    3.24
   0  -1  -2  901.99    4.26
   0  -1   2  807.56    4.07
   0  -1   2  665.03    3.38
   0  -1   2  616.70    3.15
   0  -1   2  922.64    4.31
   0  -1   2  756.31    3.89
   0  -1   2  669.70    2.68
   0   1  -2  954.26    4.40
   0   1  -2  874.22    2.87
   0   1  -2  891.44    2.87
   0   1  -2  795.61    3.66
   0   1  -2  682.85    3.33
   0   1  -2 1028.51    4.54
   0   1  -2  664.98    3.66
   0   1  -2  626.28    3.52
   0   1  -2  715.81    2.73
   0   1   2  726.46    2.55
   0   1   2  952.96    4.40
   0   1   2  754.04    3.56
   0   1   2  764.18    3.93
   0   1   2  698.40    2.36
   0   1   2  680.26    2.36
   0   1   2  693.73    3.47
   0   1   2  933.24    4.40
   0   1   2  878.01    4.21
   0  -1  -3 1929.48    6.85
   0  -1  -3 2324.12    7.45
   0  -1  -3 1887.13    6.30
   0  -1  -3 1644.00    6.34
   0  -1  -3 1778.39    7.18
   0  -1  -3 1598.73    5.79
   0  -1  -3 2237.32    7.31
   0  -1   3 2765.51   10.28
   0  -1   3 1878.01    6.39
   0  -1   3 1667.56    5.56
   0  -1   3 2434.76   11.67
   0  -1   3 1884.72    6.71
   0  -1   3 1767.42    8.05
   0   1  -3 1926.94    6.80
   0   1  -3 2619.28    6.20
   0   1  -3 2385.27    6.48
   0   1  -3 2518.59    7.31
   0   1  -3 1964.66    6.06
   0   1  -3 2408.74    7.59
   0   1  -3 1938.60    6.85
   0   1  -3 1801.95    6.53
   0   1  -3 2237.55    9.07
   0   1   3 1991.98    7.96
   0   1   3 1878.56    6.62
   0   1   3 2232.79    6.90
   0   1   3 1861.57    6.67
   0   1   3 2214.32    7.59
   0   1   3 2100.53    6.62
   0   1   3 2446.14   10.92
   0   1   3 2213.90    7.31
   0  -1  -4  234.47    1.53
   0  -1  -4  305.34    2.96
   0  -1  -4  263.17    2.64
   0  -1  -4  210.07    2.55
   0  -1  -4  248.91    1.76
   0  -1  -4  235.72    2.50
   0  -1  -4  282.89    2.92
   0  -1   4  289.23    1.34
   0  -1   4  268.12    2.73
   0  -1   4  229.70    2.31
   0  -1   4  290.99    2.96
   0  -1   4  211.37    2.55
   0  -1   4  238.22    1.85
   0   1  -4  273.54    2.87
   0   1  -4  239.28    2.68
   0   1  -4  343.02    3.06
   0   1  -4  311.17    2.68
   0   1  -4  371.58    3.33
   0   1  -4  281.45    2.92
   0   1  -4  382.74    2.36
   0   1   4  328.81    1.81
   0   1   4  249.65    2.73
   0   1   4  336.17    3.01
   0   1   4  288.67    2.96
   0   1   4  334.41    1.99
   0   1   4  338.99    3.01
   0   1   4  294.83    2.96
   0  -1  -5 1444.62    5.18
   0  -1  -5 1716.03    7.22
   0  -1  -5 1241.22    6.48
   0  -1  -5 1523.46    4.81
   0  -1  -5 1442.68    6.67
   0  -1   5 1555.72    7.13
   0  -1   5 1488.42    6.94
   0  -1   5 1470.92    6.25
   0  -1   5 1657.57    7.50
   0  -1   5 1475.41    5.09
   0   1  -5 1673.26    7.41
   0   1  -5 2221.44    7.68
   0   1  -5 1952.35    8.19
   0   1  -5 2643.99    6.71
   0   1   5 2199.13    5.93
   0   1   5 1590.26    7.31
   0   1   5 2003.32    8.01
   0   1   5 2032.99    7.92
   0   1   5 2170.52    9.77
   0   1   5 1882.13    7.92
   0  -1  -6  389.31    2.45
   0  -1  -6  331.54    3.47
   0  -1  -6  335.34    3.70
   0  -1  -6  424.17    2.92
   0  -1  -6  407.69    3.89
   0  -1   6  427.97    4.03
   0  -1   6  429.40    4.12
   0  -1   6  422.87    4.12
   0  -1   6  426.81    3.06
   0   1  -6  452.69    4.17
   0   1  -6  707.66    4.77
   0   1  -6  585.87    4.91
   0   1  -6  656.97    3.75
   0   1   6  538.23    2.87
   0   1   6  576.79    4.72
   0   1   6  535.96    3.29
   0   1   6  498.33    4.40
   0  -1  -7  134.06    1.67
   0  -1  -7  138.41    2.50
   0  -1  -7  109.57    2.36
   0  -1  -7  139.25    1.99
   0  -1  -7  129.01    2.50
   0  -1   7  139.62    2.55
   0  -1   7  153.46    1.25
   0  -1   7  137.90    2.64
   0  -1   7  133.18    2.59
   0  -1   7  144.75    2.04
   0   1  -7  144.29    2.59
   0   1  -7  254.09    3.19
   0   1  -7  214.84    3.38
   0   1  -7  189.43    2.41
   0   1   7  156.60    1.85
   0   1   7  177.71    2.87
   0   1   7  146.28    1.99
   0   1   7  161.74    2.82
   0  -1  -8  275.34    2.55
   0  -1  -8  292.05    2.78
   0  -1  -8  250.21    3.38
   0  -1  -8  227.62    3.52
   0  -1  -8  274.23    2.96
   0  -1  -8  274.83    3.75
   0  -1   8  307.79    3.89
   0  -1   8  315.15    1.90
   0  -1   8  279.51    3.93
   0  -1   8  268.08    3.75
   0  -1   8  294.04    3.06
   0   1  -8  337.74    4.07
   0   1  -8  253.45    1.62
   0   1  -8  526.38    4.81
   0   1  -8  493.42    5.28
   0   1  -8  327.88    3.33
   0   1   8  294.28    2.68
   0   1   8  364.50    4.35
   0   1   8  287.61    2.96
   0   1   8  321.82    4.07
   0  -1  -9  438.61    3.43
   0  -1  -9  441.25    3.66
   0  -1  -9  331.45    3.98
   0  -1  -9  441.48    5.14
   0  -1   9  496.76    2.55
   0  -1   9  439.86    5.51
   0  -1   9  404.22    4.86
   0  -1   9  460.46    4.07
   0   1  -9  509.81    5.79
   0   1  -9  376.58    2.13
   0   1  -9  787.24    6.20
   0   1  -9  784.50    6.94
   0   1   9  431.21    3.56
   0   1   9  528.79    6.80
   0   1   9  436.48    3.89
   0   1   9  531.75    5.51
   0  -1 -10   15.51    1.20
   0  -1 -10   16.39    1.90
   0  -1 -10   12.45    1.44
   0  -1 -10   17.45    1.90
   0  -1 -10   18.15    1.94
   0  -1  10   16.90    1.34
   0  -1  10   14.44    1.71
   0  -1  10   17.22    1.81
   0  -1  10   18.01    1.48
   0   1 -10   16.29    1.85
   0   1 -10   13.98    0.93
   0   1 -10   25.97    1.94
   0   1 -10   27.73    2.27
   0   1  10   19.35    1.67
   0   1  10   15.92    1.34
   0   1  10   20.78    2.04
   0  -1 -11    1.02    0.79
   0  -1 -11   -0.23    1.25
   0  -1 -11   -0.74    1.53
   0  -1 -11    0.28    1.57
   0  -1  11    0.23    0.93
   0  -1  11   -1.30    1.25
   0  -1  11    0.14    1.30
   0  -1  11   -1.71    0.88
   0   1 -11    1.48    1.48
   0   1 -11    2.78    1.48
   0   1 -11    0.46    1.53
   0   1  11   -0.93    1.34
   0   1  11    0.23    0.88
   0   1  11    0.28    1.48
   0  -1 -12   62.86    1.99
   0  -1 -12   49.21    2.78
   0  -1 -12   48.28    2.92
   0  -1 -12   67.91    3.33
   0  -1  12   49.39    1.71
   0  -1  12   64.25    1.94
   0  -1  12   55.74    2.92
   0  -1  12   60.41    3.15
   0  -1  12   67.59    2.45
   0   1 -12   77.68    3.24
   0   1 -12   93.79    3.52
   0   1 -12  132.16    4.26
   0   1  12   83.79    3.33
   0   1  12   62.40    2.31
   0   1  12   77.77    3.15
   0  -1 -13  146.24    2.87
   0  -1 -13  134.57    4.07
   0  -1 -13  116.75    3.93
   0  -1 -13  145.12    4.26
   0  -1  13  103.69    2.08
   0  -1  13  137.30    4.81
   0  -1  13  135.31    3.89
   0   1 -13  199.15    4.54
   0   1 -13  200.35    4.63
   0   1 -13  252.61    6.30
   0   1  13  140.96    3.33
   0   1  13  186.46    4.49
   0  -1 -14   46.43    2.31
   0  -1 -14   40.32    3.52
   0  -1 -14   36.29    3.24
   0  -1 -14   44.21    3.75
   0  -1  14   41.48    3.24
   0  -1  14   44.02    3.15
   0  -1  14   49.67    3.06
   0   1 -14   66.80    3.75
   0   1 -14   57.77    3.56
   0   1 -14   93.60    4.17
   0   1  14   37.68    3.43
   0   1  14   53.74    3.43
   0   1  14   45.97    2.96
   0   1  14   56.34    3.52
   0  -1 -15   15.55    1.76
   0  -1 -15   14.91    2.59
   0  -1 -15   10.32    2.55
   0  -1 -15   14.77    3.01
   0  -1  15   15.14    2.50
   0  -1  15   15.46    2.31
   0  -1  15   14.21    2.27
   0   1 -15   17.64    2.64
   0   1 -15   15.51    2.87
   0   1 -15   32.40    4.03
   0   1  15   15.65    3.15
   0   1  15   18.93    2.73
   0   1  15   16.62    2.18
   0   1  15   18.56    2.82
   0  -1 -16    2.13    2.59
   0  -1 -16    7.04    2.59
   0  -1 -16    5.28    2.73
   0  -1  16    7.59    2.55
   0  -1  16    2.96    2.13
   0  -1  16    9.21    2.31
   0   1 -16    8.61    2.82
   0   1 -16   10.28    2.92
   0   1 -16   10.97    3.19
   0   1  16    8.10    3.29
   0   1  16    6.25    2.55
   0   1  16    7.22    2.13
   0   1  16    4.68    2.87
   0  -1 -17   12.82    3.38
   0  -1 -17   12.68    3.38
   0  -1 -17   16.57    3.61
   0  -1  17   16.39    3.10
   0  -1  17   15.69    2.64
   0   1 -17   14.63    3.15
   0   1 -17   22.36    3.47
   0   1  17   14.35    3.56
   0   1  17   10.55    2.41
   0   1  17   13.93    3.15
   0  -1 -18   25.83    4.44
   0  -1  18   29.30    3.80
   0  -1  18   22.45    3.75
   0  -1  18   28.15    3.38
   0   1 -18   38.93    4.03
   0   1 -18   21.20    3.75
   0   1 -18   31.06    4.26
   0   1  18   30.18    3.84
   0   1  18   32.91    3.66
   0  -2   0  152.90    2.18
   0  -2   0  148.23    2.31
   0  -2   0   80.18    1.53
   0  -2   0   87.72    1.76
   0  -2   0  114.57    1.76
   0  -2   0   87.40    1.81
   0  -2   0  125.45    1.94
   0   2   0  129.99    2.08
   0   2   0  149.06    2.31
   0   2   0   82.91    1.67
   0   2   0  151.00    2.13
   0   2   0   82.26    1.85
   0   2   0  125.13    1.94
   0   2   0  122.95    2.04
   0  -2  -1 1345.19    5.79
   0  -2  -1 1361.72    6.76
   0  -2  -1  830.94    4.63
   0  -2  -1  854.54    5.32
   0  -2  -1  999.34    4.68
   0  -2  -1  819.73    5.00
   0  -2  -1 1240.01    6.16
   0  -2   1 1443.93    6.76
   0  -2   1 1360.70    6.11
   0  -2   1  771.59    4.49
   0  -2   1  857.65    5.09
   0  -2   1 1140.12    5.74
   0  -2   1  795.52    5.05
   0  -2   1 1084.61    5.18
   0   2  -1 1341.25    6.06
   0   2  -1 1383.33    6.11
   0   2  -1  886.39    4.77
   0   2  -1  896.25    5.23
   0   2  -1  908.10    5.28
   0   2  -1 1464.21    6.48
   0   2  -1  985.87    4.95
   0   2   1 1189.65    5.42
   0   2   1  817.05    4.58
   0   2   1  787.88    4.49
   0   2   1 1243.95    5.18
   0   2   1  855.70    5.14
   0   2   1 1251.03    6.20
   0   2   1 1121.14    6.76
   0  -2  -2   27.68    1.02
   0  -2  -2   28.28    1.39
   0  -2  -2   17.59    1.02
   0  -2  -2   18.05    1.06
   0  -2  -2   20.18    0.79
   0  -2  -2   16.99    1.06
   0  -2  -2   27.08    1.20
   0  -2   2   30.65    1.39
   0  -2   2   27.40    1.25
   0  -2   2   15.83    0.88
   0  -2   2   17.73    1.06
   0  -2   2   25.65    1.16
   0  -2   2   19.77    1.16
   0  -2   2   20.78    0.88
   0   2  -2   28.52    1.39
   0   2  -2   27.64    1.25
   0   2  -2   20.41    1.11
   0   2  -2   17.41    0.97
   0   2  -2   18.84    1.06
   0   2  -2   18.01    1.16
   0   2  -2   20.74    0.97
   0   2   2   25.46    1.06
   0   2   2   18.75    0.88
   0   2   2   16.11    1.06
   0   2   2   22.03    0.79
   0   2   2   24.95    0.93
   0   2   2   27.64    1.20
   0  -2  -3  217.71    2.13
   0  -2  -3  230.07    3.19
   0  -2  -3  157.44    2.68
   0  -2  -3  166.46    2.68
   0  -2  -3  141.93    2.27
   0  -2   3  264.19    3.33
   0  -2   3  150.86    2.31
   0  -2   3  224.56    2.96
   0  -2   3  182.34    2.68
   0  -2   3  179.38    2.04
   0   2  -3  239.56    2.45
   0   2  -3  231.37    2.36
   0   2  -3  170.49    2.41
   0   2  -3  188.27    2.78
   0   2  -3  185.68    2.08
   0   2   3  182.76    1.99
   0   2   3  189.84    2.45
   0   2   3  161.60    2.73
   0   2   3  182.67    1.81
   0   2   3  198.13    1.90
   0   2   3  235.39    3.10
   0  -2  -4   45.83    1.11
   0  -2  -4   49.81    1.85
   0  -2  -4   35.78    1.48
   0  -2  -4   33.75    1.39
   0  -2   4   53.98    1.85
   0  -2   4   31.85    1.30
   0  -2   4   47.36    1.67
   0  -2   4   36.34    1.02
   0   2  -4   54.11    1.39
   0   2  -4   48.19    1.30
   0   2  -4   36.99    1.34
   0   2  -4   46.34    1.67
   0   2  -4   41.48    1.25
   0   2   4   38.70    1.06
   0   2   4   44.76    1.39
   0   2   4   41.80    0.93
   0   2   4   38.47    0.93
   0   2   4   47.08    1.67
   0  -2  -5  235.72    2.04
   0  -2  -5  274.14    3.70
   0  -2  -5  206.55    3.24
   0  -2  -5  229.75    2.04
   0  -2  -5  197.34    2.96
   0  -2   5  325.85    4.03
   0  -2   5  210.03    3.01
   0  -2   5  268.68    3.66
   0  -2   5  208.59    2.22
   0   2  -5  312.38    2.36
   0   2  -5  270.53    2.18
   0   2  -5  270.25    3.19
   0   2  -5  267.01    3.61
   0   2  -5  283.63    2.64
   0   2   5  250.30    2.08
   0   2   5  301.17    3.47
   0   2   5  281.04    2.18
   0   2   5  216.74    1.94
   0   2   5  315.52    3.93
   0  -2  -6  298.07    2.27
   0  -2  -6  405.70    4.68
   0  -2  -6  318.76    4.21
   0  -2  -6  318.39    2.41
   0  -2  -6  288.35    3.70
   0  -2   6  410.70    4.72
   0  -2   6  315.34    3.89
   0  -2   6  396.35    4.63
   0  -2   6  307.52    2.73
   0   2  -6  414.77    4.77
   0   2  -6  493.24    2.55
   0   2  -6  383.76    2.22
   0   2  -6  432.41    4.21
   0   2  -6  440.56    4.86
   0   2  -6  485.46    3.47
   0   2   6  442.96    2.68
   0   2   6  479.17    4.68
   0   2   6  455.51    2.82
   0   2   6  462.36    5.00
   0  -2  -7   51.57    1.11
   0  -2  -7   76.84    2.50
   0  -2  -7   55.92    1.34
   0  -2  -7   56.06    2.13
   0  -2   7   77.63    2.92
   0  -2   7   57.91    1.90
   0  -2   7   56.89    1.44
   0   2  -7   89.99    4.35
   0   2  -7   90.41    2.27
   0   2  -7  102.44    1.99
   0   2   7   95.45    1.44
   0   2   7   85.22    2.31
   0   2   7   84.99    1.44
   0  -2  -8   42.77    1.11
   0  -2  -8   43.79    2.22
   0  -2  -8   49.72    1.48
   0  -2  -8   50.09    2.22
   0  -2   8   65.46    2.59
   0  -2   8   44.12    2.50
   0  -2   8   56.43    2.45
   0  -2   8   48.56    1.44
   0   2  -8   72.49    2.59
   0   2  -8   91.06    2.41
   0   2  -8   96.75    3.06
   0   2  -8   85.36    2.13
   0   2   8   88.97    1.48
   0   2   8   73.33    1.53
   0   2   8   73.23    2.45
   0  -2  -9    8.01    0.88
   0  -2  -9   10.60    1.85
   0  -2  -9    8.89    1.57
   0  -2  -9   10.55    1.30
   0  -2  -9    8.52    1.67
   0  -2   9   15.79    1.94
   0  -2   9   10.65    1.53
   0  -2   9   10.60    1.62
   0  -2   9   10.37    1.11
   0   2  -9   12.64    1.81
   0   2  -9   20.69    1.94
   0   2  -9   13.15    1.76
   0   2   9   10.65    1.16
   0   2   9   13.47    1.48
   0   2   9   12.22    1.11
   0   2   9   12.27    1.67
   0  -2 -10   10.00    0.97
   0  -2 -10   15.79    1.48
   0  -2 -10    9.40    1.85
   0  -2 -10   12.50    1.85
   0  -2 -10   15.32    1.44
   0  -2 -10   11.06    1.90
   0  -2  10   13.93    1.94
   0  -2  10   12.55    1.53
   0  -2  10   14.40    1.85
   0  -2  10   11.16    1.25
   0   2 -10   16.20    1.99
   0   2 -10   27.77    2.55
   0   2  10   17.78    1.34
   0   2  10   17.64    2.18
   0   2  10   15.60    1.34
   0   2  10   15.97    1.94
   0  -2 -11  169.71    2.18
   0  -2 -11  228.63    2.78
   0  -2 -11  209.84    4.63
   0  -2 -11  179.94    4.49
   0  -2 -11  177.02    4.31
   0  -2  11  268.77    5.28
   0  -2  11  190.21    4.31
   0  -2  11  216.88    4.63
   0  -2  11  190.40    3.01
   0   2 -11  307.15    5.56
   0   2 -11  462.92    5.83
   0   2 -11  456.11    6.67
   0   2  11  315.71    5.32
   0   2  11  240.11    3.10
   0   2  11  274.88    5.09
   0  -2 -12   83.79    1.85
   0  -2 -12  112.63    4.12
   0  -2 -12   91.24    3.47
   0  -2  12   96.70    4.35
   0  -2  12  110.78    4.44
   0  -2  12   97.35    2.55
   0   2 -12  146.10    4.26
   0   2 -12  229.88    4.81
   0   2 -12  211.28    5.32
   0   2  12  164.71    4.44
   0   2  12  119.43    2.55
   0   2  12  152.48    4.44
   0  -2 -13  170.72    2.50
   0  -2 -13  219.61    5.18
   0  -2 -13  171.28    4.77
   0  -2 -13  197.62    5.93
   0  -2  13  210.40    5.09
   0  -2  13  215.72    5.14
   0  -2  13  206.69    3.56
   0   2 -13  440.05    6.20
   0   2 -13  464.35    7.27
   0   2  13  220.35    6.25
   0   2  13  338.07    6.16
   0   2  13  238.31    3.52
   0   2  13  301.31    5.93
   0  -2 -14   30.04    3.06
   0  -2 -14   25.65    3.24
   0  -2 -14   26.94    3.24
   0  -2  14   27.27    3.24
   0  -2  14   28.93    2.96
   0  -2  14   25.28    2.41
   0   2 -14   31.20    3.66
   0   2 -14   44.44    3.80
   0   2 -14   64.35    4.35
   0   2  14   25.60    3.93
   0   2  14   40.88    3.52
   0   2  14   28.15    2.31
   0   2  14   31.94    3.56
   0  -2 -15   16.39    3.47
   0  -2 -15   26.15    3.52
   0  -2  15   24.95    2.96
   0  -2  15   21.71    2.87
   0  -2  15   17.36    2.18
   0   2 -15   35.27    3.75
   0   2 -15   41.43    4.12
   0   2 -15   54.49    4.26
   0   2  15   17.68    3.84
   0   2  15   36.76    3.89
   0   2  15   16.66    2.22
   0   2  15   35.78    4.12
   0  -2 -16   60.60    5.28
   0  -2 -16   38.24    4.26
   0  -2 -16   40.13    4.91
   0  -2  16   58.93    4.40
   0  -2  16   49.25    4.21
   0   2 -16   75.64    5.46
   0   2 -16   96.66    5.14
   0   2 -16  106.47    7.87
   0   2  16   52.87    6.25
   0   2  16   65.69    4.54
   0   2  16   83.09    5.60
   0  -2 -17   -0.09    3.29
   0  -2 -17    1.06    3.33
   0  -2 -17    7.82    5.51
   0  -2  17    6.02    2.96
   0  -2  17    0.09    2.87
   0   2 -17    4.54    3.56
   0   2 -17    1.34    3.06
   0   2 -17    7.59    3.98
   0   2  17    6.94    4.03
   0   2  17   -2.78    2.87
   0   2  17    5.23    3.38
   0  -3   0    0.14    0.74
   0  -3   0    1.67    1.02
   0  -3   0   -0.05    0.60
   0  -3   0   -0.23    0.74
   0  -3   0    1.11    0.65
   0  -3   0    1.30    0.88
   0  -3   0    0.23    0.69
   0   3   0   -0.74    0.56
   0   3   0    0.28    0.69
   0  -3  -1   33.84    1.62
   0  -3  -1   38.19    2.13
   0  -3  -1   13.79    1.25
   0  -3  -1   15.88    1.44
   0  -3  -1   20.83    1.16
   0  -3  -1   17.73    1.48
   0  -3  -1   29.02    1.53
   0  -3   1   42.17    1.94
   0  -3   1   45.88    1.99
   0  -3   1   14.54    1.16
   0  -3   1   16.85    1.34
   0  -3   1   25.41    1.39
   0  -3   1   21.94    1.57
   0  -3   1   24.30    1.39
   0   3  -1   19.77    1.44
   0   3  -1   29.77    1.57
   0   3   1   45.41    2.50
   0   3   1   14.91    1.20
   0   3   1   19.86    1.25
   0   3   1   26.94    1.53
   0  -3  -2  969.95    5.97
   0  -3  -2  963.84    7.31
   0  -3  -2  589.20    5.65
   0  -3  -2  721.96    4.81
   0  -3  -2  587.90    5.37
   0  -3  -2  949.35    6.90
   0  -3   2 1023.09    7.27
   0  -3   2  980.23    6.39
   0  -3   2  556.29    4.81
   0  -3   2  622.95    5.46
   0  -3   2  804.36    6.20
   0  -3   2  688.08    6.02
   0  -3   2  818.90    5.56
   0   3  -2  959.39    6.39
   0   3  -2  645.26    5.60
   0   3  -2  705.07    6.11
   0   3  -2  806.77    5.51
   0   3   2  987.45    7.59
   0   3   2  664.38    5.23
   0   3   2  729.05    4.81
   0   3   2  927.41    6.85
   0  -3  -3  355.98    3.56
   0  -3  -3  199.66    4.07
   0  -3  -3  218.40    3.47
   0  -3   3  417.55    5.00
   0  -3   3  214.42    3.19
   0  -3   3  315.52    4.17
   0  -3   3  252.85    3.84
   0  -3   3  301.27    3.38
   0   3  -3  392.78    4.12
   0   3  -3  246.27    3.52
   0   3  -3  256.32    3.84
   0   3   3  266.04    3.47
   0   3   3  282.01    2.92
   0   3   3  334.55    3.24
   0   3   3  372.42    4.63
   0  -3  -4   11.48    1.25
   0  -3  -4    8.98    1.67
   0  -3  -4    6.25    1.30
   0  -3  -4    3.80    1.06
   0  -3   4   14.77    1.76
   0  -3   4    4.95    1.06
   0  -3   4    6.43    0.88
   0   3  -4   10.92    1.39
   0   3  -4    5.60    1.20
   0   3   4    7.96    1.06
   0   3   4    6.71    0.83
   0   3   4    6.76    0.97
   0   3   4    6.85    1.62
   0  -3  -5   46.75    1.53
   0  -3  -5   50.60    2.59
   0  -3  -5   33.79    2.13
   0  -3  -5   33.28    1.94
   0  -3   5   54.67    2.50
   0  -3   5   30.41    1.67
   0  -3   5   43.79    2.27
   0  -3   5   35.92    1.44
   0   3  -5   52.22    2.08
   0   3  -5   39.53    1.94
   0   3  -5   44.21    2.50
   0   3   5   38.10    1.57
   0   3   5   46.34    1.85
   0   3   5   43.38    1.20
   0   3   5   42.08    1.44
   0   3   5   55.83    2.45
   0  -3  -6   94.71    1.81
   0  -3  -6  115.91    3.43
   0  -3  -6   89.71    3.15
   0  -3   6  145.22    3.75
   0  -3   6   77.26    3.06
   0  -3   6  109.29    3.15
   0  -3   6   89.90    1.90
   0   3  -6  136.79    3.75
   0   3  -6  136.84    2.41
   0   3  -6  111.75    2.36
   0   3  -6  108.92    2.78
   0   3  -6  129.25    3.47
   0   3   6  101.29    1.99
   0   3   6  124.43    2.87
   0   3   6  110.59    1.71
   0   3   6  101.24    1.85
   0   3   6  128.46    3.24
   0  -3  -7   53.98    1.48
   0  -3  -7   64.53    3.06
   0  -3  -7   41.71    2.50
   0  -3  -7   40.51    2.50
   0  -3   7   79.81    3.24
   0  -3   7   44.58    2.27
   0  -3   7   61.71    2.78
   0  -3   7   49.62    1.53
   0   3  -7   66.98    2.92
   0   3  -7   71.24    1.90
   0   3  -7   57.08    1.76
   0   3  -7   65.18    2.55
   0   3  -7   62.91    2.73
   0   3   7   64.07    1.62
   0   3   7   76.52    2.64
   0   3   7   74.02    1.48
   0   3   7   52.40    1.39
   0   3   7   67.77    2.87
   0  -3  -8   52.77    1.44
   0  -3  -8   76.06    3.75
   0  -3  -8   47.36    2.68
   0  -3  -8   45.27    2.78
   0  -3   8   67.86    3.10
   0  -3   8   46.48    2.45
   0  -3   8   60.09    2.96
   0  -3   8   50.04    1.67
   0   3  -8   76.84    3.19
   0   3  -8   85.82    1.76
   0   3  -8   65.78    1.62
   0   3  -8   71.52    3.43
   0   3  -8   90.08    3.52
   0   3   8   76.15    1.71
   0   3   8   81.94    2.82
   0   3   8   73.84    1.57
   0   3   8   50.55    1.44
   0   3   8   77.63    3.10
   0  -3  -9  245.86    2.36
   0  -3  -9  345.75    6.02
   0  -3  -9  214.38    4.68
   0  -3  -9  258.45    2.64
   0  -3  -9  229.19    4.68
   0  -3   9  405.51    6.30
   0  -3   9  241.78    4.63
   0  -3   9  299.78    5.37
   0  -3   9  246.60    3.06
   0   3  -9  426.95    6.48
   0   3  -9  431.48    5.56
   0   3  -9  392.65    6.02
   0   3   9  449.21    3.06
   0   3   9  422.04    5.74
   0   3   9  376.44    3.01
   0   3   9  248.86    2.55
   0   3   9  380.80    6.02
   0  -3 -10   56.66    1.39
   0  -3 -10   78.37    4.12
   0  -3 -10   46.94    3.43
   0  -3 -10   55.04    3.43
   0  -3  10   58.93    3.06
   0  -3  10   76.29    3.47
   0  -3  10   58.70    1.94
   0   3 -10  118.88    3.75
   0   3  10   81.70    5.28
   0   3  10  108.00    3.56
   0   3  10   90.55    1.85
   0   3  10   99.43    4.49
   0  -3 -11  328.62    7.08
   0  -3 -11  259.97    5.74
   0  -3 -11  216.23    5.05
   0  -3  11  378.62    6.53
   0  -3  11  298.49    5.88
   0  -3  11  237.52    3.29
   0   3 -11  393.53    6.67
   0   3 -11  571.75    6.90
   0   3 -11  469.72    7.13
   0   3  11  300.85    7.41
   0   3  11  466.30    6.67
   0   3  11  363.53    3.24
   0   3  11  399.54    6.71
   0  -3 -12    8.93    2.64
   0  -3 -12    6.43    2.31
   0  -3 -12   10.46    2.64
   0  -3  12   15.09    2.68
   0  -3  12    8.75    2.13
   0  -3  12   12.55    2.41
   0  -3  12   10.18    1.30
   0   3 -12   15.69    3.06
   0   3 -12   25.23    2.82
   0   3 -12   25.23    3.06
   0   3  12   13.42    3.80
   0   3  12   18.15    2.41
   0   3  12   15.55    2.55
   0  -3 -13   16.99    3.06
   0  -3 -13   21.99    3.06
   0  -3 -13   22.41    3.19
   0  -3  13   26.06    2.87
   0  -3  13   32.40    3.52
   0   3 -13   49.67    4.77
   0   3 -13   73.74    4.21
   0   3 -13   53.19    4.44
   0   3  13   22.82    4.21
   0   3  13   49.39    3.61
   0   3  13   38.75    3.93
   0  -3 -14   21.29    3.29
   0  -3 -14   18.66    3.24
   0  -3 -14   16.06    3.19
   0  -3  14   19.03    2.87
   0  -3  14   14.49    2.96
   0   3 -14   20.14    3.43
   0   3 -14   47.73    4.26
   0   3 -14   38.19    4.17
   0   3  14   19.35    4.17
   0   3  14   26.29    3.10
   0   3  14   26.29    3.29
   0  -3 -15   10.92    3.52
   0  -3 -15   13.89    3.52
   0  -3  15    9.91    2.78
   0  -3  15   14.95    5.09
   0   3 -15   16.39    4.07
   0   3 -15   29.26    3.56
   0   3 -15   33.19    6.62
   0   3  15    9.58    4.21
   0   3  15   21.34    3.06
   0   3  15   17.91    3.93
   0  -3 -16    7.82    3.93
   0  -3 -16    8.43    3.52
   0  -3 -16    6.71    3.98
   0  -3  16    3.47    2.87
   0  -3  16    5.60    3.15
   0   3 -16   11.43    4.95
   0   3 -16   12.59    3.61
   0   3 -16    7.55    3.43
   0   3  16    5.60    4.49
   0   3  16   10.51    3.19
   0   3  16   10.23    3.66
   0  -4   0  104.67    3.84
   0  -4   0   56.48    2.31
   0  -4   0   54.99    2.87
   0  -4   0   71.06    2.50
   0  -4   0   58.56    2.64
   0  -4   0   95.08    3.15
   0   4   0  101.29    4.07
   0   4   0   59.62    2.41
   0   4   0   59.99    3.10
   0   4   0   93.23    2.96
   0  -4  -1   29.44    3.19
   0  -4  -1   17.87    2.13
   0  -4  -1   18.98    1.81
   0  -4  -1   15.60    1.81
   0  -4  -1   26.06    2.22
   0  -4   1   21.57    2.27
   0  -4   1   25.55    2.55
   0  -4   1   16.06    1.85
   0  -4   1   17.96    2.08
   0  -4   1   24.03    2.36
   0  -4   1   17.22    2.08
   0   4  -1   29.07    2.73
   0   4  -1   13.66    1.62
   0   4  -1   19.63    2.13
   0   4   1   24.26    2.82
   0   4   1   14.67    1.57
   0   4   1   18.24    1.67
   0   4   1   27.96    2.22
   0  -4  -2  235.39    3.89
   0  -4  -2  236.97    5.05
   0  -4  -2  143.74    3.75
   0  -4  -2  171.97    3.06
   0  -4  -2  137.58    3.47
   0  -4   2  246.09    4.54
   0  -4   2  250.25    4.91
   0  -4   2  133.23    3.75
   0  -4   2  150.12    3.61
   0  -4   2  187.94    4.03
   0  -4   2  156.79    3.75
   0  -4   2  217.57    3.70
   0   4  -2  271.32    5.23
   0   4  -2  152.07    3.61
   0   4  -2  160.54    3.89
   0   4  -2  222.29    3.84
   0   4   2  225.07    5.28
   0   4   2  157.90    3.33
   0   4   2  170.77    3.06
   0   4   2  228.03    4.31
   0  -4  -3   80.08    2.64
   0  -4  -3   74.48    3.84
   0  -4  -3   54.62    3.15
   0  -4  -3   42.96    2.55
   0  -4   3   75.73    3.19
   0  -4   3   37.59    2.27
   0  -4   3   52.36    2.64
   0  -4   3   46.06    2.68
   0   4  -3   64.85    3.56
   0   4  -3   43.93    2.68
   0   4  -3   44.39    2.68
   0   4  -3   62.91    2.36
   0   4   3   85.50    4.44
   0   4   3   52.73    1.94
   0   4   3   72.59    3.06
   0  -4  -4  130.22    2.87
   0  -4  -4  136.42    4.35
   0  -4  -4   83.88    3.47
   0  -4  -4   73.74    3.24
   0  -4   4  139.20    3.98
   0  -4   4   72.77    2.78
   0  -4   4   96.61    3.29
   0  -4   4  109.02    3.75
   0  -4   4  108.88    2.64
   0   4  -4  148.13    3.84
   0   4  -4   91.75    3.01
   0   4  -4  104.99    3.75
   0   4  -4  110.27    2.73
   0   4   4  132.16    4.81
   0   4   4  101.84    3.06
   0   4   4   93.14    2.18
   0   4   4  135.40    3.89
   0  -4  -5   61.24    2.27
   0  -4  -5   70.36    3.66
   0  -4  -5   44.58    3.15
   0  -4  -5   40.60    2.96
   0  -4   5   75.78    3.43
   0  -4   5   36.29    2.45
   0  -4   5   55.32    2.96
   0  -4   5   53.79    2.08
   0   4  -5   71.20    3.56
   0   4  -5   84.99    3.24
   0   4  -5   49.81    2.87
   0   4  -5   54.62    3.29
   0   4   5   77.12    4.07
   0   4   5   55.13    2.45
   0   4   5   54.16    1.81
   0   4   5   70.18    3.19
   0  -4  -6   92.35    2.45
   0  -4  -6   69.39    3.89
   0  -4  -6   57.54    3.29
   0  -4   6   60.92    2.92
   0  -4   6   81.43    3.43
   0  -4   6   87.68    2.45
   0   4  -6  124.85    5.05
   0   4  -6  111.01    3.24
   0   4  -6   84.20    3.33
   0   4  -6   86.70    3.52
   0   4   6   97.91    3.10
   0   4   6   82.12    1.99
   0   4   6  109.34    3.89
   0  -4  -7  103.28    2.50
   0  -4  -7  122.35    4.81
   0  -4  -7   79.81    3.89
   0  -4  -7   67.82    3.56
   0  -4   7  135.17    4.35
   0  -4   7   71.66    3.24
   0  -4   7   93.88    4.54
   0  -4   7   87.49    2.45
   0   4  -7  133.37    4.58
   0   4  -7  133.74    3.33
   0   4  -7  102.54    3.61
   0   4   7  128.51    5.51
   0   4   7  121.75    3.47
   0   4   7  105.22    2.04
   0   4   7  128.51    4.21
   0  -4  -8    0.19    1.06
   0  -4  -8    0.05    2.31
   0  -4  -8   -0.32    1.94
   0  -4  -8   -2.31    1.99
   0  -4   8    0.14    2.13
   0  -4   8    1.44    1.76
   0  -4   8    0.88    1.94
   0  -4   8    1.48    1.11
   0   4  -8    0.51    2.31
   0   4  -8   -1.30    1.53
   0   4  -8   -0.42    1.85
   0   4  -8   -0.05    2.27
   0   4   8    0.97    2.87
   0   4   8    3.33    1.57
   0   4   8    2.18    0.88
   0   4   8    2.73    1.94
   0  -4  -9   47.54    4.03
   0  -4  -9   39.63    3.43
   0  -4  -9   37.87    4.12
   0  -4   9   70.09    4.35
   0  -4   9   44.53    4.17
   0  -4   9   50.74    3.10
   0  -4   9   34.26    1.99
   0   4  -9   65.27    4.26
   0   4  -9   57.59    3.52
   0   4  -9   67.31    4.21
   0   4   9   57.03    5.37
   0   4   9   67.82    3.24
   0   4   9   63.37    3.75
   0  -4 -10    7.04    2.96
   0  -4 -10    7.59    2.68
   0  -4 -10    1.99    2.18
   0  -4  10   12.50    2.96
   0  -4  10    8.10    2.27
   0  -4  10    9.35    2.31
   0   4 -10   10.05    3.06
   0   4 -10   12.50    2.41
   0   4 -10   12.64    2.87
   0   4  10   12.17    3.80
   0   4  10   12.04    2.18
   0   4  10   13.56    2.55
   0  -4 -11   13.52    3.52
   0  -4 -11   12.17    2.87
   0  -4 -11   13.19    2.73
   0  -4  11   17.54    3.33
   0  -4  11   11.25    2.50
   0  -4  11   13.38    2.73
   0   4 -11   19.49    3.47
   0   4 -11   15.28    2.87
   0   4 -11   24.81    3.61
   0   4  11   15.09    4.03
   0   4  11   21.71    2.59
   0   4  11   24.67    3.01
   0  -4 -12   25.69    4.03
   0  -4 -12   20.55    3.24
   0  -4 -12   17.45    3.19
   0  -4  12   32.36    3.66
   0  -4  12   16.62    2.78
   0  -4  12   30.83    3.84
   0   4 -12   41.01    4.58
   0   4 -12   51.06    4.12
   0   4 -12   45.09    4.35
   0   4  12   23.19    4.77
   0   4  12   44.35    3.56
   0   4  12   35.69    3.66
   0  -4 -13    4.03    3.75
   0  -4 -13    3.19    3.06
   0  -4 -13    2.59    2.87
   0  -4  13    5.79    2.73
   0  -4  13   11.43    3.06
   0   4 -13    6.85    5.18
   0   4 -13   11.11    3.19
   0   4 -13    6.16    5.74
   0   4  13    4.21    5.23
   0   4  13   11.71    3.01
   0   4  13   11.20    3.47
   0  -4 -14   10.97    4.81
   0  -4 -14   14.03    3.84
   0  -4 -14    9.91    3.43
   0  -4  14    8.10    3.61
   0  -4  14   15.69    3.33
   0   4 -14   18.38    4.49
   0   4 -14   34.77    3.98
   0   4 -14   24.49    4.35
   0   4  14   12.36    5.37
   0   4  14   21.80    3.19
   0   4  14   20.88    3.66
   0  -5   0   -0.37    2.04
   0  -5   0    0.60    1.67
   0  -5   0    1.16    2.13
   0  -5   0    0.69    1.81
   0   5   0    8.43    5.28
   0   5   0   -1.25    1.30
   0   5   0    1.20    2.41
   0   5   0   -1.44    1.71
   0   5   0   -1.02    1.67
   0  -5  -1   62.35    3.93
   0  -5  -1   64.35    5.37
   0  -5  -1   47.31    3.47
   0  -5  -1   50.04    3.10
   0  -5   1   66.29    4.26
   0  -5   1   46.71    3.06
   0  -5   1   51.75    3.47
   0  -5   1   39.53    4.17
   0   5  -1   62.49    4.81
   0   5  -1   37.50    2.82
   0   5  -1   47.87    3.47
   0   5  -1   53.79    5.74
   0   5  -1   59.16    3.56
   0   5   1   73.97    5.32
   0   5   1   40.09    2.55
   0   5   1   40.23    3.33
   0   5   1   49.81    3.01
   0   5   1   64.21    3.38
   0  -5  -2   80.73    5.14
   0  -5  -2   46.66    3.93
   0  -5  -2   55.97    3.01
   0  -5  -2   64.62    6.16
   0  -5   2   44.30    3.10
   0  -5   2   64.35    3.61
   0  -5   2   63.84    4.03
   0  -5   2   70.22    3.47
   0   5  -2   77.58    5.14
   0   5  -2   45.78    3.01
   0   5  -2   56.57    3.84
   0   5  -2   72.86    3.61
   0   5   2   74.02    5.60
   0   5   2   53.74    3.01
   0   5   2   55.18    3.06
   0   5   2   91.01    4.35
   0  -5  -3   15.69    2.41
   0  -5  -3   15.23    3.19
   0  -5  -3   11.71    2.73
   0  -5   3   11.30    2.55
   0  -5   3    7.96    2.13
   0  -5   3   11.90    3.01
   0  -5   3   10.69    2.45
   0  -5   3   13.56    2.18
   0   5  -3   10.51    2.96
   0   5  -3   16.99    3.43
   0   5  -3    7.27    3.70
   0   5  -3   10.92    2.31
   0   5  -3   10.92    2.22
   0   5   3   14.54    3.80
   0   5   3    7.96    1.85
   0   5   3   15.97    2.36
   0  -5  -4   30.32    3.29
   0  -5  -4   21.29    3.43
   0  -5  -4   17.82    2.87
   0  -5  -4   14.35    4.31
   0  -5   4   31.66    3.38
   0  -5   4   17.68    2.27
   0  -5   4   22.45    2.68
   0  -5   4   26.94    3.15
   0  -5   4   28.56    2.82
   0   5  -4   26.15    3.24
   0   5  -4   27.45    3.47
   0   5  -4   22.41    4.07
   0   5  -4   22.59    3.01
   0   5  -4   32.13    2.82
   0   5   4   33.28    4.26
   0   5   4   25.04    2.87
   0   5   4   20.32    2.22
   0   5   4   35.04    3.33
   0  -5  -5   12.17    2.22
   0  -5  -5    6.16    3.10
   0  -5  -5   10.88    2.59
   0  -5  -5    5.14    2.50
   0  -5   5   12.64    3.10
   0  -5   5    7.50    1.90
   0  -5   5    8.01    2.45
   0  -5   5    9.86    1.90
   0   5  -5    4.21    2.82
   0   5  -5   12.87    3.19
   0   5  -5   15.60    2.82
   0   5  -5   12.13    2.04
   0   5   5   13.42    3.70
   0   5   5    7.50    1.81
   0   5   5    6.76    1.48
   0   5   5   12.13    2.50
   0  -5  -6   21.16    2.45
   0  -5  -6   21.85    3.66
   0  -5  -6   16.90    3.33
   0  -5  -6   20.37    3.01
   0  -5   6   27.54    3.61
   0  -5   6   12.73    2.36
   0  -5   6   18.10    2.82
   0  -5   6   25.28    2.87
   0   5  -6   29.40    3.89
   0   5  -6   27.40    3.33
   0   5  -6   23.38    3.19
   0   5  -6   18.56    2.31
   0   5   6   16.06    4.17
   0   5   6   26.25    2.73
   0   5   6   22.27    2.96
   0  -5  -7   25.23    4.07
   0  -5  -7   14.86    3.01
   0  -5  -7   14.12    3.06
   0  -5   7   24.03    3.61
   0  -5   7   11.53    2.41
   0  -5   7   16.29    2.82
   0   5  -7   33.89    4.17
   0   5  -7   16.90    2.73
   0   5  -7   22.54    3.19
   0   5   7   19.26    4.35
   0   5   7   25.51    3.19
   0  -5  -8   19.30    3.89
   0  -5  -8   10.55    3.01
   0  -5  -8    9.81    2.78
   0  -5   8   23.75    3.70
   0  -5   8    9.12    2.41
   0  -5   8   17.17    3.06
   0   5  -8   17.17    3.93
   0   5  -8   12.64    2.64
   0   5  -8   23.15    3.43
   0   5   8   17.13    4.49
   0   5   8   22.68    2.73
   0   5   8   21.43    3.29
   0  -5  -9    2.36    3.24
   0  -5  -9    4.07    2.92
   0  -5   9    9.86    3.56
   0  -5   9    1.67    2.22
   0  -5   9    2.73    2.73
   0   5  -9    4.31    5.74
   0   5  -9    2.50    2.64
   0   5  -9    4.03    3.24
   0   5   9    6.16    2.27
   0   5   9    6.43    2.92
   0  -5 -10   14.54    4.07
   0  -5 -10    9.49    3.29
   0  -5 -10   12.31    3.19
   0  -5  10   16.90    3.80
   0  -5  10   11.67    2.73
   0  -5  10   12.96    3.43
   0   5 -10   22.54    4.21
   0   5 -10   21.06    3.19
   0   5  10    7.68    4.91
   0   5  10   21.85    2.92
   0   5  10   27.68    3.61
   0  -5 -11    7.13    4.17
   0  -5 -11   11.30    3.98
   0  -5 -11    9.91    3.38
   0  -5  11   10.42    3.70
   0  -5  11    8.15    3.06
   0  -5  11    7.82    3.24
   0   5 -11    0.83    4.12
   0   5 -11    9.40    3.24
   0   5 -11   15.88    4.12
   0   5  11    2.59    4.68
   0   5  11   10.18    2.82
   0   5  11    2.92    3.15
   0  -6   0    3.56    2.87
   0  -6   0    1.67    3.10
   0  -6   0    4.49    2.59
   0  -6   0   -1.81    3.01
   0   6   0    6.62    3.66
   0   6   0    0.56    4.54
   0   6   0    2.82    2.18
   0   6   0    2.45    2.73
   0   6   0    2.31    2.45
   0   6   0    2.78    3.29
   0   6   0    3.24    2.45
   0  -6  -1   -1.16    2.87
   0  -6  -1    0.14    3.15
   0  -6  -1   -0.28    3.01
   0  -6  -1    2.45    3.06
   0  -6   1    2.31    3.01
   0  -6   1    1.06    2.92
   0  -6   1    0.65    2.27
   0  -6   1   -2.22    3.01
   0   6  -1   -1.57    3.56
   0   6  -1    0.65    4.35
   0   6  -1   -0.56    1.99
   0   6  -1   -0.97    2.92
   0   6  -1    2.36    2.50
   0   6  -1    1.39    3.15
   0   6  -1    3.29    2.68
   0   6   1   -3.10    3.15
   0   6   1    6.67    4.54
   0   6   1    1.62    2.04
   0   6   1    3.38    2.78
   0   6   1    1.76    2.55
   0   6   1    1.81    2.55
   0  -6  -2   -1.90    2.82
   0  -6  -2    3.47    3.15
   0  -6  -2    1.67    2.96
   0  -6   2    0.14    2.92
   0  -6   2    0.83    2.04
   0  -6   2    1.30    2.36
   0  -6   2    4.54    3.33
   0   6  -2    2.64    3.66
   0   6  -2   -5.14    4.12
   0   6  -2    0.83    2.04
   0   6  -2    3.89    3.15
   0   6  -2    3.24    2.78
   0   6  -2    5.09    3.06
   0   6  -2    5.37    2.64
   0   6   2    1.76    3.52
   0   6   2    9.81    4.68
   0   6   2   -0.97    1.99
   0   6   2    5.74    2.92
   0   6   2    0.51    2.27
   0   6   2    0.88    2.68
   0  -6  -3   28.75    4.03
   0  -6  -3   33.24    7.08
   0  -6  -3   14.72    4.12
   0  -6  -3   17.54    3.38
   0  -6   3   39.02    4.31
   0  -6   3   19.91    2.87
   0  -6   3   25.92    3.52
   0  -6   3   25.32    4.07
   0   6  -3   43.70    4.77
   0   6  -3   33.10    4.68
   0   6  -3   17.78    2.68
   0   6  -3   22.45    3.43
   0   6  -3   25.37    3.56
   0   6  -3   25.18    3.80
   0   6  -3   32.64    3.98
   0   6   3   28.33    7.78
   0   6   3   34.53    6.16
   0   6   3   21.25    2.73
   0   6   3   28.52    4.26
   0   6   3   29.81    3.89
   0  -6  -4    6.34    3.06
   0  -6  -4    4.68    5.00
   0  -6  -4    4.17    3.06
   0  -6   4    9.35    3.70
   0  -6   4    3.75    2.50
   0  -6   4    7.22    2.73
   0   6  -4   11.62    3.84
   0   6  -4    3.38    4.17
   0   6  -4    3.84    2.31
   0   6  -4    6.53    3.19
   0   6  -4    8.61    3.33
   0   6  -4    4.03    2.64
   0   6   4   -1.11    4.54
   0   6   4    9.63    7.73
   0   6   4    7.31    2.18
   0   6   4    4.44    3.15
   0  -6  -5    4.12    4.77
   0  -6  -5   -4.12    3.19
   0  -6  -5    0.42    3.29
   0  -6   5    2.27    2.27
   0  -6   5   -0.19    2.73
   0   6  -5    6.76    5.79
   0   6  -5    2.41    4.03
   0   6  -5   -1.02    2.22
   0   6  -5    4.35    3.10
   0   6   5   -1.06    5.42
   0   6   5    0.93    2.31
   0   6   5    6.25    5.28
  -1   0  18    4.77    3.01
  -1   0  18    6.16    2.82
  -1   0  18    2.55    2.64
   1   0 -18    2.78    3.29
   1   0 -18    7.18    4.07
  -1   0  17   28.28    3.33
  -1   0  17   28.75    3.24
  -1   0  17   36.06    3.66
   1   0 -17   36.89    3.66
   1   0 -17   33.19    3.98
   1   0 -17   42.17    4.95
  -1   0  16   -2.64    2.13
  -1   0  16   -0.69    2.04
  -1   0  16    0.93    2.22
   1   0 -16    0.32    1.99
   1   0 -16    5.05    2.87
   1   0 -16    0.46    2.73
  -1   0  15   33.28    3.38
  -1   0  15   31.43    3.33
  -1   0  15   37.22    3.15
   1   0 -15   39.44    3.01
   1   0 -15   21.94    2.18
   1   0 -15   29.44    3.38
   1   0 -15   49.35    4.07
  -1   0  14   11.06    2.18
  -1   0  14    9.17    1.90
  -1   0  14   10.92    1.94
   1   0 -14    8.70    1.67
   1   0 -14    4.54    1.53
   1   0 -14   15.42    3.01
  -1   0  13   -0.42    1.62
  -1   0  13    0.93    1.62
   1   0 -13    1.25    1.20
   1   0 -13   -0.97    1.20
   1   0 -13   -1.30    1.67
   1   0 -13    0.05    1.90
  -1   0  12   73.56    3.10
  -1   0  12   59.30    2.64
  -1   0  12   73.33    2.36
   1   0 -12   77.91    2.31
   1   0 -12   48.79    2.08
   1   0 -12   74.34    3.10
   1   0 -12  110.96    3.47
  -1   0  11  185.81    3.80
  -1   0  11  141.28    3.43
  -1   0  11  179.70    3.10
   1   0 -11  176.28    2.92
   1   0 -11  116.75    2.50
   1   0 -11  203.45    4.07
   1   0 -11  283.49    4.54
  -1   0  10  324.60    3.56
  -1   0  10  392.37    5.14
  -1   0  10  316.91    4.35
  -1   0  10  341.49    3.80
   1   0 -10  350.52    3.66
   1   0 -10  268.49    3.38
   1   0 -10  442.50    5.42
   1   0 -10  680.95    7.27
  -1   0   9   93.93    1.99
  -1   0   9  123.32    2.87
  -1   0   9   88.09    2.31
  -1   0   9  101.33    2.08
   1   0  -9   99.30    1.99
   1   0  -9   75.96    1.90
   1   0  -9  138.32    3.15
   1   0  -9  173.13    3.19
  -1   0   8  356.63    3.24
  -1   0   8  500.32    4.95
  -1   0   8  379.22    4.07
  -1   0   8  387.83    3.52
   1   0  -8  377.93    3.33
   1   0  -8  305.06    3.10
   1   0  -8  325.34    3.33
   1   0  -8  582.35    5.32
   1   0  -8  682.66    5.42
  -1   0   7  117.07    1.81
  -1   0   7  142.39    2.36
  -1   0   7  167.95    2.78
  -1   0   7  141.98    2.41
  -1   0   7  127.95    1.94
  -1   0   7   99.53    1.85
   1   0  -7  101.61    1.85
   1   0  -7  114.39    1.99
   1   0  -7  222.85    3.24
   1   0  -7  228.91    2.96
   1   0  -7   97.77    1.81
  -1   0   6  865.98    4.26
  -1   0   6 1333.20    5.88
  -1   0   6 1425.04    7.04
  -1   0   6 1116.65    6.06
  -1   0   6 1108.82    5.74
  -1   0   6 1006.61    4.77
  -1   0   6  851.81    4.35
   1   0  -6  814.32    4.17
   1   0  -6 1040.78    5.14
   1   0  -6 1881.48    8.24
   1   0  -6 1764.31    7.27
   1   0  -6  846.58    4.35
  -1   0   5   38.93    0.97
  -1   0   5   38.28    1.34
  -1   0   5   36.48    1.11
  -1   0   5   37.40    1.48
  -1   0   5   37.87    1.20
  -1   0   5   26.53    1.06
  -1   0   5   29.35    0.88
  -1   0   5   20.28    0.83
   1   0  -5   25.23    0.93
   1   0  -5   32.45    1.06
   1   0  -5   27.08    1.11
   1   0  -5   55.60    1.48
   1   0  -5   34.58    1.25
   1   0  -5   52.87    1.30
  -1   0   4  186.28    1.71
  -1   0   4  343.16    2.73
  -1   0   4  308.72    2.68
  -1   0   4  362.74    3.06
  -1   0   4  310.80    2.78
  -1   0   4  226.00    2.08
  -1   0   4  208.91    1.81
  -1   0   4  190.17    1.76
   1   0  -4  194.66    1.76
   1   0  -4  308.72    2.55
   1   0  -4  248.54    2.41
   1   0  -4  473.19    3.52
   1   0  -4  280.20    2.64
   1   0  -4  347.88    2.59
   1   0  -4  204.24    1.81
  -1   0   3  124.94    1.34
  -1   0   3  200.07    1.99
  -1   0   3  152.58    1.67
  -1   0   3  198.27    2.04
  -1   0   3  170.82    1.90
  -1   0   3  115.17    1.30
  -1   0   3  109.66    1.20
   1   0  -3  118.88    1.30
   1   0  -3  201.14    1.94
   1   0  -3  132.53    1.57
   1   0  -3  280.53    2.41
   1   0  -3  156.51    1.81
   1   0  -3  152.35    1.48
   1   0  -3  111.01    1.20
  -1   0   2  165.45    1.44
  -1   0   2  229.75    1.99
  -1   0   2  119.80    1.30
  -1   0   2  195.21    1.76
  -1   0   2  179.52    1.76
  -1   0   2  123.83    1.06
  -1   0   2  110.04    1.16
   1   0  -2  161.00    1.44
   1   0  -2  222.76    1.94
   1   0  -2  113.14    1.25
   1   0  -2  238.86    1.94
   1   0  -2  142.67    1.57
   1   0  -2  130.26    1.11
   1   0  -2   92.68    0.97
   1   0  -2  104.06    1.11
  -1   0   1  209.79    1.67
  -1   0   1  302.56    2.13
  -1   0   1  155.31    1.30
  -1   0   1  146.84    1.25
  -1   0   1  227.48    1.57
  -1   0   1  213.54    1.76
  -1   0   1  142.95    1.02
  -1   0   1  200.17    1.53
   1   0  -1  220.07    1.71
   1   0  -1  312.98    2.18
   1   0  -1  147.86    1.25
   1   0  -1  152.86    1.25
   1   0  -1  266.13    1.71
   1   0  -1  205.86    1.71
   1   0  -1  146.51    1.06
   1   0  -1  189.89    1.48
  -1   0   0    1.62    0.28
  -1   0   0    0.74    0.23
  -1   0   0    0.88    0.19
  -1   0   0    1.57    0.28
  -1   0   0    1.25    0.23
  -1   0   0    1.99    0.32
   1   0   0    1.53    0.28
   1   0   0    5.00    0.51
   1   0   0    0.88    0.19
   1   0   0    2.04    0.23
   1   0   0    0.60    0.23
   1   0   0    1.25    0.23
  -1   0  -1 5744.80   23.42
  -1   0  -1 6425.28   19.77
  -1   0  -1 4897.66   18.66
  -1   0  -1 3387.90   12.41
  -1   0  -1 4446.36   15.88
  -1   0  -1 4457.47   16.06
  -1   0  -1 5693.88   19.58
  -1   0  -1 7064.11   24.12
   1   0   1 6596.56   25.55
   1   0   1 6610.45   20.78
   1   0   1 4138.94   17.87
   1   0   1 3503.91   12.68
   1   0   1 4518.16   17.87
   1   0   1 6763.21   23.47
   1   0   1 6129.02   24.95
  -1   0  -2  842.14    4.07
  -1   0  -2  759.41    3.29
  -1   0  -2  767.70    3.66
  -1   0  -2  474.07    2.18
  -1   0  -2  554.11    2.82
  -1   0  -2  583.23    2.87
  -1   0  -2  843.48    3.98
  -1   0  -2  996.98    4.58
   1   0   2  924.54    4.26
   1   0   2  779.83    3.33
   1   0   2  618.46    3.29
   1   0   2  586.33    2.45
   1   0   2  528.05    2.73
   1   0   2 1186.92    4.68
   1   0   2  869.50    4.21
  -1   0  -3 1542.07    5.97
  -1   0  -3 1280.89    4.40
  -1   0  -3 1791.58    6.30
  -1   0  -3  981.43    3.75
  -1   0  -3 1160.76    4.44
  -1   0  -3 1647.80    6.30
  -1   0  -3 2018.27    6.94
   1   0   3 1857.78    6.48
   1   0   3 1365.05    4.54
   1   0   3 1283.25    5.37
   1   0   3 1471.10    5.18
   1   0   3  998.19    4.12
   1   0   3 2422.54    7.55
   1   0   3 1650.76    6.34
  -1   0  -4 1678.49    6.67
  -1   0  -4 1305.70    4.68
  -1   0  -4 1969.20    7.36
  -1   0  -4 1143.68    4.68
  -1   0  -4 1356.72    5.23
  -1   0  -4 1959.25    7.64
  -1   0  -4 2153.44    7.78
   1   0   4 1957.26    7.13
   1   0   4 1418.52    4.86
   1   0   4 1385.88    4.81
   1   0   4 1476.15    6.43
   1   0   4 1835.83    5.88
   1   0   4 1136.60    4.81
   1   0   4 2716.02    8.89
   1   0   4 1734.69    7.13
  -1   0  -5   44.49    1.39
  -1   0  -5   27.73    1.02
  -1   0  -5   28.98    1.16
  -1   0  -5   45.64    1.48
   1   0   5   49.07    1.67
   1   0   5   32.27    1.20
   1   0   5   29.77    1.11
   1   0   5   48.93    1.39
   1   0   5   26.57    1.02
   1   0   5   46.99    1.48
  -1   0  -6   11.76    1.06
  -1   0  -6    8.10    0.88
  -1   0  -6    9.44    1.06
  -1   0  -6   12.73    1.30
   1   0   6   15.60    1.16
   1   0   6    7.18    0.83
   1   0   6    8.89    1.02
   1   0   6   14.58    1.20
   1   0   6    8.19    0.83
   1   0   6   13.75    1.20
  -1   0  -7  139.66    2.50
  -1   0  -7  102.67    2.08
  -1   0  -7  163.69    3.06
   1   0   7  130.31    2.08
   1   0   7  105.27    1.99
   1   0   7  124.71    2.59
   1   0   7   98.28    1.99
   1   0   7  150.03    2.73
  -1   0  -8   83.79    2.18
  -1   0  -8   58.14    1.85
  -1   0  -8  101.61    2.82
   1   0   8   66.89    1.90
   1   0   8   58.37    1.85
   1   0   8   76.15    2.36
   1   0   8   58.23    1.71
   1   0   8   88.46    2.36
  -1   0  -9  645.12    5.65
  -1   0  -9  491.80    4.91
  -1   0  -9  717.71    6.80
   1   0   9  517.54    4.07
   1   0   9  430.10    3.75
   1   0   9  578.37    6.06
   1   0   9  465.28    4.58
   1   0   9  696.55    6.20
  -1   0 -10  227.43    3.70
  -1   0 -10  161.79    3.29
  -1   0 -10  238.82    4.40
   1   0  10  160.08    2.68
   1   0  10  184.43    3.93
   1   0  10  151.42    3.01
   1   0  10  221.00    4.12
  -1   0 -11   98.97    3.80
  -1   0 -11   83.42    3.06
  -1   0 -11  115.27    3.66
   1   0  11   79.53    2.45
   1   0  11   95.31    3.33
   1   0  11   76.61    2.55
   1   0  11  108.42    3.33
  -1   0 -12    0.56    1.62
  -1   0 -12   -0.60    1.44
  -1   0 -12   -1.16    1.62
   1   0  12    1.99    1.39
   1   0  12    3.10    1.62
   1   0  12   -0.51    1.48
   1   0  12    0.32    1.85
  -1   0 -13   12.50    2.18
  -1   0 -13   13.42    2.27
  -1   0 -13   10.69    2.27
   1   0  13   12.78    1.76
   1   0  13   12.50    1.85
   1   0  13    8.47    1.81
   1   0  13   13.61    2.13
  -1   0 -14   14.26    2.50
  -1   0 -14    9.03    2.27
  -1   0 -14   16.66    2.96
   1   0  14    9.30    1.85
   1   0  14   13.79    2.36
   1   0  14   10.18    2.08
   1   0  14   15.60    2.50
  -1   0 -15   26.71    2.87
  -1   0 -15   24.07    3.33
  -1   0 -15   27.59    3.24
   1   0  15   24.35    2.87
   1   0  15   20.88    2.31
   1   0  15   35.64    3.33
  -1   0 -16   48.88    4.35
  -1   0 -16   62.26    4.49
   1   0  16   58.05    4.17
   1   0  16   47.45    3.66
   1   0  16   61.85    4.58
  -1   0 -17   21.80    3.19
  -1   0 -17   14.44    3.29
  -1   0 -17   31.52    4.31
   1   0  17   15.88    3.15
   1   0  17   14.17    2.73
   1   0  17   21.80    3.33
  -1  -1  18   18.19    3.38
  -1  -1  18   19.77    3.15
  -1   1  18   20.37    3.47
  -1   1  18   14.17    2.64
  -1   1  18   23.15    3.29
   1  -1 -18    3.24    3.47
   1  -1 -18   18.93    4.68
   1  -1 -18   16.57    4.07
   1   1 -18   23.61    3.52
   1   1 -18   17.45    3.56
   1   1 -18   26.15    4.63
  -1  -1  17   98.14    4.91
  -1  -1  17   87.49    4.49
  -1   1  17  117.58    5.14
  -1   1  17  122.49    4.77
   1  -1 -17   77.54    4.44
   1  -1 -17   75.09    4.86
   1  -1 -17   94.43    5.42
   1   1 -17  130.08    5.00
   1   1 -17  119.48    5.56
   1   1 -17  171.23    6.02
  -1  -1  16   44.39    3.89
  -1  -1  16   33.56    3.47
  -1  -1  16   48.93    3.06
  -1   1  16   54.58    4.03
  -1   1  16   53.00    3.61
  -1   1  16   63.65    4.26
   1  -1 -16   39.67    4.21
   1  -1 -16   39.67    3.98
   1  -1 -16   50.60    4.54
   1   1 -16   66.71    4.26
   1   1 -16   66.75    4.68
   1   1 -16   96.15    5.23
  -1  -1  15  205.40    5.28
  -1  -1  15  190.12    4.95
  -1  -1  15  220.67    4.12
  -1   1  15  244.79    5.42
  -1   1  15  201.18    4.77
  -1   1  15  229.28    5.09
   1  -1 -15  218.64    3.43
   1  -1 -15  151.65    4.68
   1  -1 -15  178.78    5.51
   1  -1 -15  219.10    5.69
   1   1 -15  247.85    5.51
   1   1 -15  292.75    6.02
   1   1 -15  391.03    7.18
  -1  -1  14   98.79    4.03
  -1  -1  14  108.18    2.96
  -1   1  14  126.61    4.35
  -1   1  14   98.55    3.61
  -1   1  14  125.40    3.98
   1  -1 -14  103.09    2.41
   1  -1 -14   80.18    3.84
   1  -1 -14   88.23    3.84
   1  -1 -14   96.38    3.84
   1   1 -14  109.57    4.17
   1   1 -14   74.21    2.41
   1   1 -14  183.87    4.95
  -1  -1  13   79.44    3.19
  -1  -1  13   78.56    3.52
  -1  -1  13   74.62    3.33
  -1  -1  13   88.28    2.50
  -1   1  13   77.58    3.24
  -1   1  13   86.06    3.33
   1  -1 -13   82.68    2.04
   1  -1 -13   67.91    3.43
   1  -1 -13   67.59    3.38
   1  -1 -13   78.33    3.75
   1   1 -13   82.21    3.66
   1   1 -13   57.63    2.04
   1   1 -13  118.60    4.21
   1   1 -13  138.92    4.44
  -1  -1  12  127.67    3.47
  -1  -1  12  134.34    3.84
  -1  -1  12  116.89    3.61
  -1  -1  12  140.31    2.59
  -1   1  12  151.14    3.98
  -1   1  12  135.40    3.52
   1  -1 -12  145.87    2.22
   1  -1 -12   84.48    2.22
   1  -1 -12  101.56    3.43
   1  -1 -12  120.50    3.84
   1  -1 -12  137.35    3.84
   1   1 -12  137.25    3.80
   1   1 -12   95.87    2.13
   1   1 -12  215.12    4.54
   1   1 -12  221.78    4.68
  -1  -1  11   30.41    2.50
  -1  -1  11   30.55    2.41
  -1  -1  11   23.75    2.31
  -1  -1  11   30.97    1.48
  -1   1  11   35.83    2.45
  -1   1  11   29.67    1.85
  -1   1  11   32.82    2.18
   1  -1 -11   34.30    1.30
   1  -1 -11   20.74    1.57
   1  -1 -11   30.97    2.36
   1  -1 -11   25.60    2.27
   1  -1 -11   30.41    2.22
   1   1 -11   27.31    1.53
   1   1 -11   53.61    2.78
   1   1 -11   45.23    2.68
  -1  -1  10   79.25    2.50
  -1  -1  10   90.55    2.59
  -1  -1  10   96.89    2.73
  -1  -1  10   84.71    2.87
  -1  -1  10  101.38    1.90
  -1  -1  10   70.09    1.90
  -1   1  10  103.74    2.82
  -1   1  10   96.89    2.50
  -1   1  10   87.95    2.50
   1  -1 -10  105.41    1.62
   1  -1 -10   61.94    1.62
   1  -1 -10   72.12    2.45
   1  -1 -10   83.83    2.96
   1  -1 -10  106.15    2.82
   1   1 -10   84.81    2.64
   1   1 -10   74.07    1.76
   1   1 -10  163.50    3.61
   1   1 -10  127.72    3.29
   1   1 -10   74.99    1.94
  -1  -1   9   68.60    2.08
  -1  -1   9   84.48    2.27
  -1  -1   9   92.35    2.59
  -1  -1   9   96.84    1.71
  -1   1   9   97.40    2.59
  -1   1   9   82.68    2.18
  -1   1   9   75.87    3.19
   1  -1  -9   97.81    1.39
   1  -1  -9   53.61    1.30
   1  -1  -9   72.08    2.31
   1  -1  -9   74.62    2.55
   1  -1  -9   97.21    2.45
   1   1  -9   83.37    1.76
   1   1  -9  143.50    3.10
   1   1  -9  103.18    3.29
   1   1  -9   66.85    1.62
  -1  -1   8   41.99    1.71
  -1  -1   8   50.23    1.94
  -1  -1   8   55.36    1.90
  -1  -1   8   48.14    1.94
  -1  -1   8   56.71    1.25
  -1   1   8   54.53    2.04
  -1   1   8   55.04    1.76
  -1   1   8   41.99    1.67
   1  -1  -8   58.23    1.02
   1  -1  -8   32.64    0.93
   1  -1  -8   35.04    1.67
   1  -1  -8   44.76    1.90
   1  -1  -8   50.78    1.67
   1   1  -8   55.09    1.44
   1   1  -8   80.96    2.36
   1   1  -8   59.58    2.22
   1   1  -8   39.26    1.16
  -1  -1   7   93.46    2.13
  -1  -1   7  108.14    2.08
  -1  -1   7  125.22    2.41
  -1  -1   7  105.36    2.41
  -1  -1   7  124.34    1.44
  -1  -1   7   87.82    1.25
  -1   1   7  120.31    2.50
  -1   1   7  109.43    2.08
  -1   1   7   94.02    2.13
   1  -1  -7  135.45    1.11
   1  -1  -7   72.59    0.93
   1  -1  -7   98.97    2.22
   1  -1  -7  101.98    2.36
   1  -1  -7  117.63    2.18
   1   1  -7  128.46    1.85
   1   1  -7  149.06    2.68
   1   1  -7  117.30    2.50
   1   1  -7   91.43    1.30
  -1  -1   6  218.13    2.92
  -1  -1   6  288.44    2.73
  -1  -1   6  309.46    3.29
  -1  -1   6  247.75    3.29
  -1  -1   6  300.71    1.71
  -1  -1   6  192.90    1.39
  -1   1   6  242.15    3.19
  -1   1   6  248.40    2.78
  -1   1   6  482.96    3.75
  -1   1   6  210.21    2.87
   1  -1  -6  242.38    3.10
   1  -1  -6  236.37    3.19
   1  -1  -6  192.99    2.50
   1  -1  -6  282.70    2.87
   1   1  -6  308.58    2.64
   1   1  -6  325.80    3.66
   1   1  -6  233.50    3.10
   1   1  -6  199.89    1.44
  -1  -1   5  202.80    2.64
  -1  -1   5  289.83    2.64
  -1  -1   5  348.62    3.15
  -1  -1   5  286.59    3.29
  -1  -1   5  198.96    0.93
  -1   1   5  247.43    3.01
  -1   1   5  265.44    2.68
  -1   1   5  585.13    3.66
  -1   1   5  229.98    2.82
   1  -1  -5  276.55    3.15
   1  -1  -5  298.03    3.29
   1  -1  -5  219.98    2.50
   1  -1  -5  285.06    2.59
   1  -1  -5  227.15    2.78
   1   1  -5  330.85    2.64
   1   1  -5  369.18    3.24
   1   1  -5  293.91    3.24
   1   1  -5  224.10    2.82
  -1  -1   4 2253.99    8.10
  -1  -1   4 3931.88   12.78
  -1  -1   4 4407.29   19.63
  -1  -1   4 2482.85    8.70
  -1  -1   4 3772.59   20.28
  -1  -1   4 2102.29    7.82
  -1  -1   4 2371.11    8.33
  -1   1   4 3932.38   10.92
  -1   1   4 2878.92   13.38
  -1   1   4 4934.69   17.27
  -1   1   4 3160.89   14.86
  -1   1   4 6559.53   21.71
  -1   1   4 2972.43   13.52
  -1   1   4 2583.12    8.56
   1  -1  -4 3806.29   15.42
   1  -1  -4 2394.58    9.91
   1  -1  -4 3840.73   18.33
   1  -1  -4 2703.20    7.92
   1  -1  -4 3234.17   10.69
   1  -1  -4 3041.18   14.17
   1   1  -4 2975.95    9.21
   1   1  -4 4105.05   13.52
   1   1  -4 5175.41   20.60
   1   1  -4 3301.98   14.77
   1   1  -4 4318.92   11.53
   1   1  -4 2444.25    8.47
   1   1  -4 2071.55    7.73
  -1  -1   3 5379.09   22.73
  -1  -1   3 6596.56   22.08
  -1  -1   3 7226.13   24.12
  -1  -1   3 4290.54   18.66
  -1  -1   3 7670.53   30.00
  -1   1   3 6184.57   15.23
  -1   1   3 7466.85   28.24
  -1   1   3 4486.63   23.84
  -1   1   3 4089.17   17.04
  -1   1   3 8165.85   30.14
  -1   1   3 5087.45   24.03
  -1   1   3 7980.68   21.94
  -1   1   3 4754.15   14.35
   1  -1  -3 8536.18   18.47
   1  -1  -3 6596.56   27.64
   1  -1  -3 4104.08   17.17
   1  -1  -3 5846.64   26.80
   1  -1  -3 4846.74   18.70
   1  -1  -3 4698.60   15.60
   1  -1  -3 5027.27   23.70
   1   1  -3 5129.12   19.40
   1   1  -3 6753.95   23.79
   1   1  -3 9999.00   27.13
   1   1  -3 4934.69   23.70
   1   1  -3 7439.07   26.99
   1   1  -3 3903.31   20.18
   1   1  -3 3981.13   15.46
  -1  -1   2  445.84    3.33
  -1  -1   2  600.91    3.56
  -1  -1   2  509.53    2.22
  -1  -1   2  313.12    2.78
  -1  -1   2  704.61    3.89
  -1  -1   2  307.61    2.73
  -1  -1   2  586.10    2.04
  -1   1   2  689.51    2.73
  -1   1   2  647.90    3.93
  -1   1   2  316.82    2.78
  -1   1   2  309.69    2.78
  -1   1   2  791.91    3.89
  -1   1   2  376.30    2.82
  -1   1   2  400.28    1.81
  -1   1   2  382.97    3.06
   1  -1  -2  779.69    2.87
   1  -1  -2  585.91    3.75
   1  -1  -2  309.32    2.73
   1  -1  -2  319.41    2.78
   1  -1  -2  570.68    3.33
   1  -1  -2  374.59    2.82
   1  -1  -2  310.99    1.62
   1  -1  -2  395.61    3.19
   1   1  -2  429.08    3.24
   1   1  -2  604.15    3.52
   1   1  -2  933.75    2.96
   1   1  -2  368.67    3.01
   1   1  -2  581.28    3.52
   1   1  -2  273.95    2.55
   1   1  -2  797.84    2.41
  -1  -1   1 1077.90    4.91
  -1  -1   1 1424.86    5.46
  -1  -1   1  817.14    4.26
  -1  -1   1  847.46    4.40
  -1  -1   1 1803.62    7.55
  -1  -1   1 1807.41    7.50
  -1   1   1 2072.34   10.00
  -1   1   1 1715.20    5.93
  -1   1   1  814.64    4.31
  -1   1   1  839.73    4.31
  -1   1   1 1719.83    7.13
  -1   1   1 1013.28    4.63
  -1   1   1 1046.38    4.68
  -1   1   1  828.90    2.50
  -1   1   1 1067.07    4.86
   1  -1  -1 1941.06    5.28
   1  -1  -1 1562.30    5.69
   1  -1  -1  820.29    4.31
   1  -1  -1 1193.17    4.12
   1  -1  -1 1067.30    4.72
   1  -1  -1  925.65    2.64
   1  -1  -1 1033.65    4.81
   1   1  -1 1039.11    4.77
   1   1  -1 1450.50    5.56
   1   1  -1 2302.22    6.30
   1   1  -1  859.68    4.40
   1   1  -1  820.24    4.26
   1   1  -1 1726.49    5.32
   1   1  -1  789.87    4.17
   1   1  -1 2210.20    8.05
  -1  -1   0  207.71    2.13
  -1  -1   0  270.85    2.64
  -1  -1   0  139.66    1.81
  -1  -1   0  340.29    2.04
  -1  -1   0  142.07    1.81
  -1  -1   0  340.57    2.36
  -1   1   0  405.19    2.78
  -1   1   0  341.86    2.50
  -1   1   0  155.91    1.94
  -1   1   0  260.34    1.67
  -1   1   0  192.16    2.08
  -1   1   0  208.59    2.22
  -1   1   0  262.71    1.71
  -1   1   0  189.10    1.44
  -1   1   0  198.27    2.13
   1  -1   0  390.98    2.73
   1  -1   0  312.19    2.41
   1  -1   0  144.43    1.85
   1  -1   0  191.32    1.44
   1  -1   0  210.16    2.18
   1  -1   0  191.69    2.08
   1  -1   0  190.17    1.48
   1  -1   0  185.91    2.04
   1   1   0  181.56    1.99
   1   1   0  281.27    2.64
   1   1   0  317.10    0.97
   1   1   0  141.24    0.65
   1   1   0  145.40    1.85
   1   1   0  146.33    1.85
   1   1   0  291.41    1.90
   1   1   0  147.81    1.90
   1   1   0  422.83    2.64
  -1  -1  -1  811.54    4.17
  -1  -1  -1 1069.57    5.09
  -1  -1  -1  978.47    3.84
  -1  -1  -1  621.14    3.80
  -1  -1  -1 1263.44    4.54
  -1  -1  -1  621.19    3.89
  -1  -1  -1 1354.86    5.28
  -1   1  -1 1484.85    5.79
  -1   1  -1 1421.85    5.60
  -1   1  -1 1349.63    4.49
  -1   1  -1  672.85    3.98
  -1   1  -1  717.98    2.31
  -1   1  -1  784.13    4.35
  -1   1  -1  840.10    4.49
  -1   1  -1 1384.77    4.58
  -1   1  -1  839.27    4.31
   1  -1   1 1477.17    5.69
   1  -1   1 1220.76    4.31
   1  -1   1  604.25    3.84
   1  -1   1  639.20    2.18
   1  -1   1  753.49    4.26
   1  -1   1  945.18    3.80
   1  -1   1  727.10    4.03
   1   1   1  760.85    3.98
   1   1   1 1074.48    5.09
   1   1   1 1562.85    5.65
   1   1   1  603.09    3.70
   1   1   1  952.78    3.43
   1   1   1  644.61    3.93
   1   1   1 1532.58    5.65
  -1  -1  -2  711.97    3.93
  -1  -1  -2  960.04    5.05
  -1  -1  -2  990.73    3.70
  -1  -1  -2  505.78    3.56
  -1  -1  -2  552.35    3.89
  -1  -1  -2 1193.91    5.51
  -1   1  -2 1488.42    6.30
  -1   1  -2 1093.59    5.37
  -1   1  -2 1190.58    3.84
  -1   1  -2  681.69    4.31
  -1   1  -2  812.70    2.50
  -1   1  -2  588.04    2.13
  -1   1  -2  867.18    4.81
  -1   1  -2 1588.78    5.69
  -1   1  -2  805.47    4.35
   1  -1   2 1372.87    5.97
   1  -1   2 1124.70    3.75
   1  -1   2  543.65    3.84
   1  -1   2  660.72    4.21
   1  -1   2 1044.80    4.63
   1  -1   2  679.61    4.03
   1   1   2  707.48    3.89
   1   1   2 1172.94    5.56
   1   1   2 1030.04    5.18
   1   1   2  581.01    3.80
   1   1   2  639.61    2.36
   1   1   2  643.36    4.17
   1   1   2 1408.01    6.02
  -1  -1  -3  832.79    4.40
  -1  -1  -3 1309.08    6.16
  -1  -1  -3 1384.17    5.23
  -1  -1  -3  631.14    4.21
  -1  -1  -3  816.86    3.93
  -1  -1  -3  998.05    3.33
  -1  -1  -3  793.35    4.95
  -1  -1  -3 1380.09    6.53
  -1   1  -3 1419.72    6.62
  -1   1  -3 1378.70    3.70
  -1   1  -3 1005.36    6.43
  -1   1  -3 1599.28    4.17
  -1   1  -3  952.27    5.32
  -1   1  -3 2339.40    7.82
  -1   1  -3 1097.58    5.32
   1  -1   3 1274.41    7.04
   1  -1   3 1337.37    4.77
   1  -1   3  718.08    4.68
   1  -1   3  801.12    2.92
   1  -1   3  867.14    5.09
   1  -1   3 1416.15    6.06
   1  -1   3  842.14    4.68
   1   1   3  967.40    4.68
   1   1   3 1417.27    6.39
   1   1   3 1154.56    5.74
   1   1   3 1061.88    6.99
   1   1   3 1650.02    7.08
  -1  -1  -4  179.43    2.22
  -1  -1  -4  273.17    2.73
  -1  -1  -4  133.83    2.13
  -1  -1  -4  164.71    1.06
  -1  -1  -4  256.27    1.34
  -1  -1  -4  155.59    2.41
  -1   1  -4  276.64    3.15
  -1   1  -4  229.14    1.39
  -1   1  -4  400.15    2.50
  -1   1  -4  368.85    3.52
  -1   1  -4  236.74    2.73
   1  -1   4  249.70    1.44
   1  -1   4  154.29    2.41
   1  -1   4  182.94    1.76
   1  -1   4  183.50    2.55
   1  -1   4  177.90    2.31
   1   1   4  227.34    2.45
   1   1   4  216.88    2.82
   1   1   4  189.19    3.66
   1   1   4  337.93    3.01
   1   1   4  156.19    1.06
   1   1   4  293.21    3.29
  -1  -1  -5 1311.44    5.97
  -1  -1  -5 1518.64    7.18
  -1  -1  -5  988.79    5.93
  -1  -1  -5 1665.20    4.21
  -1  -1  -5 1240.11    7.08
  -1   1  -5 2157.89    9.21
  -1   1  -5 2817.08    9.03
  -1   1  -5 3327.91   11.25
   1  -1   5 1191.64    6.94
   1  -1   5 1466.43    5.42
   1  -1   5 1281.35    6.94
   1  -1   5 1340.88    6.53
   1   1   5 1749.78    6.85
   1   1   5 1446.20    7.04
   1   1   5 2289.22    8.61
   1   1   5 1195.34    4.91
   1   1   5 2061.83    9.12
  -1  -1  -6  120.50    2.04
  -1  -1  -6  126.89    2.45
  -1  -1  -6   91.15    2.04
  -1  -1  -6  150.82    1.67
  -1  -1  -6  114.94    2.50
  -1   1  -6  171.19    2.87
  -1   1  -6  232.29    2.50
  -1   1  -6  259.46    3.52
   1  -1   6  110.13    2.41
   1  -1   6  145.03    2.13
   1  -1   6  111.33    2.31
   1  -1   6  124.15    2.22
   1   1   6  176.46    2.50
   1   1   6  137.49    2.68
   1   1   6  198.41    2.87
   1   1   6  113.09    1.44
   1   1   6  182.39    3.06
  -1  -1  -7  224.79    2.87
  -1  -1  -7  250.81    3.38
  -1  -1  -7  164.34    2.82
  -1  -1  -7  273.95    2.45
  -1  -1  -7  219.84    3.56
  -1   1  -7  357.05    4.35
  -1   1  -7  398.90    3.56
  -1   1  -7  517.22    5.28
   1  -1   7  211.09    3.47
   1  -1   7  289.92    3.56
   1  -1   7  205.49    3.24
   1  -1   7  237.24    3.19
   1   1   7  232.99    3.38
   1   1   7  351.35    4.07
   1   1   7  222.15    2.22
   1   1   7  334.09    4.26
  -1  -1  -8  138.50    2.41
  -1  -1  -8  132.49    2.73
  -1  -1  -8  102.12    2.59
  -1  -1  -8  158.13    2.22
  -1  -1  -8  125.40    3.84
  -1   1  -8  199.84    3.56
  -1   1  -8  216.78    2.96
  -1   1  -8  295.11    6.48
   1  -1   8  123.27    3.10
   1  -1   8  120.40    2.73
   1  -1   8  142.44    2.73
   1   1   8  131.70    2.87
   1   1   8  194.24    3.38
   1   1   8  126.33    1.94
  -1  -1  -9  164.47    2.78
  -1  -1  -9  165.63    3.19
  -1  -1  -9  191.69    2.68
  -1  -1  -9  158.92    3.56
  -1   1  -9  224.38    3.98
  -1   1  -9  227.66    3.33
  -1   1  -9  345.34    5.00
   1  -1   9  147.49    3.43
   1  -1   9  171.23    3.10
   1   1   9  162.95    3.43
   1   1   9  210.81    3.75
   1   1   9  153.78    2.31
   1   1   9  230.49    4.17
  -1  -1 -10   42.87    1.90
  -1  -1 -10   47.77    2.68
  -1  -1 -10   37.40    2.55
  -1  -1 -10   47.26    2.78
  -1   1 -10   66.66    2.64
  -1   1 -10   65.32    2.31
  -1   1 -10  101.47    3.33
   1  -1  10   41.94    2.45
   1  -1  10   43.42    2.41
   1  -1  10   51.29    2.36
   1   1  10   40.69    2.82
   1   1  10   62.26    2.78
   1   1  10   47.63    1.67
   1   1  10   68.23    2.96
  -1  -1 -11   16.20    1.53
  -1  -1 -11   13.33    2.04
  -1  -1 -11   17.73    2.22
  -1   1 -11   21.94    2.59
  -1   1 -11   20.88    2.13
  -1   1 -11   31.94    2.68
   1  -1  11   15.23    1.85
   1  -1  11   13.98    1.81
   1  -1  11   15.79    1.94
   1   1  11   13.29    2.08
   1   1  11   19.07    2.13
   1   1  11   14.35    1.53
   1   1  11   26.53    2.73
  -1  -1 -12    9.40    1.48
  -1  -1 -12    3.33    2.08
  -1  -1 -12    6.06    2.41
  -1   1 -12   11.99    2.31
  -1   1 -12    8.33    2.04
   1  -1  12    8.52    1.90
   1  -1  12    6.25    1.76
   1   1  12    6.80    1.90
   1   1  12    7.18    1.16
   1   1  12    9.21    2.04
  -1  -1 -13   34.49    3.19
  -1  -1 -13   31.80    2.96
  -1  -1 -13   30.37    3.47
  -1   1 -13   53.28    3.66
  -1   1 -13   42.91    3.15
  -1   1 -13   53.56    3.56
   1  -1  13   28.15    2.87
   1  -1  13   30.60    2.68
   1  -1  13   37.54    3.15
   1   1  13   29.90    3.01
   1   1  13   35.64    3.15
   1   1  13   25.46    2.22
  -1  -1 -14   22.22    2.31
  -1  -1 -14   18.01    2.82
  -1  -1 -14   20.88    2.87
  -1   1 -14   26.06    2.96
  -1   1 -14   38.33    3.56
   1  -1  14   18.93    2.50
   1  -1  14   21.11    2.45
   1   1  14   16.99    2.82
   1   1  14   19.49    2.64
   1   1  14   17.59    2.18
   1   1  14   33.75    3.70
  -1  -1 -15    9.44    2.27
  -1  -1 -15    8.01    2.36
  -1  -1 -15    7.45    2.68
  -1   1 -15   18.70    3.01
  -1   1 -15   12.41    2.73
  -1   1 -15   14.91    2.92
   1  -1  15    8.15    2.31
   1  -1  15    8.75    2.18
   1  -1  15   11.34    2.45
   1   1  15    8.52    2.96
   1   1  15    7.22    2.13
   1   1  15    7.73    2.04
   1   1  15   13.42    2.87
  -1  -1 -16   10.51    2.45
  -1  -1 -16    5.65    2.82
  -1  -1 -16   15.51    3.56
  -1   1 -16   13.75    3.15
  -1   1 -16   10.55    2.92
  -1   1 -16   16.57    3.38
   1  -1  16    9.35    2.22
   1  -1  16    9.07    2.45
   1  -1  16   12.96    2.64
   1   1  16    7.18    3.15
   1   1  16    6.71    2.82
   1   1  16   13.42    2.18
   1   1  16   13.47    3.19
  -1  -1 -17   14.21    3.19
  -1  -1 -17   17.73    3.70
  -1   1 -17   26.15    3.89
  -1   1 -17   13.15    3.29
  -1   1 -17   27.91    3.98
   1  -1  17   22.31    3.43
   1  -1  17   20.74    3.19
   1  -1  17   20.51    3.10
   1   1  17   27.59    3.61
   1   1  17   25.04    3.66
  -1  -2  17   43.93    5.09
  -1  -2  17   50.37    6.57
  -1   2  17   68.05    4.81
  -1   2  17   68.14    5.46
   1  -2 -17   46.71    5.51
   1  -2 -17   31.06    3.98
   1  -2 -17   43.38    4.91
   1   2 -17   61.66    5.83
   1   2 -17   92.58    5.74
   1   2 -17  101.66    5.56
  -1  -2  16    9.49    2.68
  -1  -2  16   12.36    2.92
  -1   2  16   16.53    2.59
  -1   2  16   13.61    2.41
  -1   2  16   16.48    3.10
   1  -2 -16   13.29    3.01
   1  -2 -16   14.49    5.56
   1  -2 -16   16.85    3.29
   1   2 -16   14.35    3.47
   1   2 -16   33.01    3.84
   1   2 -16   29.63    3.89
  -1  -2  15  149.80    5.09
  -1  -2  15  114.80    4.49
  -1  -2  15  122.86    4.81
  -1   2  15  176.14    5.42
  -1   2  15  136.28    3.93
  -1   2  15  153.36    5.09
   1  -2 -15  110.08    4.86
   1  -2 -15   98.05    4.72
   1   2 -15  173.55    5.83
   1   2 -15  245.86    6.06
   1   2 -15  272.47    6.71
  -1  -2  14   58.51    4.44
  -1  -2  14   53.42    3.47
  -1  -2  14   45.50    3.61
  -1  -2  14   45.69    2.82
  -1   2  14   76.52    3.93
  -1   2  14   55.64    3.24
  -1   2  14   60.60    3.80
   1  -2 -14   48.19    4.21
   1  -2 -14   39.81    3.38
   1  -2 -14   54.90    5.60
   1   2 -14   70.78    4.40
   1   2 -14  111.66    4.35
   1   2 -14   93.88    4.31
  -1  -2  13   16.48    2.22
  -1  -2  13   14.86    2.36
  -1  -2  13   13.01    1.48
  -1   2  13   26.34    2.45
  -1   2  13   20.37    2.41
   1  -2 -13   12.08    2.41
   1  -2 -13   19.16    2.68
   1  -2 -13   16.57    2.55
   1   2 -13   18.66    2.64
   1   2 -13   39.76    3.24
   1   2 -13   29.77    3.19
  -1  -2  12  438.20    6.30
  -1  -2  12  388.71    5.88
  -1  -2  12  413.89    7.31
  -1  -2  12  348.99    3.10
  -1   2  12  565.22    8.66
  -1   2  12  481.71    5.18
  -1   2  12  484.03    6.53
   1  -2 -12  405.19    6.34
   1  -2 -12  346.77    5.51
   1   2 -12  464.68    6.53
   1   2 -12  402.60    3.01
   1   2 -12  820.29    8.38
  -1  -2  11  233.87    4.77
  -1  -2  11  177.02    2.87
  -1  -2  11  222.52    4.40
  -1  -2  11  220.53    4.63
  -1  -2  11  181.28    2.13
  -1   2  11  295.66    5.18
  -1   2  11  260.21    3.70
  -1   2  11  255.81    4.86
   1  -2 -11  239.56    4.86
   1  -2 -11  203.22    4.58
   1  -2 -11  193.50    4.17
   1   2 -11  248.49    5.00
   1   2 -11  247.57    2.55
   1   2 -11  413.01    5.97
   1   2 -11  329.37    5.65
   1   2 -11  214.42    2.45
  -1  -2  10  192.57    4.26
  -1  -2  10  147.99    2.78
  -1  -2  10  173.04    3.70
  -1  -2  10  184.29    4.12
  -1  -2  10  144.11    1.71
  -1   2  10  235.44    4.31
  -1   2  10  214.42    3.29
  -1   2  10  192.20    4.07
   1  -2 -10  183.69    4.26
   1  -2 -10  176.93    4.17
   1   2 -10  229.75    2.50
   1   2 -10  292.05    4.77
   1   2 -10  232.29    4.54
   1   2 -10  181.23    1.94
  -1  -2   9  272.29    4.63
  -1  -2   9  230.49    3.06
  -1  -2   9  265.71    4.54
  -1  -2   9  196.79    1.67
  -1   2   9  309.83    4.77
  -1   2   9  302.42    3.61
  -1   2   9  266.50    4.44
   1  -2  -9  276.92    4.68
   1  -2  -9  208.36    4.07
   1  -2  -9  209.52    3.52
   1   2  -9  361.40    3.06
   1   2  -9  367.19    5.05
   1   2  -9  283.63    4.68
   1   2  -9  263.35    1.94
  -1  -2   8  589.62    6.16
  -1  -2   8  536.20    4.03
  -1  -2   8  555.96    5.37
  -1  -2   8  615.77    6.34
  -1  -2   8  438.10    1.94
  -1   2   8  662.34    6.34
  -1   2   8  654.05    4.91
  -1   2   8  621.74    6.25
   1  -2  -8  596.28    6.30
   1  -2  -8  522.31    5.83
   1  -2  -8  464.58    4.63
   1   2  -8  817.05    4.49
   1   2  -8  712.48    7.64
   1   2  -8  605.59    6.25
   1   2  -8  604.62    2.27
  -1  -2   7  321.82    4.40
  -1  -2   7  351.77    3.43
  -1  -2   7  302.70    3.70
  -1   2   7  349.50    4.44
  -1   2   7  353.90    3.52
  -1   2   7  338.85    4.63
   1  -2  -7  312.75    4.35
   1  -2  -7  293.03    4.91
   1  -2  -7  262.75    3.33
   1   2  -7  449.54    3.52
   1   2  -7  361.40    4.44
   1   2  -7  374.55    1.44
  -1  -2   6  733.86    6.20
  -1  -2   6  804.87    4.86
  -1  -2   6  740.62    5.28
  -1  -2   6  906.58    6.85
  -1   2   6  796.96    6.34
  -1   2   6  795.80    5.05
  -1   2   6  834.55    6.62
   1  -2  -6  883.85    6.80
   1  -2  -6  704.42    6.02
   1  -2  -6  612.72    4.63
   1  -2  -6  841.30    6.62
   1   2  -6 1020.92    5.23
   1   2  -6  831.63    6.34
   1   2  -6  693.91    6.06
   1   2  -6 1054.20    2.08
  -1  -2   5  562.91    5.28
  -1  -2   5  602.07    4.35
  -1  -2   5  451.53    3.84
  -1  -2   5  578.69    5.23
  -1  -2   5  406.53    4.49
  -1   2   5  425.84    1.62
  -1   2   5  463.52    4.63
  -1   2   5  479.95    3.89
  -1   2   5  571.05    4.17
  -1   2   5  529.53    5.09
   1  -2  -5  571.10    5.32
   1  -2  -5  417.23    4.40
   1  -2  -5  421.16    3.66
   1  -2  -5  368.76    3.38
   1  -2  -5  500.97    4.95
   1   2  -5  678.50    4.40
   1   2  -5  485.51    4.72
   1   2  -5  431.53    4.63
   1   2  -5  512.50    2.08
   1   2  -5  554.25    1.94
  -1  -2   4 1345.98    7.73
  -1  -2   4 1701.27    7.08
  -1  -2   4 1213.30    5.65
  -1  -2   4 1705.57    8.33
  -1  -2   4 1120.40    7.04
  -1   2   4 2487.39    9.30
  -1   2   4 1517.21    4.31
  -1   2   4 1231.03    7.18
  -1   2   4 1323.90    6.30
  -1   2   4 1267.98    6.11
  -1   2   4 1486.06    6.20
  -1   2   4 1501.89    8.19
   1  -2  -4 1685.76    8.61
   1  -2  -4 1234.51    7.08
   1  -2  -4 1293.57    6.16
   1  -2  -4 1034.25    5.18
   1  -2  -4 1460.32    8.10
   1   2  -4 1904.62    7.45
   1   2  -4 2276.67    7.68
   1   2  -4 1264.46    7.27
   1   2  -4 1143.40    7.08
   1   2  -4 1915.87    7.04
   1   2  -4 1243.53    3.56
  -1  -2   3  267.33    3.38
  -1  -2   3  266.13    3.33
  -1  -2   3  190.31    2.08
  -1  -2   3  304.74    3.38
  -1  -2   3  193.73    2.96
  -1   2   3  422.83    2.73
  -1   2   3  300.48    2.36
  -1   2   3  199.93    2.87
  -1   2   3  224.05    2.64
  -1   2   3  224.05    2.73
  -1   2   3  213.59    2.36
   1  -2  -3  310.48    3.66
   1  -2  -3  233.77    3.01
   1  -2  -3  219.89    2.64
   1  -2  -3  177.34    2.13
   1  -2  -3  247.43    3.24
   1   2  -3  327.33    3.38
   1   2  -3  281.87    3.15
   1   2  -3  334.92    2.73
   1   2  -3  212.76    3.01
   1   2  -3  346.82    2.27
   1   2  -3  215.77    1.81
  -1  -2   2  879.82    5.83
  -1  -2   2  573.14    3.19
  -1  -2   2  975.97    5.51
  -1  -2   2  574.43    4.77
  -1   2   2 1347.55    5.37
  -1   2   2 1034.39    4.68
  -1   2   2  633.55    4.86
  -1   2   2  731.36    4.77
  -1   2   2  829.64    5.88
  -1   2   2  656.69    3.84
   1  -2  -2 1343.48    5.37
   1  -2  -2 1016.70    6.16
   1  -2  -2  629.24    4.86
   1  -2  -2  723.68    4.81
   1  -2  -2  836.12    5.83
   1  -2  -2  601.75    3.70
   1  -2  -2  819.36    5.65
   1   2  -2 1062.25    5.93
   1   2  -2  847.00    3.84
   1   2  -2  674.61    5.14
   1   2  -2 1435.13    7.87
   1   2  -2 1170.21    4.68
   1   2  -2  751.96    3.75
  -1  -2   1  252.89    3.15
  -1  -2   1  157.21    1.62
  -1  -2   1  175.54    2.68
  -1  -2   1  284.60    2.78
  -1  -2   1  164.38    2.64
  -1  -2   1  237.66    2.45
  -1   2   1  418.75    3.33
  -1   2   1  329.69    2.96
  -1   2   1  164.43    2.50
  -1   2   1  252.15    2.78
  -1   2   1  211.78    2.68
  -1   2   1  170.08    2.08
   1  -2  -1  406.53    3.29
   1  -2  -1  310.39    3.33
   1  -2  -1  167.48    2.55
   1  -2  -1  196.51    2.41
   1  -2  -1  202.25    2.64
   1  -2  -1  184.24    2.13
   1  -2  -1  214.38    2.87
   1   2  -1  317.93    3.47
   1   2  -1  189.98    1.76
   1   2  -1  164.94    2.59
   1   2  -1  381.44    3.19
   1   2  -1  346.96    2.87
   1   2  -1  228.45    2.36
  -1  -2   0  177.95    2.59
  -1  -2   0  114.62    2.22
  -1  -2   0  197.67    2.13
  -1  -2   0  116.79    2.22
  -1  -2   0  192.16    2.41
  -1   2   0  322.24    3.15
  -1   2   0  252.94    2.87
  -1   2   0  271.50    3.52
  -1   2   0  173.50    2.22
  -1   2   0  158.92    2.41
  -1   2   0  156.42    2.04
  -1   2   0  132.16    1.94
   1  -2   0  316.31    3.15
   1  -2   0  222.11    2.73
   1  -2   0  117.53    2.08
   1  -2   0  139.15    1.94
   1  -2   0  157.35    2.41
   1  -2   0  148.74    1.99
   1  -2   0  151.61    2.41
   1   2   0  233.77    3.15
   1   2   0  127.53    1.44
   1   2   0  116.33    1.39
   1   2   0  112.44    2.22
   1   2   0  288.91    2.55
   1   2   0  263.40    2.73
   1   2   0  179.29    2.36
  -1  -2  -1   77.40    1.90
  -1  -2  -1  109.71    1.44
  -1  -2  -1   72.82    1.90
  -1   2  -1  225.30    2.87
  -1   2  -1  159.47    2.31
  -1   2  -1  104.67    1.71
  -1   2  -1  103.79    2.08
  -1   2  -1  111.79    1.85
  -1   2  -1   83.97    1.76
   1  -2   1  209.42    2.82
   1  -2   1  157.39    2.22
   1  -2   1   67.91    1.71
   1  -2   1   81.89    1.48
   1  -2   1   98.97    2.04
   1  -2   1  108.14    1.85
   1  -2   1   89.34    1.85
   1   2   1  175.08    2.87
   1   2   1   94.90    1.30
   1   2   1   65.78    1.16
   1   2   1  162.34    2.36
  -1  -2  -2   83.19    1.81
  -1  -2  -2   64.02    1.30
  -1  -2  -2   59.16    1.76
  -1  -2  -2   85.64    1.06
  -1  -2  -2   55.46    1.67
  -1   2  -2  149.99    2.50
  -1   2  -2  125.36    1.94
  -1   2  -2   70.50    1.39
  -1   2  -2   69.11    1.44
  -1   2  -2  101.19    1.94
   1  -2   2  148.50    2.55
   1  -2   2  106.47    1.76
   1  -2   2   61.01    1.71
   1  -2   2   66.75    1.34
   1  -2   2   85.04    1.99
   1  -2   2   71.80    1.71
   1   2   2  117.77    2.59
   1   2   2  100.22    1.48
   1   2   2   60.69    1.30
   1   2   2  132.53    1.30
   1   2   2  132.53    2.31
  -1  -2  -3  192.39    2.55
  -1  -2  -3  332.70    4.03
  -1  -2  -3  166.51    2.18
  -1  -2  -3  136.38    2.59
  -1  -2  -3  138.55    2.55
  -1   2  -3  434.22    4.40
  -1   2  -3  333.58    2.73
  -1   2  -3  202.16    2.22
  -1   2  -3  171.00    2.08
  -1   2  -3  316.87    3.47
   1  -2   3  419.59    4.35
   1  -2   3  312.75    2.59
   1  -2   3  146.05    2.59
   1  -2   3  210.40    3.15
   1  -2   3  170.45    2.50
   1   2   3  188.82    2.92
   1   2   3  346.40    4.17
   1   2   3  272.94    2.64
   1   2   3  249.97    1.06
   1   2   3  311.64    3.66
  -1  -2  -4  194.24    2.55
  -1  -2  -4  296.36    3.98
  -1  -2  -4  196.42    2.55
  -1  -2  -4  150.22    2.78
  -1  -2  -4  168.55    2.96
  -1   2  -4  404.13    4.49
  -1   2  -4  345.34    2.50
  -1   2  -4  229.61    2.45
  -1   2  -4  168.83    2.18
  -1   2  -4  337.79    3.84
   1  -2   4  376.17    4.31
   1  -2   4  282.19    2.27
   1  -2   4  160.68    2.82
   1  -2   4  165.35    2.27
   1  -2   4  212.06    3.29
   1  -2   4  188.92    2.68
   1   2   4  222.62    3.10
   1   2   4  285.43    4.03
   1   2   4  325.43    3.19
   1   2   4  326.63    4.03
  -1  -2  -5  542.35    4.17
  -1  -2  -5  732.15    6.20
  -1  -2  -5  473.05    4.95
  -1  -2  -5  490.41    5.09
  -1   2  -5  930.65    6.99
  -1   2  -5 1016.57    3.47
  -1   2  -5  787.47    4.63
  -1   2  -5  470.65    3.66
  -1   2  -5 1086.60    7.18
   1  -2   5  679.98    2.87
   1  -2   5  485.88    5.00
   1  -2   5  467.59    3.66
   1  -2   5  625.12    5.74
   1  -2   5  549.44    4.54
   1   2   5  711.32    6.25
   1   2   5 1008.46    6.02
   1   2   5  949.63    7.04
  -1  -2  -6  162.72    2.45
  -1  -2  -6  257.24    4.07
  -1  -2  -6  149.94    3.15
  -1  -2  -6  148.74    3.06
  -1   2  -6  310.85    3.19
  -1   2  -6  307.15    4.17
   1  -2   6  151.74    3.01
   1  -2   6  143.27    2.41
   1  -2   6  185.26    4.07
   1  -2   6  172.39    2.73
   1   2   6  243.49    4.21
   1   2   6  306.17    3.70
  -1  -2  -7   11.99    1.20
  -1  -2  -7    8.93    1.48
  -1  -2  -7   10.05    1.62
  -1   2  -7   24.58    1.53
  -1   2  -7   22.27    2.04
   1  -2   7    5.88    1.30
   1  -2   7   11.67    1.48
   1  -2   7    9.26    1.06
   1   2   7   19.21    1.48
   1   2   7   16.94    1.94
  -1  -2  -8  268.82    3.24
  -1  -2  -8  340.71    5.14
  -1  -2  -8  237.99    4.31
  -1  -2  -8  263.03    1.30
  -1  -2  -8  238.40    4.26
  -1   2  -8  513.24    6.11
  -1   2  -8  668.45    5.18
  -1   2  -8  760.66    7.31
   1  -2   8  256.69    4.40
   1  -2   8  299.00    4.72
   1  -2   8  276.82    3.66
   1   2   8  341.63    5.32
   1   2   8  508.00    5.56
   1   2   8  445.19    5.79
  -1  -2  -9   45.88    1.71
  -1  -2  -9   59.81    3.19
  -1  -2  -9   34.90    2.64
  -1  -2  -9   46.94    1.02
  -1  -2  -9   42.17    2.50
  -1   2  -9   87.82    3.24
  -1   2  -9  109.90    2.68
  -1   2  -9  115.82    3.75
   1  -2   9   39.07    2.41
   1  -2   9   49.21    2.64
   1  -2   9   44.44    2.04
   1   2   9   64.53    3.66
   1   2   9   76.29    2.78
   1   2   9   47.63    1.02
   1   2   9   72.03    2.82
  -1  -2 -10  176.09    2.92
  -1  -2 -10  242.34    4.91
  -1  -2 -10  157.95    4.03
  -1  -2 -10  194.56    2.04
  -1  -2 -10  170.54    4.12
  -1   2 -10  340.85    5.60
  -1   2 -10  448.84    4.91
  -1   2 -10  460.09    6.39
   1  -2  10  179.06    3.98
   1  -2  10  198.13    4.40
   1  -2  10  200.12    3.56
   1   2  10  220.07    5.18
   1   2  10  328.44    5.14
   1   2  10  199.05    1.99
   1   2  10  301.78    5.18
  -1  -2 -11    6.02    1.16
  -1  -2 -11    6.25    2.22
  -1  -2 -11    8.29    2.18
  -1  -2 -11    5.23    1.90
  -1   2 -11   14.91    2.36
  -1   2 -11   15.28    1.99
  -1   2 -11   21.06    4.07
   1  -2  11    4.12    1.81
   1  -2  11    6.02    2.68
   1   2  11   12.78    2.92
   1   2  11   11.94    1.90
   1   2  11    9.12    0.88
   1   2  11   13.33    2.59
  -1  -2 -12    2.41    1.20
  -1  -2 -12   -0.37    2.31
  -1  -2 -12   -0.05    2.18
  -1  -2 -12    0.32    1.94
  -1   2 -12    2.92    2.31
  -1   2 -12    4.86    2.18
  -1   2 -12    1.62    2.18
   1  -2  12    1.44    1.39
   1  -2  12    1.06    1.85
   1  -2  12    2.41    1.62
   1   2  12   -0.65    2.96
   1   2  12    0.46    1.85
   1   2  12    0.88    0.93
   1   2  12    2.45    2.13
  -1  -2 -13   58.65    2.50
  -1  -2 -13   67.54    4.26
  -1  -2 -13   54.39    3.56
  -1  -2 -13   61.10    4.12
  -1   2 -13  112.63    4.81
  -1   2 -13  109.94    4.17
  -1   2 -13  158.50    5.00
   1  -2  13   58.47    3.56
   1  -2  13   66.34    3.70
   1  -2  13   63.00    3.24
   1   2  13   54.90    4.95
   1   2  13   99.94    4.03
   1   2  13  103.97    4.44
  -1  -2 -14    6.67    1.57
  -1  -2 -14    2.13    2.50
  -1  -2 -14    1.71    2.82
  -1   2 -14   11.34    3.19
  -1   2 -14    6.67    2.55
  -1   2 -14   13.10    3.15
   1  -2  14    2.13    2.13
   1  -2  14    4.03    2.18
   1  -2  14    3.89    1.99
   1   2  14    3.10    5.37
   1   2  14    9.91    2.41
   1   2  14   10.37    2.78
  -1  -2 -15    1.30    2.59
  -1  -2 -15   -1.34    3.06
  -1   2 -15   -2.92    3.29
  -1   2 -15   -0.97    2.36
  -1   2 -15   -0.88    2.96
   1  -2  15   -2.55    2.13
   1  -2  15    1.06    2.36
   1  -2  15    0.00    2.08
   1   2  15    0.56    3.43
   1   2  15   -0.32    2.31
   1   2  15    0.79    2.82
  -1  -2 -16    9.63    3.01
  -1   2 -16   22.31    4.07
  -1   2 -16   15.42    3.19
  -1   2 -16   35.97    4.35
   1  -2  16   13.89    3.01
   1  -2  16   22.13    3.33
   1  -2  16   15.46    2.82
   1   2  16    9.81    3.93
   1   2  16   26.85    3.38
   1   2  16   24.12    4.31
  -1  -3  16   33.70    4.40
  -1  -3  16   19.54    3.33
  -1  -3  16   26.94    3.75
  -1   3  16   37.31    4.58
  -1   3  16   27.73    4.63
   1  -3 -16   28.01    4.03
   1  -3 -16   18.24    3.70
   1  -3 -16   15.18    3.52
   1   3 -16   37.68    6.99
   1   3 -16   61.24    5.60
   1   3 -16   41.57    5.05
  -1  -3  15   19.03    3.24
  -1  -3  15   15.32    2.96
  -1  -3  15   16.25    3.19
  -1   3  15   27.45    3.43
  -1   3  15   12.92    3.10
   1  -3 -15   15.32    3.24
   1  -3 -15   12.08    3.15
   1   3 -15   19.07    4.03
   1   3 -15   40.46    4.81
  -1  -3  14    2.78    2.82
  -1  -3  14   -0.23    2.18
  -1  -3  14    0.14    2.27
  -1   3  14   -1.57    2.18
  -1   3  14    0.56    2.31
   1  -3 -14   -3.61    2.55
   1  -3 -14   -2.08    2.78
   1  -3 -14    0.74    2.50
   1   3 -14   -2.04    3.15
   1   3 -14   -2.78    2.68
   1   3 -14   -0.79    2.96
  -1  -3  13    8.66    2.55
  -1  -3  13    6.06    2.45
  -1  -3  13    4.07    2.27
  -1   3  13   12.64    2.41
  -1   3  13    8.24    1.71
  -1   3  13    7.68    2.36
   1  -3 -13    6.06    2.64
   1  -3 -13    5.79    2.78
   1  -3 -13    6.39    2.59
   1   3 -13    8.93    2.64
   1   3 -13   14.81    2.82
   1   3 -13   10.92    2.78
  -1  -3  12   57.12    4.17
  -1  -3  12   38.61    3.84
  -1  -3  12   52.77    3.52
  -1   3  12   68.23    3.70
  -1   3  12   62.54    2.50
  -1   3  12   56.15    3.70
   1  -3 -12   49.16    4.68
   1  -3 -12   34.26    3.29
   1  -3 -12   33.75    3.24
   1   3 -12   49.25    4.35
   1   3 -12   88.93    6.53
   1   3 -12   61.85    3.84
  -1  -3  11   81.38    3.80
  -1  -3  11   71.84    3.56
  -1  -3  11   74.71    3.66
  -1   3  11  101.10    3.93
  -1   3  11   91.43    2.64
  -1   3  11   86.98    3.80
   1  -3 -11   87.21    4.54
   1  -3 -11   64.58    3.56
   1  -3 -11   55.46    3.24
   1   3 -11   77.54    3.98
   1   3 -11  114.25    2.22
   1   3 -11  115.17    4.17
   1   3 -11   96.24    3.93
  -1  -3  10  135.26    4.68
  -1  -3  10  106.75    3.66
  -1   3  10  141.75    3.75
  -1   3  10  139.94    2.82
   1  -3 -10  126.28    4.95
   1  -3 -10   83.46    3.43
   1   3 -10  169.84    2.55
   1   3 -10  171.09    4.49
  -1  -3   9  272.61    5.32
  -1  -3   9  193.31    4.12
  -1  -3   9  242.15    4.91
  -1   3   9  269.09    4.95
  -1   3   9  272.61    3.52
  -1   3   9  259.19    5.09
   1  -3  -9  260.71    5.42
   1  -3  -9  180.63    4.31
   1  -3  -9  167.39    3.80
   1   3  -9  330.11    3.52
   1   3  -9  299.09    5.23
   1   3  -9  266.87    4.77
   1   3  -9  244.74    4.91
   1   3  -9  293.21    1.67
  -1  -3   8   92.58    3.33
  -1  -3   8   66.20    3.01
  -1  -3   8  103.65    3.47
  -1   3   8  107.40    3.29
  -1   3   8  106.98    2.31
  -1   3   8  107.86    3.52
   1  -3  -8  109.80    3.89
   1  -3  -8   72.26    3.06
   1  -3  -8   67.45    2.64
   1   3  -8  136.00    2.68
   1   3  -8  104.06    3.24
   1   3  -8   91.15    3.29
   1   3  -8   97.07    1.20
   1   3  -8  140.31    1.44
  -1  -3   7   84.20    3.10
  -1  -3   7   62.22    2.13
  -1  -3   7   78.56    3.01
  -1   3   7   78.74    2.73
  -1   3   7   78.05    2.08
  -1   3   7   85.08    3.06
   1  -3  -7   89.67    3.52
   1  -3  -7   64.95    2.78
   1  -3  -7   54.11    2.18
   1   3  -7  104.67    2.55
   1   3  -7   73.93    2.96
   1   3  -7   72.68    2.87
   1   3  -7   83.00    1.30
   1   3  -7  100.22    1.48
  -1  -3   6   63.79    2.96
  -1  -3   6   35.83    1.62
  -1  -3   6   49.62    2.50
  -1  -3   6   40.55    2.36
  -1   3   6   81.84    1.34
  -1   3   6   42.40    1.20
  -1   3   6   50.41    2.31
  -1   3   6   47.68    1.67
  -1   3   6   50.97    2.55
   1  -3  -6   70.78    3.15
   1  -3  -6   43.88    2.55
   1  -3  -6   37.40    1.81
   1  -3  -6   54.72    2.50
   1   3  -6   78.83    2.45
   1   3  -6   48.56    2.68
   1   3  -6   49.58    2.45
   1   3  -6   58.14    1.25
   1   3  -6   51.20    1.39
  -1  -3   5   35.18    2.27
  -1  -3   5   26.57    1.48
  -1  -3   5   41.11    2.18
  -1  -3   5   28.61    2.04
  -1   3   5   60.60    1.44
  -1   3   5   33.24    1.30
  -1   3   5   30.88    1.99
  -1   3   5   31.80    1.53
  -1   3   5   34.49    2.13
   1  -3  -5   48.84    2.68
   1  -3  -5   35.74    2.36
   1  -3  -5   23.75    1.48
   1  -3  -5   41.11    2.18
   1   3  -5   61.66    2.41
   1   3  -5   31.43    2.08
   1   3  -5   31.39    2.04
   1   3  -5   47.26    1.25
   1   3  -5   32.50    1.30
  -1  -3   4  135.50    3.29
  -1  -3   4   93.79    2.04
  -1  -3   4  150.12    3.10
  -1  -3   4  100.31    2.87
  -1   3   4  206.14    2.50
  -1   3   4  129.57    2.18
  -1   3   4  113.65    2.73
  -1   3   4  117.12    2.31
  -1   3   4  155.77    3.33
   1  -3  -4  196.65    2.45
   1  -3  -4  150.36    3.43
   1  -3  -4  105.04    2.87
   1  -3  -4   97.17    2.22
   1  -3  -4  142.86    3.24
   1   3  -4  166.65    3.24
   1   3  -4   98.93    2.87
   1   3  -4  171.46    2.22
   1   3  -4  113.04    1.94
  -1  -3   3   20.46    1.25
  -1  -3   3   34.49    1.71
  -1  -3   3   25.09    1.99
  -1   3   3   55.36    1.67
  -1   3   3   23.52    1.39
  -1   3   3   27.68    1.34
   1  -3  -3   56.11    1.71
   1  -3  -3   27.73    1.67
   1  -3  -3   22.64    1.44
   1   3  -3   47.03    2.31
   1   3  -3   24.58    1.99
   1   3  -3   43.75    1.44
   1   3  -3   25.65    1.30
  -1  -3   2  724.70    6.34
  -1  -3   2  466.53    3.75
  -1  -3   2  496.15    5.46
  -1  -3   2  726.46    5.65
  -1   3   2 1051.14    6.16
  -1   3   2  516.43    5.18
  -1   3   2  612.16    5.18
  -1   3   2  727.66    6.39
   1  -3  -2 1090.03    6.25
   1  -3  -2  820.24    6.71
   1  -3  -2  520.97    5.23
   1  -3  -2  546.89    5.18
   1  -3  -2  504.21    4.49
   1  -3  -2  714.10    6.30
   1   3  -2  875.98    6.67
   1   3  -2  641.19    4.40
   1   3  -2  514.35    5.46
   1   3  -2  887.69    5.42
  -1  -3   1  301.54    4.12
  -1  -3   1  209.15    2.50
  -1  -3   1  222.15    3.75
  -1  -3   1  313.49    3.52
  -1  -3   1  212.39    3.70
  -1   3   1  482.08    4.49
  -1   3   1  208.22    3.38
  -1   3   1  274.93    3.66
   1  -3  -1  478.89    4.44
   1  -3  -1  357.33    4.44
   1  -3  -1  212.76    3.43
   1  -3  -1  229.70    3.33
   1  -3  -1  260.81    3.61
   1  -3  -1  242.80    3.19
   1  -3  -1  295.57    4.03
   1   3  -1  387.65    4.77
   1   3  -1  211.04    2.50
   1   3  -1  233.08    2.68
   1   3  -1  233.82    3.80
   1   3  -1  406.35    3.93
  -1  -3   0  130.26    2.78
  -1  -3   0   86.15    2.87
  -1  -3   0  138.69    2.31
  -1  -3   0  100.18    2.73
  -1   3   0  232.43    3.38
  -1   3   0  127.26    2.64
  -1   3   0  121.42    2.45
   1  -3   0  235.53    3.43
   1  -3   0  185.31    3.24
   1  -3   0   97.03    2.45
   1  -3   0  110.96    2.36
   1  -3   0  120.40    2.64
   1  -3   0  115.59    2.36
   1  -3   0  139.75    2.92
   1   3   0  191.09    3.70
   1   3   0  100.45    1.81
   1   3   0   94.67    1.90
   1   3   0   83.28    2.87
   1   3   0  185.91    2.96
  -1  -3  -1  148.13    2.87
  -1  -3  -1  144.62    2.18
  -1  -3  -1   97.17    2.64
  -1   3  -1  286.50    3.93
  -1   3  -1  137.58    2.59
  -1   3  -1  149.01    3.01
  -1   3  -1  150.17    2.78
   1  -3   1  267.70    3.75
   1  -3   1  215.81    3.29
   1  -3   1  100.31    2.50
   1  -3   1  120.77    2.41
   1  -3   1  138.46    2.87
   1  -3   1  152.90    2.73
   1  -3   1  145.59    2.82
   1   3   1  232.99    4.26
   1   3   1  126.14    2.04
   1   3   1   95.96    1.90
   1   3   1  209.19    3.24
  -1  -3  -2  128.14    2.64
  -1  -3  -2  104.85    2.96
  -1  -3  -2  125.77    1.85
  -1   3  -2  215.30    3.66
  -1   3  -2  109.34    2.31
  -1   3  -2  134.25    2.78
   1  -3   2  202.34    3.61
   1  -3   2  161.37    2.78
   1  -3   2   91.89    2.45
   1  -3   2  100.68    2.18
   1  -3   2  130.17    2.92
   1  -3   2  112.12    2.45
   1   3   2  168.92    4.49
   1   3   2  135.63    2.18
   1   3   2  193.68    2.36
   1   3   2  187.57    3.29
  -1  -3  -3   72.12    2.08
  -1  -3  -3   89.25    3.33
  -1  -3  -3   51.75    2.31
  -1  -3  -3   66.85    1.30
  -1  -3  -3   50.74    2.41
  -1   3  -3   63.05    1.85
  -1   3  -3   86.75    2.50
   1  -3   3   88.74    2.18
   1  -3   3   51.57    2.08
   1  -3   3   71.66    2.50
   1  -3   3   70.41    2.13
   1   3   3   87.54    3.47
   1   3   3   89.44    1.94
   1   3   3   73.56    1.30
   1   3   3  111.24    1.67
   1   3   3  108.97    2.82
  -1  -3  -4   96.70    2.27
  -1  -3  -4  133.64    3.75
  -1  -3  -4   87.54    2.92
  -1  -3  -4   73.97    2.78
  -1   3  -4  173.18    3.70
  -1   3  -4   91.15    2.22
  -1   3  -4  131.05    3.10
   1  -3   4  149.85    3.47
   1  -3   4  128.09    2.41
   1  -3   4   69.58    2.45
   1  -3   4   98.46    2.92
   1  -3   4   85.18    2.18
   1   3   4  127.30    3.93
   1   3   4  123.78    2.41
   1   3   4   92.35    1.11
   1   3   4  144.52    1.44
   1   3   4  142.49    3.33
  -1  -3  -5  188.92    3.06
  -1  -3  -5  240.35    4.58
  -1  -3  -5  161.70    3.80
  -1  -3  -5  144.57    3.43
  -1   3  -5  289.51    4.72
  -1   3  -5  261.27    3.06
  -1   3  -5  292.42    3.19
  -1   3  -5  208.91    3.06
  -1   3  -5  301.41    4.68
   1  -3   5  322.61    5.05
   1  -3   5  264.05    2.96
   1  -3   5  147.30    3.38
   1  -3   5  193.59    3.93
   1  -3   5  173.96    3.06
   1   3   5  234.19    4.72
   1   3   5  284.83    3.66
   1   3   5  291.22    4.63
  -1  -3  -6   22.96    1.53
  -1  -3  -6   41.06    3.15
  -1  -3  -6   18.56    1.94
  -1  -3  -6   22.54    2.41
  -1   3  -6   52.26    2.92
  -1   3  -6   42.36    1.71
  -1   3  -6   41.57    1.62
  -1   3  -6   34.30    1.67
  -1   3  -6   37.87    2.45
   1  -3   6   52.68    3.06
   1  -3   6   23.56    2.08
   1  -3   6   30.51    2.36
   1  -3   6   24.16    1.71
   1   3   6   43.61    3.61
   1   3   6   42.73    2.08
   1   3   6   41.48    2.55
  -1  -3  -7   31.11    1.67
  -1  -3  -7   41.01    3.47
  -1  -3  -7   21.25    2.31
  -1  -3  -7   24.35    2.55
  -1   3  -7   61.20    3.29
  -1   3  -7   43.33    1.48
  -1   3  -7   55.50    1.39
  -1   3  -7   49.76    2.08
  -1   3  -7   48.70    2.78
   1  -3   7   55.97    3.01
   1  -3   7   27.27    2.31
   1  -3   7   30.69    2.50
   1  -3   7   29.67    1.90
   1   3   7   48.75    3.89
   1   3   7   53.79    2.27
   1   3   7   50.09    2.55
  -1  -3  -8   30.69    1.76
  -1  -3  -8   49.30    3.70
  -1  -3  -8   24.21    2.41
  -1  -3  -8   26.20    2.50
  -1   3  -8   78.33    3.66
  -1   3  -8   61.85    2.41
  -1   3  -8   62.17    3.19
   1  -3   8   25.55    2.36
   1  -3   8   34.63    2.64
   1  -3   8   30.41    1.90
   1   3   8   47.87    4.12
   1   3   8   57.12    2.55
   1   3   8   48.84    2.96
  -1  -3  -9   16.80    1.76
  -1  -3  -9   22.50    2.78
  -1  -3  -9   15.83    2.36
  -1   3  -9   35.32    2.45
  -1   3  -9   34.30    3.06
   1  -3   9   13.84    1.99
   1  -3   9   17.73    1.90
   1   3   9   24.63    3.10
   1   3   9   31.48    2.45
  -1  -3 -10  177.85    3.06
  -1  -3 -10  157.44    4.54
  -1  -3 -10  168.41    5.93
  -1   3 -10  322.79    6.11
  -1   3 -10  511.85    7.45
   1  -3  10  172.53    4.58
   1  -3  10  205.40    4.91
   1  -3  10  188.45    5.65
   1   3  10  168.64    8.29
   1   3  10  352.97    5.69
   1   3  10  322.42    6.11
  -1  -3 -11   -0.14    1.11
  -1  -3 -11    0.00    2.50
  -1  -3 -11    1.06    2.27
  -1  -3 -11    0.00    2.36
  -1   3 -11    1.06    2.04
  -1   3 -11    3.98    2.18
  -1   3 -11    4.95    2.59
   1  -3  11    1.20    1.81
   1  -3  11    1.25    1.53
   1  -3  11    2.36    1.67
   1   3  11    2.41    3.29
   1   3  11    3.06    1.81
   1   3  11    3.98    2.27
  -1  -3 -12   43.75    4.72
  -1  -3 -12   21.90    2.92
  -1  -3 -12   26.85    3.06
  -1   3 -12   59.02    4.07
  -1   3 -12   88.65    3.93
  -1   3 -12   78.51    4.26
   1  -3  12   25.97    3.24
   1  -3  12   38.47    3.43
   1  -3  12   27.45    2.87
   1   3  12   27.91    4.03
   1   3  12   64.44    3.93
   1   3  12   54.95    4.17
  -1  -3 -13    0.97    2.92
  -1  -3 -13    2.36    2.96
  -1  -3 -13    1.11    2.78
  -1   3 -13    5.09    2.96
  -1   3 -13    1.67    2.41
  -1   3 -13    6.39    3.15
   1  -3  13   -0.23    2.22
   1  -3  13    5.83    2.41
   1  -3  13    1.02    1.90
   1   3  13    0.32    4.07
   1   3  13    3.38    2.22
   1   3  13    2.13    2.64
  -1  -3 -14   28.38    3.75
  -1  -3 -14   18.42    3.33
  -1   3 -14   47.45    5.46
  -1   3 -14   44.81    4.21
  -1   3 -14   60.13    4.68
   1  -3  14   22.17    3.10
   1  -3  14   28.19    3.38
   1  -3  14   25.78    3.15
   1   3  14   23.75    4.72
   1   3  14   31.94    3.66
   1   3  14   37.73    4.58
  -1  -3 -15    8.80    3.89
  -1   3 -15   13.98    4.58
  -1   3 -15   18.42    3.84
   1  -3  15    4.40    2.96
   1  -3  15   13.79    3.29
   1   3  15    4.58    4.49
   1   3  15   17.54    3.29
   1   3  15   12.27    3.52
  -1  -4  14    9.26    4.07
  -1  -4  14    0.05    2.36
  -1  -4  14    4.03    2.96
  -1   4  14    5.28    3.24
   1  -4 -14    0.97    4.44
   1  -4 -14   -0.79    3.24
   1  -4 -14    4.91    2.96
   1   4 -14    0.88    4.26
   1   4 -14    6.34    3.61
   1   4 -14    9.26    3.80
  -1  -4  13   27.31    5.60
  -1  -4  13   12.59    2.59
  -1   4  13   25.41    3.19
   1  -4 -13   17.59    4.31
   1  -4 -13   11.30    2.92
   1   4 -13   28.93    7.41
   1   4 -13   21.48    3.10
  -1  -4  12    9.26    3.24
  -1  -4  12    3.47    2.45
  -1  -4  12    5.97    2.64
  -1   4  12    3.84    2.41
  -1   4  12   10.37    2.87
   1  -4 -12    5.79    3.29
   1  -4 -12    5.79    3.15
   1  -4 -12    2.73    2.55
   1   4 -12    7.55    3.15
   1   4 -12    8.61    3.01
   1   4 -12   11.06    3.01
  -1  -4  11   37.08    4.35
  -1  -4  11   13.52    2.92
  -1  -4  11   24.03    3.01
  -1   4  11   34.30    3.33
  -1   4  11   27.45    3.19
   1  -4 -11   28.38    3.70
   1  -4 -11   13.10    2.82
   1  -4 -11   16.34    2.73
   1   4 -11   30.92    3.89
   1   4 -11   34.90    3.47
   1   4 -11   24.44    3.15
  -1  -4  10   13.66    2.64
  -1  -4  10    7.36    1.94
  -1  -4  10    9.77    2.41
  -1   4  10   11.90    2.27
  -1   4  10   10.55    1.57
  -1   4  10    9.72    2.41
   1  -4 -10    8.84    2.73
   1  -4 -10    6.94    2.64
   1  -4 -10    3.47    2.22
   1   4 -10    5.97    2.87
   1   4 -10   11.76    2.59
   1   4 -10   10.79    2.50
  -1  -4   9   27.36    3.19
  -1  -4   9   14.58    2.22
  -1  -4   9   17.08    2.55
  -1   4   9   25.09    3.15
  -1   4   9   26.11    2.04
  -1   4   9   23.79    2.73
   1  -4  -9   21.57    3.10
   1  -4  -9   14.58    2.78
   1  -4  -9   18.79    2.45
   1   4  -9   27.36    2.73
   1   4  -9   24.72    2.96
  -1  -4   8   22.31    2.73
  -1  -4   8   14.72    2.04
  -1  -4   8   19.16    2.50
  -1   4   8   21.48    2.59
  -1   4   8   18.38    1.94
  -1   4   8   23.84    2.59
   1  -4  -8   19.35    2.64
   1  -4  -8   20.88    2.82
   1  -4  -8   16.39    2.22
   1   4  -8   31.29    3.06
   1   4  -8   15.55    2.22
   1   4  -8   23.05    2.59
   1   4  -8   25.69    1.62
  -1  -4   7   30.14    3.10
  -1  -4   7   24.03    2.50
  -1  -4   7   33.38    3.01
  -1   4   7   50.64    1.76
  -1   4   7   33.14    2.55
  -1   4   7   29.16    2.04
  -1   4   7   29.26    2.92
   1  -4  -7   40.09    3.47
   1  -4  -7   26.39    2.78
   1   4  -7   44.90    3.15
   1   4  -7   33.98    2.82
   1   4  -7   26.02    2.82
   1   4  -7   39.44    1.62
  -1  -4   6   37.87    2.78
  -1  -4   6   45.04    5.00
  -1   4   6   63.74    2.08
  -1   4   6   40.32    2.59
  -1   4   6   35.18    2.04
  -1   4   6   48.79    3.66
   1  -4  -6   38.38    2.92
   1  -4  -6   27.87    2.73
   1   4  -6   59.48    3.33
   1   4  -6   32.82    2.68
   1   4  -6   45.23    5.46
   1   4  -6   47.08    1.76
  -1  -4   5    2.59    1.71
  -1  -4   5    2.08    1.06
  -1  -4   5    2.31    1.67
  -1  -4   5    1.81    1.57
  -1   4   5    5.56    1.20
  -1   4   5    0.23    1.30
  -1   4   5    4.35    1.25
  -1   4   5    5.88    1.76
   1  -4  -5    5.23    1.16
   1  -4  -5    0.46    1.94
   1  -4  -5    1.94    1.67
   1  -4  -5    0.14    1.53
   1  -4  -5    2.45    1.53
   1   4  -5    5.65    2.92
   1   4  -5    2.31    1.71
   1   4  -5    1.16    1.62
   1   4  -5    2.27    1.06
  -1  -4   4    7.08    1.81
  -1  -4   4    4.68    1.06
  -1  -4   4    8.05    1.71
  -1  -4   4    4.40    1.62
  -1   4   4   17.91    1.90
  -1   4   4    5.97    1.48
  -1   4   4    6.25    1.30
  -1   4   4    9.67    1.81
   1  -4  -4   16.90    1.76
   1  -4  -4   11.25    2.13
   1  -4  -4    6.80    1.76
   1  -4  -4    6.16    1.85
   1  -4  -4    8.61    1.76
   1   4  -4   16.43    2.55
   1   4  -4    5.79    1.81
   1   4  -4    6.67    1.81
   1   4  -4    8.33    1.16
  -1  -4   3   32.17    3.06
  -1  -4   3   17.78    1.48
  -1  -4   3   23.98    2.59
  -1  -4   3   22.96    2.41
  -1   4   3   42.82    2.22
  -1   4   3   21.57    2.04
  -1   4   3   26.90    2.04
  -1   4   3   28.98    2.64
   1  -4  -3   42.08    2.08
   1  -4  -3   28.01    3.24
   1  -4  -3   20.92    2.36
   1  -4  -3   28.56    2.50
   1   4  -3   34.26    3.43
   1   4  -3   19.49    2.45
   1   4  -3   24.72    2.59
   1   4  -3   38.05    1.94
  -1  -4   2    7.18    1.81
  -1  -4   2    2.41    0.88
  -1  -4   2    3.33    1.67
  -1  -4   2    3.24    1.85
  -1  -4   2    5.09    1.85
  -1   4   2    7.36    1.48
  -1   4   2    4.35    1.34
  -1   4   2    4.86    1.67
   1  -4  -2    7.87    1.39
   1  -4  -2    6.11    1.90
   1  -4  -2    0.83    1.30
   1  -4  -2    4.58    1.81
   1  -4  -2    2.68    1.44
   1   4  -2    7.92    2.27
   1   4  -2    1.85    0.83
   1   4  -2    3.61    1.67
   1   4  -2    3.47    1.20
  -1  -4   1  168.87    3.93
  -1  -4   1  124.29    2.50
  -1  -4   1  120.36    3.61
  -1  -4   1  169.57    3.38
  -1  -4   1  125.22    3.66
  -1   4   1  283.07    4.63
  -1   4   1  136.79    3.38
  -1   4   1  167.58    3.70
  -1   4   1  192.76    4.40
   1  -4  -1  266.92    4.95
   1  -4  -1  210.07    4.58
   1  -4  -1  136.47    3.61
   1  -4  -1  139.20    3.66
   1  -4  -1  155.08    3.52
   1  -4  -1  181.65    3.93
   1   4  -1  216.92    5.05
   1   4  -1  125.96    2.45
   1   4  -1  130.22    3.70
   1   4  -1  227.15    3.80
  -1  -4   0   23.33    2.68
  -1  -4   0   14.95    2.13
  -1  -4   0   16.80    1.62
  -1  -4   0    8.15    1.71
  -1   4   0   21.71    2.64
  -1   4   0    3.93    1.39
  -1   4   0    8.80    1.62
  -1   4   0    9.91    1.76
  -1   4   0   10.69    1.85
   1  -4   0   26.99    2.73
   1  -4   0   13.24    2.13
   1  -4   0    7.36    1.53
   1  -4   0    8.33    1.71
   1  -4   0    9.86    1.76
   1  -4   0    7.64    1.71
   1  -4   0   11.43    1.81
   1   4   0   41.71    3.80
   1   4   0    7.73    1.02
   1   4   0   11.85    2.08
  -1  -4  -1   68.56    3.10
  -1  -4  -1   50.13    2.78
  -1  -4  -1   69.53    2.13
  -1  -4  -1   47.96    2.68
  -1   4  -1  106.47    3.43
  -1   4  -1   58.10    2.78
  -1   4  -1   61.98    2.73
  -1   4  -1   64.48    2.87
   1  -4   1   97.91    3.47
   1  -4   1   86.06    3.61
   1  -4   1   49.25    2.55
   1  -4   1   53.14    2.78
   1  -4   1   65.73    2.82
   1  -4   1   68.28    2.96
   1  -4   1   69.30    2.78
   1   4   1   84.57    4.21
   1   4   1   63.65    1.94
   1   4   1   51.43    3.01
   1   4   1   97.95    3.29
  -1  -4  -2  100.87    3.38
  -1  -4  -2   75.09    3.29
  -1  -4  -2   97.72    2.22
  -1  -4  -2   69.90    3.29
  -1   4  -2  155.63    4.12
  -1   4  -2   88.37    6.02
  -1   4  -2   93.19    3.33
  -1   4  -2   98.55    3.29
   1  -4   2  141.70    4.03
   1  -4   2   69.25    2.87
   1  -4   2   90.36    3.15
   1  -4   2   98.42    3.29
   1  -4   2   97.26    3.06
   1   4   2  116.33    4.49
   1   4   2   97.31    2.41
   1   4   2   93.93    2.13
   1   4   2  148.04    3.80
  -1  -4  -3  154.34    4.31
  -1  -4  -3  124.25    3.93
  -1  -4  -3  150.63    2.41
  -1  -4  -3  116.70    3.61
  -1   4  -3  251.04    4.91
  -1   4  -3  210.58    4.49
  -1   4  -3  171.23    3.84
   1  -4   3  249.28    4.86
   1  -4   3  207.80    3.98
   1  -4   3  114.57    3.43
   1  -4   3  155.82    3.98
   1  -4   3  158.78    3.61
   1   4   3  192.67    5.23
   1   4   3  186.42    3.19
   1   4   3  153.32    2.41
   1   4   3  231.87    4.68
  -1  -4  -4    5.60    1.62
  -1  -4  -4    9.03    2.45
  -1  -4  -4    6.30    2.04
  -1  -4  -4    2.50    1.81
  -1   4  -4   10.05    2.27
  -1   4  -4   10.60    1.99
  -1   4  -4    6.11    1.85
  -1   4  -4    7.78    1.85
   1  -4   4   10.51    2.18
   1  -4   4    6.94    1.62
   1  -4   4    3.47    1.53
   1  -4   4    6.71    1.76
   1  -4   4    7.27    1.67
   1   4   4    8.24    2.59
   1   4   4    7.87    1.25
   1   4   4    4.63    0.79
   1   4   4   10.65    1.34
   1   4   4   12.50    1.99
  -1  -4  -5  151.00    3.38
  -1  -4  -5  111.79    3.93
  -1   4  -5  234.79    5.32
  -1   4  -5  192.57    3.80
  -1   4  -5  132.26    5.93
  -1   4  -5  173.96    4.26
   1  -4   5  217.71    4.95
   1  -4   5  105.64    3.52
   1  -4   5  141.56    3.84
   1  -4   5  145.12    3.56
   1   4   5  198.82    3.66
   1   4   5  143.41    1.67
   1   4   5  223.08    4.81
  -1  -4  -6   22.22    2.18
  -1  -4  -6   28.79    3.56
  -1  -4  -6   14.67    2.27
  -1  -4  -6   15.92    2.45
  -1   4  -6   42.68    3.66
  -1   4  -6   28.84    2.59
  -1   4  -6   19.86    3.52
  -1   4  -6   27.91    3.15
   1  -4   6   34.86    3.24
   1  -4   6   15.28    2.08
   1  -4   6   18.61    2.22
   1  -4   6   13.75    1.85
   1   4   6   19.03    2.96
   1   4   6   31.94    2.55
  -1  -4  -7  257.71    3.98
  -1  -4  -7  335.71    6.80
  -1  -4  -7  197.85    5.00
  -1  -4  -7  190.21    7.59
  -1   4  -7  427.32    6.90
  -1   4  -7  350.47    4.07
  -1   4  -7  323.39    4.91
  -1   4  -7  458.94   10.23
   1  -4   7  440.93    7.22
   1  -4   7  278.07    5.65
   1  -4   7  248.73    4.35
   1   4   7  320.34    7.18
   1   4   7  419.91    5.46
   1   4   7  416.12    6.71
  -1  -4  -8   89.71    2.78
  -1  -4  -8  115.87    5.28
  -1  -4  -8   84.07    4.26
  -1  -4  -8   74.58    3.80
  -1   4  -8  164.98    5.32
  -1   4  -8  133.13    3.89
  -1   4  -8  183.36    5.23
   1  -4   8   79.71    3.70
   1  -4   8  103.05    4.17
   1  -4   8   93.05    3.24
   1   4   8  130.87    5.97
   1   4   8  166.09    4.21
   1   4   8  154.57    4.81
  -1  -4  -9   18.66    2.13
  -1  -4  -9   20.32    3.19
  -1  -4  -9   17.22    2.92
  -1  -4  -9   20.28    3.01
  -1   4  -9   30.18    3.43
  -1   4  -9   31.99    3.15
  -1   4  -9   33.33    3.89
   1  -4   9   13.79    2.41
   1  -4   9   24.30    2.82
   1  -4   9   17.31    2.04
   1   4   9   20.00    3.61
   1   4   9   32.73    3.10
   1   4   9   31.02    3.47
  -1  -4 -10    5.74    3.19
  -1  -4 -10    9.40    2.59
  -1  -4 -10    4.86    2.87
  -1   4 -10   17.36    3.43
  -1   4 -10   15.60    2.59
  -1   4 -10   14.58    2.73
   1  -4  10    5.88    2.27
   1  -4  10    8.75    2.45
   1  -4  10    7.96    1.94
   1   4  10    9.30    4.03
   1   4  10   15.79    2.41
   1   4  10   14.21    2.73
  -1  -4 -11   20.46    3.93
  -1  -4 -11   11.43    2.92
  -1  -4 -11   18.79    3.52
  -1   4 -11   26.80    3.56
  -1   4 -11   47.36    3.98
  -1   4 -11   50.04    4.77
   1  -4  11   22.08    2.96
   1  -4  11   25.55    3.15
   1  -4  11   16.71    2.08
   1   4  11   30.32    4.95
   1   4  11   36.52    3.33
   1   4  11   39.49    4.12
  -1  -4 -12   16.99    3.84
  -1  -4 -12   13.93    3.70
  -1   4 -12   32.08    3.29
  -1   4 -12   36.25    4.26
   1  -4  12   18.89    3.15
   1   4  12   11.76    4.58
   1   4  12   30.00    3.33
  -1  -4 -13    5.23    3.33
  -1  -4 -13    8.33    5.42
  -1   4 -13   11.53    3.66
  -1   4 -13   14.63    3.70
   1  -4  13   14.81    3.24
   1   4  13   11.99    9.72
   1   4  13   20.74    3.10
   1   4  13   22.82    3.70
  -1  -5  11   33.98    4.68
  -1  -5  11   14.91    2.68
  -1  -5  11   21.39    3.70
  -1   5  11   25.23    5.93
  -1   5  11   25.55    3.43
  -1   5  11   32.77    4.03
   1  -5 -11   25.32    4.77
   1  -5 -11   22.78    3.98
   1  -5 -11   15.51    3.24
   1   5 -11   31.25    5.00
   1   5 -11   27.91    3.84
   1   5 -11   21.20    3.75
  -1  -5  10   16.66    4.03
  -1  -5  10   11.16    2.68
  -1  -5  10    8.33    5.09
  -1   5  10   18.15    5.37
  -1   5  10   12.22    2.68
  -1   5  10   10.83    3.15
   1  -5 -10   12.17    4.07
   1  -5 -10    5.56    2.92
   1   5 -10   11.67    4.44
   1   5 -10   13.66    3.47
   1   5 -10    6.43    3.93
  -1  -5   9   52.26    5.37
  -1  -5   9   29.26    3.43
  -1   5   9   34.02    7.04
  -1   5   9   41.52    3.61
  -1   5   9   38.10    4.31
   1  -5  -9   32.54    5.93
   1  -5  -9   20.23    3.52
   1  -5  -9   16.11    2.92
   1   5  -9   37.40    7.27
   1   5  -9   24.26    3.06
   1   5  -9   31.11    3.66
  -1  -5   8    9.95    3.06
  -1  -5   8   10.14    2.22
  -1  -5   8   11.30    3.24
  -1   5   8   14.35    2.41
  -1   5   8   13.24    3.06
   1  -5  -8   17.04    3.89
   1  -5  -8    9.63    3.06
   1   5  -8   14.72    3.15
   1   5  -8   18.38    3.06
   1   5  -8    9.49    2.96
  -1  -5   7   37.87    4.35
  -1  -5   7   19.49    2.45
  -1  -5   7   28.65    3.19
  -1   5   7   29.35    3.47
  -1   5   7   28.61    3.10
  -1   5   7   36.57    3.93
   1  -5  -7   37.59    4.17
   1  -5  -7   21.53    3.15
   1  -5  -7   19.35    2.78
   1   5  -7   41.38    4.81
   1   5  -7   19.30    2.82
   1   5  -7   23.56    3.19
  -1  -5   6  249.74    6.30
  -1  -5   6  138.88    3.98
  -1  -5   6  213.40    5.46
  -1  -5   6  195.67    5.65
  -1   5   6  214.38    5.05
  -1   5   6  200.49    4.26
  -1   5   6  258.21    6.20
   1  -5  -6  270.62    7.31
   1  -5  -6  177.99    5.69
   1  -5  -6  155.22    4.72
   1   5  -6  268.31    6.20
   1   5  -6  196.55    5.51
   1   5  -6  184.94    5.56
  -1  -5   5   45.60    4.03
  -1  -5   5   25.41    2.68
  -1  -5   5   44.12    3.98
  -1  -5   5   43.51    4.17
  -1   5   5   60.46    3.38
  -1   5   5   38.14    3.24
  -1   5   5   41.48    3.01
  -1   5   5   47.73    3.89
   1  -5  -5   63.14    3.01
   1  -5  -5   56.48    5.23
   1  -5  -5   36.71    3.70
   1  -5  -5   30.18    2.87
   1   5  -5   56.71    5.14
   1   5  -5   35.14    3.84
   1   5  -5   42.87    4.17
   1   5  -5   52.91    2.87
  -1  -5   4    1.90    2.45
  -1  -5   4    1.85    1.62
  -1  -5   4    0.83    2.31
  -1  -5   4    1.25    2.45
  -1   5   4    2.87    2.45
  -1   5   4    6.39    4.03
  -1   5   4    3.38    1.85
  -1   5   4    1.85    2.41
   1  -5  -4    2.50    1.99
   1  -5  -4    5.93    3.01
   1  -5  -4    4.91    2.36
   1  -5  -4   -0.14    2.04
   1  -5  -4    1.53    2.13
   1   5  -4    9.77    3.29
   1   5  -4    2.73    2.22
   1   5  -4    3.75    2.68
  -1  -5   3   22.31    3.06
  -1  -5   3   10.55    1.90
  -1  -5   3   15.79    2.22
  -1  -5   3   12.17    2.50
  -1   5   3   35.83    3.61
  -1   5   3   29.26    4.44
  -1   5   3   12.96    2.41
  -1   5   3   14.81    2.18
  -1   5   3   17.91    2.55
   1  -5  -3   32.91    3.29
   1  -5  -3   40.74    4.77
   1  -5  -3   12.87    2.59
   1  -5  -3   13.98    2.45
   1  -5  -3   18.10    2.64
   1   5  -3   31.29    3.75
   1   5  -3    9.12    1.71
   1   5  -3   15.00    2.82
   1   5  -3   18.19    2.82
   1   5  -3   28.19    2.92
  -1  -5   2   36.52    4.07
  -1  -5   2   17.73    2.22
  -1  -5   2   23.42    2.87
  -1  -5   2   29.67    3.19
  -1  -5   2   26.62    3.24
  -1   5   2   44.07    3.84
  -1   5   2   34.63    4.26
  -1   5   2   20.65    2.55
  -1   5   2   23.05    2.68
  -1   5   2   32.87    3.19
   1  -5  -2   40.51    3.66
   1  -5  -2   47.36    5.14
   1  -5  -2   25.41    3.15
   1  -5  -2   33.33    3.38
   1   5  -2   49.30    5.09
   1   5  -2   26.53    3.10
   1   5  -2   20.09    2.92
   1   5  -2   39.76    3.06
  -1  -5   1   57.68    3.66
  -1  -5   1   72.08    3.43
  -1  -5   1   60.36    4.03
  -1   5   1  109.06    4.54
  -1   5   1   78.88    7.96
  -1   5   1   56.48    3.29
  -1   5   1   69.85    3.19
  -1   5   1   61.38    3.61
   1  -5  -1  101.19    4.35
   1  -5  -1   70.27    6.76
   1  -5  -1   55.87    3.56
   1  -5  -1   55.83    3.84
   1  -5  -1   62.49    3.19
   1  -5  -1   63.79    3.56
   1  -5  -1   66.47    4.40
   1   5  -1   90.32    7.73
   1   5  -1   58.74    3.80
   1   5  -1  103.51    3.89
  -1  -5   0   34.86    3.80
  -1  -5   0   28.47    3.19
  -1  -5   0   32.82    2.82
  -1  -5   0   29.49    3.15
  -1   5   0   54.67    4.07
  -1   5   0   44.39    5.14
  -1   5   0   27.87    2.68
  -1   5   0   36.39    3.38
  -1   5   0   31.80    2.82
  -1   5   0   27.87    3.24
  -1   5   0   33.75    3.10
   1  -5   0   52.54    3.75
   1  -5   0   44.21    4.54
   1  -5   0   25.83    2.87
   1  -5   0   28.10    2.87
   1  -5   0   28.24    2.78
   1  -5   0   30.55    3.15
   1  -5   0   34.21    3.66
   1   5   0   44.16    4.31
   1   5   0   23.38    2.45
   1   5   0   29.30    3.19
   1   5   0   45.46    3.15
  -1  -5  -1   30.18    3.61
  -1  -5  -1   11.71    2.68
  -1  -5  -1   10.69    2.45
  -1   5  -1   25.97    2.92
  -1   5  -1   24.44    3.56
  -1   5  -1    9.63    1.99
  -1   5  -1   15.60    2.50
  -1   5  -1   16.39    2.59
  -1   5  -1   18.56    2.59
  -1   5  -1   17.82    2.31
   1  -5   1   22.36    2.82
   1  -5   1   25.83    3.15
   1  -5   1   12.04    2.27
   1  -5   1   16.29    2.50
   1  -5   1   18.05    3.15
   1  -5   1   17.54    2.59
   1  -5   1   16.48    2.82
   1   5   1   47.26    5.28
   1   5   1   14.54    2.87
   1   5   1   29.16    3.33
  -1  -5  -2  124.66    4.44
  -1  -5  -2   87.31    4.44
  -1  -5  -2   97.07    2.82
  -1  -5  -2   76.29    3.93
  -1   5  -2  171.93    7.82
  -1   5  -2  138.37    5.93
  -1   5  -2   91.47    6.48
  -1   5  -2   90.50    3.89
  -1   5  -2  105.73    3.93
  -1   5  -2  118.65    4.40
  -1   5  -2  121.42    4.40
   1  -5   2  155.91    5.93
   1  -5   2  150.77    5.46
   1  -5   2   86.06    3.93
   1  -5   2  103.65    4.44
   1  -5   2  114.48    4.49
   1  -5   2  124.15    4.21
   1   5   2  152.11    6.43
   1   5   2   86.70    4.77
   1   5   2   98.51    2.92
   1   5   2  160.96    4.91
  -1  -5  -3   87.63    4.31
  -1  -5  -3   64.95    4.35
  -1  -5  -3   64.95    4.07
  -1   5  -3  139.71    4.81
  -1   5  -3  117.63    5.56
  -1   5  -3   79.99    3.84
  -1   5  -3   76.38    3.93
  -1   5  -3   90.41    3.84
   1  -5   3  128.60    5.18
   1  -5   3  116.47    5.18
   1  -5   3   65.46    3.56
   1  -5   3   81.01    4.07
   1  -5   3   88.09    3.56
   1   5   3  110.22    6.02
   1   5   3  100.50    3.38
   1   5   3   77.96    2.55
   1   5   3  125.50    4.31
  -1  -5  -4   30.60    3.56
  -1  -5  -4   14.35    2.68
  -1  -5  -4   13.01    2.78
  -1   5  -4   32.87    3.52
  -1   5  -4   27.68    3.47
  -1   5  -4   15.00    2.59
  -1   5  -4   17.73    2.78
  -1   5  -4   17.50    2.73
   1  -5   4   23.98    3.19
   1  -5   4   11.02    2.27
   1  -5   4   17.54    2.68
   1  -5   4   15.37    2.36
   1   5   4   29.77    4.21
   1   5   4   23.89    2.50
   1   5   4   31.34    3.38
  -1  -5  -5    6.30    2.18
  -1  -5  -5   -0.60    2.55
  -1  -5  -5    2.55    2.45
  -1   5  -5    7.59    2.68
  -1   5  -5   11.48    3.01
  -1   5  -5    4.07    2.22
  -1   5  -5    6.43    2.64
   1  -5   5    5.23    2.87
   1  -5   5    1.53    2.41
   1  -5   5    5.46    2.27
   1  -5   5    2.96    2.18
   1   5   5    8.84    3.66
   1   5   5    1.39    1.81
   1   5   5    6.20    2.31
  -1  -5  -6   21.90    2.50
  -1  -5  -6   10.37    2.78
  -1  -5  -6   15.37    3.06
  -1   5  -6   36.01    4.03
  -1   5  -6   15.69    2.59
  -1   5  -6   30.14    3.43
   1  -5   6   29.26    3.75
   1  -5   6   12.92    2.73
   1  -5   6   17.17    2.78
   1  -5   6   18.70    2.59
   1   5   6   17.54    4.17
   1   5   6   27.68    2.92
   1   5   6   30.00    3.70
  -1  -5  -7   11.71    2.13
  -1  -5  -7   11.53    2.96
  -1  -5  -7    9.12    3.24
  -1   5  -7    8.70    3.29
  -1   5  -7   13.42    2.45
  -1   5  -7   24.07    3.24
   1  -5   7   14.35    3.29
   1  -5   7    6.90    2.41
   1  -5   7   10.79    2.78
   1  -5   7    8.98    2.36
   1   5   7   17.54    4.49
   1   5   7   17.17    2.27
   1   5   7   14.35    3.24
  -1  -5  -8    9.07    4.03
  -1  -5  -8    5.56    2.92
  -1   5  -8   15.51    3.56
  -1   5  -8    5.09    2.50
  -1   5  -8   12.73    3.01
   1  -5   8    4.40    2.55
   1  -5   8   12.73    3.01
   1  -5   8    8.05    2.27
   1   5   8    9.21    2.22
   1   5   8    8.38    2.92
  -1  -5  -9    8.84    3.24
  -1  -5  -9    7.64    3.47
  -1   5  -9   31.43    5.09
  -1   5  -9   10.42    2.78
  -1   5  -9   11.76    3.10
   1  -5   9    5.42    2.73
   1  -5   9   13.19    2.78
   1   5   9    8.56    5.18
   1   5   9   18.19    2.59
  -1  -5 -10    5.69    3.33
  -1  -5 -10    2.64    3.98
  -1   5 -10    0.46    4.03
   1  -5  10   -1.67    3.01
   1  -5  10    3.56    3.06
   1   5  10    6.99    4.95
   1   5  10    6.16    2.27
   1   5  10    1.71    3.15
  -1  -6   5    1.48    4.07
  -1  -6   5    2.04    3.15
  -1  -6   5    3.70    3.33
  -1   6   5   -2.78    5.23
  -1   6   5    0.83    2.41
  -1   6   5    0.60    3.93
   1  -6  -5   -2.41    4.49
   1  -6  -5    1.67    3.10
   1   6  -5   -4.17    4.03
   1   6  -5   -0.51    3.29
   1   6  -5   -6.06    3.01
  -1  -6   4   11.53    5.88
  -1  -6   4    6.80    2.96
  -1  -6   4    5.97    4.03
  -1   6   4    6.11    2.50
  -1   6   4    3.47    2.59
  -1   6   4   11.80    3.19
   1  -6  -4    7.64    3.56
   1  -6  -4    2.82    3.01
   1   6  -4   10.32    4.58
   1   6  -4    9.95    3.47
   1   6  -4    6.94    4.49
  -1  -6   3    4.49    3.47
  -1  -6   3    5.46    2.50
  -1   6   3    8.75    3.19
  -1   6   3    7.36    4.95
  -1   6   3    2.92    2.55
  -1   6   3    1.16    2.55
  -1   6   3    7.22    2.87
   1  -6  -3   -0.74    4.49
   1  -6  -3    3.70    3.38
   1  -6  -3    0.23    2.87
   1   6  -3    8.33    4.26
   1   6  -3    8.43    2.96
   1   6  -3    6.57    3.93
  -1  -6   2   11.25    3.66
  -1  -6   2    8.66    2.68
  -1  -6   2   10.37    5.00
  -1   6   2   11.20    3.38
  -1   6   2   13.93    4.86
  -1   6   2    5.37    2.27
  -1   6   2   10.23    3.38
  -1   6   2    7.50    2.41
  -1   6   2    1.48    3.01
  -1   6   2   10.18    3.01
   1  -6  -2    6.48    3.06
   1  -6  -2    7.73    4.44
   1  -6  -2    8.61    3.19
   1  -6  -2    5.28    2.92
   1   6  -2   16.62    5.18
   1   6  -2    9.86    3.10
   1   6  -2   11.48    4.03
   1   6  -2   11.53    3.19
  -1  -6   1   40.92    5.09
  -1  -6   1   22.17    3.93
  -1  -6   1   17.41    5.37
  -1  -6   1   24.63    4.21
  -1   6   1   52.03    5.28
  -1   6   1   47.54    5.56
  -1   6   1   21.53    2.96
  -1   6   1   27.08    3.80
  -1   6   1   28.70    3.19
  -1   6   1   17.82    3.33
  -1   6   1   34.39    4.31
   1  -6  -1   37.31    3.80
   1  -6  -1   37.36    4.77
   1  -6  -1   22.31    3.52
   1  -6  -1   16.99    3.19
   1  -6  -1   34.77    4.21
   1   6  -1   42.59    5.28
   1   6  -1   19.54    3.47
   1   6  -1   36.01    4.40
   1   6  -1   36.20    4.21
  -1  -6   0   18.93    4.12
  -1  -6   0   21.62    2.64
  -1  -6   0   28.33    4.17
  -1   6   0   34.12    3.93
  -1   6   0   40.37    5.51
  -1   6   0   19.63    2.87
  -1   6   0   19.30    3.33
  -1   6   0   18.05    3.10
  -1   6   0   21.53    3.19
  -1   6   0   22.64    3.19
   1  -6   0   34.30    3.80
   1  -6   0   36.99    4.68
   1  -6   0   20.60    2.73
   1  -6   0   25.18    3.66
   1  -6   0   19.21    2.82
   1  -6   0   16.34    3.24
   1  -6   0   25.74    3.33
   1   6   0   44.63    5.28
   1   6   0   23.47    3.93
   1   6   0   21.53    2.64
   1   6   0   39.02    3.89
  -1  -6  -1    6.57    3.06
  -1  -6  -1    1.44    3.52
  -1   6  -1    5.18    3.47
  -1   6  -1   12.73    4.58
  -1   6  -1    2.31    2.22
  -1   6  -1    3.47    2.87
  -1   6  -1    3.33    2.78
  -1   6  -1    4.49    2.92
  -1   6  -1    7.68    2.59
   1  -6   1    6.71    3.19
   1  -6   1    8.61    3.98
   1  -6   1    5.00    2.36
   1  -6   1    3.01    2.87
   1  -6   1    6.11    2.64
   1  -6   1    4.17    2.96
   1  -6   1    5.28    2.68
   1   6   1    6.80    4.63
   1   6   1    3.52    2.92
  -1  -6  -2    5.46    2.92
  -1  -6  -2    1.16    3.98
  -1  -6  -2   -3.10    3.29
  -1   6  -2   -1.39    3.52
  -1   6  -2    6.57    4.40
  -1   6  -2   -2.68    2.13
  -1   6  -2    2.27    2.82
  -1   6  -2    5.51    3.10
  -1   6  -2   -0.69    3.06
  -1   6  -2    3.43    2.68
   1  -6   2   -0.79    2.96
   1  -6   2    1.99    2.73
   1  -6   2    2.13    2.92
   1  -6   2    0.32    2.45
   1   6   2    4.68    5.79
   1   6   2   -1.67    2.55
  -1  -6  -3    6.20    3.01
  -1  -6  -3    4.58    3.33
  -1  -6  -3    4.40    3.38
  -1   6  -3    8.93    3.93
  -1   6  -3   20.65    4.72
  -1   6  -3    6.30    2.78
  -1   6  -3    1.53    2.92
  -1   6  -3    2.73    2.73
  -1   6  -3    3.10    3.06
  -1   6  -3    7.55    2.82
   1  -6   3    4.63    3.61
   1  -6   3    5.23    2.92
   1  -6   3    6.71    3.01
   1  -6   3    4.63    2.82
   1   6   3    3.06    5.46
   1   6   3   -1.34    3.29
   1   6   3    9.21    3.29
  -1  -6  -4    2.36    2.92
  -1  -6  -4    2.27    3.75
  -1   6  -4   -1.11    3.66
  -1   6  -4   -4.07    4.49
  -1   6  -4    1.39    2.82
  -1   6  -4   -2.73    2.78
  -1   6  -4   -0.83    2.73
  -1   6  -4    0.97    3.19
  -1   6  -4    3.80    2.82
   1  -6   4   -4.07    3.98
   1  -6   4   -2.04    2.87
   1  -6   4    2.36    2.96
   1  -6   4    0.14    2.78
   1   6   4    1.25    5.51
   1   6   4   -2.82    3.89
   1   6   4   -1.90    2.78
  -2   0  18  135.77    5.74
  -2   0  18  110.59    5.05
  -2   0  18  138.60    4.54
   2   0 -18  116.89    6.76
   2   0 -18  170.49    6.53
  -2   0  17   17.22    3.15
  -2   0  17   19.81    2.82
  -2   0  17   19.35    2.64
   2   0 -17   18.52    3.89
   2   0 -17   14.77    2.68
   2   0 -17   23.56    3.56
   2   0 -17   30.41    3.89
  -2   0  16   68.70    4.26
  -2   0  16   61.61    3.80
  -2   0  16   70.64    3.47
   2   0 -16   72.77    3.61
   2   0 -16   38.56    3.61
   2   0 -16   62.82    4.77
   2   0 -16   96.10    4.95
  -2   0  15   21.43    2.55
  -2   0  15   20.83    2.59
  -2   0  15   19.81    2.13
   2   0 -15   20.28    2.96
   2   0 -15   10.37    2.04
   2   0 -15   16.53    2.96
   2   0 -15   22.45    3.29
  -2   0  14    6.57    1.48
  -2   0  14   11.30    2.31
  -2   0  14    7.22    1.94
   2   0 -14    8.24    1.62
   2   0 -14    6.43    1.90
   2   0 -14    9.17    2.27
   2   0 -14   11.76    2.50
  -2   0  13   82.86    2.45
  -2   0  13  112.30    3.84
  -2   0  13   95.18    3.52
  -2   0  13   99.71    2.73
   2   0 -13   87.82    2.64
   2   0 -13   59.58    4.12
   2   0 -13  131.28    4.81
   2   0 -13  170.58    4.44
  -2   0  12   12.08    1.30
  -2   0  12   19.72    2.22
  -2   0  12   13.15    1.94
  -2   0  12   16.06    1.67
   2   0 -12   13.24    1.44
   2   0 -12   11.02    1.67
   2   0 -12   23.15    2.41
   2   0 -12   18.84    2.31
  -2   0  11   11.99    1.39
  -2   0  11   18.10    2.13
  -2   0  11   10.83    1.76
  -2   0  11   11.39    1.44
   2   0 -11   11.67    1.48
   2   0 -11   18.52    2.31
   2   0 -11   23.19    2.41
  -2   0  10  543.05    4.54
  -2   0  10  792.79    7.13
  -2   0  10  654.70    6.48
  -2   0  10  590.91    4.81
   2   0 -10  641.51    5.69
   2   0 -10 1017.81    8.29
   2   0 -10 1168.45    7.78
  -2   0   9  288.95    3.24
  -2   0   9  447.64    5.14
  -2   0   9  376.95    4.91
  -2   0   9  323.86    3.43
   2   0  -9  357.09    4.21
   2   0  -9  667.16    6.53
   2   0  -9  626.19    5.37
  -2   0   8    9.91    1.16
  -2   0   8    8.75    1.20
  -2   0   8    6.90    0.83
  -2   0   8    5.79    0.97
   2   0  -8    5.00    1.02
   2   0  -8   10.32    1.20
   2   0  -8   18.01    1.62
   2   0  -8   15.32    1.30
  -2   0   7  911.34    5.14
  -2   0   7 1309.17    7.45
  -2   0   7 1185.21    7.45
  -2   0   7  863.76    4.91
  -2   0   7  764.14    4.63
   2   0  -7  768.26    4.72
   2   0  -7 1282.09    7.18
   2   0  -7 1973.41    9.67
   2   0  -7 1521.51    7.04
   2   0  -7  851.16    4.86
  -2   0   6    4.21    0.65
  -2   0   6    4.95    0.74
  -2   0   6    4.81    0.88
  -2   0   6    5.00    0.88
  -2   0   6    4.03    0.69
   2   0  -6    3.84    0.79
   2   0  -6    6.06    0.88
   2   0  -6   10.05    1.06
   2   0  -6    6.67    0.79
   2   0  -6    3.38    0.83
   2   0  -6    3.75    0.60
  -2   0   5   90.18    1.67
  -2   0   5  111.01    1.99
  -2   0   5  118.14    2.22
  -2   0   5   72.35    1.48
  -2   0   5   80.78    1.57
   2   0  -5   82.58    1.67
   2   0  -5  148.69    2.45
   2   0  -5  191.93    2.73
   2   0  -5  119.80    1.76
   2   0  -5   68.70    1.44
   2   0  -5   76.15    1.44
  -2   0   4  209.75    2.36
  -2   0   4  217.76    2.45
  -2   0   4  267.24    3.10
  -2   0   4  187.71    2.13
   2   0  -4  203.41    2.36
   2   0  -4  355.47    3.52
   2   0  -4  171.93    2.22
   2   0  -4  437.36    3.75
   2   0  -4  222.62    2.08
   2   0  -4  145.49    1.76
   2   0  -4  181.23    2.08
  -2   0   3   32.87    1.06
  -2   0   3   29.81    0.97
  -2   0   3   24.07    0.97
  -2   0   3   41.11    1.34
  -2   0   3   41.76    1.30
  -2   0   3   27.40    0.79
  -2   0   3   31.62    1.16
   2   0  -3   31.57    1.11
   2   0  -3   53.74    1.48
   2   0  -3   25.51    0.97
   2   0  -3   60.64    1.44
   2   0  -3   27.54    0.83
   2   0  -3   23.24    0.83
   2   0  -3   30.51    0.97
  -2   0   2   35.92    1.11
  -2   0   2   52.82    1.71
  -2   0   2   26.29    0.88
  -2   0   2   25.41    0.93
  -2   0   2   34.53    1.11
  -2   0   2   37.87    1.20
  -2   0   2   25.14    0.74
  -2   0   2   36.66    1.20
   2   0  -2   37.91    1.25
   2   0  -2   57.63    1.53
   2   0  -2   51.85    1.20
   2   0  -2   34.67    1.20
   2   0  -2   25.97    0.83
   2   0  -2   32.27    1.02
  -2   0   1  594.57    4.07
  -2   0   1  817.28    4.91
  -2   0   1  402.60    2.82
  -2   0   1  406.67    2.87
  -2   0   1  499.67    3.06
  -2   0   1  560.87    3.93
  -2   0   1  380.70    2.45
  -2   0   1  654.70    4.12
   2   0  -1  617.67    4.12
   2   0  -1  834.36    4.91
   2   0  -1  390.33    2.78
   2   0  -1  649.75    3.52
   2   0  -1  531.24    3.80
   2   0  -1  481.57    2.78
   2   0  -1  538.70    3.70
  -2   0   0   -0.14    0.42
  -2   0   0    1.34    0.83
  -2   0   0    1.30    0.46
  -2   0   0    0.56    0.42
  -2   0   0    0.74    0.42
  -2   0   0    0.83    0.32
  -2   0   0    1.85    0.65
   2   0   0    0.00    0.51
   2   0   0    0.88    0.56
   2   0   0    0.14    0.28
   2   0   0    0.74    0.37
   2   0   0    0.74    0.42
   2   0   0    0.51    0.51
   2   0   0    1.44    0.51
   2   0   0   -0.23    0.42
  -2   0  -1   96.80    1.85
  -2   0  -1  110.22    2.13
  -2   0  -1   75.64    1.48
  -2   0  -1   76.89    1.48
  -2   0  -1   75.13    1.39
  -2   0  -1  123.46    2.36
   2   0   1  117.81    1.99
   2   0   1   60.32    1.25
   2   0   1   65.73    1.06
   2   0   1   59.48    1.06
   2   0   1   80.64    1.53
   2   0   1  116.47    1.76
   2   0   1   94.81    1.81
  -2   0  -2  572.67    4.49
  -2   0  -2  592.72    4.17
  -2   0  -2  492.82    3.70
  -2   0  -2  318.26    2.22
  -2   0  -2  404.13    3.29
  -2   0  -2  415.10    3.33
  -2   0  -2  478.19    3.66
   2   0   2  611.19    4.17
   2   0   2  364.41    3.10
   2   0   2  343.81    2.31
   2   0   2  423.34    3.33
   2   0   2  764.69    4.63
   2   0   2  531.94    4.31
  -2   0  -3   26.71    1.25
  -2   0  -3   36.11    1.85
  -2   0  -3   27.03    1.44
  -2   0  -3   12.92    0.69
  -2   0  -3   18.56    0.97
  -2   0  -3   18.79    1.20
  -2   0  -3   23.79    1.16
   2   0   3   38.33    1.53
   2   0   3   15.92    1.02
   2   0   3   19.91    0.93
   2   0   3   28.56    1.25
  -2   0  -4    2.08    0.74
  -2   0  -4    2.55    1.11
  -2   0  -4    1.39    0.46
  -2   0  -4    0.83    0.56
  -2   0  -4    1.85    0.79
  -2   0  -4    2.41    0.79
   2   0   4    3.66    0.83
   2   0   4    0.93    0.51
   2   0   4    1.30    0.65
   2   0   4    0.88    0.46
   2   0   4    2.55    0.74
  -2   0  -5   40.78    1.71
  -2   0  -5   23.33    0.97
  -2   0  -5   28.98    1.16
  -2   0  -5   36.62    1.57
   2   0   5   75.64    1.99
   2   0   5   31.02    1.39
   2   0   5   46.25    1.48
   2   0   5   26.34    1.11
   2   0   5   41.89    1.62
  -2   0  -6  460.19    4.86
  -2   0  -6  454.12    5.23
  -2   0  -6  284.23    2.96
  -2   0  -6  337.51    3.52
  -2   0  -6  467.55    5.00
   2   0   6  450.97    3.93
   2   0   6  278.77    3.89
   2   0   6  366.12    4.26
   2   0   6  585.77    4.26
   2   0   6  319.92    3.43
   2   0   6  475.88    5.05
  -2   0  -7    8.93    1.25
  -2   0  -7    6.80    0.93
   2   0   7   16.94    1.71
   2   0   7    3.89    1.06
   2   0   7    5.51    0.88
  -2   0  -8    3.93    1.02
  -2   0  -8    4.95    1.57
   2   0   8    2.36    1.20
   2   0   8    2.22    0.88
   2   0   8    3.10    1.30
  -2   0  -9    0.46    1.44
  -2   0  -9    0.51    0.97
  -2   0  -9    0.88    1.53
   2   0   9    1.85    1.11
   2   0   9    0.93    1.20
   2   0   9    0.32    0.97
   2   0   9    0.14    1.30
  -2   0 -10   -0.56    1.62
  -2   0 -10    0.19    1.20
  -2   0 -10   -0.46    1.57
   2   0  10   -0.32    1.25
   2   0  10    0.23    1.06
   2   0  10   -0.19    1.02
   2   0  10   -0.60    1.48
  -2   0 -11   15.74    2.31
  -2   0 -11    6.11    2.13
   2   0  11   10.42    1.67
   2   0  11   11.25    1.90
   2   0  11    8.93    1.90
  -2   0 -12   14.44    2.31
  -2   0 -12   11.57    2.04
  -2   0 -12   13.29    2.36
   2   0  12   13.98    1.85
   2   0  12   11.90    2.08
   2   0  12   10.51    1.81
   2   0  12   15.14    2.41
  -2   0 -13   23.38    4.26
  -2   0 -13   16.80    2.45
  -2   0 -13   21.94    3.10
   2   0  13   25.23    3.01
   2   0  13   19.54    2.50
   2   0  13   12.82    1.99
   2   0  13   22.96    2.96
  -2   0 -14    3.70    2.55
  -2   0 -14   -1.06    2.13
  -2   0 -14   -1.85    2.31
   2   0  14    0.37    2.08
   2   0  14    0.09    1.81
   2   0  14    3.93    2.45
  -2   0 -15    2.50    2.78
  -2   0 -15   -2.96    2.82
   2   0  15    0.69    2.41
   2   0  15   -3.84    1.85
   2   0  15    3.47    2.92
  -2   0 -16   33.93    3.70
  -2   0 -16   23.56    3.24
  -2   0 -16   23.70    3.75
   2   0  16   28.05    3.15
   2   0  16   19.95    4.86
   2   0  16   30.97    3.52
  -2  -1  18   20.69    3.56
  -2  -1  18   17.91    3.43
  -2   1  18   19.72    3.47
  -2   1  18   19.67    3.19
  -2   1  18   17.73    3.10
   2  -1 -18   15.65    3.24
   2  -1 -18   15.88    3.75
   2  -1 -18   20.37    3.75
   2   1 -18   14.30    3.43
   2   1 -18   24.77    5.79
  -2  -1  17   69.44    4.63
  -2  -1  17   56.01    4.31
  -2   1  17   62.45    4.58
  -2   1  17   49.25    3.93
  -2   1  17   58.79    4.40
   2  -1 -17   40.97    4.54
   2  -1 -17   43.00    4.49
   2  -1 -17   63.88    4.77
   2   1 -17   74.25    7.13
   2   1 -17   86.47    5.18
   2   1 -17  105.17    5.88
  -2  -1  16   17.91    2.55
  -2  -1  16   23.42    3.01
  -2  -1  16   21.11    2.78
  -2   1  16   19.63    2.96
  -2   1  16   21.25    2.68
   2  -1 -16   10.83    2.68
   2  -1 -16   14.17    2.92
   2  -1 -16   18.70    3.06
   2   1 -16   24.03    3.01
   2   1 -16   25.92    3.89
   2   1 -16   29.21    3.61
  -2  -1  15  159.01    4.58
  -2  -1  15  182.34    5.05
  -2  -1  15  150.54    4.86
  -2  -1  15  178.04    3.19
  -2   1  15  204.89    5.42
  -2   1  15  158.22    4.44
  -2   1  15  179.89    4.68
   2  -1 -15  139.48    4.68
   2  -1 -15  159.57    5.00
   2  -1 -15  182.90    5.28
   2   1 -15  185.31    5.09
   2   1 -15  138.50    3.61
   2   1 -15  259.84    6.06
   2   1 -15  313.90    6.53
  -2  -1  14   71.57    3.33
  -2  -1  14   85.22    3.70
  -2  -1  14   74.34    3.80
  -2   1  14  103.23    4.07
  -2   1  14   72.40    3.29
  -2   1  14   82.21    3.38
   2  -1 -14   95.82    2.08
   2  -1 -14   73.00    3.98
   2  -1 -14   80.27    4.21
   2  -1 -14   88.00    3.93
   2   1 -14   78.09    3.89
   2   1 -14   69.34    3.01
   2   1 -14  132.49    4.54
   2   1 -14  138.55    5.14
  -2  -1  13   24.16    2.55
  -2  -1  13   29.44    2.73
  -2  -1  13   22.41    2.31
  -2  -1  13   27.31    1.67
  -2   1  13   31.43    2.41
  -2   1  13   25.78    2.82
  -2   1  13   26.20    2.73
   2  -1 -13   30.60    1.53
   2  -1 -13   24.63    2.36
   2  -1 -13   26.02    2.78
   2  -1 -13   34.12    3.01
   2   1 -13   26.25    2.55
   2   1 -13   23.15    2.27
   2   1 -13   42.50    3.01
  -2  -1  12   65.87    2.92
  -2  -1  12   78.28    3.15
  -2  -1  12   61.98    3.10
  -2  -1  12   83.28    1.94
  -2  -1  12   46.01    1.90
  -2   1  12   80.78    2.96
  -2   1  12   73.60    2.92
  -2   1  12   67.54    2.73
   2  -1 -12   86.66    1.76
   2  -1 -12   45.37    1.62
   2  -1 -12   61.43    3.01
   2  -1 -12   67.68    3.19
   2  -1 -12   86.33    3.19
   2   1 -12   70.18    2.45
   2   1 -12  128.09    3.93
   2   1 -12  105.82    3.52
  -2  -1  11    9.35    1.62
  -2  -1  11    8.33    1.76
  -2  -1  11    7.64    0.88
  -2  -1  11    5.23    0.97
  -2   1  11    8.66    1.44
  -2   1  11    8.33    1.53
  -2   1  11    6.53    1.57
   2  -1 -11    9.12    1.02
   2  -1 -11    6.57    0.88
   2  -1 -11    4.17    1.53
   2  -1 -11    5.88    1.71
   2  -1 -11   11.53    1.57
   2   1 -11    9.21    1.34
   2   1 -11   11.76    1.94
   2   1 -11    9.86    1.71
  -2  -1  10   55.50    2.27
  -2  -1  10   83.74    2.92
  -2  -1  10   71.98    2.82
  -2  -1  10   82.49    1.57
  -2  -1  10   46.01    1.44
  -2   1  10   73.65    1.39
  -2   1  10   79.25    2.87
  -2   1  10   62.59    2.36
   2  -1 -10   77.03    1.44
   2  -1 -10   47.59    1.34
   2  -1 -10   70.36    3.06
   2  -1 -10   76.15    2.92
   2  -1 -10   91.15    2.41
   2   1 -10   77.82    2.41
   2   1 -10  119.76    3.33
   2   1 -10   89.53    3.06
  -2  -1   9  192.25    3.38
  -2  -1   9  350.71    4.44
  -2  -1   9  273.72    4.40
  -2  -1   9  302.47    2.31
  -2  -1   9  179.61    1.94
  -2   1   9  243.26    2.04
  -2   1   9  284.55    4.40
  -2   1   9  275.07    4.03
  -2   1   9  234.24    3.66
   2  -1  -9  196.23    1.94
   2  -1  -9  223.91    3.93
   2  -1  -9  300.53    4.58
   2  -1  -9  373.67    3.98
   2   1  -9  314.23    3.75
   2   1  -9  423.66    5.37
   2   1  -9  282.70    4.12
  -2  -1   8  354.69    4.21
  -2  -1   8  521.57    4.91
  -2  -1   8  426.53    2.45
  -2  -1   8  281.27    2.04
  -2   1   8  331.96    2.31
  -2   1   8  382.05    5.79
  -2   1   8  414.17    4.58
  -2   1   8  330.24    3.98
   2  -1  -8  317.56    2.27
   2  -1  -8  418.62    4.81
   2  -1  -8  627.53    6.67
   2  -1  -8  582.07    4.44
   2  -1  -8  319.78    3.93
   2   1  -8  492.96    4.49
   2   1  -8  373.43    4.40
  -2  -1   7  105.50    2.36
  -2  -1   7  199.15    2.87
  -2  -1   7  155.73    3.06
  -2  -1   7  137.44    1.34
  -2  -1   7  106.01    1.20
  -2   1   7  116.61    1.44
  -2   1   7  133.32    2.78
  -2   1   7  142.72    2.68
  -2   1   7  154.75    2.27
  -2   1   7  113.55    2.50
   2  -1  -7  126.89    1.53
   2  -1  -7  167.16    3.06
   2  -1  -7  176.46    3.15
   2  -1  -7  204.01    2.45
   2  -1  -7  118.83    2.41
   2   1  -7  183.82    2.87
   2   1  -7  177.67    3.24
   2   1  -7  119.29    2.55
  -2  -1   6  836.95    5.88
  -2  -1   6 1417.68    6.71
  -2  -1   6 1126.88    7.27
  -2  -1   6  783.95    2.78
  -2  -1   6  805.89    2.87
  -2   1   6  754.79    3.43
  -2   1   6  843.76    6.20
  -2   1   6  944.49    6.30
  -2   1   6 1177.85    4.86
   2  -1  -6  950.51    3.84
   2  -1  -6 1144.89    7.22
   2  -1  -6 1455.09    7.96
   2  -1  -6 1259.09    5.05
   2  -1  -6  785.06    5.65
   2   1  -6 1218.63    6.67
   2   1  -6 1132.02    7.27
   2   1  -6  774.18    5.60
   2   1  -6  773.63    2.78
  -2  -1   5  629.75    4.95
  -2  -1   5 1315.38    5.79
  -2  -1   5 1017.72    6.53
  -2  -1   5  636.83    4.81
  -2  -1   5  879.68    3.06
  -2   1   5  671.00    3.33
  -2   1   5  707.75    5.42
  -2   1   5  812.84    5.65
  -2   1   5  985.64    3.70
   2  -1  -5  926.20    3.93
   2  -1  -5 1075.12    6.80
   2  -1  -5 1367.73    7.18
   2  -1  -5 1035.31    3.80
   2  -1  -5  670.77    5.05
   2   1  -5 1073.09    6.16
   2   1  -5  842.92    4.63
   2   1  -5  895.84    6.20
   2   1  -5  642.94    4.86
   2   1  -5  611.61    2.55
  -2  -1   4  437.27    4.07
  -2  -1   4  780.20    3.93
  -2  -1   4  636.19    4.91
  -2  -1   4  315.94    3.29
  -2  -1   4  596.84    2.78
  -2   1   4  419.96    2.82
  -2   1   4  360.89    3.75
  -2   1   4  434.12    4.03
  -2   1   4  459.68    1.90
   2  -1  -4  610.26    3.43
   2  -1  -4  641.70    5.05
   2  -1  -4  881.95    5.32
   2  -1  -4  482.87    1.94
   2  -1  -4  387.41    3.75
   2   1  -4  598.74    4.58
   2   1  -4  424.68    2.87
   2   1  -4  447.08    4.21
   2   1  -4  309.37    3.29
   2   1  -4  358.25    2.18
  -2  -1   3  190.31    2.73
  -2  -1   3  263.49    1.94
  -2  -1   3  242.24    2.92
  -2  -1   3   98.79    1.85
  -2   1   3  192.11    2.08
  -2   1   3  117.26    2.13
  -2   1   3  498.89    3.70
  -2   1   3  152.25    2.41
   2  -1  -3  303.07    2.59
   2  -1  -3  289.60    3.33
   2  -1  -3  128.55    2.22
   2   1  -3  260.62    3.10
   2   1  -3  129.11    1.39
   2   1  -3  146.10    2.36
   2   1  -3  104.57    2.31
   2   1  -3  149.52    1.62
  -2  -1   2 1216.08    6.53
  -2  -1   2 1787.00    8.05
  -2  -1   2  877.88    2.82
  -2  -1   2 1756.58    7.13
  -2  -1   2  828.02    4.95
  -2  -1   2 2061.78    6.30
  -2   1   2 1515.13    6.02
  -2   1   2  915.42    5.51
  -2   1   2 3050.53    7.87
  -2   1   2 1180.76    6.39
   2  -1  -2 2059.05    6.99
   2  -1  -2 1925.09    8.05
   2  -1  -2  922.13    5.56
   2  -1  -2 2386.20    9.58
   2  -1  -2 1070.26    6.02
   2   1  -2 1668.81    7.55
   2   1  -2  874.31    2.78
   2   1  -2 1046.42    5.83
   2   1  -2 1410.51    6.30
   2   1  -2  903.24    5.18
   2   1  -2 1416.99    5.23
  -2  -1   1  612.44    4.63
  -2  -1   1  547.49    1.81
  -2  -1   1  482.78    1.71
  -2  -1   1  447.50    4.31
  -2  -1   1  853.80    4.63
  -2  -1   1  429.17    3.61
  -2  -1   1 1093.41    5.05
  -2   1   1  875.56    4.91
  -2   1   1 1446.43    4.68
  -2   1   1  585.59    4.49
  -2   1   1  812.47    2.31
   2  -1  -1 1131.32    5.56
   2  -1  -1 1015.32    5.65
   2  -1  -1  447.92    3.89
   2  -1  -1 1092.95    4.12
   2  -1  -1  717.71    2.18
   2  -1  -1  556.89    4.40
   2   1  -1  892.04    5.60
   2   1  -1  478.84    3.89
   2   1  -1  476.39    4.44
   2   1  -1  682.48    4.12
   2   1  -1  448.75    3.75
   2   1  -1  828.20    4.40
  -2  -1   0  349.36    3.56
  -2  -1   0  456.02    1.90
  -2  -1   0  241.55    2.73
  -2  -1   0  431.99    3.10
  -2  -1   0  226.88    2.73
  -2  -1   0  606.74    4.12
  -2   1   0  543.46    4.12
  -2   1   0  563.79    4.12
  -2   1   0  642.30    2.50
  -2   1   0  311.50    3.33
  -2   1   0  728.08    3.10
   2  -1   0  569.20    4.12
   2  -1   0  234.56    2.87
   2  -1   0  519.76    2.27
   2  -1   0  632.02    2.87
   2  -1   0  316.31    3.38
   2   1   0  522.68    4.35
   2   1   0  229.33    1.34
   2   1   0  246.97    2.82
   2   1   0  241.87    2.78
   2   1   0  339.13    2.78
   2   1   0  528.33    3.89
  -2  -1  -1 1751.72    7.87
  -2  -1  -1 3517.98   12.96
  -2  -1  -1 1458.51    6.62
  -2  -1  -1 2339.44   10.37
  -2  -1  -1 1409.72    6.90
  -2   1  -1 2958.45   10.05
  -2   1  -1 3086.73    9.03
  -2   1  -1 1741.40    7.87
  -2   1  -1 4540.10   18.52
   2  -1   1 3333.28   13.52
   2  -1   1 1387.18    6.94
   2  -1   1 3936.09   13.10
   2  -1   1 1851.30    8.29
   2   1   1 2630.71    9.72
   2   1   1 1658.26    7.73
   2   1   1 1368.15    6.39
   2   1   1 1386.57    6.43
   2   1   1 1800.24    5.83
   2   1   1 3161.26   11.53
  -2  -1  -2  714.60    5.14
  -2  -1  -2 1213.17    4.68
  -2  -1  -2  523.93    4.07
  -2  -1  -2  724.46    3.56
  -2  -1  -2  564.16    4.63
  -2   1  -2 1167.71    6.71
  -2   1  -2 1069.66    5.23
  -2   1  -2  659.66    5.00
  -2   1  -2 1654.23    6.43
   2  -1   2 1196.55    5.51
   2  -1   2  530.09    4.49
   2  -1   2  637.71    4.91
   2  -1   2 1462.77    6.06
   2  -1   2  679.93    5.14
   2   1   2 1011.75    6.20
   2   1   2  681.00    3.52
   2   1   2  637.34    3.33
   2   1   2 1145.63    6.57
  -2  -1  -3  143.92    2.45
  -2  -1  -3  276.78    2.73
  -2  -1  -3  104.90    1.94
  -2  -1  -3  148.13    1.62
  -2  -1  -3  139.38    1.62
  -2  -1  -3  121.33    2.36
  -2   1  -3  232.99    3.24
  -2   1  -3  207.43    2.50
  -2   1  -3  140.12    2.50
  -2   1  -3  365.66    3.47
   2  -1   3  246.18    2.55
   2  -1   3  115.78    2.31
   2  -1   3  132.39    2.41
   2  -1   3  145.49    2.55
   2   1   3  201.28    3.15
   2   1   3  175.40    2.13
   2   1   3  142.25    1.62
   2   1   3  254.79    3.38
  -2  -1  -4   15.79    1.30
  -2  -1  -4    9.21    0.93
  -2  -1  -4   10.97    0.69
  -2  -1  -4   15.23    0.93
  -2  -1  -4   11.02    1.20
  -2   1  -4   32.27    1.62
  -2   1  -4   13.38    0.51
  -2   1  -4   14.21    1.20
  -2   1  -4   34.30    1.39
   2  -1   4   23.19    1.20
   2  -1   4    9.40    1.06
   2  -1   4   13.79    0.56
   2  -1   4   11.85    1.06
   2  -1   4   12.87    1.16
   2   1   4   14.72    0.97
  -2  -1  -5  219.10    3.24
  -2  -1  -5  148.78    2.55
  -2  -1  -5  184.66    1.90
  -2  -1  -5  229.61    2.18
  -2  -1  -5  182.53    3.19
  -2   1  -5  304.46    4.03
  -2   1  -5  302.24    2.82
  -2   1  -5  195.77    1.67
  -2   1  -5  450.05    4.54
   2  -1   5  330.80    2.78
   2  -1   5  170.68    3.06
   2  -1   5  258.26    1.94
   2  -1   5  186.74    3.01
   2  -1   5  213.50    3.33
   2   1   5  312.75    3.93
   2   1   5  274.69    3.29
   2   1   5  340.06    4.35
  -2  -1  -6  323.12    3.93
  -2  -1  -6  230.30    3.29
  -2  -1  -6  285.16    2.50
  -2  -1  -6  383.39    2.92
  -2  -1  -6  301.17    4.91
  -2   1  -6  488.28    5.97
  -2   1  -6  437.83    3.19
  -2   1  -6  319.55    2.55
  -2   1  -6  763.44    6.34
   2  -1   6  480.37    3.24
   2  -1   6  271.69    4.07
   2  -1   6  429.49    2.96
   2  -1   6  294.32    3.93
   2  -1   6  337.70    4.26
   2   1   6  406.67    4.54
   2   1   6  409.54    4.26
  -2  -1  -7  345.57    4.31
  -2  -1  -7  231.64    3.52
  -2  -1  -7  298.44    2.73
  -2  -1  -7  397.37    3.24
  -2  -1  -7  307.15    4.58
  -2   1  -7  494.67    5.60
  -2   1  -7  394.73    3.06
  -2   1  -7  340.94    3.01
   2  -1   7  488.28    3.19
   2  -1   7  291.36    4.44
   2  -1   7  450.23    3.52
   2  -1   7  304.14    4.17
   2  -1   7  347.05    4.68
   2   1   7  423.20    4.91
   2   1   7  427.23    4.72
   2   1   7  274.32    2.59
   2   1   7  513.05    5.88
  -2  -1  -8  382.60    4.68
  -2  -1  -8  284.46    4.07
  -2  -1  -8  332.33    3.06
  -2  -1  -8  472.04    3.80
  -2  -1  -8  343.58    5.09
  -2   1  -8  531.61    6.06
  -2   1  -8  385.42    3.56
  -2   1  -8  770.90    7.31
   2  -1   8  519.95    3.24
   2  -1   8  321.13    4.77
   2  -1   8  528.88    4.72
   2  -1   8  296.41    5.32
   2  -1   8  401.16    5.09
   2   1   8  423.89    5.09
   2   1   8  403.43    7.73
   2   1   8  317.47    2.96
   2   1   8  542.31    6.25
  -2  -1  -9   22.59    2.59
  -2  -1  -9   32.68    1.44
  -2  -1  -9   34.44    2.45
  -2   1  -9   52.45    2.68
  -2   1  -9   36.48    1.71
  -2   1  -9   72.91    3.01
   2  -1   9   50.97    1.62
   2  -1   9   32.36    1.53
   2  -1   9   31.43    1.99
   2  -1   9   31.76    2.18
   2  -1   9   40.97    2.31
   2   1   9   49.58    3.06
   2   1   9   51.15    2.45
   2   1   9   32.87    1.34
   2   1   9   52.36    2.87
  -2  -1 -10   60.36    2.92
  -2  -1 -10   39.86    2.59
  -2  -1 -10   48.84    2.82
  -2   1 -10   83.19    3.56
  -2   1 -10   56.85    2.08
  -2   1 -10   93.88    3.52
   2  -1  10   74.07    1.71
   2  -1  10   49.62    1.62
   2  -1  10   46.25    2.68
   2  -1  10   48.05    2.50
   2  -1  10   57.45    2.82
   2   1  10   52.87    4.63
   2   1  10   69.16    2.96
   2   1  10   46.71    1.67
   2   1  10   77.63    3.38
  -2  -1 -11   16.20    2.13
  -2  -1 -11    8.24    1.90
  -2  -1 -11   15.00    2.78
  -2   1 -11   15.28    2.08
  -2   1 -11   14.95    1.62
   2  -1  11   14.12    2.13
   2  -1  11   12.04    1.99
   2  -1  11   14.63    2.13
   2   1  11   11.43    2.59
   2   1  11   19.40    2.13
   2   1  11   10.55    1.25
   2   1  11   18.79    2.96
  -2  -1 -12   93.83    3.61
  -2  -1 -12   65.50    3.47
  -2  -1 -12   85.41    4.12
  -2   1 -12   89.39    3.61
  -2   1 -12  136.33    4.49
   2  -1  12   81.43    3.61
   2  -1  12   72.96    3.15
   2  -1  12   88.19    3.93
   2   1  12   92.31    4.63
   2   1  12   70.97    2.27
   2   1  12  118.78    4.40
  -2  -1 -13   70.32    3.75
  -2  -1 -13   58.74    3.70
  -2  -1 -13   65.09    4.17
  -2   1 -13  105.82    4.81
  -2   1 -13   64.76    3.33
  -2   1 -13  107.72    4.49
   2  -1  13   65.55    3.66
   2  -1  13   68.00    3.38
   2   1  13   60.18    4.86
   2   1  13   83.42    3.80
   2   1  13   60.69    2.55
   2   1  13   99.80    4.49
  -2  -1 -14   13.33    2.55
  -2  -1 -14   16.34    2.82
  -2  -1 -14   11.57    3.19
  -2   1 -14   19.26    3.01
  -2   1 -14   11.34    2.41
  -2   1 -14   21.62    3.38
   2  -1  14   10.92    2.45
   2  -1  14   15.28    2.55
   2  -1  14   12.59    2.45
   2   1  14   16.16    3.24
   2   1  14   19.30    2.64
   2   1  14   13.42    1.85
   2   1  14   19.58    3.01
  -2  -1 -15    7.92    2.87
  -2  -1 -15    6.48    3.56
  -2   1 -15   10.46    3.38
  -2   1 -15    3.24    2.50
  -2   1 -15   13.38    3.56
   2  -1  15    5.23    2.59
   2  -1  15    6.90    2.55
   2  -1  15    5.79    2.36
   2   1  15    1.20    3.06
   2   1  15    7.68    2.41
   2   1  15    9.30    2.92
  -2  -1 -16    3.98    2.87
  -2  -1 -16    3.47    2.96
  -2  -1 -16   -1.06    3.19
  -2   1 -16    6.94    3.61
  -2   1 -16   -1.57    3.10
  -2   1 -16    5.51    3.15
   2  -1  16    1.81    2.68
   2  -1  16   -0.37    2.22
   2  -1  16    4.44    3.06
   2   1  16    2.31    3.66
  -2  -2  17    5.09    2.96
  -2  -2  17    4.26    2.78
  -2  -2  17    2.18    3.75
  -2   2  17    4.58    2.36
  -2   2  17    3.19    2.55
  -2   2  17    5.18    2.82
   2  -2 -17   -3.01    3.24
   2  -2 -17    5.14    3.29
   2  -2 -17    1.99    3.01
   2   2 -17    2.36    3.43
   2   2 -17   13.89    4.44
  -2  -2  16    6.43    2.55
  -2  -2  16    5.18    2.55
  -2  -2  16    7.55    2.92
  -2   2  16   12.82    2.87
  -2   2  16    8.93    2.59
  -2   2  16   10.65    2.73
   2  -2 -16    5.69    2.82
   2  -2 -16    6.76    3.06
   2  -2 -16    8.75    2.82
   2   2 -16    6.85    3.10
   2   2 -16   17.78    3.47
   2   2 -16   12.82    3.66
  -2  -2  15   25.74    2.92
  -2  -2  15   25.18    2.92
  -2  -2  15   26.85    3.24
  -2   2  15   38.28    3.66
  -2   2  15   24.53    2.64
  -2   2  15   25.74    2.96
   2  -2 -15   21.20    3.01
   2  -2 -15   19.86    3.01
   2  -2 -15   16.62    2.82
   2   2 -15   17.91    3.15
   2   2 -15   40.32    4.12
   2   2 -15   42.03    4.07
  -2  -2  14   13.89    3.01
  -2  -2  14   14.44    2.36
  -2  -2  14   13.05    2.59
  -2   2  14   14.95    2.45
  -2   2  14   10.79    2.22
  -2   2  14   15.28    2.50
   2  -2 -14    9.86    2.55
   2  -2 -14    9.03    2.50
   2  -2 -14   12.50    2.50
   2   2 -14    8.15    2.92
   2   2 -14   12.45    1.57
   2   2 -14   23.75    3.10
   2   2 -14   19.12    2.87
  -2  -2  13   27.82    3.29
  -2  -2  13   26.76    2.92
  -2  -2  13   27.40    2.78
  -2   2  13   31.29    2.50
  -2   2  13   30.74    3.06
   2  -2 -13   21.48    2.92
   2  -2 -13   21.53    2.41
   2   2 -13   27.87    2.18
   2   2 -13   48.28    3.61
   2   2 -13   26.90    3.15
  -2  -2  12   11.11    2.18
  -2  -2  12   12.50    2.04
  -2  -2  12   12.17    2.18
  -2   2  12   10.97    1.76
  -2   2  12   13.66    2.08
  -2   2  12   14.07    2.04
   2  -2 -12   12.73    2.22
   2  -2 -12    8.80    2.18
   2  -2 -12   11.30    1.99
   2   2 -12   15.65    1.57
   2   2 -12   13.56    2.82
  -2  -2  11   36.62    3.06
  -2  -2  11   44.07    2.96
  -2  -2  11   39.95    2.87
  -2   2  11   45.60    2.73
  -2   2  11   46.80    2.82
  -2   2  11   38.01    2.73
   2  -2 -11   43.38    3.24
   2  -2 -11   36.71    2.78
   2  -2 -11   34.72    2.18
   2   2 -11   52.82    2.27
   2   2 -11   59.99    3.15
   2   2 -11   57.17    3.29
  -2  -2  10   62.35    2.96
  -2  -2  10   89.85    3.15
  -2  -2  10   87.49    3.29
  -2   2  10   89.67    3.19
  -2   2  10   76.89    3.06
   2  -2 -10   86.01    3.47
   2  -2 -10   70.27    3.06
   2  -2 -10   66.89    2.27
   2   2 -10  117.26    2.73
   2   2 -10  122.21    3.93
   2   2 -10   76.94    3.06
  -2  -2   9   42.36    2.78
  -2  -2   9   52.91    2.04
  -2  -2   9   46.34    2.64
  -2   2   9   45.97    2.45
  -2   2   9   45.04    2.13
  -2   2   9   43.33    2.41
   2  -2  -9   45.41    2.82
   2  -2  -9   42.87    2.50
   2  -2  -9   38.05    1.76
   2  -2  -9   39.76    2.31
   2   2  -9   58.56    2.18
   2   2  -9   59.62    2.78
   2   2  -9   44.58    2.73
  -2  -2   8  357.00    5.09
  -2  -2   8  412.13    4.40
  -2  -2   8  424.54    5.46
  -2   2   8  369.04    5.00
  -2   2   8  383.67    4.54
  -2   2   8  352.56    4.91
   2  -2  -8  452.45    5.69
   2  -2  -8  455.37    5.65
   2  -2  -8  304.46    3.38
   2  -2  -8  340.43    4.81
   2   2  -8  526.75    4.91
   2   2  -8  439.77    5.65
   2   2  -8  337.70    4.95
  -2  -2   7  537.40    5.83
  -2  -2   7  721.55    5.23
  -2  -2   7  749.05    6.85
  -2   2   7  589.94    6.06
  -2   2   7  653.78    5.69
  -2   2   7 1582.80    6.71
  -2   2   7  608.50    6.16
   2  -2  -7  777.33    7.08
   2  -2  -7  492.59    3.80
   2  -2  -7  605.68    6.11
   2   2  -7  875.79    6.11
   2   2  -7  703.73    6.71
   2   2  -7  533.65    5.74
  -2  -2   6  281.45    4.72
  -2  -2   6  363.07    3.43
  -2  -2   6  405.79    4.86
  -2   2   6  302.05    1.76
  -2   2   6  399.87    2.04
  -2   2   6  325.99    3.98
  -2   2   6  779.00    4.31
  -2   2   6  337.51    5.46
   2  -2  -6  329.92    4.21
   2  -2  -6  240.25    2.45
   2  -2  -6  313.21    5.00
   2   2  -6  445.84    4.49
   2   2  -6  252.71    3.93
  -2  -2   5  260.58    3.93
  -2  -2   5  275.11    2.68
  -2  -2   5  340.10    4.26
  -2  -2   5  190.86    3.29
  -2   2   5  304.04    2.27
  -2   2   5  381.17    2.55
  -2   2   5  228.82    3.56
  -2   2   5  253.49    3.47
  -2   2   5  501.76    3.10
   2  -2  -5  347.74    4.49
   2  -2  -5  299.28    3.80
   2  -2  -5  189.47    1.99
   2  -2  -5  249.88    3.80
   2   2  -5  353.81    4.07
   2   2  -5  397.69    3.19
   2   2  -5  252.89    3.84
   2   2  -5  195.77    3.38
  -2  -2   4  293.30    3.98
  -2  -2   4  333.39    2.50
  -2  -2   4  470.37    4.68
  -2  -2   4  246.09    3.56
  -2  -2   4  370.56    2.22
  -2   2   4  507.31    3.29
  -2   2   4  621.93    3.66
  -2   2   4  281.08    3.80
  -2   2   4  327.05    3.84
  -2   2   4  505.13    2.78
   2  -2  -4  668.54    3.80
   2  -2  -4  526.34    5.28
   2  -2  -4  453.06    4.31
   2  -2  -4  260.25    2.04
   2  -2  -4  343.25    4.26
   2   2  -4  530.50    4.91
   2   2  -4  521.43    3.10
   2   2  -4  320.06    4.17
   2   2  -4  464.91    2.45
  -2  -2   3  400.79    4.49
  -2  -2   3  357.00    2.08
  -2  -2   3  600.87    4.91
  -2  -2   3  333.21    4.07
  -2  -2   3  530.69    3.19
  -2   2   3  714.65    4.31
  -2   2   3  723.03    4.35
  -2   2   3  351.17    4.21
  -2   2   3  418.52    4.31
  -2   2   3  426.53    2.45
   2  -2  -3  745.39    4.40
   2  -2  -3  617.35    5.46
   2  -2  -3  348.02    4.21
   2  -2  -3  475.97    4.12
   2  -2  -3  361.12    2.22
   2  -2  -3  426.44    4.63
   2   2  -3  605.59    5.23
   2   2  -3  659.05    2.78
   2   2  -3  372.46    4.35
   2   2  -3  739.05    3.75
  -2  -2   2   26.39    1.48
  -2  -2   2   36.76    1.48
  -2  -2   2   16.62    1.25
  -2  -2   2   31.99    1.34
  -2   2   2   46.11    1.44
  -2   2   2   47.59    1.57
  -2   2   2   17.08    1.30
  -2   2   2   51.52    1.62
  -2   2   2   23.52    1.30
  -2   2   2   27.59    0.83
  -2   2   2   19.77    0.83
   2  -2  -2   46.62    1.53
   2  -2  -2   42.59    1.81
   2  -2  -2   18.05    1.30
   2  -2  -2   26.29    1.25
   2  -2  -2   26.53    1.44
   2   2  -2   44.12    1.99
   2   2  -2   29.90    0.37
   2   2  -2   21.25    1.39
   2   2  -2   51.75    1.34
  -2  -2   1    4.17    0.88
  -2  -2   1    2.27    0.79
  -2  -2   1    6.39    0.79
  -2  -2   1    2.59    0.88
  -2  -2   1    4.49    0.88
  -2   2   1    6.67    0.83
  -2   2   1    3.06    0.69
  -2   2   1    7.96    0.88
  -2   2   1    2.45    0.79
  -2   2   1    4.77    0.56
  -2   2   1    3.24    0.60
   2  -2  -1    6.85    1.02
   2  -2  -1    1.99    0.74
   2  -2  -1    2.92    0.65
   2  -2  -1    2.08    0.74
   2   2  -1    8.05    1.20
   2   2  -1    3.98    0.88
   2   2  -1    5.32    0.79
   2   2  -1    8.89    1.02
  -2  -2   0   54.58    1.90
  -2  -2   0   44.35    1.71
  -2  -2   0   83.60    1.62
  -2  -2   0   41.34    1.67
  -2   2   0  112.44    2.22
  -2   2   0   95.13    1.62
  -2   2   0   54.76    1.85
  -2   2   0  100.92    1.62
  -2   2   0   48.14    1.30
   2  -2   0   84.25    2.04
   2  -2   0   41.94    1.67
   2  -2   0   50.97    1.20
   2  -2   0   53.65    1.76
   2   2   0   84.99    2.59
   2   2   0   44.39    1.71
   2   2   0   74.53    1.62
   2   2   0  116.93    2.13
  -2  -2  -1  123.55    2.59
  -2  -2  -1  100.08    1.02
  -2  -2  -1  100.13    2.41
  -2  -2  -1  181.00    2.04
  -2  -2  -1   92.07    2.31
  -2   2  -1  259.88    3.43
  -2   2  -1  183.50    1.85
  -2   2  -1  125.54    2.64
  -2   2  -1  272.33    2.78
  -2   2  -1  114.57    1.99
   2  -2   1  190.49    2.73
   2  -2   1   90.08    2.27
   2  -2   1  101.70    1.39
   2  -2   1  123.55    2.64
   2  -2   1  117.58    2.08
   2  -2   1  114.99    2.45
   2   2   1  183.41    3.43
   2   2   1  201.74    1.39
   2   2   1   99.06    1.02
   2   2   1  104.11    2.50
   2   2   1  151.37    1.85
   2   2   1  248.86    3.29
  -2  -2  -2  639.94    5.37
  -2  -2  -2  628.55    3.15
  -2  -2  -2  497.27    4.95
  -2  -2  -2  900.88    3.66
  -2  -2  -2  499.76    5.09
  -2   2  -2 1385.28    8.10
  -2   2  -2  616.00    2.87
  -2   2  -2  802.84    3.29
  -2   2  -2  674.56    5.83
  -2   2  -2 1637.80    7.18
   2  -2   2 1014.57    5.65
   2  -2   2  507.59    5.14
   2  -2   2  656.51    5.83
   2  -2   2  627.39    5.46
   2   2   2 1000.32    7.31
   2   2   2  703.96    3.24
   2   2   2 1300.66    7.59
  -2  -2  -3   91.56    2.31
  -2  -2  -3  104.39    1.76
  -2  -2  -3   67.17    2.08
  -2  -2  -3  125.73    1.16
  -2  -2  -3   76.47    2.41
  -2   2  -3  193.08    3.33
  -2   2  -3  164.57    2.55
  -2   2  -3  116.65    1.30
  -2   2  -3   94.99    1.20
  -2   2  -3   92.95    2.50
  -2   2  -3  269.28    3.33
   2  -2   3  139.62    2.18
   2  -2   3   68.79    2.18
   2  -2   3   92.35    2.50
   2  -2   3   87.35    2.36
   2   2   3  137.21    3.15
   2   2   3  172.07    2.08
   2   2   3   92.58    0.97
   2   2   3  174.70    3.15
  -2  -2  -4   58.65    1.99
  -2  -2  -4   75.32    1.76
  -2  -2  -4   46.52    1.90
  -2   2  -4  103.55    2.04
  -2   2  -4  120.36    1.39
  -2   2  -4   48.37    1.02
  -2   2  -4  179.80    3.06
   2  -2   4   88.19    1.81
   2  -2   4   59.21    2.04
   2   2   4   97.26    3.33
   2   2   4  114.11    2.04
   2   2   4  121.52    2.92
  -2  -2  -5   58.47    2.08
  -2  -2  -5   49.30    2.45
  -2  -2  -5   53.42    2.50
  -2   2  -5  111.89    3.01
  -2   2  -5   96.84    1.94
  -2   2  -5  168.22    1.76
  -2   2  -5   45.46    1.11
  -2   2  -5  165.03    3.24
   2  -2   5  100.78    1.76
   2  -2   5   47.82    1.99
   2  -2   5   57.03    2.13
   2  -2   5   55.83    2.08
   2   2   5  101.89    3.98
   2   2   5  103.55    2.18
   2   2   5  118.97    3.19
  -2  -2  -6  289.97    3.98
  -2  -2  -6  235.25    4.17
  -2  -2  -6  247.48    4.40
  -2   2  -6  541.52    6.16
  -2   2  -6  430.88    2.96
  -2   2  -6  680.35    3.66
  -2   2  -6  228.03    2.22
  -2   2  -6  803.02    8.43
   2  -2   6  410.75    2.73
   2  -2   6  235.39    4.07
   2  -2   6  222.94    2.31
   2  -2   6  286.64    4.54
   2  -2   6  286.55    4.21
   2   2   6  406.30    5.65
   2   2   6  494.40    4.68
   2   2   6  511.52    6.02
  -2  -2  -7   63.70    2.36
  -2  -2  -7   45.64    2.41
  -2  -2  -7   54.81    2.64
  -2   2  -7  126.47    3.70
  -2   2  -7  140.31    2.08
  -2   2  -7  191.46    4.07
   2  -2   7   53.33    2.50
   2  -2   7   49.25    1.71
   2  -2   7   57.03    2.64
   2  -2   7   65.46    2.73
   2   2   7   80.45    3.66
   2   2   7  100.50    2.55
   2   2   7  105.68    3.38
  -2  -2  -8   27.50    2.13
  -2  -2  -8   23.33    2.50
  -2  -2  -8   27.31    2.73
  -2   2  -8   48.75    2.82
  -2   2  -8   57.96    1.76
  -2   2  -8   77.26    3.15
   2  -2   8   22.91    2.18
   2  -2   8   25.97    1.76
   2  -2   8   33.01    2.50
   2  -2   8   28.98    2.27
   2   2   8   27.68    2.78
   2   2   8   48.75    2.59
  -2  -2  -9   48.00    2.96
  -2  -2  -9   59.90    3.33
  -2   2  -9  115.73    3.98
  -2   2  -9  107.40    2.36
  -2   2  -9  168.46    4.31
   2  -2   9   58.05    2.92
   2  -2   9   66.38    3.01
   2  -2   9   64.11    2.87
   2   2   9   79.48    4.63
   2   2   9   99.76    3.06
   2   2   9  104.71    3.84
  -2  -2 -10  192.99    4.03
  -2  -2 -10  147.02    4.21
  -2  -2 -10  174.20    4.58
  -2   2 -10  292.66    3.70
  -2   2 -10  489.53    6.94
   2  -2  10  169.84    4.40
   2  -2  10  189.15    4.58
   2  -2  10  204.38    4.54
   2   2  10  231.13    6.06
   2   2  10  306.36    5.05
   2   2  10  325.57    5.97
  -2  -2 -11   16.25    2.08
  -2  -2 -11   10.79    2.41
  -2  -2 -11   17.27    2.50
  -2   2 -11   25.78    2.96
  -2   2 -11   18.93    2.13
  -2   2 -11   36.52    3.80
   2  -2  11   10.09    2.08
   2  -2  11   15.74    2.31
   2  -2  11   16.53    2.41
   2   2  11   18.42    3.24
   2   2  11   20.41    2.41
   2   2  11   26.80    2.87
  -2  -2 -12   24.49    3.06
  -2  -2 -12   15.51    2.59
  -2  -2 -12   25.46    2.92
  -2   2 -12   48.70    4.21
  -2   2 -12   32.64    2.68
  -2   2 -12   59.90    4.40
   2  -2  12   18.66    2.50
   2  -2  12   24.30    2.68
   2  -2  12   26.39    3.24
   2   2  12   33.38    3.70
   2   2  12   33.14    3.33
   2   2  12   37.91    3.70
  -2  -2 -13   64.11    3.66
  -2  -2 -13   46.15    3.52
  -2  -2 -13   49.62    4.35
  -2   2 -13   97.44    4.72
  -2   2 -13   63.42    5.56
  -2   2 -13  127.58    5.46
   2  -2  13   52.49    3.80
   2  -2  13   58.88    3.75
   2  -2  13   65.36    4.63
   2   2  13   77.58    3.89
   2   2  13   96.52    4.81
  -2  -2 -14   55.55    3.93
  -2  -2 -14   41.29    4.17
  -2  -2 -14   40.74    4.12
  -2   2 -14   80.32    4.95
  -2   2 -14   60.83    3.89
  -2   2 -14  111.10    5.69
   2  -2  14   39.67    3.93
   2  -2  14   49.62    3.89
   2  -2  14   52.54    3.70
   2   2  14   54.49    5.97
   2   2  14   70.04    3.93
   2   2  14   76.57    4.91
  -2  -2 -15   49.99    5.65
  -2  -2 -15   26.15    3.84
  -2  -2 -15   27.59    3.80
  -2   2 -15   51.48    6.06
  -2   2 -15   58.28    5.74
   2  -2  15   29.81    3.38
   2  -2  15   33.24    4.03
   2  -2  15   39.26    3.80
   2   2  15   36.76    4.44
   2   2  15   46.89    4.54
   2   2  15   45.55    5.18
  -2  -3  16   56.52    5.18
  -2  -3  16   42.87    4.17
  -2  -3  16   51.62    4.72
  -2   3  16   67.59    4.07
   2  -3 -16   49.53    6.16
   2  -3 -16   30.55    4.12
   2  -3 -16   41.94    4.58
   2   3 -16   65.22    6.39
   2   3 -16   92.21    6.30
   2   3 -16   76.66    6.02
  -2  -3  15   12.17    3.06
  -2  -3  15    4.44    2.31
  -2   3  15   11.48    4.58
  -2   3  15   11.06    2.41
  -2   3  15    6.71    3.24
   2  -3 -15   11.06    3.47
   2  -3 -15    4.77    2.73
   2   3 -15    7.45    3.89
   2   3 -15   13.93    3.33
   2   3 -15    7.36    5.37
  -2  -3  14   64.07    4.86
  -2  -3  14   45.74    3.52
  -2  -3  14   51.01    4.17
  -2   3  14   66.15    4.26
  -2   3  14   64.99    3.61
  -2   3  14   61.43    4.26
   2  -3 -14   56.52    5.28
   2  -3 -14   38.65    4.17
   2  -3 -14   32.87    3.70
   2   3 -14   58.98    5.74
   2   3 -14  102.49    4.91
   2   3 -14   82.68    5.28
  -2  -3  13    8.84    2.78
  -2  -3  13   12.31    2.22
  -2   3  13   10.83    2.50
  -2   3  13   10.83    2.22
  -2   3  13   15.14    2.73
   2  -3 -13    6.62    3.01
   2  -3 -13    3.56    2.45
   2  -3 -13    6.80    2.27
   2   3 -13   11.16    2.73
   2   3 -13   12.17    3.06
  -2  -3  12   93.79    4.31
  -2  -3  12   92.03    3.75
  -2  -3  12  107.95    4.40
  -2   3  12  127.49    4.35
  -2   3  12  123.55    3.80
  -2   3  12  119.71    4.49
   2  -3 -12  112.40    5.18
   2  -3 -12   81.47    4.03
   2  -3 -12   67.08    3.43
   2   3 -12  153.50    3.38
   2   3 -12  166.51    5.00
   2   3 -12  126.05    4.86
  -2  -3  11    1.94    1.99
  -2  -3  11    0.93    1.48
  -2  -3  11    3.52    1.99
  -2   3  11    2.82    1.81
  -2   3  11    5.28    1.81
  -2   3  11    2.08    2.04
   2  -3 -11    4.12    2.41
   2  -3 -11    2.82    2.08
   2  -3 -11    3.29    1.76
   2   3 -11    3.80    1.44
   2   3 -11    6.39    2.41
   2   3 -11    5.05    2.36
  -2  -3  10  325.52    4.81
  -2  -3  10  419.40    6.57
  -2   3  10  403.06    6.53
  -2   3  10  435.19    5.51
  -2   3  10  402.18    7.82
   2  -3 -10  411.44    7.31
   2  -3 -10  262.84    4.07
   2   3 -10  534.72    5.32
   2   3 -10  475.51    7.96
   2   3 -10  360.84    6.16
  -2  -3   9   26.76    3.19
  -2  -3   9   24.12    2.45
  -2  -3   9   29.35    2.73
  -2   3   9   29.26    2.50
  -2   3   9   26.57    2.64
  -2   3   9   26.80    2.78
   2  -3  -9   39.39    3.33
   2  -3  -9   26.94    2.68
   2  -3  -9   24.44    1.94
   2  -3  -9   29.95    2.68
   2   3  -9   38.05    2.68
   2   3  -9   39.26    3.19
   2   3  -9   28.24    3.01
  -2  -3   8  305.76    5.51
  -2  -3   8  244.28    3.66
  -2  -3   8  333.30    5.46
  -2   3   8  289.88    5.09
  -2   3   8  309.78    5.37
   2  -3  -8  338.02    5.60
   2  -3  -8  262.71    4.91
   2  -3  -8  202.34    3.19
   2  -3  -8  309.04    5.28
   2   3  -8  409.26    4.95
   2   3  -8  305.76    5.23
   2   3  -8  258.08    4.95
  -2  -3   7  225.81    4.77
  -2  -3   7  188.55    3.01
  -2  -3   7  256.46    4.68
  -2  -3   7  190.91    4.26
  -2   3   7  206.04    4.26
  -2   3   7  221.78    3.89
  -2   3   7  228.59    4.58
   2  -3  -7  251.22    5.00
   2  -3  -7  193.87    4.12
   2  -3  -7  152.58    2.64
   2  -3  -7  232.11    4.54
   2   3  -7  308.67    4.49
   2   3  -7  216.97    4.44
   2   3  -7  180.82    4.17
  -2  -3   6   61.85    3.01
  -2  -3   6   50.83    1.67
  -2  -3   6   75.46    2.87
  -2  -3   6   45.23    2.50
  -2   3   6   82.91    1.48
  -2   3   6   61.98    1.44
  -2   3   6   52.54    2.50
  -2   3   6   64.85    2.45
  -2   3   6   62.49    2.82
   2  -3  -6   79.30    3.33
   2  -3  -6   56.48    2.78
   2  -3  -6   44.95    1.67
   2  -3  -6   62.59    2.73
   2   3  -6   94.25    3.33
   2   3  -6   57.08    2.73
   2   3  -6   46.89    2.55
  -2  -3   5   26.11    2.45
  -2  -3   5   19.07    1.16
  -2  -3   5   33.52    2.22
  -2  -3   5   18.33    1.99
  -2   3   5   42.91    1.44
  -2   3   5   31.48    1.57
  -2   3   5   25.46    2.04
  -2   3   5   24.26    1.90
  -2   3   5   27.17    2.45
   2  -3  -5   35.18    2.68
   2  -3  -5   21.85    2.18
   2  -3  -5   22.03    1.34
   2  -3  -5   26.85    2.08
   2   3  -5   34.44    2.82
   2   3  -5   42.40    1.85
   2   3  -5   20.37    2.04
   2   3  -5   20.60    2.18
   2   3  -5   43.42    1.16
   2   3  -5   23.28    1.02
  -2  -3   4   39.16    2.55
  -2  -3   4   26.90    1.11
  -2  -3   4   51.94    2.18
  -2  -3   4   27.45    2.04
  -2   3   4   68.51    1.76
  -2   3   4   48.98    2.08
  -2   3   4   31.02    2.04
  -2   3   4   37.87    1.94
  -2   3   4   34.90    1.71
   2  -3  -4   43.88    2.41
   2  -3  -4   31.06    1.94
   2  -3  -4   29.16    1.34
   2  -3  -4   42.08    2.13
   2   3  -4   56.43    3.06
   2   3  -4   70.83    1.71
   2   3  -4   35.88    2.18
   2   3  -4   69.72    1.57
   2   3  -4   34.49    1.34
  -2  -3   3   31.94    2.31
  -2  -3   3   21.20    0.93
  -2  -3   3   38.10    1.99
  -2  -3   3   25.18    2.18
  -2   3   3   67.72    1.90
  -2   3   3   23.15    1.85
  -2   3   3   27.87    1.81
  -2   3   3   27.45    1.57
   2  -3  -3   46.20    2.64
   2  -3  -3   25.32    1.90
   2  -3  -3   32.54    1.81
   2  -3  -3   28.05    1.30
   2  -3  -3   32.13    2.13
   2   3  -3   38.70    3.29
   2   3  -3   48.24    1.34
   2   3  -3   24.03    1.99
   2   3  -3   63.37    1.67
   2   3  -3   28.70    1.44
  -2  -3   2   60.64    2.73
  -2  -3   2   73.37    2.13
  -2  -3   2   38.14    2.13
  -2   3   2  114.02    2.50
  -2   3   2   39.07    2.13
  -2   3   2   55.60    1.67
  -2   3   2   48.56    1.94
   2  -3  -2   44.44    2.18
   2  -3  -2   51.85    1.85
   2  -3  -2   53.14    1.57
   2  -3  -2   55.46    2.31
   2   3  -2   89.90    5.56
   2   3  -2   42.50    0.93
   2   3  -2   90.64    1.39
   2   3  -2   46.62    2.27
   2   3  -2  113.41    2.22
  -2  -3   1  112.35    3.24
  -2  -3   1   86.24    2.78
  -2  -3   1  144.99    2.55
  -2  -3   1   76.98    2.64
  -2   3   1  223.50    3.43
  -2   3   1   85.36    2.50
  -2   3   1  104.90    3.38
  -2   3   1  120.68    2.22
   2  -3  -1  147.81    3.24
   2  -3  -1   84.57    2.68
   2  -3  -1   97.86    2.22
   2  -3  -1  112.81    3.01
   2   3  -1  161.74    4.12
   2   3  -1  111.19    1.25
   2   3  -1  133.88    1.44
   2   3  -1   82.77    2.73
   2   3  -1  212.85    3.15
  -2  -3   0   30.97    2.55
  -2  -3   0   26.53    1.99
  -2  -3   0   50.92    1.62
  -2  -3   0   26.62    1.99
  -2   3   0   81.52    2.41
  -2   3   0   41.43    2.18
  -2   3   0   52.82    1.71
   2  -3   0   52.68    2.31
   2  -3   0   25.55    1.90
   2  -3   0   31.85    1.53
   2  -3   0   37.17    2.13
   2  -3   0   36.89    2.13
   2   3   0   65.09    3.38
   2   3   0   48.93    0.97
   2   3   0   32.40    0.93
   2   3   0   30.32    2.08
   2   3   0   75.78    2.27
  -2  -3  -1   93.23    2.87
  -2  -3  -1  159.57    2.22
  -2  -3  -1  102.58    3.10
  -2   3  -1  280.20    4.21
  -2   3  -1  125.73    3.19
  -2   3  -1  191.79    3.01
   2  -3   1  178.13    3.15
   2  -3   1   97.44    2.82
   2  -3   1  108.69    2.08
   2  -3   1  123.32    3.15
   2  -3   1  128.97    3.10
   2   3   1  183.96    4.12
   2   3   1  210.21    1.94
   2   3   1  101.84    1.48
   2   3   1  103.88    3.06
   2   3   1  174.10    2.41
   2   3   1  241.55    3.70
  -2  -3  -2   31.43    3.33
  -2  -3  -2   22.68    2.18
  -2  -3  -2   34.90    1.16
  -2  -3  -2   19.44    1.99
  -2   3  -2   53.93    2.68
  -2   3  -2   24.03    1.34
  -2   3  -2   32.31    1.71
  -2   3  -2   31.62    2.08
  -2   3  -2   45.83    1.90
   2  -3   2   37.08    1.94
   2  -3   2   21.11    1.57
   2  -3   2   24.35    1.34
   2  -3   2   26.11    1.99
   2  -3   2   22.03    1.90
   2   3   2   40.41    2.87
   2   3   2   49.16    1.25
   2   3   2   21.25    1.16
   2   3   2   36.99    1.20
   2   3   2   48.93    2.31
  -2  -3  -3   17.96    2.18
  -2  -3  -3   12.36    1.34
  -2  -3  -3   10.60    1.62
  -2  -3  -3   19.16    0.79
  -2  -3  -3   11.39    1.67
  -2   3  -3   34.49    2.45
  -2   3  -3   14.91    1.20
  -2   3  -3   16.25    1.57
  -2   3  -3   16.20    1.94
  -2   3  -3   25.88    1.90
   2  -3   3   22.22    1.67
   2  -3   3   11.53    1.57
   2  -3   3   14.07    1.71
   2  -3   3   14.03    1.57
   2   3   3   35.23    1.34
   2   3   3   12.08    1.11
   2   3   3   16.48    0.79
   2   3   3   39.81    2.73
  -2  -3  -4   61.66    2.78
  -2  -3  -4   57.26    2.68
  -2  -3  -4   52.77    2.64
  -2   3  -4  144.11    3.80
  -2   3  -4   78.42    1.81
  -2   3  -4   65.50    1.90
  -2   3  -4   74.85    2.96
  -2   3  -4  134.01    3.19
   2  -3   4   94.34    2.22
   2  -3   4   56.61    2.59
   2  -3   4   72.96    2.68
   2  -3   4   66.75    2.59
   2   3   4   91.01    3.98
   2   3   4  132.81    2.27
   2   3   4  120.77    3.47
  -2  -3  -5   56.75    2.82
  -2  -3  -5   47.26    2.68
  -2  -3  -5   47.96    2.96
  -2   3  -5  114.85    3.70
  -2   3  -5   82.45    1.85
  -2   3  -5   45.46    1.81
  -2   3  -5  127.81    3.47
   2  -3   5   70.41    1.99
   2  -3   5   47.22    2.59
   2  -3   5   57.86    2.78
   2  -3   5   57.73    2.59
   2   3   5   85.13    4.21
   2   3   5  114.06    2.36
   2   3   5  119.66    3.61
  -2  -3  -6   47.50    2.78
  -2  -3  -6   51.80    3.01
  -2   3  -6  124.15    3.70
  -2   3  -6  103.79    2.45
  -2   3  -6  110.64    2.18
  -2   3  -6   49.62    2.04
  -2   3  -6  130.82    3.47
   2  -3   6   97.72    2.04
   2  -3   6   49.86    2.68
   2  -3   6   62.22    2.92
   2  -3   6   58.51    2.64
   2   3   6   90.13    4.26
   2   3   6  118.60    2.68
   2   3   6  106.79    3.66
  -2  -3  -7   34.39    2.64
  -2  -3  -7   34.53    2.68
  -2   3  -7   97.44    3.93
  -2   3  -7   63.47    2.73
  -2   3  -7  103.60    2.31
  -2   3  -7  135.68    4.07
   2  -3   7   65.36    1.67
   2  -3   7   39.39    2.64
   2  -3   7   45.88    2.92
   2  -3   7   45.92    2.87
   2   3   7   52.73    4.35
   2   3   7   85.04    2.68
   2   3   7   78.42    3.47
  -2  -3  -8   14.17    1.99
  -2  -3  -8   15.92    3.93
  -2  -3  -8   13.47    2.36
  -2   3  -8   28.65    2.92
  -2   3  -8   37.13    1.94
  -2   3  -8   31.29    3.24
   2  -3   8   11.53    1.99
   2  -3   8   14.49    2.13
   2  -3   8   12.45    1.85
   2   3   8   23.98    6.20
   2   3   8   23.05    2.31
   2   3   8   24.21    2.96
  -2  -3  -9   38.88    2.87
  -2  -3  -9   30.83    3.15
  -2  -3  -9   32.54    3.19
  -2   3  -9   72.96    4.12
  -2   3  -9   87.58    2.55
   2  -3   9   28.70    2.87
   2  -3   9   32.68    3.06
   2  -3   9   28.33    2.59
   2   3   9   35.97    4.03
   2   3   9   52.82    2.82
   2   3   9   60.78    3.70
  -2  -3 -10    2.87    1.85
  -2  -3 -10   -0.37    2.31
  -2  -3 -10    0.60    2.45
  -2   3 -10    5.46    2.45
  -2   3 -10    9.35    1.67
  -2   3 -10    8.61    2.36
   2  -3  10    2.82    1.90
   2  -3  10    6.02    2.22
   2  -3  10    5.28    1.85
   2   3  10    6.02    3.38
   2   3  10    3.75    1.94
   2   3  10    3.98    2.36
  -2  -3 -11    1.02    1.85
  -2  -3 -11    5.65    2.41
  -2  -3 -11   -1.81    2.45
  -2   3 -11   -0.51    2.45
  -2   3 -11    4.49    1.81
  -2   3 -11    9.95    2.92
   2  -3  11    0.79    2.04
   2  -3  11    2.45    2.31
   2  -3  11    3.56    1.99
   2   3  11   -0.09    3.66
   2   3  11    1.44    1.90
   2   3  11    4.58    2.18
  -2  -3 -12    3.70    2.13
  -2  -3 -12    7.87    2.87
  -2  -3 -12    1.85    2.64
  -2   3 -12    8.80    3.33
  -2   3 -12   15.65    3.33
   2  -3  12    2.68    2.31
   2  -3  12    4.31    2.55
   2  -3  12    4.07    2.22
   2   3  12    0.83    3.98
   2   3  12    6.76    2.22
   2   3  12    4.40    2.87
  -2  -3 -13   10.18    3.06
  -2  -3 -13   14.40    3.98
  -2   3 -13   20.88    5.65
  -2   3 -13   33.24    4.03
   2  -3  13   12.55    3.01
   2  -3  13    8.89    2.73
   2   3  13   15.46    4.40
   2   3  13   13.70    2.64
  -2  -3 -14   33.89    6.06
  -2  -3 -14   21.43    3.84
  -2   3 -14   43.00    4.86
  -2   3 -14   77.12    5.46
   2  -3  14   24.26    3.38
   2  -3  14   33.56    3.84
   2  -3  14   26.25    3.15
   2   3  14   57.26    6.94
   2   3  14   44.16    4.21
   2   3  14   53.51    5.32
  -2  -4  14   32.22    4.17
  -2  -4  14   20.88    2.82
  -2  -4  14   38.01    4.72
  -2   4  14   46.89    4.68
  -2   4  14   41.71    5.00
   2  -4 -14   43.93    5.09
   2  -4 -14   31.99    4.63
   2  -4 -14   17.17    3.10
   2   4 -14   20.65    4.40
   2   4 -14   54.07    6.57
   2   4 -14   54.62    5.83
  -2  -4  13   32.03    3.15
  -2  -4  13   36.57    4.95
  -2   4  13   55.32    4.35
   2  -4 -13   23.10    2.96
   2   4 -13   56.34    4.68
   2   4 -13   63.10    6.11
  -2  -4  12   45.69    4.58
  -2  -4  12   33.10    4.03
  -2   4  12   39.12    3.93
  -2   4  12   41.01    3.38
  -2   4  12   45.88    4.21
   2  -4 -12   16.71    3.29
   2  -4 -12   18.84    2.82
   2   4 -12   38.47    4.12
   2   4 -12   41.52    4.26
  -2  -4  11    5.18    2.92
  -2  -4  11    2.27    1.94
  -2  -4  11    4.31    2.45
  -2   4  11    1.20    2.22
  -2   4  11    6.02    2.08
  -2   4  11    2.96    2.36
   2  -4 -11    6.85    3.24
   2  -4 -11    3.43    2.87
   2  -4 -11    4.40    2.22
   2   4 -11    3.80    2.73
   2   4 -11    5.00    2.82
  -2  -4  10   28.93    3.24
  -2  -4  10   20.46    2.22
  -2  -4  10   32.40    3.61
  -2   4  10   27.77    3.24
  -2   4  10   40.46    3.06
  -2   4  10   29.30    3.29
   2  -4 -10   30.55    3.52
   2  -4 -10   23.19    3.19
   2  -4 -10   23.56    2.41
   2   4 -10   34.58    3.66
   2   4 -10   31.71    3.47
  -2  -4   9   97.72    4.72
  -2  -4   9   66.98    3.01
  -2  -4   9  101.38    4.31
  -2   4   9   97.44    3.93
  -2   4   9   96.70    3.66
  -2   4   9   95.08    4.26
   2  -4  -9  115.78    5.23
   2  -4  -9   75.46    3.98
   2  -4  -9   57.08    3.10
   2   4  -9  110.96    4.72
   2   4  -9   97.31    4.17
   2   4  -9   85.13    4.03
  -2  -4   8   10.18    2.36
  -2  -4   8   10.05    2.31
  -2   4   8    6.39    1.99
  -2   4   8    8.47    1.85
  -2   4   8    4.58    2.08
   2  -4  -8    7.82    2.55
   2  -4  -8    5.23    2.22
   2  -4  -8    8.84    1.90
   2  -4  -8    8.75    2.08
   2   4  -8   15.23    2.82
   2   4  -8    7.55    2.22
   2   4  -8    6.76    2.18
  -2  -4   7    7.04    2.41
  -2  -4   7    3.61    1.20
  -2  -4   7    5.88    2.45
  -2  -4   7    7.27    2.31
  -2   4   7    7.59    1.30
  -2   4   7    4.21    1.76
  -2   4   7    2.96    1.71
  -2   4   7    3.33    1.90
   2  -4  -7    2.92    2.50
   2  -4  -7    3.15    2.50
   2  -4  -7    4.58    1.48
   2  -4  -7    5.42    1.99
   2   4  -7    8.61    2.59
   2   4  -7    6.25    2.18
   2   4  -7    0.51    2.13
  -2  -4   6   12.78    2.36
  -2  -4   6    9.30    1.25
  -2  -4   6   18.01    2.45
  -2  -4   6   10.00    2.08
  -2   4   6   22.17    1.71
  -2   4   6   12.50    1.76
  -2   4   6   15.79    2.27
   2  -4  -6   15.42    2.59
   2  -4  -6    9.81    2.13
   2  -4  -6   11.06    1.57
   2  -4  -6   16.06    2.22
   2   4  -6   27.50    2.96
   2   4  -6   10.18    2.08
   2   4  -6   23.19    1.44
  -2  -4   5  110.08    2.36
  -2  -4   5  180.03    4.31
  -2  -4   5  131.79    4.91
  -2   4   5  302.01    3.70
  -2   4   5  138.64    3.98
  -2   4   5  149.85    3.80
   2  -4  -5  229.93    7.78
   2  -4  -5  139.66    4.26
   2  -4  -5  127.26    2.96
   2   4  -5  222.66    5.37
   2   4  -5  143.37    6.57
   2   4  -5  128.78    4.91
   2   4  -5  265.07    3.06
  -2  -4   4  253.35    5.18
  -2  -4   4  181.56    2.68
  -2  -4   4  301.45    5.14
  -2  -4   4  200.03    7.55
  -2   4   4  489.67    4.86
  -2   4   4  215.21    4.40
  -2   4   4  241.64    4.40
  -2   4   4  277.61    5.51
   2  -4  -4  311.08    5.69
   2  -4  -4  210.44    4.58
   2  -4  -4  209.65    3.52
   2  -4  -4  279.05    5.32
   2   4  -4  339.69    5.93
   2   4  -4  217.57    4.86
   2   4  -4  268.63    8.89
   2   4  -4  411.90    4.12
  -2  -4   3   54.53    3.38
  -2  -4   3   31.39    1.44
  -2  -4   3   52.96    2.92
  -2  -4   3   36.15    2.82
  -2   4   3   86.52    2.87
  -2   4   3   29.58    2.45
  -2   4   3   41.11    2.55
   2  -4  -3   56.24    3.61
   2  -4  -3   31.34    2.13
   2  -4  -3   41.57    2.87
   2  -4  -3   33.52    2.08
   2  -4  -3   40.78    2.82
   2   4  -3   74.76    4.31
   2   4  -3   31.29    1.39
   2   4  -3   40.18    2.87
   2   4  -3   83.00    2.41
  -2  -4   2   17.31    2.08
  -2  -4   2   11.57    2.13
  -2   4   2   23.42    2.45
  -2   4   2    6.99    1.67
  -2   4   2    9.21    1.71
  -2   4   2    9.12    1.44
   2  -4  -2   17.59    2.45
   2  -4  -2    8.33    1.67
   2  -4  -2    8.56    1.85
   2  -4  -2    9.07    1.34
   2  -4  -2   10.74    1.85
   2   4  -2   28.56    3.24
   2   4  -2    8.01    0.83
   2   4  -2   16.02    1.71
   2   4  -2   15.65    2.08
   2   4  -2   33.93    2.22
  -2  -4   1  167.58    4.35
  -2  -4   1  132.53    3.93
  -2  -4   1  204.15    3.56
  -2  -4   1  130.13    3.89
  -2   4   1  342.42    5.05
  -2   4   1  141.98    3.84
  -2   4   1  170.58    4.21
  -2   4   1  189.52    3.52
   2  -4  -1  218.59    4.86
   2  -4  -1  131.61    3.70
   2  -4  -1  181.93    3.33
   2  -4  -1  178.82    4.21
   2   4  -1  209.47    5.56
   2   4  -1  162.16    2.18
   2   4  -1  179.43    2.45
   2   4  -1  133.74    3.84
   2   4  -1  293.77    4.35
  -2  -4   0   27.73    2.68
  -2  -4   0   18.98    2.27
  -2  -4   0   29.02    1.81
  -2  -4   0   28.70    2.87
  -2   4   0   48.75    3.10
  -2   4   0   16.80    1.99
  -2   4   0   17.45    2.18
  -2   4   0   25.23    2.13
   2  -4   0   29.30    3.24
   2  -4   0   16.57    1.99
   2  -4   0   16.16    1.94
   2  -4   0   22.31    2.50
   2  -4   0   23.84    2.82
   2   4   0   38.88    4.21
   2   4   0   22.73    1.20
   2   4   0   19.30    1.53
   2   4   0   21.66    2.50
  -2  -4  -1   89.44    3.70
  -2  -4  -1   69.95    3.52
  -2  -4  -1   94.11    2.27
  -2  -4  -1   62.63    3.10
  -2   4  -1  175.58    4.26
  -2   4  -1   73.42    2.64
  -2   4  -1   79.62    3.29
  -2   4  -1  109.06    3.10
   2  -4   1  117.49    3.98
   2  -4   1   66.57    3.01
   2  -4   1   74.34    2.55
   2  -4   1   76.57    3.19
   2  -4   1   88.60    3.38
   2   4   1  123.14    4.95
   2   4   1  115.27    1.99
   2   4   1   64.39    3.24
  -2  -4  -2   24.21    3.01
  -2  -4  -2   21.66    1.48
  -2  -4  -2   17.78    2.59
  -2   4  -2   48.33    3.33
  -2   4  -2   17.73    1.94
  -2   4  -2   17.50    2.18
  -2   4  -2   29.53    2.82
   2  -4   2   27.59    3.24
   2  -4   2   13.84    1.99
   2  -4   2   15.97    1.94
   2  -4   2   16.57    2.08
   2  -4   2   16.80    2.08
   2   4   2   35.55    3.80
   2   4   2   28.05    1.44
   2   4   2   36.15    2.68
  -2  -4  -3   41.66    3.33
  -2  -4  -3   26.99    3.24
  -2  -4  -3   40.41    1.39
  -2   4  -3   91.24    3.80
  -2   4  -3   41.01    2.13
  -2   4  -3   40.13    2.55
  -2   4  -3   72.77    3.15
   2  -4   3   64.11    2.92
   2  -4   3   33.28    2.78
   2  -4   3   43.14    2.96
   2  -4   3   44.12    2.87
   2   4   3   47.08    5.83
   2   4   3   66.61    1.94
   2   4   3   42.40    1.34
   2   4   3   67.54    3.56
  -2  -4  -4   17.96    2.22
  -2  -4  -4   13.33    2.27
  -2  -4  -4   18.70    2.55
  -2   4  -4   34.77    3.15
  -2   4  -4   18.01    1.71
  -2   4  -4   19.26    2.45
  -2   4  -4   32.40    2.92
   2  -4   4   27.13    2.64
   2  -4   4   13.38    2.22
   2  -4   4   15.74    2.31
   2   4   4   21.16    2.92
   2   4   4   38.38    1.81
   2   4   4   36.85    3.01
  -2  -4  -5   23.89    2.41
  -2  -4  -5   10.79    2.22
  -2  -4  -5   23.42    2.78
  -2   4  -5   40.18    3.61
  -2   4  -5   27.50    2.13
  -2   4  -5   21.06    2.59
  -2   4  -5   44.02    3.24
   2  -4   5   26.43    2.55
   2  -4   5   16.57    2.27
   2  -4   5   19.54    2.45
   2  -4   5   19.12    2.22
   2   4   5   27.68    3.80
   2   4   5   41.89    2.13
  -2  -4  -6   31.02    2.59
  -2  -4  -6   28.52    2.87
  -2  -4  -6   21.34    2.78
  -2   4  -6   61.29    4.12
  -2   4  -6   49.25    3.10
  -2   4  -6   46.15    2.36
  -2   4  -6   35.51    3.43
  -2   4  -6   78.42    3.75
   2  -4   6   44.02    2.55
   2  -4   6   24.07    2.59
   2  -4   6   35.55    3.15
   2  -4   6   32.87    3.15
   2   4   6   37.87    4.49
   2   4   6   63.42    2.68
   2   4   6   62.35    3.80
  -2  -4  -7    1.25    1.90
  -2  -4  -7    5.05    2.22
  -2  -4  -7    4.07    2.22
  -2   4  -7    8.24    2.45
  -2   4  -7    1.90    1.48
   2  -4   7    2.45    1.94
   2  -4   7    2.68    2.04
   2  -4   7    3.24    1.99
   2   4   7    0.28    3.24
   2   4   7    5.28    1.81
   2   4   7    5.88    2.45
  -2  -4  -8   13.19    2.22
  -2  -4  -8    6.53    2.45
  -2  -4  -8   10.00    2.55
  -2   4  -8   27.77    3.38
  -2   4  -8   27.36    2.64
  -2   4  -8   19.95    2.68
   2  -4   8    9.40    2.31
   2  -4   8   10.88    2.55
   2  -4   8   10.28    2.22
   2   4   8   17.27    4.03
   2   4   8   26.29    3.06
   2   4   8   25.04    3.06
  -2  -4  -9   13.19    2.27
  -2  -4  -9    6.99    2.64
  -2  -4  -9   16.34    3.19
  -2   4  -9   19.26    3.06
  -2   4  -9   44.63    4.17
   2  -4   9   11.02    2.59
   2  -4   9   13.70    2.64
   2  -4   9   15.42    2.36
   2   4   9   14.81    4.21
   2   4   9   25.92    3.15
   2   4   9   23.56    3.29
  -2  -4 -10    1.48    2.13
  -2  -4 -10    1.76    3.10
  -2  -4 -10    4.21    3.19
  -2   4 -10    7.78    3.10
  -2   4 -10    6.67    2.78
   2  -4  10    2.96    2.50
   2  -4  10    1.48    2.36
   2  -4  10    5.23    2.27
   2   4  10   -0.46    4.21
   2   4  10    8.33    2.31
   2   4  10   10.42    3.01
  -2  -4 -11   14.30    5.60
  -2  -4 -11   20.78    5.51
  -2   4 -11   34.07    4.68
  -2   4 -11   43.10    4.86
   2  -4  11   15.97    3.75
   2   4  11   15.28    5.18
   2   4  11   26.53    3.19
   2   4  11   29.35    4.68
  -2  -4 -12   10.09    3.52
  -2  -4 -12   12.17    3.56
  -2   4 -12   19.03    4.26
   2  -4  12    7.78    3.10
   2  -4  12   11.06    3.29
   2  -4  12    8.05    2.59
   2   4  12   22.54    6.06
   2   4  12   28.28    3.52
   2   4  12   24.63    3.84
  -2   5  11    3.06    2.64
   2  -5 -11   -2.73    3.93
  -2  -5  10   11.94    3.56
  -2  -5  10    4.86    2.36
  -2   5  10   14.72    2.92
  -2   5  10   13.33    3.29
   2  -5 -10    9.72    4.12
   2  -5 -10   13.56    6.16
   2   5 -10   10.97    3.56
   2   5 -10    7.73    3.15
  -2  -5   9    6.11    2.08
  -2  -5   9   16.06    3.24
  -2   5   9   14.67    2.68
  -2   5   9   14.81    2.55
   2  -5  -9   17.50    6.43
   2  -5  -9    8.80    3.33
   2  -5  -9   13.84    2.68
   2   5  -9   18.79    4.17
   2   5  -9   12.73    3.38
   2   5  -9   10.46    4.21
  -2  -5   8    2.04    3.19
  -2  -5   8   -0.37    1.94
  -2  -5   8    1.90    2.96
  -2   5   8    0.51    2.18
  -2   5   8   -1.25    2.18
  -2   5   8   -0.88    2.45
   2  -5  -8   -8.89    3.29
   2  -5  -8   -4.49    3.06
   2  -5  -8   -0.09    2.27
   2   5  -8   -1.02    3.47
   2   5  -8    2.50    2.59
   2   5  -8    5.37    2.78
  -2  -5   7   24.21    3.38
  -2  -5   7   21.06    2.41
  -2  -5   7   28.70    3.24
  -2  -5   7   27.03    3.52
  -2   5   7   25.37    2.92
  -2   5   7   27.54    3.24
  -2   5   7   45.78    4.35
   2  -5  -7   32.27    4.07
   2  -5  -7   26.66    3.70
   2  -5  -7   25.51    2.82
   2  -5  -7   38.84    4.03
   2   5  -7   42.63    4.54
   2   5  -7   27.77    3.38
   2   5  -7   23.10    3.24
  -2  -5   6   24.21    3.29
  -2  -5   6   23.24    3.10
  -2  -5   6   15.55    2.96
  -2   5   6   12.87    2.41
  -2   5   6   19.49    2.36
  -2   5   6   29.07    3.24
   2  -5  -6   26.34    3.80
   2  -5  -6   21.25    3.06
   2  -5  -6   16.20    2.50
   2  -5  -6   24.72    3.10
   2   5  -6   37.87    4.21
   2   5  -6   19.07    3.43
   2   5  -6   18.47    2.92
  -2  -5   5  123.14    5.56
  -2  -5   5  108.37    4.21
  -2  -5   5   90.78    4.81
  -2   5   5  195.54    4.44
  -2   5   5   91.94    4.03
  -2   5   5  100.55    3.75
  -2   5   5  112.86    4.91
   2  -5  -5  134.01    5.97
   2  -5  -5   91.47    4.68
   2  -5  -5   79.48    3.75
   2  -5  -5  121.33    4.95
   2   5  -5   93.42    4.58
   2   5  -5   85.69    4.40
  -2  -5   4   31.80    3.56
  -2  -5   4   22.03    3.93
  -2  -5   4   14.81    3.06
  -2   5   4   35.04    3.43
  -2   5   4   17.31    2.41
  -2   5   4   19.30    2.41
  -2   5   4   20.18    2.92
   2  -5  -4   21.34    3.43
   2  -5  -4   16.90    3.01
   2  -5  -4   17.41    2.36
   2  -5  -4   17.54    2.68
   2   5  -4   33.65    4.35
   2   5  -4   20.00    2.92
   2   5  -4   24.26    3.43
   2   5  -4   31.29    2.73
  -2  -5   3   38.33    3.66
  -2  -5   3   33.05    3.47
  -2  -5   3   32.03    3.43
  -2   5   3   58.47    3.70
  -2   5   3   33.42    3.43
  -2   5   3   32.13    3.06
  -2   5   3   30.60    3.29
  -2   5   3   30.74    3.70
   2  -5  -3   47.36    4.95
   2  -5  -3   28.24    3.52
   2  -5  -3   30.51    3.06
   2  -5  -3   44.39    3.75
   2   5  -3   49.12    5.79
   2   5  -3   29.86    3.19
  -2  -5   2    7.45    2.78
  -2  -5   2    6.30    2.04
  -2  -5   2    9.58    2.45
  -2   5   2   12.78    2.50
  -2   5   2    4.03    1.94
  -2   5   2    9.07    2.18
  -2   5   2    7.27    2.31
   2  -5  -2    7.18    3.24
   2  -5  -2    3.75    2.13
   2  -5  -2    5.46    2.31
   2  -5  -2    8.15    2.13
   2  -5  -2    6.90    2.27
   2   5  -2    8.38    3.56
   2   5  -2    6.02    2.59
   2   5  -2   10.74    2.08
  -2  -5   1    7.59    2.73
  -2  -5   1   10.18    2.82
  -2  -5   1   10.97    1.94
  -2  -5   1    9.91    2.45
  -2   5   1   23.89    2.87
  -2   5   1   10.23    2.13
  -2   5   1   13.84    2.55
  -2   5   1   13.42    2.36
  -2   5   1   10.32    2.59
   2  -5  -1   21.20    3.33
   2  -5  -1   12.96    2.41
   2  -5  -1   14.44    2.45
   2  -5  -1   10.97    2.27
   2  -5  -1   10.60    2.50
   2   5  -1   17.17    3.93
   2   5  -1   13.56    2.92
   2   5  -1   19.77    2.45
  -2  -5   0   14.21    2.92
  -2  -5   0    9.54    2.73
  -2  -5   0    9.72    2.50
  -2   5   0   29.40    3.01
  -2   5   0    8.80    2.13
  -2   5   0   14.44    2.50
  -2   5   0   15.51    2.41
  -2   5   0   16.62    2.45
   2  -5   0    9.12    2.31
   2  -5   0   11.94    2.41
   2  -5   0   14.44    2.82
   2   5   0   15.00    3.80
   2   5   0   14.86    2.96
   2   5   0   23.56    2.78
  -2  -5  -1   43.19    4.12
  -2  -5  -1   38.79    4.07
  -2  -5  -1   40.92    2.31
  -2  -5  -1   29.35    3.52
  -2   5  -1   27.36    3.06
  -2   5  -1   32.87    3.38
  -2   5  -1   45.88    3.89
  -2   5  -1   50.83    3.75
   2  -5   1   62.17    7.18
   2  -5   1   33.84    3.43
   2  -5   1   34.77    3.47
   2  -5   1   37.40    3.61
   2  -5   1   53.33    3.80
   2   5   1   48.28    5.83
   2   5   1   36.11    4.12
   2   5   1   73.14    3.98
  -2  -5  -2   14.72    3.10
  -2  -5  -2   12.87    2.73
  -2  -5  -2   13.33    2.73
  -2   5  -2   44.53    4.12
  -2   5  -2   10.37    2.36
  -2   5  -2   17.31    2.50
  -2   5  -2   12.68    2.55
  -2   5  -2   21.66    2.64
   2  -5   2   23.56    3.24
   2  -5   2   10.83    2.45
   2  -5   2   11.48    2.59
   2  -5   2   12.41    2.41
   2   5   2   15.55    3.56
   2   5   2   10.14    2.64
  -2  -5  -3   54.81    4.07
  -2  -5  -3   58.10    4.17
  -2   5  -3  172.44    5.51
  -2   5  -3  118.46    6.02
  -2   5  -3   80.73    3.61
  -2   5  -3   80.64    4.21
  -2   5  -3  125.40    4.49
   2  -5   3  108.60    4.95
   2  -5   3   56.85    3.84
   2  -5   3   76.33    4.12
   2  -5   3   84.62    4.40
   2   5   3  118.32    6.62
   2   5   3   59.48    4.31
   2   5   3  135.17    4.68
  -2  -5  -4  274.19    7.13
  -2  -5  -4  197.48    6.06
  -2  -5  -4  191.60    5.65
  -2   5  -4  475.92    8.05
  -2   5  -4  363.81    7.18
  -2   5  -4  252.52    5.00
  -2   5  -4  261.46    6.25
   2  -5   4  340.66    6.39
   2  -5   4  191.09    5.37
   2  -5   4  244.88    6.06
   2  -5   4  265.39    5.88
   2   5   4  323.25    8.47
   2   5   4  435.97    7.41
  -2  -5  -5    8.38    2.55
  -2  -5  -5    5.37    2.59
  -2  -5  -5   14.58    3.33
  -2   5  -5   19.63    3.15
  -2   5  -5   17.17    3.52
  -2   5  -5   12.22    2.36
  -2   5  -5    7.68    2.87
  -2   5  -5   16.76    2.92
   2  -5   5   13.75    2.78
   2  -5   5    7.82    2.55
   2  -5   5    9.49    2.73
   2  -5   5   10.14    2.36
   2   5   5   13.98    4.21
   2   5   5   22.41    2.96
  -2  -5  -6   13.56    2.68
  -2  -5  -6   12.08    3.19
  -2  -5  -6    4.77    2.82
  -2   5  -6   16.80    3.56
  -2   5  -6    5.51    2.92
  -2   5  -6    9.58    2.96
   2  -5   6    6.57    2.64
   2  -5   6    8.52    2.73
   2  -5   6    5.46    2.31
   2   5   6    6.48    4.31
   2   5   6   16.39    3.01
  -2  -5  -7    7.82    2.64
  -2  -5  -7   12.87    3.89
  -2  -5  -7   15.69    3.70
  -2   5  -7   32.17    4.49
  -2   5  -7   39.39    4.58
   2  -5   7    9.26    2.73
   2  -5   7   11.53    2.45
   2   5   7   16.85    6.71
   2   5   7   37.13    4.44
  -2  -5  -8    8.05    3.52
  -2  -5  -8    9.91    6.16
  -2   5  -8   18.52    4.17
  -2   5  -8   14.72    3.66
  -2   5  -8   27.45    3.80
   2  -5   8    8.47    3.47
   2  -5   8   12.04    3.15
   2  -5   8   10.23    2.68
   2   5   8   14.72    5.32
  -2  -5  -9    4.26    3.19
  -2  -5  -9   -1.06    3.47
  -2   5  -9    3.84    3.70
  -2   5  -9    4.12    3.61
  -2   5  -9    2.78    3.24
   2  -5   9    4.81    3.10
   2  -5   9    2.04    3.01
   2  -5   9   -2.68    2.64
   2   5   9   -0.46    5.05
   2   5   9    3.29    3.43
  -2  -6   3   14.07    3.06
  -2  -6   3   25.00    4.35
  -2   6   3   21.76    6.94
  -2   6   3   13.84    2.87
  -2   6   3   15.00    3.15
  -2   6   3   11.20    3.89
  -2   6   3   20.83    4.40
   2  -6  -3   20.00    3.70
   2  -6  -3   16.90    3.06
   2   6  -3   31.57    5.28
   2   6  -3   17.41    3.75
   2   6  -3   17.73    4.31
  -2  -6   2   26.76    4.68
  -2  -6   2   14.54    2.87
  -2  -6   2   13.19    3.70
  -2   6   2   32.82    3.75
  -2   6   2   29.35    5.83
  -2   6   2   12.87    2.78
  -2   6   2   14.49    3.19
  -2   6   2   12.96    2.96
  -2   6   2   15.55    3.10
  -2   6   2   20.37    5.83
   2  -6  -2   20.55    4.44
   2  -6  -2   10.65    3.19
   2  -6  -2   16.76    3.15
   2  -6  -2   22.96    6.16
   2   6  -2   25.14    5.05
   2   6  -2   19.81    3.89
   2   6  -2   19.03    4.17
  -2  -6   1   75.59    5.74
  -2  -6   1   44.90    5.05
  -2   6   1  113.92    5.79
  -2   6   1   93.83    8.19
  -2   6   1   52.03    4.03
  -2   6   1   59.11    4.72
  -2   6   1   49.39    4.40
  -2   6   1   67.72    5.46
   2  -6  -1   68.19    6.48
   2  -6  -1   52.96    4.68
   2  -6  -1   67.49    5.00
   2   6  -1   78.51    8.89
   2   6  -1   44.35    5.14
   2   6  -1   81.15    4.72
  -2  -6   0   13.89    4.12
  -2  -6   0   12.36    3.98
  -2   6   0   22.22    3.84
  -2   6   0   23.84    5.46
  -2   6   0    9.54    2.96
  -2   6   0   15.09    3.15
  -2   6   0   12.27    3.15
  -2   6   0    9.67    3.19
  -2   6   0    9.86    3.15
   2  -6   0   16.39    4.17
   2  -6   0    8.61    2.92
   2  -6   0   10.00    3.19
   2  -6   0   11.25    3.10
   2   6   0   10.55    3.98
   2   6   0   16.90    3.29
  -2  -6  -1   56.57    5.56
  -2  -6  -1   44.35    4.58
  -2  -6  -1   46.06    4.86
  -2   6  -1   90.41    5.74
  -2   6  -1   74.34    7.50
  -2   6  -1   44.39    4.63
  -2   6  -1   37.96    4.72
  -2   6  -1   51.01    5.18
  -2   6  -1   49.58    4.81
  -2   6  -1   57.82    4.86
   2  -6   1   66.85    6.43
   2  -6   1   37.91    4.35
   2  -6   1   54.76    4.68
   2   6   1   48.51    6.39
   2   6   1   42.73    5.14
   2   6   1   83.23    5.09
  -3   0  18  121.98    4.95
  -3   0  18  104.39    5.18
   3   0 -18   81.94    5.09
   3   0 -18  131.98    6.11
   3   0 -18  183.08    6.39
  -3   0  17    8.19    2.92
  -3   0  17    4.31    2.73
  -3   0  17    6.30    2.31
   3   0 -17    9.91    3.01
  -3   0  16   31.20    3.10
  -3   0  16   43.00    3.98
  -3   0  16   32.50    3.70
  -3   0  16   35.92    3.10
   3   0 -16   36.57    3.43
   3   0 -16   25.37    2.82
   3   0 -16   52.12    4.35
   3   0 -16   60.04    4.40
  -3   0  15   48.42    3.75
  -3   0  15   37.87    3.52
  -3   0  15   39.67    2.92
   3   0 -15   26.11    2.82
   3   0 -15   43.10    3.93
   3   0 -15   69.02    4.12
  -3   0  14   -1.44    1.34
  -3   0  14    0.93    1.99
  -3   0  14    0.65    2.04
   3   0 -14   -0.42    2.08
   3   0 -14   -0.93    2.22
   3   0 -14   -2.92    2.13
  -3   0  13    6.85    1.39
  -3   0  13   13.19    2.31
  -3   0  13    8.10    1.44
   3   0 -13   10.88    2.08
   3   0 -13   15.37    2.45
   3   0 -13   17.68    2.36
  -3   0  12  286.59    4.07
  -3   0  12  428.20    6.11
  -3   0  12  348.02    5.79
  -3   0  12  311.13    4.03
   3   0 -12  356.82    5.65
   3   0 -12  582.35    7.73
   3   0 -12  644.19    6.57
  -3   0  11   10.46    1.39
  -3   0  11   16.25    1.85
  -3   0  11   11.90    1.99
  -3   0  11   10.97    1.20
   3   0 -11   17.64    2.04
   3   0 -11   17.17    2.18
   3   0 -11   22.31    2.13
  -3   0  10    3.70    1.02
  -3   0  10    4.03    1.34
  -3   0  10    3.43    1.53
  -3   0  10    3.24    0.93
   3   0 -10    3.15    1.57
   3   0 -10    8.29    1.76
   3   0 -10    2.13    0.88
  -3   0   9  364.87    4.12
  -3   0   9  576.89    6.16
  -3   0   9  520.50    6.11
  -3   0   9  379.45    3.98
   3   0  -9  592.81    6.30
   3   0  -9  913.24    7.92
   3   0  -9  720.11    5.60
   3   0  -9  382.65    3.93
  -3   0   8  206.14    3.15
  -3   0   8  279.79    4.03
  -3   0   8  264.28    4.31
   3   0  -8  498.56    5.79
   3   0  -8  313.58    3.52
   3   0  -8  183.78    2.73
  -3   0   7   18.15    1.34
  -3   0   7   20.97    1.53
  -3   0   7   20.74    2.08
   3   0  -7   22.22    1.90
   3   0  -7   37.08    1.99
   3   0  -7   20.55    1.25
   3   0  -7   11.16    1.06
  -3   0   6   13.79    1.30
  -3   0   6    9.12    1.02
  -3   0   6   11.90    1.30
   3   0  -6   17.54    1.76
   3   0  -6   25.37    1.62
   3   0  -6   10.83    0.97
   3   0  -6    9.30    1.06
   3   0  -6    7.96    0.88
  -3   0   5    1.99    0.79
  -3   0   5    2.18    0.65
  -3   0   5    1.62    0.88
   3   0  -5    3.66    1.06
   3   0  -5    4.49    0.88
   3   0  -5    1.25    0.60
   3   0  -5    2.13    0.79
   3   0  -5    2.36    0.69
  -3   0   4   58.19    1.76
  -3   0   4   50.69    1.48
  -3   0   4   71.24    2.08
  -3   0   4   48.24    1.20
   3   0  -4   96.38    2.55
   3   0  -4  114.39    2.31
   3   0  -4   47.17    1.25
   3   0  -4   45.32    1.39
   3   0  -4   52.17    1.53
  -3   0   3    2.36    0.65
  -3   0   3    4.35    0.83
  -3   0   3    2.96    0.51
   3   0  -3   13.38    1.53
   3   0  -3    3.61    0.79
   3   0  -3    5.42    0.74
  -3   0   2 1968.04    9.03
  -3   0   2 1558.32    6.90
  -3   0   2 1554.34    7.08
  -3   0   2 1776.81    7.41
  -3   0   2 2121.59    9.49
  -3   0   2 1380.65    5.56
   3   0  -2 3128.81   11.85
   3   0  -2 1520.91    6.80
   3   0  -2 2723.89    9.07
   3   0  -2 1773.71    6.30
   3   0  -2 1890.88    8.47
  -3   0   1   28.19    1.44
  -3   0   1   19.72    1.34
  -3   0   1   18.89    1.30
  -3   0   1   30.37    1.44
  -3   0   1   21.25    1.02
   3   0  -1   56.24    1.90
   3   0  -1   17.96    1.02
   3   0  -1   35.41    1.25
   3   0  -1   34.90    1.39
   3   0  -1   28.28    1.34
  -3   0   0   38.84    1.48
  -3   0   0   41.20    1.30
   3   0   0   66.94    2.13
   3   0   0   27.22    1.11
   3   0   0   48.70    1.30
   3   0   0   47.59    1.62
   3   0   0   41.66    1.57
  -3   0  -1  192.11    3.24
  -3   0  -1  170.21    2.73
  -3   0  -1  145.40    2.31
   3   0   1  261.41    3.56
   3   0   1  124.62    2.13
   3   0   1  158.73    1.99
   3   0   1  132.86    1.94
   3   0   1  185.91    3.06
  -3   0  -2  146.93    2.96
  -3   0  -2  113.46    2.27
  -3   0  -2  114.53    2.27
   3   0   2  187.81    3.19
   3   0   2   98.23    2.04
   3   0   2  102.12    1.62
   3   0   2  100.92    1.71
   3   0   2  136.05    2.78
  -3   0  -3  361.63    4.54
  -3   0  -3  230.63    2.36
  -3   0  -3  289.74    3.47
  -3   0  -3  296.91    3.70
   3   0   3  435.47    4.44
   3   0   3  243.17    3.24
   3   0   3  233.77    2.36
   3   0   3  263.40    2.59
   3   0   3  347.33    4.44
  -3   0  -4  152.16    2.04
  -3   0  -4  187.48    2.87
  -3   0  -4  214.33    3.43
   3   0   4  283.77    3.80
   3   0   4  163.69    2.87
   3   0   4  211.00    2.50
   3   0   4  240.81    4.63
  -3   0  -5    1.94    1.16
  -3   0  -5    0.97    0.65
  -3   0  -5    1.67    0.88
  -3   0  -5    2.45    1.16
   3   0   5    0.09    0.93
   3   0   5    1.39    0.97
   3   0   5    2.18    0.97
  -3   0  -6  359.87    5.14
  -3   0  -6  209.61    2.64
  -3   0  -6  277.43    3.70
  -3   0  -6  338.02    4.91
   3   0   6  409.77    4.58
   3   0   6  442.13    4.03
   3   0   6  355.29    5.09
  -3   0  -7   77.77    2.96
  -3   0  -7   43.51    1.62
  -3   0  -7   60.04    2.18
  -3   0  -7   77.86    2.92
   3   0   7   89.90    2.87
   3   0   7   63.14    2.55
   3   0   7   55.97    2.08
   3   0   7   77.35    3.01
  -3   0  -8   18.84    2.22
  -3   0  -8   10.74    1.20
  -3   0  -8   10.46    1.39
  -3   0  -8   16.48    2.22
   3   0   8   24.95    2.55
   3   0   8   11.53    1.67
   3   0   8    9.91    1.34
   3   0   8   14.44    1.71
  -3   0  -9   17.22    2.22
  -3   0  -9   14.67    1.48
  -3   0  -9   19.72    2.36
  -3   0  -9   17.08    2.18
   3   0   9   29.12    2.92
   3   0   9   14.63    1.94
   3   0   9   15.46    1.90
   3   0   9   21.62    2.27
  -3   0 -10    5.88    1.99
  -3   0 -10    5.51    1.44
  -3   0 -10    1.30    1.67
  -3   0 -10    5.74    2.13
   3   0  10    5.37    1.94
   3   0  10    4.07    1.67
   3   0  10    3.89    1.67
   3   0  10    4.35    2.22
  -3   0 -11    1.25    2.59
  -3   0 -11   -0.46    2.55
  -3   0 -11    0.19    1.67
  -3   0 -11    1.81    2.22
   3   0  11    2.04    2.04
   3   0  11    1.76    1.85
   3   0  11    1.30    1.57
   3   0  11    0.23    2.04
  -3   0 -12   10.55    2.96
  -3   0 -12    6.43    2.08
  -3   0 -12    6.30    1.99
  -3   0 -12    5.37    2.41
   3   0  12    7.36    2.13
   3   0  12    5.14    2.04
   3   0  12    8.05    1.90
   3   0  12   10.32    2.50
  -3   0 -13   -2.13    2.87
  -3   0 -13   -0.42    2.18
  -3   0 -13    1.99    2.08
  -3   0 -13   -1.76    2.55
   3   0  13    0.83    2.13
   3   0  13   -0.19    1.90
   3   0  13    3.15    2.82
  -3   0 -14   17.36    3.33
  -3   0 -14    8.75    2.73
  -3   0 -14   19.49    2.82
  -3   0 -14   18.29    3.84
   3   0  14   15.55    2.78
   3   0  14   11.30    2.36
   3   0  14   18.15    3.29
  -3   0 -15    5.09    3.52
  -3   0 -15    5.65    4.81
  -3   0 -15    5.88    3.75
   3   0  15    5.37    2.78
   3   0  15    3.19    2.82
  -3  -1  18   18.79    4.03
  -3  -1  18   21.25    3.56
  -3   1  18   25.04    3.84
  -3   1  18   24.21    3.43
  -3   1  18   23.19    3.10
   3  -1 -18   24.77    4.44
   3  -1 -18   23.89    3.61
   3   1 -18   28.75    4.44
   3   1 -18   38.79    4.58
  -3  -1  17   34.95    3.70
  -3  -1  17   31.85    4.07
  -3   1  17   28.28    3.33
  -3   1  17   35.46    3.84
   3  -1 -17   19.40    3.29
   3  -1 -17   29.90    3.98
   3  -1 -17   28.93    3.56
   3   1 -17   22.50    4.03
   3   1 -17   44.76    7.31
   3   1 -17   51.57    5.05
  -3  -1  16   51.29    3.75
  -3  -1  16   67.91    4.35
  -3  -1  16   50.50    4.44
  -3   1  16   79.67    4.63
  -3   1  16   50.60    3.98
  -3   1  16   68.84    4.63
   3  -1 -16   44.67    4.77
   3  -1 -16   54.90    4.40
   3  -1 -16   67.49    5.32
   3   1 -16   57.36    4.58
   3   1 -16   48.56    4.26
   3   1 -16   89.71    5.00
   3   1 -16  104.99    5.05
  -3  -1  15   24.26    2.55
  -3  -1  15   27.77    2.96
  -3  -1  15   24.16    3.10
  -3   1  15   33.52    3.66
  -3   1  15   21.06    2.73
  -3   1  15   22.87    2.59
   3  -1 -15   21.57    2.82
   3  -1 -15   19.86    3.10
   3  -1 -15   35.41    3.75
   3   1 -15   27.40    2.78
   3   1 -15   38.05    3.98
   3   1 -15   40.37    4.21
  -3  -1  14   62.40    3.61
  -3  -1  14   90.64    3.98
  -3  -1  14   79.34    4.03
  -3   1  14   94.16    4.07
  -3   1  14   80.22    3.75
  -3   1  14   74.81    3.61
   3  -1 -14   82.82    4.21
   3  -1 -14   98.18    3.98
   3   1 -14   77.40    3.89
   3   1 -14  138.09    4.81
  -3  -1  13  128.78    4.07
  -3  -1  13  183.82    4.58
  -3  -1  13  153.32    4.63
  -3  -1  13  170.26    2.55
  -3   1  13  146.84    2.41
  -3   1  13  178.13    4.77
  -3   1  13  157.95    4.35
  -3   1  13  139.52    3.93
   3  -1 -13  159.34    2.59
   3  -1 -13  149.85    4.58
   3  -1 -13  196.18    5.09
   3  -1 -13  196.65    4.12
   3   1 -13  158.41    4.21
   3   1 -13  280.25    5.83
   3   1 -13  237.52    5.18
  -3  -1  12  198.13    4.26
  -3  -1  12  328.35    5.37
  -3  -1  12  268.54    2.82
  -3   1  12  219.61    2.68
  -3   1  12  292.79    5.74
  -3   1  12  254.88    5.00
  -3   1  12  219.05    4.40
   3  -1 -12  262.98    5.32
   3  -1 -12  331.36    4.58
   3   1 -12  280.71    4.95
   3   1 -12  466.99    8.01
   3   1 -12  325.57    5.51
  -3  -1  11  105.13    3.33
  -3  -1  11  159.57    4.03
  -3  -1  11  127.02    3.93
  -3  -1  11  123.37    1.94
  -3  -1  11   88.93    1.94
  -3   1  11  103.79    2.04
  -3   1  11  139.06    3.80
  -3   1  11  125.87    3.80
  -3   1  11  105.50    3.38
   3  -1 -11   91.56    2.13
   3  -1 -11  125.40    4.12
   3  -1 -11  144.20    3.98
   3  -1 -11  180.12    3.24
   3  -1 -11   97.03    3.10
   3   1 -11  145.68    3.98
   3   1 -11  216.74    4.77
   3   1 -11  154.06    4.03
  -3  -1  10  113.74    3.29
  -3  -1  10  210.63    3.98
  -3  -1  10  170.21    4.17
  -3  -1  10  149.06    1.99
  -3  -1  10  113.37    2.04
  -3   1  10  134.11    2.18
  -3   1  10  165.17    3.89
  -3   1  10  157.95    3.84
  -3   1  10  121.38    3.15
   3  -1 -10  121.42    2.31
   3  -1 -10  156.74    4.07
   3  -1 -10  199.10    4.31
   3  -1 -10  237.62    3.29
   3  -1 -10  129.66    3.19
   3   1 -10  156.74    5.18
   3   1 -10  256.36    4.86
   3   1 -10  157.95    3.56
  -3  -1   9   18.70    1.90
  -3  -1   9   13.52    1.81
  -3  -1   9   11.67    0.97
  -3  -1   9    9.49    0.97
  -3   1   9   10.23    1.20
  -3   1   9   12.08    1.62
  -3   1   9   11.53    1.67
  -3   1   9   10.05    1.57
   3  -1  -9   11.16    1.16
   3  -1  -9   13.66    1.94
   3  -1  -9   25.69    2.27
   3  -1  -9   21.48    1.44
   3  -1  -9    9.81    1.30
   3   1  -9   12.31    2.64
   3   1  -9   19.16    2.27
   3   1  -9   11.71    1.67
  -3  -1   8    3.10    1.30
  -3  -1   8    6.67    1.02
  -3  -1   8    6.48    1.48
  -3  -1   8    3.98    0.83
  -3   1   8    4.54    0.79
  -3   1   8    5.00    1.30
  -3   1   8    3.98    1.34
  -3   1   8    3.06    0.93
   3  -1  -8    5.42    1.06
   3  -1  -8    6.30    1.62
   3  -1  -8    8.29    1.62
   3  -1  -8    9.86    1.11
   3  -1  -8    3.70    0.97
   3  -1  -8    2.41    0.97
   3   1  -8    6.57    1.48
   3   1  -8    6.57    1.53
   3   1  -8    3.93    1.16
   3   1  -8    3.38    0.60
  -3  -1   7  306.59    4.26
  -3  -1   7  566.61    4.77
  -3  -1   7  463.84    5.51
  -3  -1   7  375.01    3.01
  -3   1   7  310.94    3.10
  -3   1   7  395.05    5.05
   3  -1  -7  391.63    3.52
   3  -1  -7  505.09    5.83
   3  -1  -7  629.98    5.97
   3  -1  -7  645.49    3.61
   3  -1  -7  272.70    2.45
   3  -1  -7  314.18    4.17
   3   1  -7  542.03    5.60
   3   1  -7  516.80    5.74
   3   1  -7  311.13    3.98
   3   1  -7  301.13    2.59
  -3  -1   6  127.44    2.78
  -3  -1   6  245.81    2.96
  -3  -1   6  200.35    4.21
  -3  -1   6  123.04    2.55
  -3  -1   6  177.71    2.27
  -3   1   6  134.99    2.22
  -3   1   6  143.46    2.96
  -3   1   6  161.88    3.84
   3  -1  -6  186.46    2.64
   3  -1  -6  332.33    4.21
   3  -1  -6  277.75    1.99
   3  -1  -6  111.42    1.39
   3  -1  -6  135.17    2.82
   3   1  -6  227.43    3.75
   3   1  -6  195.40    4.07
   3   1  -6  127.81    2.59
   3   1  -6  126.61    1.81
  -3  -1   5  136.98    2.87
  -3  -1   5  206.37    2.45
  -3  -1   5  189.06    3.33
  -3  -1   5  102.81    2.27
  -3  -1   5  181.97    2.41
  -3   1   5  136.70    2.27
  -3   1   5  118.46    2.64
  -3   1   5  143.78    2.96
   3  -1  -5  217.48    3.75
   3  -1  -5  342.14    3.93
   3  -1  -5  115.31    2.50
   3   1  -5  212.43    3.56
   3   1  -5  104.11    1.90
   3   1  -5  174.75    3.29
   3   1  -5  105.96    2.31
   3   1  -5  116.61    1.81
  -3  -1   4   43.10    1.81
  -3  -1   4   63.37    1.34
  -3  -1   4   33.28    1.30
  -3  -1   4   64.35    2.08
  -3  -1   4   34.77    1.48
  -3  -1   4   73.70    1.94
  -3   1   4   51.89    1.57
  -3   1   4   38.24    1.67
  -3   1   4   49.62    1.90
   3  -1  -4   76.15    2.45
   3  -1  -4  112.63    2.27
   3  -1  -4   39.53    1.62
   3   1  -4   75.27    2.41
   3   1  -4   35.55    1.16
   3   1  -4   55.13    2.04
   3   1  -4   46.89    1.34
  -3  -1   3  177.71    3.10
  -3  -1   3  228.50    2.13
  -3  -1   3  139.99    1.81
  -3  -1   3  261.83    3.52
  -3  -1   3  134.99    2.41
  -3  -1   3  370.15    4.03
  -3   1   3  218.68    2.96
  -3   1   3  151.05    2.78
  -3   1   3  298.40    3.75
  -3   1   3  202.85    3.29
   3  -1  -3  312.14    4.07
   3  -1  -3  149.75    2.73
   3  -1  -3  438.20    3.75
   3  -1  -3  168.92    2.92
   3   1  -3  279.56    3.89
   3   1  -3  199.10    3.10
   3   1  -3  191.28    2.50
  -3  -1   2  815.34    6.34
  -3  -1   2  813.39    3.66
  -3  -1   2  683.68    3.38
  -3  -1   2 1179.23    6.94
  -3  -1   2  628.46    4.91
  -3   1   2 1056.61    6.48
  -3   1   2  684.19    5.56
  -3   1   2 1210.11    5.51
  -3   1   2  895.05    6.67
  -3   1   2  638.96    2.87
   3  -1  -2 1493.74    8.43
   3  -1  -2  669.38    5.46
   3  -1  -2 1971.52    6.99
   3  -1  -2 1837.08    6.02
   3  -1  -2  833.76    6.30
   3   1  -2 1277.93    7.96
   3   1  -2  873.71    6.06
   3   1  -2  976.43    5.74
  -3  -1   1   49.12    1.85
  -3  -1   1   31.48    0.88
  -3  -1   1   40.32    1.16
  -3  -1   1   58.37    1.67
  -3  -1   1   31.85    1.34
  -3   1   1   63.93    1.90
  -3   1   1   58.14    1.34
  -3   1   1   41.94    1.76
  -3   1   1   43.24    0.97
   3  -1  -1   78.51    2.31
   3  -1  -1   31.43    1.44
   3  -1  -1  125.31    1.71
   3  -1  -1  144.43    1.57
   3  -1  -1   41.80    1.71
   3   1  -1   78.23    2.41
   3   1  -1   34.12    0.88
   3   1  -1   46.34    1.67
   3   1  -1   54.25    1.62
  -3  -1   0   51.66    1.94
  -3  -1   0   56.99    1.30
  -3  -1   0   58.70    1.62
  -3  -1   0   34.95    1.53
  -3   1   0   61.34    1.90
  -3   1   0   46.06    1.02
  -3   1   0   42.08    1.76
  -3   1   0   51.24    1.20
   3  -1   0   83.74    2.31
   3  -1   0   33.56    1.48
   3  -1   0  112.58    1.39
   3  -1   0  130.03    1.85
   3  -1   0   43.79    1.76
   3   1   0   74.76    2.41
   3   1   0   34.39    0.97
   3   1   0   43.14    1.57
   3   1   0   63.00    1.85
  -3  -1  -1  149.75    3.06
  -3  -1  -1  220.67    2.31
  -3  -1  -1  127.30    2.36
  -3  -1  -1  179.38    2.55
  -3  -1  -1  113.04    2.36
  -3   1  -1  207.66    3.33
  -3   1  -1  141.51    2.82
  -3   1  -1  189.01    2.31
   3  -1   1  265.67    3.52
   3  -1   1  111.05    2.41
   3  -1   1  211.46    1.67
   3  -1   1  114.76    0.97
   3  -1   1  387.28    3.33
   3  -1   1  141.05    2.87
   3   1   1  226.46    3.75
   3   1   1  112.07    1.62
   3   1   1  121.75    2.31
   3   1   1  200.49    3.19
  -3  -1  -2  493.42    5.23
  -3  -1  -2  742.98    4.49
  -3  -1  -2  364.04    3.80
  -3  -1  -2  527.40    4.07
  -3  -1  -2  373.94    4.31
  -3   1  -2  681.97    6.11
  -3   1  -2  442.18    4.81
  -3   1  -2  663.27    4.68
   3  -1   2  814.04    5.83
   3  -1   2  354.92    4.26
   3  -1   2  472.96    5.14
   3   1   2  654.29    6.02
   3   1   2  370.29    3.10
   3   1   2  353.07    3.75
   3   1   2  660.49    5.83
  -3  -1  -3   52.40    2.27
  -3  -1  -3  113.83    2.64
  -3  -1  -3   38.47    1.53
  -3  -1  -3   50.27    1.48
  -3  -1  -3   48.19    1.62
  -3  -1  -3   39.58    1.90
  -3   1  -3   46.85    1.94
  -3   1  -3   75.78    1.99
   3  -1   3   84.07    2.27
   3  -1   3   35.32    1.76
   3   1   3   77.08    2.73
   3   1   3   43.28    1.39
   3   1   3   38.24    1.67
   3   1   3   47.26    1.48
   3   1   3   74.62    2.41
  -3  -1  -4  152.58    3.93
  -3  -1  -4  105.08    2.36
  -3  -1  -4  144.43    2.18
  -3  -1  -4  140.77    2.36
  -3   1  -4  217.62    4.03
  -3   1  -4  132.58    2.92
  -3   1  -4  225.26    3.38
   3  -1   4  244.79    3.33
   3  -1   4  129.39    2.92
   3  -1   4  144.57    3.24
   3   1   4  195.21    3.75
   3   1   4  131.98    2.36
   3   1   4  199.24    3.75
  -3  -1  -5   25.09    2.22
  -3  -1  -5   15.60    1.39
  -3  -1  -5   23.38    1.20
  -3  -1  -5   27.91    1.62
  -3  -1  -5   19.81    1.94
  -3   1  -5   33.93    2.22
  -3   1  -5   31.62    1.81
   3  -1   5   40.78    1.99
   3  -1   5   19.58    1.85
   3  -1   5   25.92    1.94
   3   1   5   36.48    2.78
   3   1   5   24.77    1.39
   3   1   5   34.35    2.27
  -3  -1  -6   78.56    2.92
  -3  -1  -6   52.77    2.13
  -3  -1  -6   67.77    1.71
  -3  -1  -6   60.97    2.87
  -3   1  -6   98.60    3.24
  -3   1  -6   48.75    0.93
  -3   1  -6   66.85    2.59
  -3   1  -6  111.61    3.33
   3  -1   6  112.26    2.59
   3  -1   6   54.62    2.22
   3  -1   6   91.19    1.30
   3  -1   6   62.91    2.50
   3  -1   6   71.98    2.73
   3   1   6   76.33    2.31
   3   1   6   99.20    3.19
  -3  -1  -7   76.43    3.10
  -3  -1  -7   48.65    2.27
  -3  -1  -7   62.12    1.71
  -3  -1  -7   59.48    2.82
  -3   1  -7   94.85    3.33
  -3   1  -7   48.56    1.25
  -3   1  -7   59.67    2.82
  -3   1  -7  107.72    3.43
   3  -1   7  110.22    2.59
   3  -1   7   54.16    2.64
   3  -1   7   97.49    1.71
   3  -1   7   58.93    2.50
   3  -1   7   70.32    2.92
   3   1   7   88.88    3.80
   3   1   7   66.89    2.87
   3   1   7   98.51    3.43
  -3  -1  -8   48.28    3.01
  -3  -1  -8   26.06    2.22
  -3  -1  -8   38.14    1.67
  -3  -1  -8   35.27    2.59
  -3   1  -8   57.63    3.01
  -3   1  -8   33.79    1.39
  -3   1  -8   38.65    2.55
  -3   1  -8   63.60    3.33
   3  -1   8   69.81    2.41
   3  -1   8   37.22    2.50
   3  -1   8   55.04    1.81
   3  -1   8   36.80    2.36
   3  -1   8   47.96    2.82
   3   1   8   59.90    4.17
   3   1   8   44.30    2.41
   3   1   8   57.22    3.10
  -3  -1  -9   27.64    2.78
  -3  -1  -9   22.36    2.22
  -3  -1  -9   23.15    1.62
  -3   1  -9   36.76    3.10
  -3   1  -9   22.03    1.48
  -3   1  -9   23.42    2.92
  -3   1  -9   44.02    3.33
   3  -1   9   40.60    2.31
   3  -1   9   21.80    2.55
   3  -1   9   19.03    2.27
   3  -1   9   29.95    2.64
   3   1   9   33.98    3.98
   3   1   9   26.29    2.64
  -3  -1 -10  132.07    4.35
  -3  -1 -10   83.56    3.33
  -3  -1 -10   99.90    2.45
  -3  -1 -10  107.77    4.03
  -3   1 -10  162.99    4.72
  -3   1 -10   94.02    2.31
  -3   1 -10  111.33    3.80
  -3   1 -10  151.00    5.46
   3  -1  10  177.07    3.10
   3  -1  10  103.97    3.84
   3  -1  10  104.85    3.75
   3   1  10  142.53    4.91
   3   1  10  122.86    3.70
   3   1  10  158.46    4.44
  -3  -1 -11  203.13    5.23
  -3  -1 -11  139.75    4.12
  -3  -1 -11  167.76    3.15
  -3  -1 -11  184.38    5.37
  -3   1 -11  275.81    6.20
  -3   1 -11  146.51    3.01
  -3   1 -11  181.79    4.63
  -3   1 -11  266.83    5.83
   3  -1  11  158.46    4.72
   3  -1  11  176.79    4.40
   3  -1  11  206.83    5.14
   3   1  11  218.82    5.69
   3   1  11  254.74    5.83
  -3  -1 -12    4.03    2.64
  -3  -1 -12    3.75    2.13
  -3  -1 -12    4.17    1.44
  -3  -1 -12    5.88    2.73
  -3   1 -12    6.94    2.82
  -3   1 -12    4.07    1.67
  -3   1 -12   11.11    2.96
   3  -1  12    4.91    2.18
   3  -1  12    4.68    2.59
   3   1  12    8.10    2.92
   3   1  12    6.53    2.04
   3   1  12    2.96    2.50
  -3  -1 -13   28.75    3.43
  -3  -1 -13   18.66    2.87
  -3  -1 -13   25.18    3.38
  -3   1 -13   28.79    3.61
  -3   1 -13   33.10    4.07
  -3   1 -13   41.38    4.26
   3  -1  13   24.21    2.92
   3  -1  13   24.77    2.92
   3  -1  13   24.63    3.24
   3   1  13   26.43    3.66
   3   1  13   25.23    2.78
   3   1  13   33.56    3.52
  -3  -1 -14   24.77    3.52
  -3  -1 -14    8.43    2.87
  -3  -1 -14   26.66    5.60
  -3   1 -14   30.00    4.31
  -3   1 -14   16.25    3.15
  -3   1 -14   28.05    5.93
   3  -1  14   16.34    3.52
   3  -1  14   18.98    2.96
   3  -1  14   20.74    3.10
   3   1  14   27.68    3.66
   3   1  14   24.21    3.06
   3   1  14   24.40    4.17
  -3  -1 -15    1.62    3.10
  -3  -1 -15   -0.69    2.92
  -3  -1 -15    6.43    3.84
  -3   1 -15    7.41    3.19
  -3   1 -15    6.16    3.52
   3  -1  15    8.47    3.15
   3  -1  15   11.02    2.78
   3  -1  15    6.34    2.96
   3   1  15    8.43    3.19
   3   1  15    2.96    3.61
  -3  -2  17    9.72    3.06
  -3  -2  17    5.88    3.15
  -3  -2  17    5.42    3.24
  -3   2  17    2.68    3.01
  -3   2  17    2.22    2.87
  -3   2  17    9.81    3.19
   3  -2 -17    5.00    3.56
   3  -2 -17    3.66    3.52
   3  -2 -17    8.61    3.01
   3   2 -17    7.96    3.70
   3   2 -17   22.08    4.63
  -3  -2  16    9.63    2.96
  -3  -2  16    7.04    2.55
  -3   2  16    9.49    2.59
  -3   2  16    8.47    2.92
   3  -2 -16   13.84    3.24
   3  -2 -16    7.87    2.68
   3   2 -16   25.00    6.48
   3   2 -16   13.29    3.75
  -3  -2  15    9.54    2.73
  -3  -2  15   13.75    2.50
  -3  -2  15   17.22    3.01
  -3   2  15   13.84    2.87
  -3   2  15   13.29    2.78
  -3   2  15   14.72    2.64
   3  -2 -15    7.08    2.73
   3  -2 -15   10.18    2.96
   3  -2 -15    9.91    2.55
   3   2 -15   13.61    2.31
   3   2 -15   20.97    3.52
   3   2 -15   24.35    3.70
  -3  -2  14   59.58    3.93
  -3  -2  14   75.41    4.31
  -3  -2  14   72.59    4.26
  -3   2  14   89.44    4.35
  -3   2  14   74.85    4.54
  -3   2  14   78.14    4.03
   3  -2 -14   84.99    4.91
   3  -2 -14   90.41    4.86
   3  -2 -14   56.48    3.56
   3   2 -14   88.05    3.84
   3   2 -14  130.13    5.51
   3   2 -14   94.90    4.91
  -3  -2  13   90.87    3.56
  -3  -2  13   85.92    4.07
  -3   2  13   93.00    4.03
  -3   2  13   88.88    3.75
  -3   2  13   87.26    3.93
   3  -2 -13   89.11    4.63
   3  -2 -13   73.56    3.98
   3   2 -13  102.91    4.07
   3   2 -13  146.79    5.23
   3   2 -13   98.23    4.63
  -3  -2  12    3.01    2.04
  -3  -2  12    5.05    1.99
  -3  -2  12    5.83    2.13
  -3   2  12    3.33    1.90
  -3   2  12    1.99    1.76
  -3   2  12    6.16    1.99
   3  -2 -12    5.79    2.13
   3  -2 -12    3.19    2.13
   3  -2 -12    5.56    1.53
   3   2 -12    7.87    2.13
   3   2 -12    7.31    2.31
  -3  -2  11   27.87    2.73
  -3  -2  11   37.08    2.78
  -3  -2  11   32.03    2.50
  -3   2  11   31.57    2.73
  -3   2  11   31.39    2.68
  -3   2  11   25.14    2.68
   3  -2 -11   42.31    5.28
   3  -2 -11   37.45    4.91
   3  -2 -11   23.93    1.99
   3  -2 -11   24.16    2.45
   3   2 -11   36.20    3.38
   3   2 -11   38.01    3.01
   3   2 -11   26.85    3.01
  -3  -2  10    2.45    1.76
  -3  -2  10    4.21    1.53
  -3  -2  10    5.28    1.57
  -3   2  10    4.86    1.30
  -3   2  10    7.45    1.90
  -3   2  10    3.29    1.76
   3  -2 -10    5.51    1.94
   3  -2 -10    7.50    2.08
   3  -2 -10    3.47    1.06
   3  -2 -10    3.43    1.67
   3   2 -10    6.94    1.90
   3   2 -10    8.70    2.18
   3   2 -10    3.10    1.71
  -3  -2   9   27.45    2.87
  -3  -2   9   43.51    2.04
  -3  -2   9   38.10    2.68
  -3   2   9   34.58    2.45
  -3   2   9   34.16    2.41
  -3   2   9   43.10    1.85
  -3   2   9   27.50    2.45
   3  -2  -9   59.86    1.11
   3  -2  -9   38.42    2.73
   3  -2  -9   43.19    3.01
   3  -2  -9   24.72    1.44
   3  -2  -9   33.05    2.41
   3   2  -9   45.92    3.70
   3   2  -9   42.17    2.73
   3   2  -9   31.11    2.45
  -3  -2   8   52.54    2.68
  -3  -2   8   89.81    2.31
  -3  -2   8   82.68    3.15
  -3   2   8   56.01    1.30
  -3   2   8   60.92    2.73
  -3   2   8   73.60    2.78
  -3   2   8   83.70    1.71
  -3   2   8   65.83    3.01
   3  -2  -8  111.79    1.76
   3  -2  -8   89.62    3.43
   3  -2  -8   83.51    3.19
   3  -2  -8   49.86    1.39
   3  -2  -8   60.64    2.68
   3   2  -8   86.80    5.74
   3   2  -8   80.27    3.10
   3   2  -8   57.08    2.64
  -3  -2   7   22.54    2.50
  -3  -2   7   41.85    1.62
  -3  -2   7   34.16    2.45
  -3  -2   7   21.94    2.31
  -3   2   7   23.52    1.16
  -3   2   7   25.41    2.13
  -3   2   7   29.40    2.41
  -3   2   7   33.75    1.06
   3  -2  -7   56.11    1.62
   3  -2  -7   40.46    2.78
   3  -2  -7   44.86    2.36
   3  -2  -7   18.01    0.88
   3  -2  -7   25.55    2.08
   3   2  -7   29.67    2.27
   3   2  -7   19.30    2.22
  -3  -2   6   51.71    2.50
  -3  -2   6   83.88    1.71
  -3  -2   6   89.25    2.96
  -3  -2   6   47.26    2.31
  -3  -2   6   83.28    1.25
  -3   2   6   61.98    1.53
  -3   2   6   51.24    2.41
  -3   2   6   68.28    2.59
   3  -2  -6  113.41    2.18
   3  -2  -6   85.18    3.10
   3  -2  -6   83.65    2.59
   3  -2  -6   54.39    2.45
   3   2  -6   59.72    1.67
   3   2  -6   68.93    2.68
   3   2  -6   48.84    2.36
   3   2  -6   50.97    0.97
  -3  -2   5   46.66    2.36
  -3  -2   5   66.20    1.34
  -3  -2   5   33.01    3.61
  -3  -2   5   74.16    1.53
  -3   2   5   58.84    1.67
  -3   2   5   40.37    1.90
  -3   2   5   51.29    2.31
   3  -2  -5   96.06    2.50
   3  -2  -5   74.85    2.92
   3  -2  -5   63.65    2.18
   3  -2  -5   50.27    2.31
   3   2  -5   45.18    1.16
   3   2  -5   48.98    2.36
   3   2  -5   50.74    1.20
  -3  -2   4   53.00    2.41
  -3  -2   4   68.74    1.02
  -3  -2   4   85.45    2.45
  -3  -2   4   42.13    2.41
  -3  -2   4   89.30    1.90
  -3   2   4   76.75    1.99
  -3   2   4   47.08    2.18
  -3   2   4   58.37    2.36
   3  -2  -4   91.33    2.96
   3  -2  -4   78.97    2.18
   3  -2  -4   57.45    2.36
   3   2  -4   45.74    0.88
   3   2  -4   58.93    2.36
   3   2  -4   64.25    1.48
  -3  -2   3   69.30    2.59
  -3  -2   3  104.39    2.45
  -3  -2   3   52.22    2.18
  -3  -2   3  109.16    2.18
  -3   2   3  101.47    2.27
  -3   2   3   55.04    2.08
  -3   2   3   71.57    2.50
   3  -2  -3   54.81    2.04
   3  -2  -3   97.77    2.13
   3  -2  -3   73.46    2.55
   3   2  -3   63.10    2.36
   3   2  -3   93.56    1.90
  -3  -2   2   22.78    1.90
  -3  -2   2   33.84    1.67
  -3  -2   2   18.10    1.71
  -3   2   2   38.51    1.67
  -3   2   2   19.49    1.71
  -3   2   2   72.45    1.94
  -3   2   2   23.28    1.76
   3  -2  -2   41.11    2.27
   3  -2  -2   17.82    1.62
   3  -2  -2   28.93    1.34
   3  -2  -2   20.92    1.81
   3   2  -2   40.18    3.19
   3   2  -2   35.64    1.53
  -3  -2   1   82.49    2.82
  -3  -2   1  132.86    2.45
  -3  -2   1   58.98    2.18
  -3   2   1  131.01    2.73
  -3   2   1  236.23    2.50
  -3   2   1   80.55    2.55
  -3   2   1  188.64    1.71
  -3   2   1   69.67    1.16
   3  -2  -1  147.49    3.15
   3  -2  -1   60.23    2.27
   3  -2  -1   85.64    1.57
   3  -2  -1   80.50    2.55
   3   2  -1  131.24    3.61
   3   2  -1   74.44    2.78
   3   2  -1  136.98    2.59
  -3  -2   0   76.15    2.59
  -3  -2   0   68.28    2.41
  -3  -2   0  120.82    2.22
  -3   2   0  141.70    3.01
  -3   2   0  220.76    2.04
  -3   2   0   84.11    2.64
  -3   2   0  224.93    2.31
  -3   2   0   76.43    1.53
   3  -2   0  139.62    3.06
   3  -2   0   61.61    2.31
   3  -2   0   75.96    1.30
   3  -2   0   78.33    1.67
   3  -2   0   79.39    2.59
   3   2   0  116.56    3.52
   3   2   0   66.34    2.41
   3   2   0  138.13    2.82
  -3  -2  -1   91.01    2.78
  -3  -2  -1   94.94    0.88
  -3  -2  -1   73.93    2.50
  -3  -2  -1  134.62    2.22
  -3  -2  -1   64.72    2.41
  -3   2  -1  159.89    3.38
  -3   2  -1  158.87    1.20
  -3   2  -1   89.30    2.78
  -3   2  -1  251.69    2.78
   3  -2   1  151.88    3.01
   3  -2   1   68.19    2.41
   3  -2   1   72.77    0.93
   3  -2   1   99.85    2.08
   3  -2   1   87.49    2.73
   3   2   1  126.52    3.47
   3   2   1   75.32    2.55
   3   2   1   91.19    1.90
   3   2   1  155.77    3.06
  -3  -2  -2   35.64    2.22
  -3  -2  -2   49.90    1.16
  -3  -2  -2   27.27    2.31
  -3  -2  -2   51.29    1.44
  -3  -2  -2   26.06    1.99
  -3   2  -2   63.19    2.55
  -3   2  -2   38.01    2.18
  -3   2  -2  104.94    2.22
   3  -2   2   59.95    2.18
   3  -2   2   25.46    1.85
   3  -2   2   34.16    2.08
   3   2   2   52.12    3.10
   3   2   2   33.10    0.93
   3   2   2   35.88    1.34
   3   2   2   66.57    2.50
  -3  -2  -3   67.35    2.64
  -3  -2  -3   89.94    1.76
  -3  -2  -3   89.34    1.62
  -3  -2  -3   47.03    2.50
  -3   2  -3  110.36    3.10
  -3   2  -3   62.26    2.55
  -3   2  -3  180.82    3.06
   3  -2   3  103.79    2.59
   3  -2   3   45.83    2.04
   3  -2   3   60.13    2.36
   3  -2   3   53.93    2.41
   3   2   3   87.49    3.47
   3   2   3   63.56    1.44
   3   2   3   44.44    2.64
   3   2   3   63.37    1.48
   3   2   3  111.10    3.24
  -3  -2  -4  145.96    3.61
  -3  -2  -4  228.26    3.24
  -3  -2  -4  110.27    3.01
  -3  -2  -4  196.32    2.04
  -3  -2  -4  143.18    1.90
  -3  -2  -4  105.64    3.15
  -3   2  -4  257.89    4.68
  -3   2  -4  133.41    3.43
  -3   2  -4  396.95    4.58
   3  -2   4  229.47    3.24
   3  -2   4  103.55    3.10
   3  -2   4  131.10    3.43
   3  -2   4  132.72    3.38
   3   2   4  192.11    4.68
   3   2   4  158.41    2.36
   3   2   4  247.52    4.44
  -3  -2  -5   91.06    3.01
  -3  -2  -5   68.05    2.64
  -3  -2  -5  121.28    1.48
  -3  -2  -5  103.79    1.53
  -3  -2  -5   70.97    2.87
  -3   2  -5  160.96    3.89
  -3   2  -5   93.28    3.15
  -3   2  -5  243.17    4.03
   3  -2   5  147.30    2.68
   3  -2   5   73.05    2.87
   3  -2   5   89.20    3.06
   3  -2   5   92.91    3.10
   3   2   5  120.54    4.31
   3   2   5  107.17    2.22
   3   2   5  154.38    3.93
  -3  -2  -6   39.12    2.82
  -3  -2  -6   24.53    2.13
  -3  -2  -6   44.63    0.93
  -3  -2  -6   44.81    1.06
  -3  -2  -6   29.21    2.64
  -3   2  -6   56.48    2.87
  -3   2  -6   31.06    2.50
  -3   2  -6   87.63    3.19
   3  -2   6   57.68    2.04
   3  -2   6   26.99    2.22
   3  -2   6   27.50    2.45
   3  -2   6   34.67    2.50
   3   2   6   50.37    3.89
   3   2   6   41.01    1.81
   3   2   6   62.35    3.15
  -3  -2  -7    9.07    1.99
  -3  -2  -7    5.42    1.71
  -3  -2  -7   10.60    0.69
  -3  -2  -7   11.16    1.85
  -3   2  -7   13.47    2.04
  -3   2  -7   11.85    1.99
  -3   2  -7    8.19    1.81
  -3   2  -7   22.96    2.68
   3  -2   7   17.54    1.67
   3  -2   7    6.34    1.39
   3  -2   7    9.44    1.76
   3  -2   7    9.95    1.85
   3   2   7   14.67    2.82
   3   2   7   12.59    1.44
   3   2   7   22.27    2.68
  -3  -2  -8   22.41    2.41
  -3  -2  -8   18.70    2.27
  -3  -2  -8   23.05    2.68
  -3   2  -8   34.26    2.96
  -3   2  -8   21.76    2.41
  -3   2  -8   55.69    3.43
   3  -2   8   30.04    1.71
   3  -2   8   16.99    2.13
   3  -2   8   20.04    2.31
   3  -2   8   23.15    2.64
   3   2   8   27.87    3.38
   3   2   8   26.94    2.59
   3   2   8   33.75    3.01
  -3  -2  -9   51.66    3.61
  -3  -2  -9   40.83    3.06
  -3  -2  -9   45.04    3.24
  -3   2  -9   91.56    4.35
  -3   2  -9   43.93    3.93
  -3   2  -9  114.85    4.03
   3  -2   9   44.30    3.01
   3  -2   9   55.87    3.33
   3   2   9   59.53    4.81
   3   2   9   63.42    3.19
   3   2   9   85.69    4.03
  -3  -2 -10    8.89    2.22
  -3  -2 -10    5.37    2.18
  -3  -2 -10    6.71    2.31
  -3   2 -10   14.44    2.78
  -3   2 -10    7.31    2.41
  -3   2 -10   15.28    2.78
   3  -2  10    4.58    1.94
   3  -2  10    6.71    2.04
   3  -2  10   10.00    2.55
   3   2  10   17.96    3.66
   3   2  10    7.55    2.18
   3   2  10   12.13    2.59
  -3  -2 -11  174.61    6.30
  -3  -2 -11  128.00    4.68
  -3  -2 -11  160.96    5.51
  -3   2 -11  189.06    5.83
  -3   2 -11  362.28    6.94
   3  -2  11  144.52    4.40
   3  -2  11  172.16    4.91
   3  -2  11  181.23    5.14
   3   2  11  230.76    7.36
   3   2  11  217.99    5.18
   3   2  11  273.40    6.39
  -3  -2 -12    5.74    2.45
  -3  -2 -12   13.56    2.92
  -3   2 -12   33.79    4.03
  -3   2 -12   14.91    3.01
  -3   2 -12   32.13    3.93
   3  -2  12   12.73    2.59
   3  -2  12   16.06    2.59
   3  -2  12   15.51    2.68
   3   2  12   15.60    3.75
   3   2  12   17.17    2.50
   3   2  12   23.56    3.43
  -3  -2 -13   15.23    2.92
  -3  -2 -13    9.44    3.06
  -3   2 -13   15.18    3.66
  -3   2 -13   15.14    3.33
  -3   2 -13   18.38    3.29
   3  -2  13   10.46    2.59
   3  -2  13   14.40    3.01
   3   2  13   12.31    3.75
   3   2  13   13.84    2.55
  -3  -2 -14   19.67    3.19
  -3  -2 -14    9.21    3.19
  -3  -2 -14   20.51    4.21
  -3   2 -14   41.15    4.86
  -3   2 -14   18.75    3.66
  -3   2 -14   42.87    4.77
   3  -2  14   16.02    3.15
   3  -2  14   20.41    3.19
   3  -2  14   20.51    3.47
   3   2  14   18.24    4.17
   3   2  14   26.11    3.43
   3   2  14   31.20    4.03
  -3  -3  15    2.96    3.06
  -3  -3  15    2.55    2.22
  -3  -3  15    4.81    2.92
  -3   3  15    4.72    2.78
  -3   3  15    4.07    2.68
  -3   3  15    2.31    2.96
   3  -3 -15    2.96    5.42
   3  -3 -15    0.32    3.19
  -3  -3  14    9.30    3.01
  -3  -3  14    3.89    2.08
  -3  -3  14    9.58    2.92
  -3   3  14    7.18    2.64
  -3   3  14    7.41    2.68
  -3   3  14    5.93    2.82
   3  -3 -14    7.96    3.38
   3  -3 -14    4.54    2.96
   3   3 -14   13.66    3.29
   3   3 -14    9.30    3.38
  -3  -3  13   13.70    2.92
  -3  -3  13   10.88    2.31
  -3  -3  13   15.51    2.96
  -3   3  13   15.97    2.73
  -3   3  13   16.16    2.87
   3  -3 -13   20.74    3.52
   3  -3 -13   11.90    3.06
   3  -3 -13   11.20    2.50
   3   3 -13   22.96    2.59
   3   3 -13   26.85    3.43
   3   3 -13   15.14    2.96
  -3  -3  12   22.31    2.96
  -3  -3  12   13.98    2.18
  -3  -3  12   30.18    3.56
  -3   3  12   28.47    3.24
  -3   3  12   26.71    3.01
  -3   3  12   18.24    2.68
   3  -3 -12   22.82    3.24
   3  -3 -12   18.89    2.96
   3  -3 -12   13.24    1.76
   3   3 -12   37.45    3.70
   3   3 -12   32.13    3.75
   3   3 -12   18.19    2.78
  -3  -3  11   16.80    2.73
  -3  -3  11   17.91    2.04
  -3  -3  11   27.22    3.38
  -3   3  11   18.79    2.27
  -3   3  11   20.18    2.36
  -3   3  11   15.14    2.64
   3  -3 -11   20.14    3.01
   3  -3 -11   20.41    2.73
   3  -3 -11   12.13    1.57
   3  -3 -11   17.96    2.50
   3   3 -11   28.47    3.52
   3   3 -11   30.88    3.33
   3   3 -11   20.46    2.92
  -3  -3  10   62.68    3.80
  -3  -3  10   72.40    3.80
  -3   3  10   66.66    3.43
  -3   3  10   71.98    3.24
  -3   3  10   66.57    3.66
   3  -3 -10   77.40    4.31
   3  -3 -10   70.13    4.03
   3  -3 -10   41.66    2.04
   3  -3 -10   66.57    3.61
   3   3 -10   98.18    4.26
   3   3 -10   86.57    4.31
   3   3 -10   52.22    3.38
  -3  -3   9  149.24    4.49
  -3  -3   9  151.65    3.01
  -3  -3   9  217.48    6.25
  -3   3   9  171.14    4.49
  -3   3   9  186.19    4.31
  -3   3   9  182.30    4.81
   3  -3  -9  210.03    5.37
   3  -3  -9  168.59    4.54
   3  -3  -9  114.25    2.31
   3  -3  -9  176.00    4.63
   3   3  -9  263.17    5.18
   3   3  -9  201.65    4.91
   3   3  -9  164.52    4.91
  -3  -3   8   24.95    1.71
  -3  -3   8   34.39    2.92
  -3  -3   8   23.24    2.78
  -3   3   8   30.18    2.50
   3  -3  -8   29.12    3.24
   3  -3  -8   15.42    1.39
   3   3  -8   42.45    3.66
   3   3  -8   22.13    2.73
  -3  -3   7   33.98    2.73
  -3  -3   7   29.53    1.53
  -3  -3   7   48.33    3.01
  -3  -3   7   27.64    2.55
  -3   3   7   36.80    1.39
  -3   3   7   42.40    1.81
  -3   3   7   34.16    2.22
  -3   3   7   37.82    2.50
  -3   3   7   92.12    2.08
   3  -3  -7   48.42    3.47
   3  -3  -7   39.12    3.06
   3  -3  -7   24.53    1.30
   3  -3  -7   33.28    2.59
   3   3  -7   44.39    3.43
   3   3  -7   36.06    2.73
   3   3  -7   28.33    2.59
  -3  -3   6    4.54    1.62
  -3  -3   6    3.19    0.74
  -3  -3   6    8.01    1.76
  -3  -3   6    4.49    1.57
  -3   3   6    6.80    1.06
  -3   3   6    7.87    1.25
  -3   3   6    2.55    1.44
  -3   3   6    6.43    1.76
   3  -3  -6    8.84    1.94
   3  -3  -6    6.62    1.67
   3  -3  -6    5.23    0.69
   3  -3  -6    4.35    1.57
   3   3  -6    8.84    2.08
   3   3  -6    5.74    0.93
   3   3  -6    3.47    1.67
   3   3  -6    1.71    1.67
   3   3  -6    4.49    0.46
   3   3  -6    6.53    0.74
  -3  -3   5    2.36    1.53
  -3  -3   5    0.42    0.51
  -3  -3   5    5.65    1.67
  -3  -3   5    0.32    1.44
  -3   3   5    1.94    0.97
  -3   3   5   -0.56    1.30
  -3   3   5    3.10    1.39
  -3   3   5    0.37    0.56
  -3   3   5    0.97    0.74
   3  -3  -5   -0.19    1.48
   3  -3  -5    2.45    1.44
   3   3  -5    8.89    2.22
   3   3  -5    1.67    0.60
   3   3  -5    3.89    1.48
   3   3  -5    1.67    0.74
   3   3  -5    2.64    0.83
  -3  -3   4   56.75    3.01
  -3  -3   4   86.61    3.01
  -3  -3   4   49.12    2.68
  -3  -3   4   69.21    2.04
  -3   3   4   88.51    2.31
  -3   3   4   44.53    2.55
  -3   3   4   58.70    2.73
  -3   3   4   73.09    1.34
  -3   3   4   75.64    1.44
   3  -3  -4   81.66    3.47
   3  -3  -4   61.66    2.50
   3  -3  -4   57.91    2.82
   3   3  -4   92.44    4.03
   3   3  -4   57.59    2.82
   3   3  -4   89.53    1.99
   3   3  -4   65.69    1.90
  -3  -3   3  259.05    4.86
  -3  -3   3  387.14    4.86
  -3  -3   3  197.39    4.17
  -3   3   3  459.82    4.81
  -3   3   3  220.86    4.44
  -3   3   3  260.62    4.58
  -3   3   3  442.55    2.87
  -3   3   3  258.26    2.31
   3  -3  -3  376.77    5.60
   3  -3  -3  225.02    4.49
   3  -3  -3  261.36    3.70
   3  -3  -3  266.04    4.86
   3   3  -3  381.86    5.97
   3   3  -3  239.05    4.63
   3   3  -3  444.91    4.12
  -3  -3   2   75.46    3.24
  -3  -3   2   97.95    2.68
  -3  -3   2   49.12    2.59
  -3   3   2  138.64    3.24
  -3   3   2   56.20    2.73
  -3   3   2   68.23    2.82
  -3   3   2  149.06    2.04
  -3   3   2   61.43    1.57
   3  -3  -2  111.56    3.56
   3  -3  -2   55.09    2.68
   3  -3  -2   68.00    2.04
   3  -3  -2   70.78    2.96
   3   3  -2  101.24    3.70
   3   3  -2   65.69    3.10
   3   3  -2  132.72    2.73
  -3  -3   1   93.37    3.47
  -3  -3   1  134.06    2.73
  -3  -3   1   73.65    2.87
  -3   3   1  184.24    4.31
  -3   3   1   73.74    2.96
  -3   3   1   98.79    3.19
  -3   3   1  237.15    2.68
  -3   3   1   77.91    1.90
   3  -3  -1  155.40    3.89
   3  -3  -1   71.71    2.92
   3  -3  -1   94.57    2.13
   3  -3  -1  101.61    3.24
   3   3  -1  143.50    4.40
   3   3  -1   80.92    3.06
   3   3  -1  189.61    3.33
  -3  -3   0  108.23    3.61
  -3  -3   0   93.56    3.19
  -3  -3   0  160.22    2.68
  -3  -3   0   89.62    3.29
  -3   3   0  231.78    4.26
  -3   3   0  254.88    3.15
  -3   3   0  114.71    3.24
  -3   3   0  316.40    3.33
   3  -3   0  186.09    4.07
   3  -3   0   87.68    3.15
   3  -3   0   99.67    1.99
   3  -3   0  115.68    3.38
   3   3   0  166.33    4.63
   3   3   0  105.04    3.47
   3   3   0  228.36    4.03
  -3  -3  -1    9.81    1.76
  -3  -3  -1    7.82    1.67
  -3  -3  -1    3.43    1.48
  -3   3  -1    7.27    1.67
  -3   3  -1    1.67    0.79
  -3   3  -1    7.64    1.11
  -3   3  -1    2.45    1.53
  -3   3  -1   15.60    1.62
   3  -3   1    6.53    1.85
   3  -3   1    2.50    1.39
   3  -3   1    3.29    0.74
   3  -3   1    2.73    1.39
   3   3   1   29.90    3.70
   3   3   1    5.23    1.62
  -3  -3  -2   13.89    2.08
  -3  -3  -2    9.35    1.99
  -3  -3  -2   19.72    1.25
  -3  -3  -2   10.74    1.76
  -3   3  -2   21.29    2.31
  -3   3  -2   10.46    1.06
  -3   3  -2   18.70    1.39
  -3   3  -2   12.96    1.62
  -3   3  -2   37.68    1.99
   3  -3   2   19.91    2.36
   3  -3   2    8.66    1.57
   3  -3   2   12.96    1.85
   3  -3   2   12.31    1.81
   3   3   2   24.77    2.92
   3   3   2    9.35    0.60
   3   3   2   10.32    1.94
   3   3   2   10.32    1.30
   3   3   2   31.02    2.45
  -3  -3  -3  181.65    4.26
  -3  -3  -3  151.28    1.94
  -3  -3  -3  144.15    4.07
  -3  -3  -3  238.08    2.13
  -3  -3  -3  134.34    3.75
  -3   3  -3  353.90    5.60
  -3   3  -3  229.24    1.85
  -3   3  -3  354.18    2.31
  -3   3  -3  184.66    4.31
  -3   3  -3  562.54    5.46
   3  -3   3  281.36    4.12
   3  -3   3  147.25    3.66
   3  -3   3  178.82    4.26
   3  -3   3  174.57    4.12
   3   3   3  250.25    5.74
   3   3   3  231.74    2.27
   3   3   3  151.74    1.94
   3   3   3  157.76    4.31
   3   3   3  186.28    1.94
   3   3   3  350.71    5.37
  -3  -3  -4   61.48    3.33
  -3  -3  -4   57.08    1.90
  -3  -3  -4   52.12    3.15
  -3  -3  -4   48.88    2.92
  -3   3  -4  118.88    4.03
  -3   3  -4   66.01    3.19
  -3   3  -4  187.34    3.89
   3  -3   4   89.25    2.68
   3  -3   4   51.01    2.87
   3  -3   4   54.81    2.96
   3  -3   4   67.35    3.10
   3   3   4   83.74    4.63
   3   3   4   88.65    1.90
   3   3   4  114.57    3.80
  -3  -3  -5   69.25    3.47
  -3  -3  -5   55.36    3.33
  -3   3  -5  154.15    5.23
  -3   3  -5  245.48    4.54
   3  -3   5  111.19    2.78
   3  -3   5   73.42    3.15
   3   3   5  112.95    2.36
   3   3   5  141.88    4.21
  -3  -3  -6   17.87    2.41
  -3  -3  -6   11.62    2.27
  -3  -3  -6   16.53    2.55
  -3   3  -6   39.86    3.56
  -3   3  -6   18.79    2.41
  -3   3  -6   68.33    3.38
   3  -3   6   30.55    2.08
   3  -3   6   11.94    1.99
   3  -3   6   14.86    2.18
   3  -3   6   15.97    2.13
   3   3   6   24.16    3.47
   3   3   6   26.29    1.71
  -3  -3  -7   23.05    2.68
  -3  -3  -7   25.41    3.10
  -3  -3  -7   21.99    2.64
  -3   3  -7   43.47    3.38
  -3   3  -7   24.30    3.01
  -3   3  -7   89.11    3.84
   3  -3   7   37.26    1.99
   3  -3   7   21.11    2.41
   3  -3   7   24.21    2.96
   3  -3   7   29.35    3.06
   3   3   7   41.29    4.12
   3   3   7   35.97    2.36
   3   3   7   45.37    3.66
  -3  -3  -8   28.89    3.52
  -3  -3  -8   23.38    2.87
  -3  -3  -8   23.01    2.82
  -3   3  -8   54.86    3.80
  -3   3  -8   35.14    3.47
  -3   3  -8   91.43    4.17
   3  -3   8   22.64    2.64
   3  -3   8   32.59    3.29
   3   3   8   43.65    5.28
   3   3   8   47.26    2.96
   3   3   8   57.03    3.93
  -3  -3  -9   92.91    4.07
  -3  -3  -9   74.34    4.21
  -3  -3  -9   85.82    4.26
  -3   3  -9  186.14    5.88
  -3   3  -9   99.94    4.54
  -3   3  -9  286.96    6.11
   3  -3   9   76.52    3.98
   3  -3   9   94.16    4.21
   3  -3   9   93.93    4.03
   3   3   9  127.26    6.34
   3   3   9  174.38    5.37
  -3  -3 -10   24.86    2.87
  -3  -3 -10   21.99    3.10
  -3  -3 -10   25.78    3.29
  -3   3 -10   61.52    4.49
  -3   3 -10   28.93    3.43
  -3   3 -10   81.52    4.72
   3  -3  10   21.06    2.87
   3  -3  10   22.50    3.10
   3  -3  10   29.02    3.15
   3   3  10   41.71    4.63
   3   3  10   43.05    3.33
   3   3  10   56.24    4.31
  -3  -3 -11   24.53    3.52
  -3  -3 -11   16.80    3.24
  -3  -3 -11   17.87    3.43
  -3   3 -11   35.69    4.35
  -3   3 -11   22.73    3.47
  -3   3 -11   43.98    4.68
   3  -3  11   16.90    2.96
   3  -3  11   21.39    3.15
   3  -3  11   21.57    2.73
   3   3  11   23.56    4.77
   3   3  11   24.63    2.87
   3   3  11   33.24    3.84
  -3  -3 -12    8.56    2.87
  -3  -3 -12    9.54    2.87
  -3  -3 -12    8.98    3.80
  -3   3 -12   30.92    4.07
  -3   3 -12   36.89    4.03
   3  -3  12   11.67    2.92
   3  -3  12   16.85    3.52
   3  -3  12   13.84    2.92
   3   3  12   16.94    4.68
   3   3  12   15.88    2.73
   3   3  12   22.31    3.61
  -3  -4  13   28.47    4.03
  -3  -4  13   25.83    3.33
  -3  -4  13   38.51    4.03
  -3   4  13   38.93    4.31
  -3   4  13   39.58    4.17
  -3   4  13   32.96    4.03
   3  -4 -13   35.23    4.68
   3  -4 -13   12.78    4.12
   3   4 -13   46.29    5.05
   3   4 -13   45.50    4.77
  -3  -4  12   15.74    2.41
  -3  -4  12   32.22    4.31
  -3   4  12   32.82    3.29
   3  -4 -12   23.66    6.48
   3  -4 -12   21.43    3.93
   3   4 -12   27.77    3.93
  -3  -4  11  126.14    8.84
  -3  -4  11   89.34    3.43
  -3  -4  11  134.11    5.32
  -3   4  11  124.29    4.91
  -3   4  11  126.79    5.32
   3  -4 -11  143.64    6.62
   3  -4 -11   98.93    5.09
   3  -4 -11  137.53    6.99
   3   4 -11  173.55    5.74
   3   4 -11  148.83    5.65
   3   4 -11  115.03    5.00
  -3  -4  10   16.20    3.38
  -3  -4  10    9.12    1.90
  -3  -4  10   14.54    2.82
  -3   4  10   14.67    2.59
  -3   4  10   14.58    3.15
  -3   4  10   15.04    2.87
   3  -4 -10   11.06    3.43
   3  -4 -10   15.00    3.38
   3  -4 -10   15.18    2.45
   3   4 -10   19.07    3.43
   3   4 -10   11.39    3.01
   3   4 -10   12.64    2.78
  -3  -4   9   29.40    3.33
  -3  -4   9   19.12    2.08
  -3  -4   9   37.54    3.84
  -3   4   9   27.64    3.29
  -3   4   9   34.07    3.56
  -3   4   9   26.66    3.15
   3  -4  -9   38.88    4.44
   3  -4  -9   27.59    3.38
   3  -4  -9   31.57    3.52
   3   4  -9   42.96    4.58
   3   4  -9   35.09    4.26
   3   4  -9   23.10    3.01
  -3  -4   8   49.07    3.89
  -3  -4   8   34.63    1.99
  -3  -4   8   55.46    3.89
  -3  -4   8   45.78    4.03
  -3   4   8   45.09    3.33
  -3   4   8   55.92    3.61
  -3   4   8   45.78    3.84
   3  -4  -8   64.99    4.91
   3  -4  -8   44.67    4.17
   3  -4  -8   51.66    3.61
   3   4  -8   65.55    4.86
   3   4  -8   44.63    4.07
   3   4  -8   46.62    3.98
  -3  -4   7   -4.49    2.13
  -3  -4   7    1.67    1.06
  -3  -4   7    1.30    2.08
  -3  -4   7   -2.68    1.85
  -3   4   7   -2.13    1.67
  -3   4   7    1.20    1.99
  -3   4   7    1.53    2.08
   3  -4  -7    0.23    2.22
   3  -4  -7    1.71    2.45
   3  -4  -7    1.85    1.76
   3  -4  -7   -0.09    1.85
   3   4  -7    2.08    2.78
   3   4  -7   -2.55    2.04
   3   4  -7    1.39    2.04
  -3  -4   6   43.05    3.61
  -3  -4   6   46.99    3.43
  -3  -4   6   33.42    3.33
  -3   4   6   66.52    2.41
  -3   4   6   37.22    3.06
  -3   4   6   43.93    3.29
  -3   4   6   45.27    3.75
   3  -4  -6   59.86    4.54
   3  -4  -6   38.84    3.47
   3  -4  -6   33.14    1.81
   3  -4  -6   47.31    3.38
   3   4  -6   56.61    4.44
   3   4  -6   41.85    3.29
   3   4  -6   34.72    3.70
  -3  -4   5  106.19    4.49
  -3  -4   5  136.98    4.12
  -3  -4   5   79.16    3.70
  -3   4   5  184.06    3.47
  -3   4   5   93.88    3.75
  -3   4   5  105.41    3.66
  -3   4   5  107.86    2.45
   3  -4  -5  156.56    5.32
   3  -4  -5   99.34    3.84
   3  -4  -5  105.87    2.31
   3  -4  -5  111.89    4.17
   3   4  -5  158.92    5.69
   3   4  -5  102.03    3.98
   3   4  -5   80.18    3.98
   3   4  -5  163.55    2.68
  -3  -4   4   54.86    3.52
  -3  -4   4   78.09    3.61
  -3  -4   4   53.93    3.61
  -3   4   4  108.18    3.24
  -3   4   4   49.53    3.10
  -3   4   4   58.84    3.15
  -3   4   4   60.36    2.08
   3  -4  -4   80.41    4.77
   3  -4  -4   55.78    3.15
   3  -4  -4   63.93    3.15
   3   4  -4   91.15    4.86
   3   4  -4   48.70    3.29
   3   4  -4   93.14    2.55
  -3  -4   3   64.58    3.89
  -3  -4   3   83.97    3.33
  -3  -4   3   49.02    3.19
  -3   4   3   41.52    2.96
  -3   4   3   53.37    3.15
  -3   4   3   78.00    2.22
   3  -4  -3  105.87    5.79
   3  -4  -3   55.32    3.24
   3  -4  -3   60.41    3.01
   3  -4  -3   58.93    3.43
   3   4  -3  103.05    5.37
   3   4  -3   52.63    3.33
   3   4  -3  114.16    2.96
  -3  -4   2   34.07    3.19
  -3  -4   2   39.12    2.73
  -3  -4   2   24.63    2.82
  -3   4   2   61.80    3.52
  -3   4   2   18.47    2.22
  -3   4   2   26.15    2.82
  -3   4   2   42.59    2.08
   3  -4  -2   52.08    4.31
   3  -4  -2   17.27    1.99
   3  -4  -2   32.31    3.06
   3   4  -2   29.95    2.96
   3   4  -2   74.25    2.96
  -3  -4   1  203.17    8.33
  -3  -4   1  292.01    4.21
  -3  -4   1  183.45    5.00
  -3   4   1  467.18    6.34
  -3   4   1  179.61    4.63
  -3   4   1  384.45    4.31
   3  -4  -1  337.74    6.11
   3  -4  -1  181.14    4.63
   3  -4  -1  191.14    3.61
   3  -4  -1  238.26    5.23
   3   4  -1  320.71    7.68
   3   4  -1  188.08    4.86
  -3  -4   0  298.07    6.02
  -3  -4   0  447.04    4.68
  -3  -4   0  266.64    5.51
  -3   4   0  709.65    7.64
  -3   4   0  278.95    5.56
  -3   4   0  358.20    6.20
  -3   4   0  652.62    5.69
   3  -4   0  502.36    7.04
   3  -4   0  272.38    5.46
   3  -4   0  301.54    4.07
   3  -4   0  348.48    6.16
   3   4   0  500.55    8.01
   3   4   0  290.71    5.79
   3   4   0  680.21    7.08
  -3  -4  -1   61.43    4.35
  -3  -4  -1   51.43    3.61
  -3  -4  -1   67.86    2.18
  -3  -4  -1   51.43    3.33
  -3   4  -1  122.12    4.17
  -3   4  -1   55.23    2.22
  -3   4  -1   51.24    3.38
  -3   4  -1  117.95    3.24
   3  -4   1   82.72    4.12
   3  -4   1   45.32    3.06
   3  -4   1   46.85    2.18
   3  -4   1   51.71    3.29
   3   4   1   90.78    4.81
   3   4   1   50.37    3.43
   3   4   1  114.76    4.07
  -3  -4  -2  124.71    4.68
  -3  -4  -2  106.24    4.07
  -3  -4  -2  151.93    2.45
  -3  -4  -2  104.30    4.03
  -3   4  -2  282.98    5.56
  -3   4  -2  127.58    2.64
  -3   4  -2  138.74    4.49
   3  -4   2  210.12    4.91
   3  -4   2   99.48    3.89
   3  -4   2  134.11    4.35
   3  -4   2  132.49    4.26
   3   4   2  178.59    5.97
   3   4   2  101.19    4.07
   3   4   2  265.30    5.37
  -3  -4  -3   35.60    3.75
  -3  -4  -3   35.41    3.19
  -3  -4  -3   25.18    3.06
  -3   4  -3   92.21    4.35
  -3   4  -3   42.82    2.04
  -3   4  -3   39.07    3.29
  -3   4  -3  100.50    3.56
   3  -4   3   55.69    3.84
   3  -4   3   34.95    3.06
   3  -4   3   36.76    3.19
   3  -4   3   38.14    3.29
   3   4   3   68.33    5.32
   3   4   3   32.82    3.24
   3   4   3   84.16    3.80
  -3  -4  -4   23.52    2.92
  -3  -4  -4   15.83    2.55
  -3  -4  -4   14.77    2.59
  -3   4  -4   46.06    4.17
  -3   4  -4   15.55    2.55
  -3   4  -4   50.78    3.66
   3  -4   4   15.74    2.36
   3  -4   4   18.84    2.64
   3  -4   4   22.36    2.59
   3   4   4   36.99    4.12
   3   4   4   23.33    3.19
   3   4   4   40.60    3.52
  -3  -4  -5    4.12    2.45
  -3  -4  -5    5.28    2.31
  -3  -4  -5    3.70    2.55
  -3   4  -5   16.34    3.24
  -3   4  -5    3.84    2.18
  -3   4  -5   16.94    2.78
   3  -4   5    6.67    1.76
   3  -4   5    3.29    1.57
   3  -4   5    3.80    1.71
   3  -4   5    6.39    2.27
   3   4   5    9.86    3.66
   3   4   5   10.88    2.59
  -3  -4  -6   12.31    3.01
  -3  -4  -6   10.60    2.82
  -3  -4  -6    9.86    2.64
  -3   4  -6   22.96    3.38
  -3   4  -6   10.37    2.68
  -3   4  -6   32.13    3.66
   3  -4   6    7.50    2.27
   3  -4   6   10.18    2.08
   3  -4   6   14.58    2.45
   3   4   6    5.88    3.70
   3   4   6   20.14    2.92
  -3  -4  -7    8.47    4.17
  -3  -4  -7    5.79    2.68
  -3  -4  -7    6.94    3.06
  -3   4  -7    8.75    2.96
  -3   4  -7    3.10    2.59
  -3   4  -7   10.28    2.82
   3  -4   7    5.83    1.85
   3  -4   7    5.37    2.36
   3  -4   7    4.54    2.55
   3   4   7    9.07    4.07
   3   4   7   12.50    3.01
  -3  -4  -8    4.68    2.87
  -3  -4  -8    6.11    3.06
  -3   4  -8   11.43    4.35
  -3   4  -8    8.01    2.87
  -3   4  -8   14.54    3.06
   3  -4   8    2.78    2.27
   3  -4   8    4.07    2.50
   3  -4   8    2.73    2.50
   3   4   8   11.20    4.40
   3   4   8   16.11    3.29
  -3  -4  -9   11.85    3.10
  -3  -4  -9   10.83    2.96
  -3   4  -9    9.17    3.93
  -3   4  -9   36.89    4.54
   3  -4   9    9.86    2.55
   3   4   9   16.53    5.83
   3   4   9   16.62    4.03
  -3  -4 -10    7.22    2.87
  -3  -4 -10    6.62    3.66
  -3   4 -10   13.66    3.80
  -3   4 -10   11.90    3.52
  -3   4 -10   25.04    3.98
   3  -4  10    3.52    2.82
   3  -4  10   10.18    3.19
   3  -4  10   12.68    2.87
   3   4  10   10.32    6.71
   3   4  10   13.52    3.56
  -3  -5   9    3.80    3.70
  -3  -5   9    5.74    2.87
  -3   5   9    6.43    2.82
  -3   5   9    5.23    2.68
  -3   5   9    2.50    3.19
   3  -5  -9    5.09    4.12
   3  -5  -9    1.57    3.43
   3  -5  -9    7.82    3.15
   3   5  -9   10.65    3.93
   3   5  -9    7.73    3.80
   3   5  -9    3.80    3.19
  -3  -5   8    2.59    3.56
  -3  -5   8    1.76    2.73
  -3  -5   8    4.31    3.06
  -3   5   8    2.55    2.45
  -3   5   8    4.40    2.82
   3  -5  -8    1.53    6.20
   3  -5  -8    4.44    2.96
   3  -5  -8    3.33    2.96
   3   5  -8    4.86    3.89
   3   5  -8    3.80    3.06
  -3  -5   7   10.69    2.68
  -3   5   7   10.42    2.73
  -3   5   7    9.17    2.78
   3  -5  -7   17.64    4.86
   3  -5  -7   13.38    3.29
   3   5  -7   13.19    4.17
   3   5  -7   10.79    3.56
  -3  -5   6   32.96    4.03
  -3  -5   6   29.63    3.38
  -3  -5   6   25.04    3.80
  -3   5   6   27.96    3.15
  -3   5   6   28.84    3.47
  -3   5   6   33.01    3.61
   3  -5  -6   27.96    4.03
   3  -5  -6   21.71    3.10
   3  -5  -6   28.24    3.33
   3   5  -6   42.13    5.14
   3   5  -6   33.24    3.75
   3   5  -6   24.26    3.75
  -3  -5   5   11.20    3.52
  -3  -5   5    9.35    2.59
  -3  -5   5   11.53    3.19
  -3   5   5    5.46    2.45
  -3   5   5   12.96    2.59
  -3   5   5   12.68    3.15
   3  -5  -5   17.27    3.70
   3  -5  -5    9.95    2.92
   3  -5  -5   12.92    2.92
   3   5  -5   21.80    4.58
   3   5  -5   10.69    2.96
   3   5  -5   11.80    3.19
  -3  -5   4    7.50    3.24
  -3  -5   4    6.20    2.55
  -3  -5   4    6.80    3.01
  -3   5   4   13.42    2.50
  -3   5   4    1.76    2.36
  -3   5   4    9.44    2.45
  -3   5   4    8.66    3.01
   3  -5  -4    9.03    3.61
   3  -5  -4    6.99    3.19
   3  -5  -4    6.76    2.64
   3   5  -4   11.34    3.93
   3   5  -4    9.30    2.82
  -3  -5   3   13.66    2.96
  -3  -5   3   27.50    3.43
  -3  -5   3   14.72    3.29
  -3   5   3   44.72    4.03
  -3   5   3   12.45    2.64
  -3   5   3   17.96    2.96
   3  -5  -3   22.96    3.80
   3  -5  -3   19.91    2.82
   3  -5  -3   15.69    2.96
   3   5  -3   37.73    4.54
   3   5  -3   20.92    3.24
   3   5  -3   35.18    4.21
  -3  -5   2   36.94    4.21
  -3  -5   2   42.17    3.43
  -3  -5   2   43.70    4.58
  -3   5   2   74.07    4.31
  -3   5   2   27.59    3.10
  -3   5   2   35.97    3.43
   3  -5  -2   47.45    5.23
   3  -5  -2   21.39    2.92
   3  -5  -2   31.57    3.75
   3  -5  -2   43.61    4.03
   3   5  -2   52.96    5.09
   3   5  -2   36.80    4.49
   3   5  -2   68.97    3.93
  -3  -5   1   10.28    2.78
  -3  -5   1   10.05    1.99
  -3  -5   1    9.81    3.10
  -3   5   1   14.67    2.96
  -3   5   1    4.86    2.36
  -3   5   1    7.87    2.73
  -3   5   1   10.42    2.31
   3  -5  -1    9.86    3.19
   3  -5  -1    2.50    2.31
   3  -5  -1    4.77    2.36
   3  -5  -1   10.05    2.73
   3   5  -1   16.80    4.26
   3   5  -1    6.06    3.10
   3   5  -1    8.52    2.36
  -3  -5   0   22.45    3.29
  -3  -5   0   16.29    3.43
  -3  -5   0   25.14    3.75
  -3   5   0   53.47    4.63
  -3   5   0   18.01    2.82
  -3   5   0   18.01    2.45
  -3   5   0   20.78    3.06
  -3   5   0   39.21    3.24
   3  -5   0   39.86    4.77
   3  -5   0   16.66    2.78
   3  -5   0   20.74    2.45
   3  -5   0   23.05    3.15
   3   5   0   38.61    5.05
   3   5   0   22.78    3.24
   3   5   0   39.12    3.75
  -3  -5  -1   23.52    3.38
  -3  -5  -1   26.39    3.33
  -3  -5  -1   17.17    3.38
  -3   5  -1   54.76    4.72
  -3   5  -1   17.08    2.68
  -3   5  -1   18.29    2.68
  -3   5  -1   28.79    3.38
  -3   5  -1   34.02    3.52
   3  -5   1   33.65    4.63
   3  -5   1   19.67    2.55
   3  -5   1   20.04    2.41
   3  -5   1   25.23    3.19
   3   5   1   36.43    5.00
   3   5   1   20.09    3.15
  -3  -5  -2    3.19    2.68
  -3  -5  -2    7.87    2.78
  -3  -5  -2    3.01    2.59
  -3   5  -2   10.69    3.06
  -3   5  -2    4.31    2.64
  -3   5  -2    6.43    2.78
  -3   5  -2   11.16    2.73
   3  -5   2    9.07    3.06
   3  -5   2    2.04    2.45
   3  -5   2   10.00    2.78
   3   5   2    3.29    4.17
   3   5   2    7.92    3.10
   3   5   2    5.23    2.50
  -3  -5  -3    7.45    2.73
  -3  -5  -3    7.18    2.96
  -3  -5  -3    6.53    2.96
  -3   5  -3   10.46    3.24
  -3   5  -3    4.26    2.96
  -3   5  -3   10.69    2.73
   3  -5   3    8.05    2.92
   3  -5   3    3.70    2.50
   3  -5   3    1.25    2.59
   3  -5   3    7.13    2.73
   3   5   3   10.69    4.63
   3   5   3    2.04    3.01
   3   5   3   15.60    2.92
  -3  -5  -4    9.91    2.92
  -3   5  -4   28.56    3.89
  -3   5  -4   14.49    3.29
  -3   5  -4   27.73    3.47
   3  -5   4   21.53    3.38
   3  -5   4    9.86    2.92
   3  -5   4   14.63    3.24
   3  -5   4   14.12    2.87
   3   5   4   30.46    3.33
  -3  -5  -5   84.39    4.95
  -3  -5  -5   36.34    4.40
  -3  -5  -5   41.52    4.58
  -3   5  -5  156.93    6.02
  -3   5  -5   60.04    6.30
  -3   5  -5  173.92    5.65
   3  -5   5   67.08    4.91
   3  -5   5   64.90    4.91
   3   5   5  102.17    7.50
   3   5   5   47.73    4.81
   3   5   5  135.08    6.06
  -3  -5  -6   11.25    3.01
  -3  -5  -6   11.85    3.47
  -3  -5  -6   15.92    3.89
  -3   5  -6   17.13    5.88
  -3   5  -6   16.76    3.70
  -3   5  -6   44.86    4.58
   3  -5   6   14.03    3.24
   3  -5   6   11.30    3.24
   3  -5   6   16.71    3.29
   3   5   6   18.70    4.81
   3   5   6   12.68    3.75
   3   5   6   23.33    3.47
  -4   0  17   10.14    3.89
  -4   0  17    5.28    3.70
   4   0 -17    8.24    3.24
   4   0 -17   15.69    3.75
   4   0 -17   17.91    3.33
  -4   0  16    6.76    2.92
  -4   0  16    2.73    2.82
   4   0 -16    3.10    2.78
   4   0 -16    7.78    2.92
  -4   0  15    3.56    1.94
  -4   0  15   -2.36    2.27
  -4   0  15    5.14    2.78
  -4   0  15    4.12    1.76
   4   0 -15    1.06    2.59
   4   0 -15   10.09    3.19
   4   0 -15    4.54    2.55
  -4   0  14    3.47    1.99
  -4   0  14    8.70    2.50
  -4   0  14    6.90    1.99
  -4   0  14    7.08    1.81
   4   0 -14   10.09    2.59
   4   0 -14   16.76    3.24
   4   0 -14   10.83    2.45
  -4   0  13   72.49    3.56
  -4   0  13  115.54    4.17
  -4   0  13   91.61    4.17
   4   0 -13  146.05    4.86
   4   0 -13  180.35    4.44
  -4   0  12   80.36    3.84
  -4   0  12   60.27    3.61
  -4   0  12   48.75    2.50
   4   0 -12   61.89    3.98
   4   0 -12  105.78    4.26
   4   0 -12  143.50    3.89
   4   0 -12   49.16    2.55
  -4   0  11   22.73    3.61
  -4   0  11   35.32    2.82
  -4   0  11   22.87    2.87
  -4   0  11   17.73    1.90
   4   0 -11   34.95    3.43
   4   0 -11   52.59    2.59
   4   0 -11   19.86    1.85
  -4   0  10   52.49    2.73
  -4   0  10   78.19    3.06
  -4   0  10   76.66    3.43
   4   0 -10   77.68    3.84
   4   0 -10  148.27    4.40
   4   0 -10  120.91    2.92
   4   0 -10   52.63    2.18
  -4   0   9   65.92    2.78
  -4   0   9  101.80    3.10
  -4   0   9   94.39    3.43
   4   0  -9  116.47    4.12
   4   0  -9  185.81    4.35
   4   0  -9  123.74    2.68
   4   0  -9   68.60    2.36
  -4   0   8  163.97    3.61
  -4   0   8  208.82    3.84
  -4   0   8  210.30    4.44
   4   0  -8  259.84    5.00
   4   0  -8  403.62    5.69
   4   0  -8  240.58    3.19
   4   0  -8  153.73    3.01
  -4   0   7   36.43    2.18
  -4   0   7   44.39    1.99
  -4   0   7   46.20    2.55
   4   0  -7   58.33    3.15
   4   0  -7   84.39    2.92
   4   0  -7   41.99    1.62
   4   0  -7   30.97    1.67
  -4   0   6   11.16    1.53
  -4   0   6    9.17    1.20
  -4   0   6   13.93    1.71
   4   0  -6   17.31    2.04
   4   0  -6   27.54    3.19
   4   0  -6    9.95    1.02
   4   0  -6    7.18    1.34
   4   0  -6    8.43    1.16
  -4   0   5   47.17    2.31
  -4   0   5   49.58    1.90
  -4   0   5   57.82    2.50
  -4   0   5   42.31    1.44
   4   0  -5   85.78    3.29
   4   0  -5  105.87    2.78
   4   0  -5   43.19    1.48
   4   0  -5   38.75    1.81
   4   0  -5   44.07    1.90
  -4   0   4    2.78    1.16
  -4   0   4    1.30    0.79
  -4   0   4    0.60    1.16
  -4   0   4    0.88    0.65
   4   0  -4    3.84    1.53
   4   0  -4    4.91    1.11
   4   0  -4    3.38    1.02
   4   0  -4    1.39    0.97
  -4   0   3   55.74    1.85
  -4   0   3   80.36    2.64
  -4   0   3   56.01    1.53
   4   0  -3  121.15    3.52
   4   0  -3  123.69    2.55
   4   0  -3   70.46    1.99
   4   0  -3   66.43    2.22
  -4   0   2   20.92    2.27
  -4   0   2   13.98    1.30
  -4   0   2   20.18    2.13
  -4   0   2   15.42    1.11
   4   0  -2   34.39    2.41
   4   0  -2   14.67    1.30
   4   0  -2   31.25    1.53
   4   0  -2   18.84    1.62
  -4   0   1  475.55    5.56
  -4   0   1  359.96    3.93
  -4   0   1  361.12    3.66
   4   0  -1  804.73    7.27
   4   0  -1  360.57    3.98
   4   0  -1  639.43    4.81
  -4   0   0  145.36    3.43
  -4   0   0  134.01    3.06
  -4   0   0  108.69    2.31
   4   0   0  212.76    4.07
   4   0   0   94.99    2.18
   4   0   0  163.97    2.50
   4   0   0  139.99    3.29
  -4   0  -1  339.55    4.95
  -4   0  -1  321.73    4.35
  -4   0  -1  253.40    3.47
   4   0   1  506.71    5.93
   4   0   1  238.12    3.43
   4   0   1  336.59    3.29
   4   0   1  242.61    3.01
   4   0   1  324.37    4.77
  -4   0  -2  390.93    5.51
  -4   0  -2  354.27    4.58
  -4   0  -2  284.60    3.84
   4   0   2  561.38    6.20
   4   0   2  266.45    3.75
   4   0   2  340.71    3.19
   4   0   2  274.65    3.06
   4   0   2  393.57    5.32
  -4   0  -3  160.22    3.84
  -4   0  -3  138.09    3.06
  -4   0  -3  128.92    3.06
   4   0   3  228.63    4.49
   4   0   3  109.16    2.64
   4   0   3  126.05    2.08
   4   0   3  123.92    2.36
   4   0   3  153.92    3.70
  -4   0  -4   91.47    3.33
  -4   0  -4   77.35    2.87
  -4   0  -4   82.26    3.01
   4   0   4  136.00    4.21
   4   0   4   66.57    1.71
   4   0   4   80.78    2.18
   4   0   4   91.80    3.15
  -4   0  -5   73.70    3.15
  -4   0  -5   60.23    2.92
   4   0   5   94.67    3.89
   4   0   5   50.27    2.36
   4   0   5   47.22    1.62
   4   0   5   74.71    2.22
   4   0   5   75.59    3.10
  -4   0  -6   74.07    3.52
  -4   0  -6   50.04    1.76
  -4   0  -6   61.06    2.82
  -4   0  -6   68.05    3.29
   4   0   6  106.70    4.31
   4   0   6   48.33    2.50
   4   0   6   43.42    1.71
   4   0   6   73.65    3.29
  -4   0  -7  470.55    4.21
  -4   0  -7  608.46    6.30
  -4   0  -7  661.32    7.59
   4   0   7  951.34    8.29
   4   0   7  530.69    6.43
   4   0   7  750.48    8.75
  -4   0  -8  193.08    5.28
  -4   0  -8  118.88    2.59
  -4   0  -8  151.37    3.84
  -4   0  -8  174.94    5.37
   4   0   8  245.48    5.37
   4   0   8  135.91    3.84
   4   0   8  190.68    4.95
  -4   0  -9   41.34    3.70
  -4   0  -9   24.26    1.99
  -4   0  -9   34.02    2.96
  -4   0  -9   37.45    3.80
   4   0   9   55.69    4.21
   4   0   9   38.51    3.38
  -4   0 -10    7.41    2.59
  -4   0 -10    5.56    1.57
  -4   0 -10    5.79    2.04
  -4   0 -10    9.30    2.55
   4   0  10    9.67    2.64
   4   0  10    2.68    1.85
   4   0  10    7.18    2.36
  -4   0 -11   10.79    3.01
  -4   0 -11    8.01    2.36
  -4   0 -11   10.88    3.06
   4   0  11   14.12    2.92
   4   0  11    5.88    2.13
   4   0  11    6.90    2.64
  -4   0 -12   -2.55    2.92
  -4   0 -12    0.28    2.27
  -4   0 -12   -2.31    3.01
   4   0  12    1.11    2.18
   4   0  12   -3.98    2.59
  -4   0 -13   34.21    4.54
  -4   0 -13   21.76    3.10
  -4   0 -13   30.09    4.81
   4   0  13   25.69    3.19
   4   0  13   26.71    3.70
  -4  -1  17   12.04    2.92
  -4  -1  17   16.94    3.19
  -4  -1  17   15.88    3.66
  -4   1  17   15.37    3.43
  -4   1  17   12.36    3.89
  -4   1  17    7.50    2.73
   4  -1 -17   14.30    3.56
   4  -1 -17   11.06    3.66
   4   1 -17   11.11    3.29
   4   1 -17   27.50    4.63
   4   1 -17   18.05    3.61
  -4  -1  16    4.86    3.06
  -4  -1  16    6.02    2.68
  -4   1  16    9.12    3.06
  -4   1  16    8.01    3.15
  -4   1  16    4.49    2.55
   4  -1 -16    4.77    3.10
   4  -1 -16   -0.23    5.74
   4  -1 -16    7.96    2.59
   4   1 -16    7.36    2.96
   4   1 -16    9.35    3.98
   4   1 -16    9.07    3.15
  -4  -1  15   27.82    2.92
  -4  -1  15   58.19    3.93
  -4  -1  15   45.55    4.26
  -4   1  15   54.90    4.21
  -4   1  15   51.34    4.58
  -4   1  15   41.62    3.70
   4  -1 -15   43.38    5.05
   4  -1 -15   59.25    5.14
   4  -1 -15   52.91    3.75
   4   1 -15   31.99    4.77
   4   1 -15   95.13    5.56
   4   1 -15   81.52    4.63
  -4  -1  14    2.08    2.22
  -4  -1  14    1.25    2.36
  -4  -1  14    4.95    2.55
  -4   1  14    4.58    2.27
  -4   1  14    3.43    2.27
  -4   1  14    2.13    2.04
   4  -1 -14    2.18    2.64
   4  -1 -14    3.38    3.01
   4  -1 -14    3.10    2.08
   4   1 -14    2.68    3.33
   4   1 -14    2.27    2.73
  -4  -1  13    5.05    2.18
  -4  -1  13    9.40    2.13
  -4  -1  13    9.03    2.45
  -4   1  13    3.93    1.62
  -4   1  13    6.76    2.18
  -4   1  13    7.92    2.31
  -4   1  13    4.07    1.85
   4  -1 -13    7.50    2.68
   4  -1 -13    8.75    2.59
   4  -1 -13    6.67    1.71
   4  -1 -13    4.95    2.04
   4   1 -13    3.29    2.41
   4   1 -13   16.90    3.15
   4   1 -13    9.26    2.41
  -4  -1  12   96.84    3.98
  -4  -1  12  181.65    4.40
  -4  -1  12  137.95    4.63
  -4  -1  12  121.70    2.31
  -4   1  12  102.95    2.64
  -4   1  12  152.95    4.44
  -4   1  12  140.12    4.58
  -4   1  12  108.92    3.80
   4  -1 -12  148.69    5.05
   4  -1 -12  181.28    5.00
   4  -1 -12  188.73    3.47
   4  -1 -12  116.24    3.75
   4   1 -12  174.47    4.86
   4   1 -12  242.98    5.69
   4   1 -12  163.64    4.49
  -4  -1  11   99.62    3.70
  -4  -1  11  184.33    4.07
  -4  -1  11  153.04    4.54
  -4  -1  11  115.64    2.27
  -4   1  11  102.81    2.64
  -4   1  11  145.68    5.09
  -4   1  11  133.13    5.05
  -4   1  11  110.64    3.75
   4  -1 -11  209.33    3.29
   4  -1 -11  109.76    3.56
   4   1 -11  174.80    4.95
   4   1 -11  244.47    5.37
   4   1 -11  171.88    4.31
  -4  -1  10    6.99    1.94
  -4  -1  10    9.63    1.90
  -4  -1  10    5.56    0.97
  -4   1  10    4.44    1.25
  -4   1  10    6.20    1.67
  -4   1  10    7.31    1.94
   4  -1 -10    8.38    2.41
   4  -1 -10   11.25    2.31
   4  -1 -10   11.67    1.25
   4  -1 -10    5.56    1.62
   4   1 -10    9.40    2.18
   4   1 -10   14.40    2.78
   4   1 -10    8.61    1.85
   4   1 -10    5.60    0.93
  -4  -1   9   78.46    3.29
  -4  -1   9  145.49    3.29
  -4  -1   9  121.52    3.89
  -4   1   9   85.32    2.45
  -4   1   9  100.08    3.38
  -4   1   9  106.05    3.56
   4  -1  -9  135.08    4.35
   4  -1  -9  182.02    4.54
   4  -1  -9  168.59    2.36
   4  -1  -9   60.18    1.90
   4  -1  -9   82.03    2.82
   4   1  -9  142.76    4.35
   4   1  -9  165.86    4.26
   4   1  -9   98.00    3.24
   4   1  -9   80.45    1.90
  -4  -1   8    8.29    1.90
  -4  -1   8   17.78    1.67
  -4  -1   8   13.38    1.71
  -4   1   8   10.32    1.30
  -4   1   8    8.19    1.57
  -4   1   8    9.44    1.76
   4  -1  -8   14.12    2.04
   4  -1  -8   23.70    2.45
   4  -1  -8   18.29    1.16
   4  -1  -8    7.41    0.97
   4  -1  -8    7.22    1.53
   4   1  -8   11.20    2.13
   4   1  -8   14.67    2.04
   4   1  -8   10.46    1.57
   4   1  -8    7.92    0.93
  -4  -1   7  182.90    4.07
  -4  -1   7  299.23    3.75
  -4  -1   7  253.72    4.68
  -4  -1   7  168.96    3.29
  -4   1   7  185.68    3.19
  -4   1   7  189.15    3.89
  -4   1   7  223.36    4.44
   4  -1  -7  322.28    5.51
   4  -1  -7  453.33    5.65
   4  -1  -7  376.77    2.22
   4  -1  -7  143.97    1.57
   4  -1  -7  171.33    3.61
   4   1  -7  313.49    5.32
   4   1  -7  301.03    4.95
   4   1  -7  174.89    3.33
   4   1  -7  170.49    2.64
  -4  -1   6  217.85    4.35
  -4  -1   6  325.29    3.61
  -4  -1   6  304.00    4.91
  -4  -1   6  186.51    3.29
  -4   1   6  227.11    3.56
  -4   1   6  210.53    3.93
  -4   1   6  263.72    4.68
   4  -1  -6  359.87    5.46
   4  -1  -6  523.47    5.56
   4  -1  -6  201.97    3.84
   4   1  -6  376.44    5.65
   4   1  -6  332.28    5.05
   4   1  -6  183.69    3.29
   4   1  -6  206.41    2.96
  -4  -1   5   45.74    2.68
  -4  -1   5   66.47    1.71
  -4  -1   5   70.09    2.73
  -4  -1   5   37.13    1.81
  -4   1   5   51.99    2.13
  -4   1   5   42.22    2.18
  -4   1   5   56.24    2.55
   4  -1  -5   83.32    3.38
   4  -1  -5  124.76    2.92
   4  -1  -5   45.09    2.50
   4   1  -5   83.14    3.43
   4   1  -5   71.71    2.87
   4   1  -5   55.23    1.85
  -4  -1   4   44.16    2.36
  -4  -1   4   55.41    1.53
  -4  -1   4   36.39    1.67
  -4  -1   4   61.61    2.55
  -4  -1   4   33.24    1.76
  -4   1   4   53.84    2.18
  -4   1   4   36.01    2.04
  -4   1   4   53.84    2.50
   4  -1  -4   83.00    3.29
   4  -1  -4  109.20    2.45
   4  -1  -4   41.57    2.27
   4   1  -4   76.06    3.19
   4   1  -4   56.06    2.78
   4   1  -4   44.39    1.85
  -4  -1   3   57.86    2.73
  -4  -1   3   56.57    1.48
  -4  -1   3   42.77    1.67
  -4  -1   3   41.06    1.76
  -4   1   3   63.74    2.45
  -4   1   3   60.55    2.55
  -4   1   3   49.44    0.83
   4  -1  -3   98.28    3.29
   4  -1  -3  134.52    2.50
   4  -1  -3  141.05    1.30
   4  -1  -3   51.38    2.41
   4   1  -3   83.42    3.24
   4   1  -3   68.56    2.41
   4   1  -3   55.92    2.04
  -4  -1   2   79.30    2.78
  -4  -1   2   76.10    1.57
  -4  -1   2   71.71    1.85
  -4  -1   2  111.10    2.78
  -4  -1   2   60.78    2.08
  -4   1   2   64.25    2.73
  -4   1   2   88.83    2.82
  -4   1   2   63.98    1.16
   4  -1  -2  151.37    3.80
   4  -1  -2   65.04    2.68
   4  -1  -2  198.59    2.64
   4  -1  -2  232.94    2.08
   4  -1  -2   82.21    2.73
   4   1  -2  127.53    3.47
   4   1  -2   93.19    2.59
   4   1  -2   88.28    2.41
  -4  -1   1   32.50    2.22
  -4  -1   1   30.60    1.20
  -4  -1   1   37.64    1.67
  -4  -1   1   47.08    1.94
  -4  -1   1   25.97    1.71
  -4   1   1   47.26    2.59
  -4   1   1   26.43    3.10
  -4   1   1   32.08    1.48
  -4   1   1   38.28    2.18
  -4   1   1   29.30    1.11
   4  -1  -1   60.60    3.01
   4  -1  -1   85.41    1.71
   4  -1  -1  102.07    1.90
   4  -1  -1   34.77    2.13
   4   1  -1   53.24    2.96
   4   1  -1   28.01    1.11
   4   1  -1   36.25    1.90
   4   1  -1   41.29    2.18
  -4  -1   0   11.20    1.81
  -4  -1   0    8.05    1.11
  -4  -1   0    9.91    1.20
  -4  -1   0    5.46    1.20
  -4   1   0   10.32    1.71
  -4   1   0    7.18    0.83
  -4   1   0    5.05    1.39
  -4   1   0    6.43    0.83
   4  -1   0   11.30    1.81
   4  -1   0   17.78    1.02
   4  -1   0    5.00    0.83
   4  -1   0   17.17    1.62
   4  -1   0    4.07    1.06
   4   1   0   10.79    1.81
   4   1   0    4.40    0.65
   4   1   0    6.94    1.20
  -4  -1  -1   44.02    2.50
  -4  -1  -1   56.75    2.08
  -4  -1  -1   37.96    2.13
  -4   1  -1   60.69    2.64
  -4   1  -1   49.39    2.36
  -4   1  -1   51.80    1.71
   4  -1   1   78.42    5.05
   4  -1   1   35.60    2.31
   4  -1   1  105.45    1.30
   4  -1   1   41.94    1.06
   4  -1   1   50.41    2.50
   4   1   1   70.41    3.19
   4   1   1   39.07    1.34
   4   1   1   40.97    1.85
   4   1   1   62.59    2.64
  -4  -1  -2   89.07    3.10
  -4  -1  -2  103.83    2.50
  -4  -1  -2   67.77    2.68
  -4   1  -2  121.70    3.56
  -4   1  -2   88.69    2.92
  -4   1  -2   95.73    2.31
   4  -1   2   67.86    2.59
   4  -1   2   85.92    2.96
   4   1   2  118.28    3.75
   4   1   2   66.43    1.81
   4   1   2   72.54    2.31
   4   1   2  114.29    3.24
  -4  -1  -3   86.01    3.33
  -4  -1  -3   73.70    2.31
  -4  -1  -3   97.58    2.41
  -4  -1  -3   69.34    2.82
  -4   1  -3  118.55    3.66
  -4   1  -3   85.22    2.96
  -4   1  -3  100.55    2.59
   4  -1   3  154.80    3.98
   4  -1   3   65.60    2.64
   4  -1   3   79.58    3.06
   4   1   3  123.27    4.17
   4   1   3   66.01    1.90
   4   1   3   73.19    2.31
   4   1   3  113.55    3.38
  -4  -1  -4   68.37    3.29
  -4  -1  -4   53.33    2.22
  -4  -1  -4   69.90    2.18
  -4  -1  -4   50.50    2.64
  -4   1  -4   93.97    3.56
  -4   1  -4   68.88    3.06
  -4   1  -4   78.09    2.78
   4  -1   4  117.81    3.47
   4  -1   4   49.25    2.55
   4  -1   4   72.68    3.01
   4   1   4   96.66    4.07
   4   1   4   57.49    1.99
   4   1   4   48.98    2.13
   4   1   4   84.11    3.24
  -4  -1  -5   34.44    2.96
  -4  -1  -5   25.51    1.94
  -4  -1  -5   31.94    1.81
  -4  -1  -5   23.84    2.82
  -4   1  -5   43.47    2.92
  -4   1  -5   32.40    2.50
  -4   1  -5   44.86    2.73
   4  -1   5   56.75    2.96
   4  -1   5   23.89    2.36
   4  -1   5   33.65    2.64
   4   1   5   53.05    4.03
   4   1   5   28.05    1.85
   4   1   5   24.67    2.04
   4   1   5   40.13    2.78
  -4  -1  -6    9.91    2.22
  -4  -1  -6    8.61    1.48
  -4  -1  -6    8.52    1.20
  -4  -1  -6    8.43    2.04
  -4   1  -6    7.27    2.08
  -4   1  -6   10.55    1.90
   4  -1   6   15.92    1.94
   4  -1   6    5.88    1.57
   4  -1   6    7.04    2.13
   4   1   6   12.13    2.68
   4   1   6    6.94    1.76
  -4  -1  -7   35.09    4.72
  -4  -1  -7   21.20    2.31
  -4  -1  -7   23.93    1.85
  -4  -1  -7   28.65    4.49
  -4   1  -7   30.88    3.19
  -4   1  -7   20.88    2.31
  -4   1  -7   33.33    3.10
   4  -1   7   41.62    2.96
   4  -1   7   19.40    2.13
   4  -1   7   23.52    2.45
   4   1   7   41.15    3.61
   4   1   7   21.90    2.13
   4   1   7   32.73    3.01
  -4  -1  -8   69.39    3.66
  -4  -1  -8   46.89    2.87
  -4  -1  -8   63.88    2.36
  -4  -1  -8   60.97    4.03
  -4   1  -8   87.91    4.03
  -4   1  -8   61.38    3.38
  -4   1  -8   79.30    3.47
   4  -1   8  116.33    3.61
   4  -1   8   56.24    3.24
   4  -1   8   74.30    3.75
   4   1   8   92.95    5.23
   4   1   8   60.41    3.15
   4   1   8   86.06    4.03
  -4  -1  -9   35.27    4.03
  -4  -1  -9   27.77    2.87
  -4  -1  -9   31.89    2.13
  -4  -1  -9   27.82    3.43
  -4   1  -9   46.15    4.21
  -4   1  -9   30.18    2.96
  -4   1  -9   44.67    3.75
   4  -1   9   51.94    3.19
   4  -1   9   26.48    2.92
   4  -1   9   30.27    2.92
   4  -1   9   32.36    3.47
   4   1   9   51.66    5.00
   4   1   9   29.26    3.01
   4   1   9   43.00    3.70
  -4  -1 -10   32.50    3.52
  -4  -1 -10   16.43    2.31
  -4  -1 -10   22.59    2.27
  -4  -1 -10   27.91    3.47
  -4   1 -10   32.64    3.75
  -4   1 -10   25.83    3.01
  -4   1 -10   33.05    3.93
   4  -1  10   43.75    5.09
   4  -1  10   21.66    2.64
   4  -1  10   21.80    3.33
   4  -1  10   24.44    2.96
   4   1  10   31.94    3.66
   4   1  10   31.52    3.93
  -4  -1 -11   18.01    3.33
  -4  -1 -11   15.23    2.41
  -4  -1 -11   16.20    3.19
  -4   1 -11   17.22    3.33
  -4   1 -11   15.97    2.59
  -4   1 -11   17.41    3.06
   4  -1  11   10.05    2.45
   4  -1  11   12.78    2.41
   4  -1  11   16.34    2.82
   4   1  11   20.65    3.56
   4   1  11   15.14    2.73
   4   1  11   20.28    3.15
  -4  -1 -12   16.76    3.38
  -4  -1 -12   18.93    2.73
  -4   1 -12   25.14    3.80
  -4   1 -12   24.63    3.15
  -4   1 -12   23.93    3.38
   4  -1  12   19.12    2.87
   4  -1  12   19.63    3.01
   4  -1  12   27.36    3.43
   4   1  12   19.12    2.73
  -4  -1 -13    4.07    3.43
  -4  -1 -13    8.80    3.98
  -4   1 -13   13.75    4.49
  -4   1 -13    3.56    2.87
  -4   1 -13   10.32    4.44
   4  -1  13    9.63    2.82
   4  -1  13    5.93    2.68
   4   1  13    8.38    4.03
   4   1  13    2.73    2.55
   4   1  13    9.35    3.52
  -4  -2  16   32.77    3.66
  -4  -2  16   48.56    4.07
  -4  -2  16   49.86    4.91
  -4   2  16   66.01    4.95
  -4   2  16   56.71    5.18
  -4   2  16   46.48    4.81
   4   2 -16   86.98    5.65
   4   2 -16   69.90    5.46
  -4  -2  15    3.15    2.73
  -4  -2  15   11.20    2.78
  -4  -2  15    6.94    3.70
  -4   2  15    6.53    3.10
  -4   2  15    6.20    2.50
   4  -2 -15    6.67    3.19
   4  -2 -15   13.42    5.79
   4   2 -15   12.27    4.49
   4   2 -15   19.95    4.91
   4   2 -15    9.91    3.29
  -4  -2  14   49.53    4.54
  -4  -2  14   46.29    3.61
  -4   2  14   60.69    4.17
  -4   2  14   54.81    4.03
  -4   2  14   52.73    4.40
   4  -2 -14   54.53    5.28
   4  -2 -14   42.22    4.44
   4   2 -14   70.46    4.68
   4   2 -14  102.91    5.60
   4   2 -14   59.16    4.72
  -4  -2  13  107.30    4.68
  -4  -2  13  170.49    4.58
  -4  -2  13  145.40    5.23
  -4   2  13  150.49    5.00
  -4   2  13  159.75    4.95
  -4   2  13  131.42    4.68
   4  -2 -13  162.67    6.20
   4  -2 -13  157.16    5.74
   4  -2 -13  126.19    4.35
   4   2 -13  178.32    5.42
   4   2 -13  235.62    6.16
   4   2 -13  148.97    5.09
  -4  -2  12   42.54    3.89
  -4  -2  12   56.94    3.33
  -4  -2  12   45.74    3.84
  -4   2  12   49.30    3.52
  -4   2  12   54.86    3.98
  -4   2  12   41.25    3.93
   4  -2 -12   50.83    4.58
   4  -2 -12   55.55    4.26
   4  -2 -12   45.46    3.61
   4   2 -12   63.93    4.35
   4   2 -12   73.05    4.17
   4   2 -12   48.61    3.93
  -4  -2  11    6.53    2.68
  -4  -2  11   12.82    2.04
  -4  -2  11   10.42    2.41
  -4   2  11    7.92    1.71
  -4   2  11   11.39    2.27
   4  -2 -11   11.99    2.73
   4  -2 -11    7.64    2.50
   4   2 -11   14.86    2.55
   4   2 -11   11.80    2.55
   4   2 -11    9.35    2.78
  -4  -2  10   10.88    2.36
  -4  -2  10   18.42    2.27
  -4  -2  10   16.34    2.50
  -4   2  10    9.86    1.16
  -4   2  10    9.86    2.08
  -4   2  10    9.67    2.50
   4  -2 -10   17.78    2.73
   4  -2 -10   12.82    2.41
   4  -2 -10   10.69    1.94
   4   2 -10   18.05    2.50
   4   2 -10   19.16    2.68
   4   2 -10   15.88    2.45
  -4  -2   9  134.29    4.54
  -4  -2   9  228.31    3.56
  -4   2   9  135.87    2.45
  -4   2   9  146.47    5.00
  -4   2   9  166.93    4.49
   4  -2  -9  207.85    5.23
   4  -2  -9  209.24    4.91
   4  -2  -9  133.64    3.89
   4   2  -9  238.22    5.28
   4   2  -9  201.42    4.86
   4   2  -9  144.15    4.31
  -4  -2   8   18.05    2.45
  -4  -2   8   27.82    1.81
  -4  -2   8   25.92    2.31
  -4  -2   8   18.79    2.22
  -4   2   8   20.60    1.76
  -4   2   8   15.42    2.04
  -4   2   8   20.46    2.22
   4  -2  -8   37.17    4.58
   4  -2  -8   29.07    3.01
   4  -2  -8   14.91    1.94
   4   2  -8   36.01    3.93
   4   2  -8   26.57    2.68
   4   2  -8   16.66    2.31
   4   2  -8   15.92    0.97
  -4  -2   7  104.62    3.66
  -4  -2   7  186.32    2.68
  -4  -2   7  165.40    4.17
  -4  -2   7   97.58    3.33
  -4  -2   7  175.03    2.50
  -4   2   7  119.71    2.59
  -4   2   7  109.71    3.52
  -4   2   7  127.39    3.80
   4  -2  -7  178.69    4.72
   4  -2  -7  164.80    3.98
   4  -2  -7  115.03    3.61
   4   2  -7  183.59    4.86
   4   2  -7  139.94    3.98
   4   2  -7   99.53    3.56
   4   2  -7  100.55    1.81
  -4  -2   6  257.89    5.09
  -4  -2   6  436.85    3.38
  -4  -2   6  207.25    2.55
  -4  -2   6  386.30    5.65
  -4  -2   6  217.80    4.31
  -4   2   6  287.01    3.75
  -4   2   6  250.90    4.72
  -4   2   6  296.96    5.14
   4  -2  -6  434.08    6.48
   4  -2  -6  253.22    4.77
   4   2  -6  414.59    6.34
   4   2  -6  201.69    2.50
   4   2  -6  312.52    5.28
   4   2  -6  225.72    4.54
   4   2  -6  250.72    2.92
  -4  -2   5   78.33    3.47
  -4  -2   5  138.32    1.76
  -4  -2   5   64.35    1.48
  -4  -2   5  125.31    3.52
  -4  -2   5   71.06    2.92
  -4   2   5   96.33    2.64
  -4   2   5   72.59    2.96
  -4   2   5   89.94    3.29
   4  -2  -5  141.98    4.31
   4  -2  -5  136.93    3.06
   4  -2  -5   84.11    3.15
   4   2  -5  138.88    4.40
   4   2  -5   99.76    3.56
   4   2  -5   86.89    2.08
  -4  -2   4   90.36    3.33
  -4  -2   4  154.80    1.30
  -4  -2   4   83.09    1.02
  -4  -2   4  149.57    3.61
  -4  -2   4   71.52    2.82
  -4   2   4  119.06    2.96
  -4   2   4   88.97    3.06
  -4   2   4  105.68    3.38
   4  -2  -4  175.68    4.44
   4  -2  -4   83.19    3.01
   4  -2  -4  149.99    2.87
   4  -2  -4   87.31    2.92
   4   2  -4  146.05    4.31
   4   2  -4  106.33    3.33
   4   2  -4  110.68    2.36
  -4  -2   3   35.37    2.55
  -4  -2   3   64.48    2.92
  -4  -2   3   30.46    2.31
  -4   2   3   46.94    2.41
  -4   2   3   24.67    2.18
  -4   2   3   32.36    2.41
   4  -2  -3   64.35    3.38
   4  -2  -3   25.60    2.18
   4  -2  -3   60.64    1.94
   4  -2  -3   30.51    2.36
   4   2  -3   55.50    3.38
   4   2  -3   39.39    2.73
   4   2  -3   36.29    1.85
  -4  -2   2   52.03    2.82
  -4  -2   2   89.99    2.78
  -4  -2   2   38.98    2.27
  -4   2   2   69.16    2.87
  -4   2   2   40.88    2.45
  -4   2   2   81.38    2.41
  -4   2   2   48.93    2.68
   4  -2  -2   93.42    3.61
   4  -2  -2   40.88    2.41
   4  -2  -2   72.40    1.85
   4  -2  -2   52.17    2.64
   4   2  -2   80.59    3.61
   4   2  -2   49.49    2.55
   4   2  -2   65.04    2.18
  -4  -2   1  158.50    3.98
  -4  -2   1  251.27    3.75
  -4  -2   1  127.16    3.47
  -4   2   1  240.21    4.35
  -4   2   1  130.59    3.56
  -4   2   1  208.36    2.45
  -4   2   1  169.75    3.98
  -4   2   1  164.66    1.67
  -4   2   1  148.74    1.57
   4  -2  -1  291.41    5.00
   4  -2  -1  131.05    3.52
   4  -2  -1  186.51    2.22
   4  -2  -1  165.03    3.93
   4   2  -1  245.25    5.05
   4   2  -1  159.01    3.80
   4   2  -1  237.66    4.03
  -4  -2   0  136.42    3.80
  -4  -2   0  200.54    3.33
  -4  -2   0  106.24    3.38
  -4   2   0  194.47    4.26
  -4   2   0  129.76    1.44
  -4   2   0  131.65    3.47
  -4   2   0  156.74    2.13
   4  -2   0  240.30    4.68
   4  -2   0   99.06    3.19
   4  -2   0  113.46    1.34
   4  -2   0  130.26    2.18
   4  -2   0  128.00    3.61
   4   2   0  200.44    4.95
   4   2   0  115.03    3.38
   4   2   0  186.56    3.93
  -4  -2  -1   52.36    3.10
  -4  -2  -1   80.69    1.25
  -4  -2  -1   79.53    2.22
  -4  -2  -1   41.94    2.68
  -4   2  -1   74.81    3.15
  -4   2  -1   51.38    2.50
  -4   2  -1   75.18    1.94
   4  -2   1   90.64    3.84
   4  -2   1   39.02    2.50
   4  -2   1   46.43    2.68
   4   2   1   77.35    4.07
   4   2   1   39.49    0.88
   4   2   1   42.73    2.68
   4   2   1   77.77    2.92
  -4  -2  -2    5.28    1.67
  -4  -2  -2    7.78    0.93
  -4  -2  -2    4.03    1.57
  -4  -2  -2    7.96    1.11
  -4  -2  -2    3.66    1.57
  -4   2  -2    6.57    1.81
  -4   2  -2    4.72    1.57
  -4   2  -2   12.64    1.53
   4  -2   2   12.22    2.22
   4  -2   2    3.89    1.44
   4  -2   2    3.89    1.48
   4   2   2   12.96    2.45
   4   2   2    3.56    0.65
   4   2   2    2.36    1.62
   4   2   2    6.53    1.67
  -4  -2  -3   12.59    2.18
  -4  -2  -3   18.47    1.62
  -4  -2  -3    7.55    1.76
  -4  -2  -3   17.22    1.48
  -4  -2  -3   10.37    1.85
  -4   2  -3   14.03    1.99
  -4   2  -3   11.85    1.90
  -4   2  -3   23.38    1.99
   4  -2   3    9.58    1.48
   4  -2   3   10.69    1.81
   4   2   3   19.91    2.78
   4   2   3    9.58    1.16
   4   2   3    9.63    1.94
   4   2   3   16.20    2.13
  -4  -2  -4   37.26    2.92
  -4  -2  -4   32.13    2.59
  -4  -2  -4   57.31    1.85
  -4  -2  -4   30.18    2.68
  -4   2  -4   68.14    3.70
  -4   2  -4   41.71    2.87
  -4   2  -4   68.97    2.64
   4  -2   4   68.84    3.06
   4  -2   4   28.93    2.55
   4  -2   4   38.19    2.78
   4   2   4   55.41    4.17
   4   2   4   34.58    1.62
   4   2   4   30.18    2.87
   4   2   4   63.47    3.29
  -4  -2  -5   46.62    3.24
  -4  -2  -5   32.73    2.45
  -4  -2  -5   60.60    1.85
  -4  -2  -5   45.97    5.05
  -4   2  -5   66.43    3.38
  -4   2  -5   54.95    3.80
  -4   2  -5   86.80    3.47
   4  -2   5   77.03    3.15
   4   2   5   58.05    4.35
   4   2   5   40.27    1.90
   4   2   5   38.98    3.10
   4   2   5   64.53    4.03
  -4  -2  -6   23.56    2.78
  -4  -2  -6   48.28    1.71
  -4  -2  -6   31.02    3.38
  -4   2  -6   58.79    3.52
  -4   2  -6   38.51    3.19
  -4   2  -6   64.95    3.33
   4  -2   6   58.42    2.96
   4  -2   6   25.23    2.73
   4  -2   6   35.46    3.15
   4   2   6   37.40    2.08
   4   2   6   61.29    3.56
  -4  -2  -7   12.96    2.68
  -4  -2  -7    5.65    2.13
  -4  -2  -7    1.48    2.08
  -4   2  -7   11.39    2.68
  -4   2  -7    7.50    2.27
  -4   2  -7   14.21    2.50
   4  -2   7    7.55    1.67
   4  -2   7    4.35    1.94
   4  -2   7    5.09    2.04
   4  -2   7    4.68    2.13
   4   2   7    6.67    3.43
   4   2   7    8.75    2.31
  -4  -2  -8   82.40    4.54
  -4  -2  -8   56.20    3.43
  -4  -2  -8   67.17    3.89
  -4   2  -8  134.25    5.23
  -4   2  -8   74.85    3.98
  -4   2  -8  145.59    4.86
   4  -2   8  129.43    3.24
   4  -2   8   60.46    3.70
   4  -2   8   84.34    3.89
   4  -2   8   82.72    4.03
   4   2   8  107.91    6.06
   4   2   8   84.76    3.24
   4   2   8  125.96    4.77
  -4  -2  -9   14.12    2.73
  -4  -2  -9   12.08    2.64
  -4  -2  -9   15.69    2.87
  -4   2  -9   34.53    3.89
  -4   2  -9   21.02    2.92
  -4   2  -9   22.73    2.92
   4  -2   9   12.04    2.55
   4  -2   9   16.02    2.59
   4  -2   9   17.96    2.92
   4   2   9   16.48    3.56
   4   2   9   15.65    2.13
   4   2   9   26.57    3.15
  -4  -2 -10   19.77    3.24
  -4  -2 -10   12.22    2.68
  -4  -2 -10   15.37    3.66
  -4   2 -10   33.56    4.12
  -4   2 -10   16.53    2.96
  -4   2 -10   25.28    3.29
   4  -2  10   12.27    2.68
   4  -2  10   16.80    2.59
   4  -2  10   15.60    2.96
   4   2  10   17.54    3.70
   4   2  10   18.47    2.31
   4   2  10   30.83    3.47
  -4  -2 -11   20.88    3.29
  -4  -2 -11   18.42    2.96
  -4   2 -11   17.45    3.52
  -4   2 -11   39.35    4.58
   4  -2  11   19.58    3.56
   4  -2  11   18.15    2.82
   4  -2  11   19.81    3.33
   4   2  11   13.93    3.89
   4   2  11   21.29    2.55
  -4  -2 -12   25.65    3.56
  -4  -2 -12   11.06    2.87
  -4  -2 -12   28.98    4.26
  -4   2 -12   25.37    4.44
  -4   2 -12   18.75    3.43
  -4   2 -12   41.20    4.40
   4  -2  12   19.21    3.43
   4  -2  12   22.87    3.29
   4  -2  12   26.06    4.07
   4   2  12   29.86    4.44
   4   2  12   22.27    2.96
   4   2  12   32.31    3.98
  -4  -3  14    7.41    3.33
  -4  -3  14   10.00    3.01
  -4  -3  14   11.90    3.19
  -4   3  14   10.51    3.01
  -4   3  14   11.43    3.33
  -4   3  14   11.02    3.24
   4  -3 -14   12.13    4.31
   4   3 -14   14.67    3.61
   4   3 -14   16.99    4.31
  -4  -3  13    0.42    3.01
  -4  -3  13   -0.09    2.18
  -4  -3  13    3.93    3.15
  -4   3  13    7.64    2.55
  -4   3  13    4.77    3.29
   4  -3 -13   -0.93    4.07
   4  -3 -13    3.66    3.47
   4  -3 -13    4.35    2.78
   4   3 -13    5.18    4.21
   4   3 -13    5.09    3.19
  -4  -3  12   14.26    3.19
  -4  -3  12   11.57    2.04
  -4  -3  12   15.79    2.73
  -4   3  12   13.89    2.64
  -4   3  12   22.78    3.15
  -4   3  12   15.42    2.92
   4  -3 -12    7.22    3.24
   4  -3 -12   18.75    3.61
   4  -3 -12   12.96    2.68
   4   3 -12   22.87    3.47
   4   3 -12   25.09    3.66
   4   3 -12   13.89    2.92
  -4  -3  11   48.93    4.72
  -4  -3  11   47.26    4.86
  -4  -3  11   63.05    4.35
  -4   3  11   51.34    3.19
  -4   3  11   58.23    3.70
  -4   3  11   56.71    4.07
   4  -3 -11   66.75    4.63
   4  -3 -11   59.72    4.68
   4  -3 -11   44.76    3.75
   4   3 -11   86.80    5.18
   4   3 -11   68.74    4.91
   4   3 -11   59.02    4.40
  -4  -3  10   31.20    3.33
  -4  -3  10   32.73    2.13
  -4  -3  10   48.19    3.98
  -4   3  10   34.58    3.38
  -4   3  10   30.46    3.70
  -4   3  10   37.31    3.70
   4  -3 -10   51.66    4.68
   4  -3 -10   40.55    3.75
   4  -3 -10   34.72    3.52
   4   3 -10   56.80    4.86
   4   3 -10   43.10    4.26
   4   3 -10   31.29    3.43
  -4  -3   9    5.46    2.31
  -4  -3   9    3.52    1.06
  -4  -3   9    7.68    2.31
  -4  -3   9    5.14    2.45
  -4   3   9    4.49    1.99
  -4   3   9   10.14    2.27
  -4   3   9    3.29    2.45
   4  -3  -9    6.99    2.64
   4  -3  -9    6.48    2.96
   4  -3  -9    4.40    2.08
   4   3  -9   10.88    2.64
   4   3  -9   10.28    2.68
   4   3  -9    9.77    2.59
  -4  -3   8    8.43    2.27
  -4  -3   8    8.01    1.06
  -4  -3   8   14.49    2.41
  -4  -3   8    5.56    2.04
  -4   3   8    8.15    1.25
  -4   3   8    9.12    1.81
  -4   3   8   11.30    2.41
   4  -3  -8   10.14    2.82
   4  -3  -8   11.34    2.36
   4  -3  -8    8.24    2.13
   4   3  -8   13.93    2.87
   4   3  -8   13.79    2.68
   4   3  -8    8.52    2.18
  -4  -3   7    9.30    2.31
  -4  -3   7   11.76    2.50
  -4  -3   7   10.55    2.18
  -4   3   7   11.39    1.39
  -4   3   7    9.21    2.08
  -4   3   7   10.28    2.59
   4  -3  -7   15.32    2.78
   4  -3  -7   11.76    2.27
   4  -3  -7   12.68    1.94
   4   3  -7   13.33    2.73
   4   3  -7   17.13    2.59
   4   3  -7   11.34    2.45
  -4  -3   6    6.85    2.08
  -4  -3   6   13.29    2.22
  -4   3   6   11.43    1.57
  -4   3   6    6.90    1.57
   4  -3  -6   17.87    2.68
   4  -3  -6   14.21    2.13
   4  -3  -6    5.18    1.90
   4   3  -6   10.60    2.55
   4   3  -6    7.41    2.13
   4   3  -6    9.12    1.02
  -4  -3   5   18.52    2.59
  -4  -3   5   29.02    3.38
  -4  -3   5   12.50    2.41
  -4   3   5   18.79    2.13
  -4   3   5   11.16    1.94
   4  -3  -5   21.11    4.54
   4  -3  -5   18.89    2.55
   4  -3  -5   13.93    2.08
   4   3  -5   21.39    2.87
   4   3  -5    7.78    2.13
   4   3  -5   15.23    1.57
  -4  -3   4  222.52    5.37
  -4  -3   4  328.30    5.18
  -4  -3   4  166.93    4.40
  -4   3   4  310.66    5.32
  -4   3   4  179.70    4.63
   4  -3  -4  349.92    6.43
   4  -3  -4  187.06    4.72
   4  -3  -4  238.12    3.89
   4  -3  -4  220.63    5.05
   4   3  -4  320.62    6.53
   4   3  -4  272.10    3.66
  -4  -3   3  149.94    5.18
  -4  -3   3  214.52    4.40
  -4  -3   3  108.83    3.75
  -4   3   3  214.84    4.54
  -4   3   3  114.06    4.54
  -4   3   3  144.48    4.63
   4  -3  -3  225.35    5.37
   4  -3  -3  104.34    4.12
   4  -3  -3  151.28    3.06
   4  -3  -3  131.65    4.72
   4   3  -3  229.47    6.57
   4   3  -3  136.10    6.53
   4   3  -3  197.67    3.52
  -4  -3   2  197.02    4.86
  -4  -3   2  107.03    3.93
  -4   3   2  206.83    4.54
   4  -3  -2  215.58    5.18
   4  -3  -2  135.17    2.64
   4  -3  -2  120.87    4.72
   4   3  -2  215.72    9.26
   4   3  -2  123.00    3.98
   4   3  -2  183.59    3.66
  -4  -3   1  252.52    4.03
  -4  -3   1  140.31    4.35
  -4   3   1  266.32    5.00
  -4   3   1  117.86    4.26
  -4   3   1  291.82    2.55
   4  -3  -1  258.72    5.51
   4  -3  -1  146.47    2.41
   4  -3  -1  133.37    4.86
   4   3  -1  144.89    4.21
   4   3  -1  245.67    4.31
  -4  -3   0   39.49    2.18
  -4  -3   0   18.10    2.64
  -4   3   0   44.16    3.33
  -4   3   0   22.17    2.41
  -4   3   0   51.52    1.81
   4  -3   0   41.20    3.98
   4  -3   0   13.15    1.99
   4  -3   0   17.73    1.20
   4  -3   0   18.56    2.59
   4   3   0   37.36    4.49
   4   3   0   24.77    2.87
   4   3   0   39.86    3.01
  -4  -3  -1   28.75    2.87
  -4   3  -1   58.47    3.61
  -4   3  -1   32.03    2.92
  -4   3  -1   63.60    2.18
   4  -3   1   40.88    3.84
   4  -3   1   22.45    2.13
   4  -3   1   25.55    2.68
   4   3   1   55.09    3.98
   4   3   1   26.29    2.82
   4   3   1   52.87    2.96
  -4  -3  -2   76.20    3.80
  -4  -3  -2  133.09    2.64
  -4  -3  -2   63.74    3.66
  -4   3  -2  155.22    4.44
  -4   3  -2   96.10    3.84
  -4   3  -2  204.42    3.43
   4  -3   2  139.25    4.44
   4  -3   2   69.30    2.96
   4  -3   2   85.22    3.70
   4   3   2  122.40    4.86
   4   3   2   69.16    3.89
   4   3   2  146.74    4.12
  -4  -3  -3   54.86    4.40
  -4  -3  -3   75.92    1.99
  -4  -3  -3   40.41    3.47
  -4   3  -3   90.87    4.35
  -4   3  -3   55.60    3.47
  -4   3  -3  122.44    3.29
   4  -3   3   79.62    4.12
   4  -3   3   42.82    2.96
   4  -3   3   54.62    3.38
   4   3   3   61.75    4.81
   4   3   3   88.37    3.70
  -4  -3  -4   58.23    4.03
  -4  -3  -4   39.95    3.47
  -4  -3  -4   43.38    3.29
  -4   3  -4   97.49    4.31
  -4   3  -4   47.96    3.43
  -4   3  -4  123.69    3.89
   4  -3   4   78.79    4.03
   4  -3   4   40.37    2.59
   4  -3   4   48.56    3.47
   4   3   4   67.72    5.09
   4   3   4   39.95    3.98
   4   3   4   84.62    3.93
  -4  -3  -5   22.68    3.01
  -4  -3  -5   22.17    2.73
  -4  -3  -5   13.56    2.55
  -4   3  -5   33.10    4.12
  -4   3  -5   16.85    2.59
  -4   3  -5   35.60    3.33
   4  -3   5   19.12    2.36
   4  -3   5   11.62    2.18
   4  -3   5   13.33    2.36
   4   3   5   17.17    3.19
   4   3   5    9.77    2.73
   4   3   5   30.83    3.56
  -4  -3  -6  102.81    4.81
  -4  -3  -6   72.22    3.70
  -4  -3  -6   77.08    4.07
  -4   3  -6  161.56    5.69
  -4   3  -6   96.06    4.40
  -4   3  -6  215.72    4.91
   4  -3   6  138.69    3.66
   4  -3   6   81.70    3.93
   4  -3   6   85.13    4.17
   4  -3   6   87.07    4.17
   4   3   6  130.36    6.16
   4   3   6   71.84    4.21
   4   3   6  158.73    5.18
  -4  -3  -7    2.92    2.50
  -4  -3  -7    0.42    2.31
  -4  -3  -7    1.39    2.68
  -4   3  -7    6.43    3.15
  -4   3  -7    0.56    2.36
  -4   3  -7    4.91    2.50
   4  -3   7    2.87    2.13
   4  -3   7    5.42    2.50
   4  -3   7    2.22    2.36
   4   3   7    3.70    3.61
   4   3   7   -2.45    1.39
   4   3   7    4.95    2.78
  -4  -3  -8   11.53    2.87
  -4  -3  -8   14.35    2.87
  -4  -3  -8   12.04    3.10
  -4   3  -8   25.00    3.80
  -4   3  -8   16.71    3.06
  -4   3  -8   30.23    3.33
   4  -3   8   10.05    2.45
   4  -3   8   12.41    2.82
   4  -3   8    9.30    2.78
   4   3   8   11.53    4.07
   4   3   8   16.02    2.22
   4   3   8   23.47    3.43
  -4  -3  -9   -0.88    2.68
  -4  -3  -9    0.37    2.73
  -4   3  -9   -2.82    2.73
  -4   3  -9   -0.05    2.92
   4  -3   9   -1.94    3.70
   4  -3   9    2.87    2.59
   4  -3   9   -0.69    2.59
   4   3   9    3.80    4.07
   4   3   9    4.44    2.96
  -4  -3 -10   23.33    3.38
  -4  -3 -10   17.04    3.61
  -4  -3 -10   27.17    4.07
  -4   3 -10   43.56    5.18
  -4   3 -10   51.85    4.91
   4  -3  10   23.10    3.29
   4  -3  10   29.21    3.52
   4   3  10   23.75    4.81
   4   3  10   42.17    4.86
  -4  -4  12   19.67    3.98
  -4  -4  12   14.54    3.56
  -4   4  12   15.74    3.10
  -4   4  12   21.94    3.52
  -4   4  12   14.91    3.75
   4  -4 -12   21.71    4.63
   4  -4 -12    6.48    4.31
   4  -4 -12   18.38    3.61
   4   4 -12   20.28    3.84
   4   4 -12   20.18    3.84
   4   4 -12   16.34    3.93
  -4  -4  11    3.19    3.56
  -4  -4  11    3.33    3.47
  -4   4  11    3.10    2.55
  -4   4  11    4.35    2.73
  -4   4  11    2.96    3.06
   4  -4 -11    3.06    3.89
   4  -4 -11    6.90    3.61
   4  -4 -11    3.33    2.96
   4   4 -11    5.51    3.43
   4   4 -11    8.43    3.29
   4   4 -11   -0.14    5.42
  -4  -4  10    7.55    3.15
  -4   4  10   11.76    4.31
  -4   4  10    9.67    2.92
  -4   4  10   13.47    5.28
   4  -4 -10   13.24    3.33
   4   4 -10   23.24    3.93
   4   4 -10   13.84    3.61
  -4  -4   9    6.90    2.87
  -4  -4   9   13.38    3.38
  -4  -4   9   11.48    3.10
  -4   4   9    7.96    2.45
  -4   4   9   15.28    2.73
  -4   4   9    4.49    2.59
   4  -4  -9    7.68    3.80
   4  -4  -9   15.18    3.06
   4  -4  -9    7.45    2.59
   4   4  -9   15.69    3.70
   4   4  -9    9.81    3.01
   4   4  -9    4.95    2.82
  -4  -4   8   25.88    3.75
  -4  -4   8   30.78    3.29
  -4  -4   8   18.61    3.24
  -4   4   8   19.30    2.82
  -4   4   8   27.31    3.19
  -4   4   8   20.32    3.29
   4  -4  -8   21.48    3.52
   4  -4  -8   24.53    3.19
   4  -4  -8   23.24    3.01
   4   4  -8   28.93    4.03
   4   4  -8   25.60    3.33
   4   4  -8   13.47    3.01
  -4  -4   7   39.53    4.07
  -4  -4   7   51.57    3.98
  -4  -4   7   34.58    4.31
  -4   4   7   39.90    3.56
  -4   4   7   42.08    3.61
   4  -4  -7   55.46    5.56
   4  -4  -7   45.97    4.03
   4  -4  -7   42.77    3.80
   4   4  -7   75.69    5.51
   4   4  -7   41.06    3.93
   4   4  -7   41.15    3.89
  -4  -4   6   25.00    3.38
  -4  -4   6   34.21    3.47
  -4  -4   6   18.52    2.96
  -4   4   6   31.85    3.33
  -4   4   6   23.84    2.73
  -4   4   6   25.23    2.87
   4  -4  -6   43.42    5.14
   4  -4  -6   30.97    3.52
   4  -4  -6   29.63    3.61
   4   4  -6   36.25    3.84
   4   4  -6   30.83    3.29
   4   4  -6   32.27    3.84
  -4  -4   5   20.04    3.06
  -4  -4   5   27.87    4.68
  -4  -4   5   17.91    2.78
  -4   4   5   17.64    2.55
  -4   4   5   23.61    2.78
   4  -4  -5   40.41    4.95
   4  -4  -5   26.02    2.68
   4  -4  -5   19.91    2.87
   4   4  -5   29.63    4.07
   4   4  -5   25.14    3.15
  -4  -4   4   16.53    3.10
  -4  -4   4   19.16    2.55
  -4  -4   4   14.03    2.78
  -4   4   4   23.47    2.64
  -4   4   4   10.83    2.18
  -4   4   4   19.58    2.64
   4  -4  -4   29.58    3.56
   4  -4  -4   16.29    2.27
   4  -4  -4   18.10    2.73
   4   4  -4   27.64    3.89
   4   4  -4   16.48    2.78
   4   4  -4   24.58    2.41
  -4  -4   3    6.99    2.41
  -4  -4   3    7.55    2.18
  -4  -4   3    1.57    2.18
  -4   4   3    8.61    2.45
  -4   4   3    2.64    1.85
  -4   4   3    5.28    2.36
   4  -4  -3    6.48    3.01
   4  -4  -3    0.37    1.99
   4  -4  -3    4.31    2.08
   4   4  -3   11.71    3.70
   4   4  -3    8.93    2.36
   4   4  -3    5.83    1.81
  -4  -4   2    7.96    2.73
  -4  -4   2    7.82    1.99
  -4  -4   2    3.29    2.18
  -4   4   2   12.59    2.68
  -4   4   2    3.80    1.53
  -4   4   2    3.89    2.27
   4  -4  -2    5.74    2.96
   4  -4  -2    2.08    1.62
   4  -4  -2    2.36    1.48
   4  -4  -2    5.97    2.18
   4   4  -2    7.13    3.61
   4   4  -2    7.68    2.55
   4   4  -2    7.64    2.13
  -4  -4   1   -0.46    2.50
  -4  -4   1    1.62    2.27
  -4   4   1    5.60    2.59
  -4   4   1    2.64    1.53
  -4   4   1    3.29    2.18
   4  -4  -1    4.63    3.29
   4  -4  -1   -2.27    1.81
   4  -4  -1    1.71    1.25
   4  -4  -1    1.20    2.08
   4   4  -1    4.68    3.33
   4   4  -1    0.51    2.41
   4   4  -1    7.50    2.18
  -4  -4   0   69.48    4.21
  -4  -4   0   93.42    2.92
  -4  -4   0   58.74    4.12
  -4   4   0   55.04    3.56
  -4   4   0   60.18    3.93
   4  -4   0  108.00    5.05
   4  -4   0   52.45    3.66
   4  -4   0   64.90    3.89
   4   4   0   90.32    5.18
   4   4   0   61.06    4.31
   4   4   0  118.41    4.03
  -4  -4  -1    9.58    2.78
  -4  -4  -1    9.58    2.50
  -4  -4  -1   11.16    2.87
  -4   4  -1   16.90    2.82
  -4   4  -1    9.07    2.59
  -4   4  -1   27.36    3.43
   4  -4   1   15.92    2.82
   4  -4   1    6.57    2.22
   4  -4   1   10.74    2.45
   4   4   1   11.39    3.29
   4   4   1    7.08    2.45
   4   4   1   13.79    2.41
  -4  -4  -2   41.80    3.80
  -4  -4  -2   23.84    3.06
  -4  -4  -2   26.71    3.10
  -4   4  -2   72.77    4.63
  -4   4  -2   34.02    3.66
  -4   4  -2  102.07    3.61
   4  -4   2   54.21    4.63
   4  -4   2   23.24    2.82
   4  -4   2   36.89    3.70
   4   4   2   56.48    5.79
   4   4   2   30.55    3.33
   4   4   2   63.60    5.46
  -4  -4  -3   37.45    4.63
  -4  -4  -3   32.73    3.75
  -4  -4  -3   22.73    2.92
  -4   4  -3   56.85    4.31
  -4   4  -3   39.76    3.89
  -4   4  -3   97.63    4.03
   4  -4   3   54.44    4.54
   4  -4   3   24.21    2.73
   4  -4   3   34.67    3.66
   4   4   3   47.54    5.88
   4   4   3   27.77    3.47
   4   4   3   53.10    4.07
  -4  -4  -4   41.76    4.77
  -4  -4  -4   18.79    3.01
  -4  -4  -4   23.61    3.43
  -4   4  -4   48.88    4.40
  -4   4  -4   25.09    3.33
  -4   4  -4   74.44    4.07
   4  -4   4   41.15    4.26
   4  -4   4   21.53    2.96
   4  -4   4   25.28    3.43
   4   4   4   24.26    4.12
   4   4   4   24.21    3.24
   4   4   4   43.05    4.03
  -4  -4  -5   33.56    3.61
  -4  -4  -5   28.28    3.66
  -4  -4  -5   18.66    3.24
  -4   4  -5   56.38    5.37
  -4   4  -5   28.52    3.52
  -4   4  -5   88.83    4.49
   4  -4   5   34.44    3.70
   4  -4   5   32.73    3.38
   4   4   5   52.26    6.30
   4   4   5   13.33    3.10
   4   4   5   56.11    4.91
  -4  -4  -6    6.53    2.68
  -4  -4  -6   -1.44    2.96
  -4   4  -6    1.44    3.66
  -4   4  -6    7.64    2.96
   4  -4   6    0.32    2.59
   4   4   6    7.59    7.04
   4   4   6   -2.64    3.19
   4   4   6    4.03    3.15
  -4  -4  -7    6.80    3.06
  -4  -4  -7    4.77    3.06
  -4  -4  -7    0.60    3.33
  -4   4  -7    6.71    4.40
  -4   4  -7   -1.62    2.92
  -4   4  -7    4.77    3.06
   4  -4   7    1.62    1.99
   4  -4   7    1.20    2.64
   4  -4   7    1.02    3.10
   4   4   7    9.40    5.00
   4   4   7   -0.09    3.75
   4   4   7    6.30    3.19
  -4  -4  -8   14.77    3.38
  -4  -4  -8    9.44    3.75
  -4   4  -8   30.83    4.86
  -4   4  -8   14.72    3.66
  -4   4  -8   19.03    3.52
   4  -4   8   11.85    3.10
   4  -4   8   12.31    3.24
   4  -4   8   11.80    3.10
   4   4   8   22.91    5.23
   4   4   8   16.57    3.70
  -4  -5   7    1.81    3.75
  -4  -5   7    0.83    2.68
  -4  -5   7    3.93    3.66
  -4   5   7    3.70    2.64
  -4   5   7   -3.66    2.73
  -4   5   7    0.93    3.19
   4  -5  -7   -1.94    4.21
   4  -5  -7    2.13    3.19
   4  -5  -7    8.75    3.24
   4   5  -7    2.18    5.18
   4   5  -7    3.01    3.61
   4   5  -7    5.74    3.56
  -4  -5   6   14.86    4.07
  -4  -5   6   16.11    3.24
  -4  -5   6   11.06    3.70
  -4   5   6    8.93    2.82
  -4   5   6    8.98    3.01
  -4   5   6   15.97    3.61
   4  -5  -6   20.32    4.77
   4  -5  -6   17.64    3.47
   4  -5  -6   10.69    3.29
   4   5  -6   26.57    5.23
   4   5  -6   16.53    3.84
   4   5  -6   14.49    3.89
  -4  -5   5   18.84    3.70
  -4  -5   5   24.53    3.15
  -4  -5   5   17.31    3.93
  -4   5   5   17.50    3.01
  -4   5   5   13.56    3.06
   4  -5  -5   27.73    8.33
   4  -5  -5   16.71    3.70
   4  -5  -5   17.87    3.33
   4   5  -5   28.75    4.91
   4   5  -5   22.64    3.70
   4   5  -5   17.87    4.03
  -4  -5   4   22.17    3.89
  -4  -5   4   26.57    3.24
  -4  -5   4   20.69    3.80
  -4   5   4   16.76    2.96
  -4   5   4   20.28    3.24
   4  -5  -4   34.58    4.72
   4  -5  -4   21.39    2.87
   4  -5  -4   21.99    3.52
   4   5  -4   20.83    5.09
   4   5  -4   22.73    3.70
  -4  -5   3   94.11    4.26
  -4  -5   3   67.54    5.32
  -4   5   3  133.18    5.37
  -4   5   3   52.08    4.26
  -4   5   3   88.93    4.91
   4  -5  -3  114.57    6.94
   4  -5  -3   61.01    3.84
   4  -5  -3   80.08    5.18
   4   5  -3  128.18    7.82
   4   5  -3   86.57    5.23
  -4  -5   2   18.29    3.61
  -4   5   2   23.05    3.47
  -4   5   2    5.65    2.64
  -4   5   2   13.29    3.15
   4  -5  -2   14.67    3.89
   4  -5  -2    8.84    2.36
   4  -5  -2   10.55    3.70
   4   5  -2   34.67    6.48
   4   5  -2   15.23    3.80
  -4  -5   1    6.30    3.84
  -4  -5   1    6.20    3.29
  -4   5   1    2.50    3.15
  -4   5   1    0.88    2.45
  -4   5   1   -0.19    2.78
   4  -5  -1   10.79    3.75
   4  -5  -1    0.28    2.55
   4   5  -1    4.91    3.15
   4   5  -1    4.68    2.50
  -4  -5   0   71.38    6.02
  -4  -5   0   53.10    4.81
  -4   5   0  104.34    5.65
  -4   5   0   48.05    4.35
   4  -5   0   80.50    6.02
   4  -5   0   56.34    4.49
   4   5   0   87.35    8.61
   4   5   0   55.09    4.86
   4   5   0  112.12    5.09
  -4  -5  -1   23.56    3.98
  -4  -5  -1   11.76    3.24
  -4   5  -1   32.91    4.44
  -4   5  -1   10.69    3.01
  -4   5  -1   21.94    3.75
   4  -5   1   29.21    3.84
   4  -5   1   15.46    3.19
   4   5   1   32.40    5.46
   4   5   1   16.48    3.61
   4   5   1   28.70    3.47
  -4  -5  -2   14.40    3.52
  -4  -5  -2    6.06    3.33
  -4  -5  -2   11.94    3.89
  -4   5  -2   19.54    3.93
  -4   5  -2    5.28    3.01
  -4   5  -2   13.52    3.61
   4  -5   2   17.96    3.70
   4  -5   2    8.89    3.06
   4   5   2   19.30    5.32
   4   5   2    9.30    3.52
   4   5   2   16.90    3.01
  -4  -5  -3   12.55    3.29
  -4  -5  -3   10.92    3.61
  -4  -5  -3   12.45    3.56
  -4   5  -3   38.10    4.63
  -4   5  -3   22.64    4.03
   4  -5   3   12.17    3.10
   4   5   3   14.44    4.72
   4   5   3   12.64    3.61
   4   5   3   24.35    3.84
  -5   0  16   23.24    3.70
  -5   0  16   25.78    3.93
   5   0 -16   24.49    4.21
  -5   0  15   18.84    3.19
  -5   0  15   20.92    3.66
   5   0 -15   24.21    3.75
   5   0 -15   11.16    4.26
   5   0 -15   31.89    4.31
  -5   0  14    4.77    2.45
  -5   0  14    7.04    2.50
  -5   0  14    3.01    3.01
  -5   0  14    5.69    2.04
   5   0 -14    6.71    3.10
   5   0 -14    5.00    3.19
   5   0 -14   12.78    2.55
  -5   0  13   13.56    2.50
  -5   0  13   30.14    3.43
  -5   0  13   27.08    3.33
  -5   0  13   19.72    2.31
   5   0 -13   22.87    3.24
   5   0 -13   44.81    4.31
   5   0 -13   48.05    3.47
   5   0 -13   16.25    2.22
  -5   0  12  124.99    4.44
  -5   0  12  197.94    5.28
  -5   0  12  164.20    5.32
  -5   0  12  126.42    3.84
   5   0 -12  185.86    5.88
   5   0 -12  301.87    6.80
   5   0 -12  123.55    3.66
  -5   0  11   79.11    4.12
  -5   0  11  129.85    4.07
  -5   0  11  124.11    4.68
   5   0 -11  134.80    5.46
   5   0 -11  219.38    5.83
   5   0 -11  189.93    3.80
   5   0 -11   85.50    3.15
  -5   0  10  156.98    4.40
  -5   0  10  229.33    4.72
  -5   0  10  212.94    5.32
   5   0 -10  266.08    6.43
   5   0 -10  409.17    6.71
   5   0 -10  307.93    4.17
   5   0 -10  150.49    3.70
  -5   0   9  129.71    4.07
  -5   0   9  195.40    4.49
  -5   0   9  188.55    4.68
   5   0  -9  238.08    5.83
   5   0  -9  340.01    5.97
   5   0  -9  229.00    3.52
   5   0  -9  130.73    3.52
  -5   0   8   31.02    3.19
  -5   0   8   39.44    2.50
  -5   0   8   41.01    3.10
   5   0  -8   56.15    4.07
   5   0  -8   87.17    3.93
   5   0  -8   46.15    2.08
   5   0  -8   29.63    2.50
  -5   0   7   37.13    3.15
  -5   0   7   43.98    2.45
   5   0  -7  101.75    3.84
   5   0  -7   43.75    1.94
   5   0  -7   34.58    2.31
  -5   0   6  110.78    3.66
  -5   0   6  130.96    3.43
  -5   0   6  155.68    4.21
   5   0  -6  222.20    5.83
   5   0  -6  282.43    4.95
   5   0  -6  112.16    2.41
   5   0  -6  102.12    3.19
  -5   0   5  283.49    5.14
  -5   0   5  355.61    5.74
  -5   0   5  237.01    3.10
   5   0  -5  521.06    7.31
   5   0  -5  646.97    6.62
   5   0  -5  249.47    3.24
   5   0  -5  270.25    4.49
  -5   0   4  239.79    4.72
  -5   0   4  232.25    3.89
  -5   0   4  299.32    5.23
  -5   0   4  195.95    2.87
   5   0  -4  425.74    6.43
   5   0  -4  227.48    4.26
  -5   0   3   81.24    3.70
  -5   0   3   64.16    2.41
  -5   0   3   91.15    3.38
  -5   0   3   59.16    1.94
   5   0  -3  134.57    4.40
   5   0  -3  145.96    3.24
   5   0  -3   68.56    2.92
  -5   0   2   15.23    2.22
  -5   0   2    8.01    1.34
  -5   0   2   11.30    1.90
  -5   0   2    7.64    1.11
   5   0  -2   24.21    2.59
   5   0  -2    8.43    1.34
   5   0  -2   14.67    1.62
   5   0  -2   10.51    1.71
  -5   0   1   54.81    3.19
  -5   0   1   41.34    1.99
  -5   0   1   57.26    2.87
  -5   0   1   34.77    1.81
   5   0  -1   89.16    4.03
   5   0  -1   37.96    2.13
   5   0  -1   76.98    2.31
   5   0  -1   53.05    2.87
  -5   0   0   22.31    2.55
  -5   0   0   24.12    2.73
  -5   0   0   20.46    1.85
   5   0   0   39.53    3.66
   5   0   0   17.82    1.71
   5   0   0   32.50    1.81
   5   0   0   22.73    2.50
  -5   0  -1   28.05    3.10
  -5   0  -1   28.05    2.55
  -5   0  -1   21.43    2.08
   5   0   1   46.38    3.84
   5   0   1   18.75    2.18
   5   0   1   33.75    1.76
   5   0   1   32.64    2.68
  -5   0  -2    6.99    1.85
  -5   0  -2    8.52    1.81
   5   0   2   22.08    2.82
   5   0   2    4.44    1.34
   5   0   2   11.57    1.25
   5   0   2   11.11    2.08
  -5   0  -3    2.45    1.85
  -5   0  -3   -2.27    1.76
  -5   0  -3   -0.14    1.62
   5   0   3   -2.96    2.31
   5   0   3   -1.06    1.30
   5   0   3    0.00    0.97
   5   0   3   -1.20    1.62
  -5   0  -4   13.38    2.36
  -5   0  -4   13.15    2.04
  -5   0  -4   14.54    2.22
   5   0   4   23.05    3.01
   5   0   4   11.48    1.90
   5   0   4   10.83    1.25
   5   0   4   18.29    2.27
  -5   0  -5   81.80    4.40
  -5   0  -5   72.91    3.56
  -5   0  -5   67.68    3.47
   5   0   5  118.97    5.18
   5   0   5   60.60    3.29
   5   0   5   62.73    2.04
   5   0   5   88.65    3.84
  -5   0  -6    9.17    2.64
  -5   0  -6    7.78    2.04
  -5   0  -6    4.95    2.27
   5   0   6   11.39    2.87
   5   0   6    5.18    1.94
   5   0   6    3.84    2.13
  -5   0  -7    3.61    2.55
  -5   0  -7   -0.79    1.90
  -5   0  -7    0.46    2.18
   5   0   7    3.66    2.68
   5   0   7    1.25    2.08
  -5   0  -8   21.53    3.24
  -5   0  -8   16.39    2.45
  -5   0  -8   21.57    3.06
   5   0   8   31.20    3.47
   5   0   8   11.48    2.45
   5   0   8   20.83    3.06
  -5   0  -9   61.89    5.46
  -5   0  -9   48.33    3.70
  -5   0  -9   53.33    4.58
   5   0   9  101.93    5.65
   5   0   9   48.24    3.56
   5   0   9   61.29    4.40
  -5   0 -10    6.20    2.92
  -5   0 -10    5.23    2.87
   5   0  10   18.01    3.33
   5   0  10    4.21    2.78
   5   0  10    7.36    2.92
  -5   0 -11   12.22    4.21
  -5   0 -11   13.66    2.78
   5   0  11    5.74    2.64
   5   0  11    9.91    3.29
  -5  -1  15    7.96    2.96
  -5  -1  15    4.81    2.55
  -5  -1  15    3.47    3.15
  -5   1  15    9.44    3.10
  -5   1  15    6.16    2.68
   5  -1 -15    2.87    3.52
   5  -1 -15   -2.27    5.65
   5   1 -15   10.09    3.47
   5   1 -15    6.30    3.61
   5   1 -15   11.20    3.15
  -5  -1  14   22.27    3.01
  -5  -1  14   33.89    3.47
  -5  -1  14   31.34    6.16
  -5   1  14   42.68    4.81
  -5   1  14   31.85    3.66
  -5   1  14   23.05    2.96
   5  -1 -14   35.18    4.12
   5  -1 -14   38.84    4.03
   5  -1 -14   22.13    3.24
   5   1 -14   29.58    3.75
   5   1 -14   46.11    5.56
   5   1 -14   49.35    5.28
  -5  -1  13   11.43    2.68
  -5  -1  13   12.96    3.01
  -5   1  13   16.66    3.06
  -5   1  13   19.12    3.15
   5  -1 -13    9.30    3.24
   5  -1 -13   17.22    3.29
   5  -1 -13   14.07    2.87
   5   1 -13   18.01    3.38
   5   1 -13   32.96    4.07
   5   1 -13   15.88    2.78
  -5  -1  12   29.26    3.38
  -5  -1  12   30.51    3.33
  -5   1  12   22.13    2.78
  -5   1  12   27.08    3.19
  -5   1  12   16.34    2.68
   5  -1 -12   21.99    3.66
   5  -1 -12   27.77    3.56
   5  -1 -12   13.66    2.31
   5   1 -12   23.28    3.24
   5   1 -12   43.93    4.26
   5   1 -12   25.51    2.87
  -5  -1  11   98.23    6.20
  -5  -1  11  160.45    4.31
  -5  -1  11  125.77    4.86
  -5   1  11  119.43    4.40
  -5   1  11  117.53    4.58
   5  -1 -11  137.67    5.74
   5  -1 -11  180.44    5.69
   5  -1 -11   88.19    3.80
   5   1 -11  153.83    5.79
   5   1 -11  217.11    6.02
   5   1 -11  110.96    3.84
   5   1 -11   87.17    2.50
  -5  -1  10  116.15    4.49
  -5  -1  10  214.84    4.17
  -5  -1  10  178.73    5.14
  -5   1  10  110.45    4.54
  -5   1  10  150.12    4.49
  -5   1  10  168.78    5.00
   5  -1 -10  207.34    6.11
   5  -1 -10  227.11    8.52
   5  -1 -10  123.78    4.03
   5   1 -10  219.19    6.02
   5   1 -10  261.64    5.83
   5   1 -10  146.42    3.93
   5   1 -10  114.57    2.73
  -5  -1   9   42.26    3.47
  -5  -1   9   49.67    2.73
  -5  -1   9   45.04    3.52
  -5   1   9   36.15    3.33
  -5   1   9   34.49    2.96
  -5   1   9   42.40    3.33
   5  -1  -9   60.64    4.31
   5  -1  -9   82.72    3.80
   5  -1  -9   24.86    2.50
   5   1  -9   54.90    4.58
   5   1  -9   63.74    3.70
   5   1  -9   37.82    3.01
   5   1  -9   24.86    1.94
  -5  -1   8  111.29    4.07
  -5  -1   8  191.23    3.61
  -5  -1   8  171.14    4.77
  -5   1   8  123.14    3.84
  -5   1   8  129.57    3.93
  -5   1   8  147.90    4.44
   5  -1  -8  208.73    5.60
   5  -1  -8  267.10    5.37
   5  -1  -8  115.13    3.61
   5   1  -8  198.08    5.74
   5   1  -8  211.41    6.11
   5   1  -8  114.06    3.56
   5   1  -8  106.42    2.82
  -5  -1   7   38.38    3.33
  -5  -1   7   58.79    2.31
  -5   1   7   41.15    3.06
  -5   1   7   43.05    2.87
  -5   1   7   53.65    3.19
   5  -1  -7   65.36    3.80
   5  -1  -7  105.13    3.75
   5  -1  -7   36.71    2.68
   5   1  -7   70.32    5.79
   5   1  -7   74.85    3.47
   5   1  -7   36.57    3.15
   5   1  -7   36.85    2.08
  -5  -1   6   84.11    3.75
  -5  -1   6  119.66    2.68
  -5  -1   6  130.50    4.03
  -5  -1   6   74.99    3.24
  -5   1   6   91.52    3.52
  -5   1   6   86.10    3.33
  -5   1   6  112.26    4.68
   5  -1  -6  216.09    4.35
   5  -1  -6   79.62    3.19
   5   1  -6  141.84    4.03
   5   1  -6   81.89    2.68
  -5  -1   5   14.77    2.22
  -5  -1   5   16.53    1.53
  -5  -1   5   19.63    2.22
  -5  -1   5   13.38    1.71
  -5   1   5   13.98    2.04
  -5   1   5   13.61    1.90
  -5   1   5   16.25    2.55
   5  -1  -5   33.89    5.09
   5  -1  -5   33.93    2.82
   5  -1  -5   12.27    1.81
   5   1  -5   27.40    3.70
   5   1  -5   20.97    2.55
  -5  -1   4   70.04    3.56
  -5  -1   4   73.79    2.04
  -5  -1   4   90.69    3.47
  -5  -1   4   58.88    2.45
  -5   1   4   74.34    3.19
  -5   1   4   59.16    2.82
  -5   1   4   83.83    3.43
   5  -1  -4  121.75    4.40
   5  -1  -4  163.87    3.29
   5  -1  -4   62.96    3.06
   5   1  -4  109.39    4.54
   5   1  -4   92.26    3.29
   5   1  -4   69.16    2.96
  -5  -1   3    4.21    1.99
  -5  -1   3    2.64    0.93
  -5  -1   3    4.12    1.90
  -5   1   3    5.51    1.85
  -5   1   3    2.64    1.44
  -5   1   3    3.01    1.53
  -5   1   3    4.17    0.65
   5  -1  -3    4.91    2.04
   5  -1  -3    0.09    1.39
   5  -1  -3    7.04    1.20
   5  -1  -3    6.11    0.93
   5  -1  -3    0.88    1.71
   5   1  -3    1.81    2.13
   5   1  -3    4.91    1.76
   5   1  -3    2.13    1.30
  -5  -1   2   42.17    3.24
  -5  -1   2   33.79    1.57
  -5  -1   2   57.73    2.92
  -5  -1   2   28.84    2.41
  -5   1   2   42.13    3.29
  -5   1   2   32.13    2.73
  -5   1   2   40.60    2.73
  -5   1   2   30.65    1.30
   5  -1  -2   68.93    3.89
   5  -1  -2   28.01    2.18
   5  -1  -2   96.15    2.31
   5  -1  -2  116.65    2.87
   5  -1  -2   39.35    2.73
   5   1  -2   66.85    4.03
   5   1  -2   46.89    2.78
   5   1  -2   41.57    2.55
  -5  -1   1   24.44    2.68
  -5  -1   1   16.99    1.39
  -5  -1   1   29.40    2.55
  -5  -1   1   18.66    2.31
  -5   1   1   27.59    2.73
  -5   1   1   17.87    2.08
  -5   1   1   26.53    2.55
  -5   1   1   21.71    1.48
   5  -1  -1   48.37    3.75
   5  -1  -1   19.35    2.08
   5  -1  -1   50.46    1.81
   5  -1  -1   22.36    2.50
   5   1  -1   38.70    3.66
   5   1  -1   18.52    1.39
   5   1  -1   23.61    2.45
   5   1  -1   25.09    2.41
  -5  -1   0   33.52    3.33
  -5  -1   0   26.66    1.62
  -5  -1   0   41.01    2.92
  -5  -1   0   25.78    2.31
  -5   1   0   38.79    3.33
  -5   1   0   31.25    2.68
  -5   1   0   28.01    1.67
   5  -1   0   53.10    3.93
   5  -1   0   23.24    2.13
   5  -1   0   66.10    1.67
   5  -1   0   28.75    2.68
   5   1   0   46.11    3.89
   5   1   0   20.97    1.48
   5   1   0   36.06    3.06
   5   1   0   34.07    2.73
  -5  -1  -1   40.51    2.55
  -5  -1  -1   25.78    2.55
  -5   1  -1   40.51    3.10
  -5   1  -1   40.51    2.87
  -5   1  -1   30.51    1.90
   5  -1   1   59.81    4.26
   5  -1   1   21.85    2.18
   5  -1   1   67.40    1.44
   5   1   1   47.08    4.07
   5   1   1   22.91    1.53
   5   1   1   35.46    2.78
  -5  -1  -2   26.57    3.24
  -5  -1  -2   29.44    2.73
  -5  -1  -2   19.95    2.22
  -5   1  -2   24.81    4.12
  -5   1  -2   23.38    2.64
  -5   1  -2   26.85    2.08
   5  -1   2   45.55    4.26
   5  -1   2   16.11    1.99
   5  -1   2   23.56    2.68
   5   1   2   42.22    4.35
   5   1   2   18.42    1.67
   5   1   2   23.19    3.01
   5   1   2   30.09    2.92
  -5  -1  -3   92.86    3.93
  -5  -1  -3  106.56    3.43
  -5  -1  -3   72.49    3.43
  -5   1  -3  116.33    4.44
  -5   1  -3   93.83    3.75
   5  -1   3  181.79    5.51
   5  -1   3   65.97    3.19
   5  -1   3   86.61    3.38
   5   1   3   66.61    2.45
   5   1   3   63.33    4.12
   5   1   3  112.44    4.03
  -5  -1  -4  215.81    5.28
  -5  -1  -4  239.61    4.35
  -5  -1  -4  172.39    4.49
  -5   1  -4  267.84    5.74
  -5   1  -4  223.96    5.42
  -5   1  -4  211.97    4.40
   5  -1   4  372.65    6.48
   5  -1   4  155.86    4.12
   5  -1   4  212.11    5.18
   5   1   4  259.14    5.56
  -5  -1  -5   55.36    4.07
  -5  -1  -5   62.22    2.96
  -5   1  -5   61.66    3.89
  -5   1  -5   65.41    3.70
   5  -1   5  102.67    4.77
   5  -1   5   54.67    3.61
   5   1   5  104.67    7.22
   5   1   5   45.97    2.68
   5   1   5   67.08    3.80
  -5  -1  -6   57.45    4.44
  -5  -1  -6   45.97    3.29
  -5  -1  -6   66.24    3.01
  -5  -1  -6   44.90    3.75
  -5   1  -6   68.05    4.58
  -5   1  -6   60.41    3.66
  -5   1  -6   64.07    3.89
   5  -1   6  108.09    4.81
   5  -1   6   47.26    3.15
   5  -1   6   64.25    3.89
   5   1   6   93.60    5.83
   5   1   6   55.64    3.06
   5   1   6   48.51    2.96
   5   1   6   74.67    3.98
  -5  -1  -7    5.56    2.68
  -5  -1  -7    3.52    1.99
  -5  -1  -7    4.77    1.90
  -5  -1  -7    0.19    2.13
  -5   1  -7    3.19    2.96
  -5   1  -7    5.83    2.31
   5  -1   7    9.17    2.59
   5  -1   7    1.85    1.90
   5  -1   7    6.53    2.36
   5   1   7    1.02    3.29
   5   1   7    4.21    1.76
   5   1   7    2.27    1.90
   5   1   7    4.35    2.27
  -5  -1  -8   14.77    3.52
  -5  -1  -8    8.75    2.08
  -5  -1  -8    9.12    2.04
  -5  -1  -8    9.58    2.64
  -5   1  -8   13.56    3.24
  -5   1  -8   10.88    2.55
  -5   1  -8   15.00    3.15
   5  -1   8   23.38    3.01
   5  -1   8    6.30    2.18
   5  -1   8   10.18    2.68
   5   1   8   20.23    3.80
   5   1   8    6.02    2.04
   5   1   8    8.01    2.04
   5   1   8   12.08    2.78
  -5  -1  -9   25.14    3.84
  -5  -1  -9   32.82    3.84
  -5   1  -9   41.25    4.95
  -5   1  -9   31.57    3.43
  -5   1  -9   39.26    4.26
   5  -1   9   54.11    6.57
   5  -1   9   22.45    2.87
   5  -1   9   32.82    3.70
   5   1   9   46.15    4.35
   5   1   9   27.40    3.38
  -5  -1 -10    8.80    3.98
  -5  -1 -10   11.85    5.05
  -5   1 -10   12.27    3.75
  -5   1 -10    8.19    2.92
  -5   1 -10   15.92    3.43
   5  -1  10   10.00    2.55
   5  -1  10   17.96    3.38
   5   1  10   14.03    3.80
   5   1  10   13.19    2.55
   5   1  10   13.47    3.33
  -5  -2  14    6.48    3.24
  -5  -2  14    9.49    2.92
  -5  -2  14    4.17    3.38
  -5   2  14    2.59    2.96
  -5   2  14    5.00    3.10
  -5   2  14    3.10    2.64
   5  -2 -14    7.18    4.12
   5  -2 -14    9.12    5.56
   5  -2 -14    8.75    2.73
   5   2 -14    6.02    3.19
   5   2 -14    7.18    4.12
   5   2 -14   11.30    3.29
  -5  -2  13   -3.24    2.87
  -5  -2  13    1.06    2.13
  -5   2  13    1.71    2.50
  -5   2  13   -1.11    2.59
  -5   2  13   -6.85    2.50
   5  -2 -13   -8.29    4.81
   5  -2 -13   -2.41    3.01
   5  -2 -13    1.48    2.45
   5   2 -13   -1.39    3.01
   5   2 -13   -0.79    2.64
  -5  -2  12    4.17    2.64
  -5  -2  12   18.56    2.41
  -5  -2  12   16.02    3.15
  -5   2  12   12.96    2.82
  -5   2  12   14.12    2.96
  -5   2  12    9.58    2.64
   5  -2 -12   12.59    3.75
   5  -2 -12   16.53    3.56
   5  -2 -12    8.66    2.41
   5   2 -12   23.98    3.43
   5   2 -12   20.65    3.43
   5   2 -12   13.05    2.96
  -5  -2  11   25.46    3.19
  -5  -2  11   32.54    2.92
  -5  -2  11   35.09    3.33
  -5   2  11   23.19    2.96
  -5   2  11   26.06    3.33
   5  -2 -11   31.57    3.61
   5  -2 -11   28.38    3.38
   5  -2 -11   24.58    2.92
   5   2 -11   38.56    4.81
   5   2 -11   43.56    4.68
   5   2 -11   29.63    3.66
  -5  -2  10   40.51    4.26
  -5  -2  10   63.88    2.82
  -5  -2  10   52.77    4.03
  -5   2  10   41.94    2.82
  -5   2  10   46.85    3.56
  -5   2  10   64.85    4.07
   5  -2 -10   58.05    4.44
   5  -2 -10   54.76    3.80
   5  -2 -10   42.77    3.43
   5   2 -10   60.60    4.86
   5   2 -10   64.95    4.26
  -5  -2   9    3.84    2.45
  -5  -2   9    1.57    1.25
  -5  -2   9    2.64    2.27
  -5   2   9    1.53    1.57
  -5   2   9    4.63    2.13
  -5   2   9    2.64    2.22
   5  -2  -9    5.28    2.68
   5  -2  -9    5.09    2.13
   5  -2  -9    5.79    2.22
   5   2  -9    2.31    2.82
   5   2  -9    1.85    2.36
   5   2  -9   -0.46    2.04
  -5  -2   8  135.50    5.00
  -5  -2   8  255.48    3.43
  -5  -2   8  219.70    5.42
  -5  -2   8  118.74    4.03
  -5   2   8  160.49    4.31
  -5   2   8  153.09    4.63
  -5   2   8  188.55    5.14
   5  -2  -8  227.43    6.25
   5  -2  -8  221.92    5.00
   5  -2  -8  150.31    4.49
   5   2  -8  266.04    6.53
   5   2  -8  214.38    5.37
   5   2  -8  129.57    4.21
   5   2  -8  134.01    2.59
  -5  -2   7   47.08    3.70
  -5  -2   7   80.18    2.18
  -5  -2   7   70.97    3.80
  -5  -2   7   38.79    2.96
  -5   2   7   51.43    3.29
  -5   2   7   47.40    3.24
  -5   2   7   55.97    3.56
   5  -2  -7   76.20    4.81
   5  -2  -7   80.87    3.56
   5  -2  -7   43.14    3.19
   5   2  -7   89.16    5.18
   5   2  -7   69.85    4.12
   5   2  -7   43.10    1.99
  -5  -2   6   33.93    3.33
  -5  -2   6   59.16    1.71
  -5  -2   6   51.43    3.47
  -5  -2   6   32.96    2.92
  -5   2   6   45.69    3.10
  -5   2   6   29.77    2.96
  -5   2   6   42.45    3.15
   5  -2  -6   69.58    4.54
   5  -2  -6   70.73    3.43
   5  -2  -6   35.00    3.10
   5   2  -6   56.75    4.68
   5   2  -6   46.11    3.66
   5   2  -6   33.42    2.13
  -5  -2   5  143.64    4.54
  -5  -2   5  264.00    2.68
  -5  -2   5  226.41    5.18
  -5  -2   5  123.83    3.89
  -5   2   5  170.58    4.17
  -5   2   5  164.20    4.58
   5  -2  -5  255.16    6.06
   5  -2  -5  235.67    4.12
   5  -2  -5  144.85    4.40
   5   2  -5  240.16    6.06
   5   2  -5  176.79    7.27
   5   2  -5  152.81    3.29
  -5  -2   4  124.34    4.26
  -5  -2   4  197.02    4.91
  -5  -2   4  110.36    3.75
  -5   2   4  146.61    4.21
  -5   2   4  106.24    4.58
  -5   2   4  135.45    3.98
   5  -2  -4  207.62    5.88
   5  -2  -4  109.39    4.49
   5  -2  -4  192.43    3.43
   5  -2  -4  113.74    3.93
   5   2  -4  204.75    5.65
   5   2  -4  141.84    4.49
   5   2  -4  105.59    5.65
  -5  -2   3    7.08    2.08
  -5  -2   3    9.21    1.99
  -5  -2   3    9.95    2.04
  -5   2   3    7.78    2.13
  -5   2   3    1.62    2.08
  -5   2   3    5.32    1.81
   5  -2  -3    6.53    1.90
   5  -2  -3    9.12    1.34
   5  -2  -3    5.37    1.57
   5   2  -3    7.96    2.41
   5   2  -3    8.66    2.22
   5   2  -3    5.14    1.81
  -5  -2   2  107.44    4.31
  -5  -2   2   73.14    3.38
  -5   2   2  134.29    4.26
  -5   2   2   89.94    3.75
  -5   2   2  111.89    3.98
   5  -2  -2  182.07    5.28
   5  -2  -2   84.44    3.52
   5  -2  -2  131.33    2.45
   5  -2  -2  105.17    3.66
   5   2  -2  162.07    5.28
   5   2  -2  113.18    3.98
   5   2  -2  122.86    3.70
  -5  -2   1   51.75    3.38
  -5  -2   1   74.71    3.06
  -5  -2   1   42.40    3.01
  -5   2   1   72.96    3.75
  -5   2   1   56.80    3.38
   5  -2  -1   89.85    4.63
   5  -2  -1   45.64    3.52
   5  -2  -1   57.49    1.62
   5  -2  -1   51.80    3.19
   5   2  -1   81.29    4.54
   5   2  -1   50.09    3.06
   5   2  -1   67.17    3.33
  -5  -2   0   48.05    3.84
  -5  -2   0   63.51    3.10
  -5  -2   0   31.76    2.96
  -5   2   0   57.08    3.75
  -5   2   0   41.25    3.19
  -5   2   0   40.23    1.62
   5  -2   0   80.55    4.77
   5  -2   0   34.67    3.01
   5   2   0   65.27    4.54
   5   2   0   38.05    3.01
   5   2   0   48.61    2.96
  -5  -2  -1  197.39    5.18
  -5  -2  -1  266.50    5.28
  -5  -2  -1  149.38    4.12
  -5   2  -1  269.09    6.48
  -5   2  -1  215.67    4.95
  -5   2  -1  203.31    3.10
   5  -2   1  363.07    6.48
   5  -2   1  156.70    4.35
   5  -2   1  189.89    4.95
   5   2   1  295.62    6.53
   5   2   1  187.94    4.58
   5   2   1  268.54    5.14
  -5  -2  -2   55.36    3.61
  -5  -2  -2   72.77    2.82
  -5   2  -2   66.98    3.89
  -5   2  -2   47.17    3.52
  -5   2  -2   52.59    2.45
   5  -2   2   85.87    4.86
   5  -2   2   37.31    3.01
   5  -2   2   44.67    3.33
   5   2   2   78.60    5.14
   5   2   2   39.35    1.76
   5   2   2   45.32    3.33
  -5  -2  -3    1.34    2.45
  -5  -2  -3    3.24    1.44
  -5  -2  -3    0.65    2.04
  -5   2  -3    3.89    2.36
  -5   2  -3    4.91    2.13
  -5   2  -3    5.23    1.71
   5  -2   3    2.22    2.50
   5  -2   3    0.05    1.62
   5  -2   3    1.25    1.99
   5   2   3    4.54    3.01
   5   2   3    1.48    0.93
   5   2   3    0.14    1.85
   5   2   3    2.87    2.04
  -5  -2  -4    2.92    2.68
  -5  -2  -4    2.27    2.04
  -5  -2  -4    0.60    1.34
  -5  -2  -4    1.48    2.04
  -5   2  -4    0.88    2.68
  -5   2  -4    0.23    2.08
  -5   2  -4    2.68    2.04
   5  -2   4    1.99    2.45
   5  -2   4    0.88    1.44
   5  -2   4    2.55    1.99
   5   2   4    5.60    3.10
   5   2   4    1.30    1.11
   5   2   4    2.13    2.04
   5   2   4    0.00    1.94
  -5  -2  -5   30.14    3.56
  -5  -2  -5   22.78    2.68
  -5  -2  -5   35.37    3.10
  -5  -2  -5   25.65    3.19
  -5   2  -5   42.68    4.12
  -5   2  -5   27.17    3.01
  -5   2  -5   32.40    3.29
   5  -2   5   40.18    4.26
   5  -2   5   26.48    3.15
   5  -2   5   23.79    2.87
   5   2   5   49.81    4.54
   5   2   5   21.94    2.08
   5   2   5   27.82    3.24
   5   2   5   35.83    3.70
  -5  -2  -6   13.33    2.96
  -5  -2  -6   13.05    2.50
  -5  -2  -6    9.72    2.55
  -5   2  -6   20.09    3.43
  -5   2  -6   12.50    2.73
  -5   2  -6   13.61    2.55
   5  -2   6   19.12    2.78
   5  -2   6    6.67    2.31
   5  -2   6    7.36    2.55
   5   2   6   22.59    4.03
   5   2   6    7.64    2.31
   5   2   6   14.35    2.92
  -5  -2  -7   47.36    5.14
  -5  -2  -7   39.12    3.84
  -5  -2  -7   35.32    4.40
  -5   2  -7   67.35    5.28
  -5   2  -7   42.68    4.21
  -5   2  -7   62.91    7.36
   5  -2   7   77.12    4.44
   5  -2   7   31.99    3.66
   5  -2   7   48.42    4.26
   5   2   7   76.94    6.43
   5   2   7   29.77    3.52
   5   2   7   67.12    4.63
  -5  -2  -8    9.21    3.56
  -5  -2  -8    5.56    3.61
  -5  -2  -8    4.58    3.01
  -5   2  -8    8.80    3.33
  -5   2  -8    7.59    2.92
   5  -2   8    5.83    2.50
   5  -2   8    8.19    3.01
   5   2   8   10.28    4.12
   5   2   8    3.75    2.04
   5   2   8    4.54    2.64
   5   2   8   15.42    5.18
  -5  -2  -9    9.95    3.84
  -5  -2  -9    6.71    2.55
  -5  -2  -9   -1.62    3.80
  -5   2  -9    5.65    3.61
  -5   2  -9    1.94    3.01
  -5   2  -9    7.45    3.06
   5  -2   9    3.10    3.38
   5   2   9   15.92    4.31
   5   2   9    3.66    2.08
   5   2   9    1.16    2.73
   5   2   9    5.23    3.06
  -5  -3  12   31.48    4.03
  -5   3  12   24.03    3.38
  -5   3  12   41.85    4.35
  -5   3  12   29.35    3.84
   5  -3 -12   37.64    4.68
   5  -3 -12   32.27    4.17
   5  -3 -12   33.52    4.07
   5   3 -12   50.41    5.05
   5   3 -12   44.12    5.14
   5   3 -12   28.56    3.80
  -5  -3  11   -0.14    3.06
  -5  -3  11   -0.23    2.87
  -5   3  11   -2.41    2.96
  -5   3  11   -0.83    2.78
   5  -3 -11   -1.34    5.69
   5  -3 -11    4.81    3.01
   5  -3 -11   -4.63    2.27
   5   3 -11    0.37    3.24
   5   3 -11   -3.61    2.78
  -5  -3  10   25.92    3.80
  -5  -3  10   36.01    3.75
  -5   3  10   24.03    3.10
  -5   3  10   28.28    3.33
   5  -3 -10   41.76    4.72
   5  -3 -10   38.84    4.35
   5  -3 -10   21.71    3.10
   5   3 -10   46.15    4.44
   5   3 -10   36.11    3.84
   5   3 -10   20.55    3.19
  -5  -3   9   22.73    3.33
  -5  -3   9   35.09    3.98
  -5  -3   9   24.26    3.24
  -5   3   9   23.56    3.01
  -5   3   9   24.35    3.24
   5  -3  -9   39.39    4.35
   5  -3  -9   38.19    4.12
   5  -3  -9   19.35    3.01
   5   3  -9   43.65    4.21
   5   3  -9   41.94    4.77
   5   3  -9   26.94    3.47
  -5  -3   8   11.85    2.87
  -5  -3   8   23.33    3.15
  -5  -3   8    9.49    2.45
  -5   3   8   12.82    2.59
  -5   3   8   15.65    3.01
   5  -3  -8   27.82    3.80
   5  -3  -8   20.55    2.87
   5  -3  -8   16.76    2.87
   5   3  -8   30.92    3.84
   5   3  -8   18.42    3.15
   5   3  -8   11.62    2.68
  -5  -3   7   33.93    3.66
  -5  -3   7   47.17    4.03
  -5  -3   7   36.11    3.61
  -5   3   7   30.14    3.47
  -5   3   7   37.45    3.84
   5  -3  -7   54.25    5.09
   5  -3  -7   41.48    3.70
   5  -3  -7   30.78    3.75
   5   3  -7   59.07    5.42
   5   3  -7   40.41    3.98
   5   3  -7   32.45    3.47
  -5  -3   6   33.38    3.66
  -5  -3   6   40.04    4.03
  -5  -3   6   23.79    2.92
  -5   3   6   30.46    3.24
  -5   3   6   21.99    2.73
  -5   3   6   34.53    3.61
   5  -3  -6   40.78    4.95
   5  -3  -6   31.89    3.43
   5  -3  -6   24.03    2.87
   5   3  -6   46.94    4.31
   5   3  -6   25.14    3.06
  -5  -3   5    6.39    2.31
  -5  -3   5    9.03    2.73
  -5  -3   5    6.90    2.22
  -5   3   5   10.14    2.36
  -5   3   5    7.13    2.18
  -5   3   5    3.93    2.31
   5  -3  -5   11.02    3.10
   5  -3  -5    8.33    2.22
   5  -3  -5    8.33    2.31
   5   3  -5   15.28    3.43
   5   3  -5    9.77    2.59
   5   3  -5    7.27    1.53
  -5  -3   4    4.35    2.36
  -5  -3   4    6.57    2.13
  -5  -3   4    3.56    2.36
  -5   3   4    8.93    2.45
  -5   3   4    2.96    1.99
  -5   3   4   -0.09    2.13
   5  -3  -4    5.83    2.78
   5  -3  -4    1.53    1.94
   5  -3  -4    7.27    1.67
   5  -3  -4    5.23    2.13
   5   3  -4    2.22    3.15
   5   3  -4    8.01    2.45
  -5  -3   3    4.31    2.55
  -5  -3   3    2.04    2.27
  -5  -3   3    2.36    2.13
  -5   3   3    8.61    2.45
  -5   3   3    2.27    2.04
  -5   3   3    0.14    1.94
   5  -3  -3    0.79    2.78
   5  -3  -3    1.02    1.94
   5  -3  -3    4.21    1.34
   5  -3  -3    3.56    2.08
   5   3  -3    4.68    2.92
   5   3  -3    4.07    2.22
   5   3  -3    2.73    1.71
  -5  -3   2   78.74    4.31
  -5  -3   2   60.13    3.89
  -5   3   2  113.51    4.44
  -5   3   2   66.94    3.75
  -5   3   2   86.47    4.12
   5  -3  -2  138.18    5.83
   5  -3  -2   61.06    3.61
   5  -3  -2   79.90    3.98
   5   3  -2  114.66    5.60
   5   3  -2   80.83    4.31
   5   3  -2  106.66    3.80
  -5  -3   1   37.96    4.07
  -5  -3   1   19.63    2.55
  -5   3   1   19.03    2.55
  -5   3   1   21.94    2.82
   5  -3  -1   40.27    4.54
   5  -3  -1   18.05    2.22
   5  -3  -1   18.70    2.64
   5   3  -1   40.13    3.98
   5   3  -1   30.51    3.29
   5   3  -1   35.55    3.38
  -5  -3   0    3.47    2.64
  -5  -3   0    6.99    2.04
  -5  -3   0    3.47    2.31
  -5   3   0    6.02    2.68
  -5   3   0    0.46    1.57
  -5   3   0    5.05    2.31
   5  -3   0    2.50    1.94
   5  -3   0    5.32    2.22
   5   3   0    4.72    3.38
   5   3   0    0.93    2.50
   5   3   0    4.17    2.22
  -5  -3  -1    7.73    2.50
  -5  -3  -1   12.22    1.85
  -5  -3  -1    6.48    2.59
  -5   3  -1    9.49    2.82
  -5   3  -1    8.80    2.27
   5  -3   1   14.58    3.06
   5  -3   1    3.70    1.99
   5  -3   1    8.29    2.45
   5   3   1   18.01    3.93
   5   3   1    4.77    2.41
  -5  -3  -2   15.92    2.92
  -5  -3  -2   11.62    2.73
  -5   3  -2   32.22    3.66
  -5   3  -2   14.07    2.73
   5  -3   2   29.77    3.15
   5  -3   2   12.45    2.50
   5  -3   2   17.78    2.64
   5   3   2   21.34    3.66
   5   3   2   12.78    2.64
   5   3   2   20.97    2.64
  -5  -3  -3   18.05    3.06
  -5  -3  -3   11.76    2.73
  -5   3  -3   33.47    3.80
  -5   3  -3   19.30    3.01
  -5   3  -3   24.30    3.24
   5  -3   3   26.85    3.01
   5  -3   3   10.79    2.45
   5  -3   3   13.61    2.78
   5   3   3   28.19    4.21
   5   3   3   18.98    3.10
   5   3   3   24.53    3.19
  -5  -3  -4    4.12    2.73
  -5  -3  -4    3.84    2.59
  -5  -3  -4    3.33    2.92
  -5   3  -4    5.28    3.29
  -5   3  -4    1.44    2.64
  -5   3  -4    7.87    2.27
   5  -3   4    7.82    2.73
   5  -3   4    4.54    2.41
   5  -3   4    2.41    2.59
   5   3   4   14.67    4.21
   5   3   4    0.37    2.36
   5   3   4    3.93    2.45
  -5  -3  -5   21.29    3.47
  -5  -3  -5   21.34    3.15
  -5  -3  -5   15.92    3.24
  -5   3  -5   36.06    4.31
  -5   3  -5   22.82    3.33
  -5   3  -5   28.93    3.06
   5  -3   5   27.08    3.06
   5  -3   5   18.29    2.45
   5  -3   5   18.70    3.10
   5   3   5   28.15    4.63
   5   3   5   22.50    3.29
   5   3   5   29.58    3.38
  -5  -3  -6    3.38    3.47
  -5  -3  -6    0.14    2.45
  -5  -3  -6    1.39    3.56
  -5   3  -6    3.66    3.47
  -5   3  -6   -1.20    2.59
   5  -3   6    0.37    2.82
   5   3   6    5.05    4.21
   5   3   6   -0.05    2.68
   5   3   6   -4.17    2.55
  -5  -3  -7   45.27    5.56
  -5  -3  -7   47.77    4.72
  -5  -3  -7   45.50    5.42
  -5   3  -7   92.72    6.43
  -5   3  -7   46.01    5.09
  -5   3  -7   80.78    4.77
   5  -3   7   41.94    4.31
   5   3   7   43.24    4.72
   5   3   8    5.88    5.23
  -5  -4   9   14.72    3.98
  -5  -4   9   21.85    3.56
  -5  -4   9   11.90    4.03
  -5   4   9   11.16    3.06
  -5   4   9   16.90    3.93
   5  -4  -9   17.04    4.21
   5  -4  -9   16.53    3.56
   5  -4  -9   21.62    3.56
   5   4  -9   36.29    5.14
   5   4  -9   20.83    3.93
   5   4  -9    4.40    3.29
  -5  -4   8    8.84    3.43
  -5  -4   8    5.46    3.24
  -5   4   8    0.56    2.73
  -5   4   8    6.34    2.92
   5  -4  -8    5.65    4.21
   5  -4  -8    2.50    3.06
   5  -4  -8    3.01    2.92
   5   4  -8    5.00    4.17
   5   4  -8   12.31    3.70
  -5  -4   7    9.81    3.52
  -5  -4   7    4.12    2.59
  -5  -4   7    1.39    3.10
  -5   4   7    1.30    2.59
  -5   4   7    4.07    2.87
   5  -4  -7    3.33    3.33
   5  -4  -7    0.32    2.73
   5   4  -7   -2.68    3.84
   5   4  -7    5.37    3.06
   5   4  -7    4.54    3.75
  -5  -4   6   21.90    4.58
  -5  -4   6   35.00    3.98
  -5  -4   6   26.57    3.75
  -5   4   6   21.57    3.29
   5  -4  -6   34.86    4.77
   5  -4  -6   17.27    2.78
   5   4  -6   31.85    4.44
   5   4  -6   19.07    3.80
  -5  -4   5   13.66    2.73
  -5  -4   5    3.89    2.68
  -5   4   5    8.56    2.87
  -5   4   5   12.82    2.92
   5  -4  -5   10.55    3.98
   5   4  -5   17.41    4.31
   5   4  -5   10.65    3.47
  -5  -4   4    5.56    4.86
  -5  -4   4   -1.76    4.31
  -5  -4   4    3.98    2.68
  -5   4   4    6.39    2.73
  -5   4   4    3.75    2.87
  -5   4   4    2.08    2.68
   5  -4  -4   11.06    3.84
   5  -4  -4    7.13    3.19
   5   4  -4    2.73    4.03
   5   4  -4    5.18    3.24
  -5  -4   3   17.41    3.80
  -5  -4   3   17.82    2.73
  -5  -4   3    7.78    2.92
  -5   4   3    8.01    2.78
  -5   4   3   16.02    3.15
   5  -4  -3   23.01    4.26
   5  -4  -3   13.52    2.92
   5  -4  -3   12.36    3.38
   5   4  -3   20.32    4.72
   5   4  -3   18.79    3.24
   5   4  -3   22.59    2.87
  -5  -4   2    1.57    3.19
  -5  -4   2    0.19    2.22
  -5  -4   2    2.50    2.87
  -5   4   2   -2.22    3.01
  -5   4   2   -3.10    2.31
  -5   4   2   -2.78    2.73
   5  -4  -2    1.57    3.38
   5  -4  -2    0.09    2.45
   5  -4  -2   -3.06    2.64
   5   4  -2    4.44    4.21
   5   4  -2    1.44    2.78
   5   4  -2   -0.05    2.50
  -5  -4   1    8.56    3.47
  -5  -4   1    6.11    2.92
  -5   4   1   15.88    3.43
  -5   4   1   11.94    2.87
  -5   4   1   14.40    2.68
   5  -4  -1   14.30    3.66
   5  -4  -1    5.00    2.87
   5  -4  -1   11.20    3.29
   5   4  -1   18.66    4.81
   5   4  -1    6.90    3.33
   5   4  -1   14.58    2.55
  -5  -4   0    1.48    2.96
  -5  -4   0    6.80    2.92
  -5   4   0   11.25    3.52
   5  -4   0    2.36    3.33
   5  -4   0    0.88    2.96
   5   4   0    0.79    2.78
   5   4   0    5.65    2.64
  -5  -4  -1   13.89    3.33
  -5  -4  -1   10.74    3.47
  -5   4  -1   23.93    3.93
  -5   4  -1    7.64    2.73
  -5   4  -1   18.38    4.17
   5  -4   1   16.90    3.61
   5   4   1   10.42    3.56
   5   4   1   20.60    3.19
  -5  -4  -2    3.75    3.24
  -5   4  -2   -2.22    2.92
  -5   4  -2    7.50    2.96
   5  -4   2    6.67    3.15
   5  -4   2    0.83    2.45
   5   4   2   -0.32    4.31
   5   4   2    4.31    3.01
   5   4   2   -1.57    2.78
  -5  -4  -3   11.48    4.35
  -5  -4  -3   10.88    3.47
  -5   4  -3   33.14    4.26
  -5   4  -3   23.42    3.75
   5  -4   3   28.65    3.80
   5  -4   3   15.37    3.06
   5  -4   3   18.47    3.52
   5   4   3   26.02    5.32
   5   4   3   28.01    4.49
   5   4   3   29.53    3.52
  -5  -4  -4    3.75    5.14
  -5  -4  -4    1.99    3.66
  -5   4  -4    6.34    6.16
  -5   4  -4    8.33    3.52
   5  -4   4    4.91    2.68
   5  -4   4    7.22    3.15
   5   4   4    7.04    4.81
   5   4   4    8.24    3.52
  -6   0  13   22.36    3.29
  -6   0  13   32.03    3.80
  -6   0  13   39.12    4.86
   6   0 -13   50.18    7.68
  -6   0  12   17.08    3.19
  -6   0  12   42.54    3.75
  -6   0  12   38.28    4.91
   6   0 -12   51.71    5.97
   6   0 -12   56.43    5.05
   6   0 -12   22.78    2.50
  -6   0  11  190.81    5.88
  -6   0  11  289.37    7.04
   6   0 -11  377.37    8.89
   6   0 -11  518.14    8.70
  -6   0  10   88.93    5.23
  -6   0  10  124.62    5.23
   6   0 -10  154.48    6.71
   6   0 -10  236.18    6.39
   6   0 -10   80.45    3.66
  -6   0   9   34.30    3.43
  -6   0   9   38.01    3.47
  -6   0   9   48.51    4.07
   6   0  -9   68.88    5.79
   6   0  -9   82.58    4.81
   6   0  -9   29.40    2.78
  -6   0   8   19.86    3.06
  -6   0   8   17.96    2.18
  -6   0   8   23.89    3.06
   6   0  -8   35.41    3.89
   6   0  -8   48.05    4.03
   6   0  -8   14.67    2.31
  -6   0   7    3.24    2.31
  -6   0   7    5.05    1.99
  -6   0   7    8.19    2.55
   6   0  -7   14.35    3.10
   6   0  -7   18.56    2.87
   6   0  -7    0.79    1.94
  -6   0   6   34.21    3.75
  -6   0   6   39.67    3.06
  -6   0   6   40.37    3.66
   6   0  -6   52.17    5.09
   6   0  -6   81.15    3.89
   6   0  -6   25.74    2.18
   6   0  -6   31.99    2.87
  -6   0   5    4.40    2.41
  -6   0   5    2.50    1.81
  -6   0   5    3.33    2.18
  -6   0   5    2.36    1.25
   6   0  -5    1.02    3.01
   6   0  -5    1.71    2.18
   6   0  -5    2.27    1.34
   6   0  -5    1.34    1.81
  -6   0   4   89.81    4.58
  -6   0   4  111.66    4.40
  -6   0   4   71.38    2.45
   6   0  -4  152.67    5.93
   6   0  -4  197.94    4.54
  -6   0   3   27.17    3.19
  -6   0   3   18.38    2.27
  -6   0   3   26.94    3.06
  -6   0   3   20.23    2.04
   6   0  -3   47.31    4.77
   6   0  -3   49.81    3.15
   6   0  -3   17.54    2.73
  -6   0   2   31.02    3.70
  -6   0   2   23.56    2.68
  -6   0   2   35.09    3.52
  -6   0   2   22.87    2.22
   6   0  -2   44.35    4.77
   6   0  -2   20.78    2.08
   6   0  -2   27.59    3.01
  -6   0   1   10.69    2.82
  -6   0   1    2.82    1.81
  -6   0   1    6.06    2.55
  -6   0   1    4.07    1.67
   6   0  -1   11.20    3.19
   6   0  -1    4.77    1.71
   6   0  -1    9.63    1.67
   6   0  -1    6.48    2.04
  -6   0   0   59.44    3.93
  -6   0   0   71.15    3.89
  -6   0   0   45.69    2.96
   6   0   0  109.85    5.65
   6   0   0   44.49    2.87
   6   0   0  100.59    2.87
   6   0   0   61.15    3.70
  -6   0  -1   -1.16    2.18
  -6   0  -1    3.10    2.41
  -6   0  -1   -0.93    1.81
   6   0   1    2.18    3.10
   6   0   1   -1.39    1.53
   6   0   1   -0.56    1.16
   6   0   1   -1.62    2.08
  -6   0  -2    5.28    2.55
  -6   0  -2    6.43    2.27
  -6   0  -2    4.44    2.04
   6   0   2    6.80    3.38
   6   0   2    5.79    1.94
   6   0   2    3.10    2.27
  -6   0  -3    9.95    2.92
  -6   0  -3   14.17    2.50
  -6   0  -3   12.17    2.31
   6   0   3   26.43    3.93
   6   0   3    9.35    1.94
   6   0   3   14.58    2.73
  -6   0  -4    4.17    2.87
  -6   0  -4    7.92    2.55
  -6   0  -4    6.02    2.41
   6   0   4    5.65    3.38
   6   0   4    4.21    1.99
   6   0   4    6.43    2.59
  -6   0  -5    1.48    3.29
  -6   0  -5   -0.28    2.31
  -6   0  -5    4.49    2.55
   6   0   5    5.09    3.24
   6   0   5   -0.56    2.08
   6   0   5    1.34    2.50
  -6   0  -6   11.53    6.85
  -6   0  -6   11.02    2.68
  -6   0  -6   11.06    2.87
   6   0   6   20.23    3.80
   6   0   6    8.80    2.45
  -6   0  -7   12.36    3.84
  -6   0  -7    6.85    2.68
  -6   0  -7    9.95    3.24
   6   0   7   13.19    3.70
   6   0   7    3.29    2.22
   6   0   7    7.78    2.96
  -6  -1  13    8.38    3.06
  -6  -1  13    7.59    2.68
  -6  -1  13    5.93    2.78
  -6   1  13    1.06    2.96
  -6   1  13    1.71    3.24
  -6   1  13    1.62    2.73
   6  -1 -13    5.74    4.44
   6  -1 -13    1.34    3.38
   6  -1 -13   -2.50    2.45
   6   1 -13    2.36    3.93
  -6  -1  12    0.09    2.96
  -6  -1  12    3.75    3.19
  -6  -1  12    7.82    3.06
  -6   1  12    6.20    3.06
  -6   1  12    5.23    3.06
   6  -1 -12    4.58    5.42
   6  -1 -12   10.83    3.66
   6  -1 -12    5.93    2.41
   6   1 -12    9.26    3.56
   6   1 -12   10.37    4.49
   6   1 -12    5.97    2.50
  -6  -1  11    3.84    3.06
  -6  -1  11   10.18    2.45
  -6  -1  11    9.86    3.47
  -6   1  11    8.47    2.68
  -6   1  11    7.68    2.50
  -6   1  11    5.93    3.24
   6  -1 -11   14.63    5.14
   6  -1 -11   10.18    3.29
   6  -1 -11    6.20    2.59
   6   1 -11    2.41    3.19
   6   1 -11   14.91    3.47
   6   1 -11    3.89    2.55
  -6  -1  10   31.66    3.52
  -6  -1  10   64.99    3.61
  -6  -1  10   48.14    4.40
  -6   1  10   36.52    3.98
  -6   1  10   38.33    3.66
  -6   1  10   45.55    3.66
   6  -1 -10   69.25    5.83
   6  -1 -10   68.14    4.68
   6  -1 -10   26.71    2.87
   6   1 -10   69.48    6.20
   6   1 -10   86.15    5.51
   6   1 -10   43.10    3.66
  -6  -1   9   18.52    3.01
  -6  -1   9   23.84    2.45
  -6  -1   9   22.59    3.29
  -6   1   9   15.46    2.64
  -6   1   9   21.11    2.64
  -6   1   9   22.08    3.24
   6  -1  -9   23.38    3.61
   6  -1  -9   37.82    4.21
   6  -1  -9   11.48    2.36
   6   1  -9   35.78    4.17
   6   1  -9   40.41    4.72
   6   1  -9   22.50    2.59
   6   1  -9   17.45    2.08
  -6  -1   8  115.87    5.05
  -6  -1   8  159.10    5.37
  -6   1   8  118.23    4.63
  -6   1   8  130.08    4.49
  -6   1   8  148.18    5.23
   6  -1  -8  186.79    6.62
   6  -1  -8  247.75    5.83
   6  -1  -8  109.53    4.49
   6   1  -8  203.59    6.94
   6   1  -8   99.53    3.89
   6   1  -8  107.49    3.56
  -6  -1   7   16.66    3.06
  -6  -1   7   21.57    2.92
  -6  -1   7   13.42    2.08
  -6   1   7   14.91    2.64
  -6   1   7   18.84    2.50
  -6   1   7   17.73    2.96
   6  -1  -7   37.22    4.17
   6  -1  -7   39.95    3.61
   6  -1  -7   12.68    2.31
   6   1  -7   32.40    3.84
   6   1  -7   31.43    3.38
   6   1  -7   26.29    3.15
   6   1  -7   10.83    2.04
  -6  -1   6   19.49    3.06
  -6  -1   6   22.91    2.13
  -6  -1   6   24.21    2.92
  -6  -1   6   17.68    2.18
  -6   1   6   17.17    3.19
  -6   1   6   22.87    2.82
   6  -1  -6   43.79    4.21
   6  -1  -6   34.72    3.56
   6  -1  -6   14.67    2.31
   6   1  -6   35.92    3.93
   6   1  -6   23.75    3.24
   6   1  -6   15.32    2.36
   6   1  -6   23.75    2.92
  -6  -1   5   33.47    4.17
  -6  -1   5   41.76    2.22
  -6  -1   5   56.85    4.31
  -6  -1   5   37.73    2.92
  -6   1   5   36.25    4.17
  -6   1   5   45.41    3.66
   6  -1  -5   72.35    5.05
   6  -1  -5   90.92    3.61
   6  -1  -5   36.48    3.29
   6   1  -5   63.14    4.77
   6   1  -5   66.61    3.89
   6   1  -5   37.54    3.29
  -6  -1   4   22.64    3.19
  -6  -1   4   13.79    1.53
  -6  -1   4   22.45    2.82
  -6  -1   4   15.79    2.08
  -6   1   4   18.15    2.55
  -6   1   4   11.53    2.22
  -6   1   4   18.10    2.73
   6  -1  -4   34.30    3.80
   6  -1  -4   18.98    2.50
   6   1  -4   36.20    3.75
   6   1  -4   32.68    3.33
   6   1  -4   16.48    2.36
  -6  -1   3   12.96    2.92
  -6  -1   3    9.40    1.34
  -6  -1   3   12.96    2.55
  -6  -1   3   10.18    2.04
  -6   1   3   14.67    2.45
  -6   1   3    6.34    1.99
  -6   1   3   10.88    2.41
   6  -1  -3   27.59    3.66
   6  -1  -3    9.12    1.94
   6  -1  -3   35.60    2.50
   6  -1  -3    9.26    2.22
   6   1  -3   21.48    3.56
   6   1  -3   12.50    2.36
   6   1  -3   10.05    2.08
  -6  -1   2   73.74    4.21
  -6  -1   2   69.11    2.31
  -6  -1   2   65.13    3.47
  -6   1   2   87.49    4.54
  -6   1   2   66.52    3.47
  -6   1   2   88.14    4.21
   6  -1  -2  154.61    5.97
   6  -1  -2   63.10    3.24
   6  -1  -2  183.18    3.29
   6  -1  -2   73.60    3.93
   6   1  -2  144.34    6.02
   6   1  -2  101.38    3.93
  -6  -1   1  129.48    5.23
  -6  -1   1  111.33    2.82
  -6  -1   1  164.43    5.32
  -6  -1   1   98.69    3.70
  -6   1   1  133.41    5.23
  -6   1   1  105.27    3.98
  -6   1   1  135.31    4.72
   6  -1  -1  227.89    6.57
   6  -1  -1  104.30    3.98
   6  -1  -1  117.16    4.58
   6   1  -1  221.69    6.71
   6   1  -1  154.06    4.21
   6   1  -1  132.63    4.35
  -6  -1   0   11.48    2.82
  -6  -1   0    9.26    1.44
  -6  -1   0    9.95    2.22
  -6  -1   0    6.30    2.08
  -6   1   0   12.96    3.19
  -6   1   0    6.90    3.80
  -6   1   0   12.31    2.59
  -6   1   0    9.81    1.53
   6  -1   0   24.63    3.52
   6  -1   0   10.51    2.36
   6   1   0   17.68    3.56
   6   1   0    5.56    1.39
   6   1   0   12.82    2.31
   6   1   0   11.20    2.27
  -6  -1  -1   12.78    2.87
  -6  -1  -1   11.43    1.62
  -6  -1  -1   18.79    2.59
  -6  -1  -1    6.85    2.13
  -6   1  -1   14.12    2.87
  -6   1  -1   20.41    3.15
  -6   1  -1    9.03    1.76
   6  -1   1   31.52    3.75
   6  -1   1    7.59    2.55
   6  -1   1   12.87    2.68
   6   1   1   26.62    3.80
   6   1   1    6.62    1.53
   6   1   1   15.88    2.22
   6   1   1   15.00    2.45
  -6  -1  -2    8.10    2.78
  -6  -1  -2    8.19    2.36
  -6  -1  -2    6.53    2.73
  -6   1  -2    4.68    2.82
  -6   1  -2    7.41    2.50
  -6   1  -2    3.56    1.99
   6  -1   2   13.01    3.38
   6  -1   2    1.53    1.81
   6  -1   2    4.95    2.31
   6   1   2   10.42    3.43
   6   1   2    1.20    1.99
   6   1   2    5.32    2.27
  -6  -1  -3   19.21    3.33
  -6  -1  -3   20.74    2.59
  -6  -1  -3   14.54    2.82
  -6   1  -3   20.04    3.56
  -6   1  -3   17.13    2.87
  -6   1  -3   13.10    2.31
   6  -1   3   35.51    3.75
   6  -1   3   10.69    2.27
   6  -1   3   17.04    2.78
   6   1   3   30.88    4.26
   6   1   3    8.61    1.85
   6   1   3   13.89    2.18
   6   1   3   21.20    3.01
  -6  -1  -4   12.17    3.06
  -6  -1  -4   12.17    2.45
  -6  -1  -4    9.35    2.68
  -6   1  -4   16.53    3.61
  -6   1  -4   12.22    2.73
  -6   1  -4   10.79    2.55
   6  -1   4   30.37    3.70
   6  -1   4    5.23    1.99
   6  -1   4   10.69    2.55
   6   1   4   15.51    3.84
   6   1   4    7.59    1.90
   6   1   4   11.39    2.04
   6   1   4   16.29    3.01
  -6  -1  -5    7.18    4.58
  -6  -1  -5    3.56    2.22
  -6  -1  -5    4.63    2.68
  -6   1  -5    9.86    5.42
  -6   1  -5    7.73    2.68
  -6   1  -5    4.49    2.41
   6  -1   5   18.93    3.47
   6  -1   5    4.72    2.41
   6  -1   5    4.81    4.72
   6   1   5   11.30    3.98
   6   1   5    5.83    1.94
   6   1   5    7.87    2.96
  -6  -1  -6   -4.58    4.21
  -6  -1  -6    0.37    2.18
  -6  -1  -6   -0.65    2.78
  -6   1  -6   -0.09    3.61
  -6   1  -6   -1.34    2.55
  -6   1  -6   -2.18    2.41
   6  -1   6   -4.81    3.06
   6  -1   6    0.56    2.18
   6  -1   6   -2.04    2.64
   6   1   6    4.49    3.80
   6   1   6    1.81    2.04
   6   1   6    1.67    3.33
  -6  -1  -7    0.46    3.80
  -6  -1  -7    4.44    3.24
  -6   1  -7    1.11    3.43
  -6   1  -7    1.20    2.73
  -6   1  -7    1.44    2.92
   6  -1   7   -2.87    3.29
   6  -1   7    1.62    2.78
   6  -1   7   -2.13    2.96
   6   1   7   -1.94    3.80
   6   1   7    2.08    4.44
   6   1   7    3.01    3.10
  -6  -2  12    9.17    3.61
  -6  -2  12    8.66    3.70
  -6   2  12    6.99    3.19
  -6   2  12    1.30    3.43
   6  -2 -12    3.66    4.21
   6  -2 -12    2.59    3.52
   6  -2 -12    4.49    3.10
   6   2 -12    9.54    3.84
   6   2 -12    3.80    2.92
  -6  -2  11   10.65    3.33
  -6  -2  11    9.86    3.52
  -6   2  11    9.07    3.10
  -6   2  11   10.14    3.52
   6  -2 -11   14.35    4.17
   6  -2 -11    3.38    3.24
   6  -2 -11    5.97    2.68
   6   2 -11    9.63    3.66
   6   2 -11   16.11    5.32
   6   2 -11   10.69    2.87
  -6  -2  10   11.20    3.47
  -6  -2  10   14.95    3.33
  -6   2  10   13.38    3.06
   6  -2 -10   15.69    4.68
   6  -2 -10   12.17    3.01
   6  -2 -10   12.50    2.64
   6   2 -10   20.14    4.03
   6   2 -10   19.26    3.56
   6   2 -10   11.90    2.87
  -6  -2   9    4.17    3.24
  -6  -2   9    1.57    2.82
  -6  -2   9    4.91    2.41
  -6   2   9    5.23    2.45
  -6   2   9    3.98    2.73
  -6   2   9    8.19    3.01
   6  -2  -9    7.18    5.05
   6  -2  -9    1.94    2.78
   6  -2  -9   -1.53    2.50
   6   2  -9    8.33    3.80
   6   2  -9    9.67    3.56
   6   2  -9    3.56    2.59
  -6  -2   8   37.22    3.98
  -6  -2   8   46.57    4.40
  -6  -2   8   29.95    3.61
  -6   2   8   39.72    4.03
  -6   2   8   34.44    3.93
  -6   2   8   35.69    3.98
   6  -2  -8   51.15    6.06
   6  -2  -8   43.88    3.93
   6  -2  -8   30.92    3.75
   6   2  -8   56.01    6.34
   6   2  -8   41.38    4.35
   6   2  -8   30.46    3.56
  -6  -2   7    2.08    3.19
  -6  -2   7    5.00    2.92
  -6   2   7    0.32    2.36
  -6   2   7    2.64    2.36
  -6   2   7    6.90    2.82
   6  -2  -7    7.18    3.56
   6  -2  -7    6.71    2.68
   6  -2  -7    0.46    2.41
   6   2  -7    9.03    3.89
   6   2  -7    5.37    2.96
   6   2  -7    4.58    2.82
   6   2  -7    2.04    1.81
  -6  -2   6    2.59    3.10
  -6  -2   6    5.74    3.01
  -6  -2   6    5.46    4.03
  -6   2   6    8.84    2.50
  -6   2   6    5.05    2.36
  -6   2   6    2.64    2.64
   6  -2  -6    6.57    3.52
   6  -2  -6    4.40    2.31
   6  -2  -6    6.85    2.45
   6   2  -6    8.15    3.61
   6   2  -6    6.80    3.01
   6   2  -6    0.42    1.90
  -6  -2   5    2.87    2.59
  -6  -2   5   -1.39    2.59
  -6  -2   5    2.87    3.56
  -6   2   5    0.00    4.49
  -6   2   5    1.02    2.18
  -6   2   5   -0.69    2.36
   6  -2  -5   -0.65    3.24
   6  -2  -5    3.56    2.27
   6  -2  -5    0.83    2.31
   6   2  -5    2.13    3.43
   6   2  -5    5.18    2.59
   6   2  -5    2.41    1.90
  -6  -2   4    0.65    2.73
  -6  -2   4    1.20    2.64
  -6   2   4    0.69    2.55
  -6   2   4   -0.74    2.13
  -6   2   4   -3.29    2.31
   6  -2  -4    0.46    3.06
   6  -2  -4   -0.74    2.31
   6   2  -4   -3.01    3.10
   6   2  -4   -0.51    2.45
   6   2  -4   -1.06    1.94
  -6  -2   3    0.51    2.73
  -6  -2   3    1.53    2.55
  -6   2   3    3.15    2.68
  -6   2   3   -0.19    2.22
  -6   2   3    1.94    2.36
   6  -2  -3   -0.93    2.96
   6  -2  -3   -1.99    1.81
   6  -2  -3    0.28    2.22
   6   2  -3    1.71    3.06
   6   2  -3    2.59    2.59
   6   2  -3    1.94    1.81
  -6  -2   2   14.30    2.92
  -6  -2   2   19.49    3.01
  -6  -2   2   12.04    2.50
  -6   2   2   18.19    2.87
  -6   2   2   10.46    2.50
  -6   2   2   19.21    2.82
   6  -2  -2   27.31    3.93
   6  -2  -2   10.92    2.18
   6  -2  -2   14.12    2.68
   6   2  -2   23.15    3.70
   6   2  -2   12.73    2.68
   6   2  -2   17.08    3.06
  -6  -2   1   25.78    3.33
  -6  -2   1   46.66    3.80
  -6  -2   1   21.43    2.87
  -6   2   1   38.51    3.84
  -6   2   1   23.52    2.92
  -6   2   1   31.25    3.84
   6  -2  -1   44.12    4.17
   6  -2  -1   20.00    2.55
   6  -2  -1   24.40    3.06
   6   2  -1   56.75    5.88
   6   2  -1   33.70    3.89
   6   2  -1   34.95    3.70
  -6  -2   0   43.61    4.77
  -6  -2   0   59.02    3.75
  -6  -2   0   33.89    3.75
  -6   2   0   48.79    4.72
  -6   2   0   34.07    3.66
  -6   2   0   42.17    3.33
   6  -2   0   75.22    5.79
   6  -2   0   38.24    3.33
   6  -2   0   41.06    3.84
   6   2   0   51.48    5.69
   6   2   0   39.95    4.40
   6   2   0   45.88    3.66
  -6  -2  -1   64.90    5.28
  -6  -2  -1   95.04    4.12
  -6  -2  -1   48.10    3.93
  -6   2  -1   88.46    5.28
  -6   2  -1   68.14    4.54
   6  -2   1  112.91    5.88
   6  -2   1   48.47    3.52
   6  -2   1   62.63    4.21
   6   2   1  102.58    6.57
   6   2   1   69.81    4.07
  -6  -2  -2   50.69    5.00
  -6  -2  -2   64.02    3.89
  -6  -2  -2   32.96    3.52
  -6   2  -2   59.62    5.23
  -6   2  -2   46.62    4.44
   6  -2   2   76.89    5.97
   6  -2   2   37.91    3.61
   6  -2   2   39.81    4.07
   6   2   2   71.34    6.62
   6   2   2   46.57    4.40
  -6  -2  -3   16.90    3.75
  -6  -2  -3   13.15    2.31
  -6  -2  -3   12.78    2.82
  -6   2  -3   19.40    4.03
  -6   2  -3    8.70    2.96
   6  -2   3   15.74    3.52
   6  -2   3   10.00    2.45
   6  -2   3   12.08    2.96
   6   2   3   19.35    4.21
   6   2   3   15.65    3.24
   6   2   3   16.29    3.15
  -6  -2  -4   39.26    3.84
  -6   2  -4   42.36    4.58
   6  -2   4   69.85    5.88
   6  -2   4   36.39    3.75
   6   2   4   71.43    6.90
   6   2   4   39.76    4.12
   6   2   4   62.54    4.58
  -6  -2  -5   10.65    3.66
  -6  -2  -5    5.37    2.73
  -6   2  -5   12.04    4.12
  -6   2  -5    9.40    3.43
   6  -2   5    9.58    3.43
   6  -2   5    9.44    2.59
   6  -2   5   12.04    3.19
   6   2   5    8.33    5.37
   6   2   5    7.45    2.87
  -6  -2  -6   -1.90    3.84
  -6   2  -6    8.93    3.89
   6  -2   6    8.29    3.61
   6  -2   6    6.16    3.01
   6   2   6   -0.97    2.68
   6   2   6    1.81    3.10
  -6  -3   9    1.62    3.70
  -6  -3   9    8.98    5.60
  -6  -3   9    3.61    3.10
  -6   3   9    9.21    3.15
  -6   3   9   11.02    3.80
   6  -3  -9   16.25    4.44
   6  -3  -9   12.36    3.38
   6  -3  -9    5.23    3.06
   6   3  -9   10.97    3.66
   6   3  -9    7.08    3.15
  -6  -3   8    0.23    3.29
  -6  -3   8    5.28    3.15
  -6  -3   8    3.75    3.06
  -6   3   8    2.50    2.27
  -6   3   8    1.11    3.33
   6  -3  -8    1.57    4.03
   6  -3  -8    2.04    2.92
   6   3  -8    0.00    3.98
   6   3  -8    5.18    3.06
  -6  -3   7   47.03    4.95
  -6  -3   7   47.22    4.54
  -6  -3   7   24.07    3.29
  -6   3   7   37.03    5.09
  -6   3   7   49.30    4.81
   6  -3  -7   50.09    5.60
   6   3  -7   24.12    6.02
   6   3  -7   24.67    3.38
  -6  -3   6   34.72    4.77
  -6  -3   6   33.14    3.61
  -6  -3   6   26.02    3.47
  -6   3   6   36.11    4.31
  -6   3   6   21.16    3.38
  -6   3   6   30.51    3.52
   6   3  -6   38.24    4.68
  -6  -3   5  114.48    4.91
  -6  -3   5   62.54    4.68
  -6   3   5   80.04    5.56
  -6   3   5   74.39    4.68
   6  -3  -5  122.77    6.80
   6   3  -5  142.81   10.55
   6   3  -5  102.58    5.88
  -6  -3   4   13.05    3.01
  -6   3   4   13.15    3.10
  -6   3   4    6.34    2.73
   6  -3  -4   18.24    4.12
   6  -3  -4    8.98    5.05
   6   3  -4   15.23    3.19
   6   3  -4   10.69    2.50
  -6  -3   3   74.16    4.07
  -6  -3   3   38.61    3.75
  -6   3   3   64.95    4.95
  -6   3   3   34.12    4.12
   6  -3  -3   76.75    6.43
   6  -3  -3   36.80    3.93
   6   3  -3   54.90    5.23
   6   3  -3   50.69    3.80
  -6  -3   2   70.83    4.35
  -6  -3   2   39.72    4.26
  -6   3   2   49.62    5.09
  -6   3   2   43.24    4.21
   6  -3  -2   69.72    6.34
   6  -3  -2   46.80    4.12
   6   3  -2   45.69    4.91
  -6  -3   1   25.32    3.15
  -6   3   1   58.84    5.09
  -6   3   1   23.47    3.29
  -6   3   1   43.98    5.14
   6  -3  -1   69.81    6.16
   6  -3  -1   38.75    3.98
   6   3  -1   39.07    4.21
   6   3  -1   45.83    4.17
  -6  -3   0   35.83    4.72
  -6  -3   0   22.08    3.15
  -6   3   0   34.26    3.75
  -6   3   0   17.68    3.24
  -6   3   0   27.59    4.44
   6  -3   0   50.41    5.69
   6  -3   0   20.23    3.24
   6  -3   0   16.25    3.29
   6   3   0   48.56    6.11
   6   3   0   28.28    3.66
   6   3   0   35.18    4.31
  -6  -3  -1    7.31    3.33
  -6  -3  -1    5.18    2.59
  -6   3  -1    6.90    3.24
  -6   3  -1    4.58    3.06
   6  -3   1   10.69    3.52
   6  -3   1   -0.83    4.40
   6  -3   1    3.47    2.87
   6   3   1    7.31    4.26
   6   3   1    8.66    2.82
   6   3   1    0.97    2.73
  -6  -3  -2    9.21    3.56
  -6  -3  -2    3.52    3.10
  -6   3  -2    8.70    4.03
  -6   3  -2    9.49    3.52
   6  -3   2    6.57    3.43
   6  -3   2    2.27    2.73
   6  -3   2   11.06    3.15
   6   3   2   13.52    4.68
   6   3   2    0.42    2.96
   6   3   2    8.84    3.24
  -6  -3  -3   11.48    3.66
  -6   3  -3    9.54    4.21
  -6   3  -3    9.58    3.61
   6  -3   3    8.93    3.43
   6  -3   3    4.44    2.87
   6  -3   3    7.13    3.01
   6   3   3   10.69    5.00
   6   3   3    5.18    3.06
   6   3   3    3.10    3.19
  -7   0   9   12.64    3.66
  -7   0   9   15.32    2.92
  -7   0   9   10.88    3.56
   7   0  -9   17.45    4.26
   7   0  -9   20.69    3.66
   7   0  -9   11.34    2.45
  -7   0   8    2.68    3.43
  -7   0   8    2.87    2.45
  -7   0   8    6.43    3.24
   7   0  -8    0.56    4.21
   7   0  -8   -0.09    2.96
   7   0  -8    2.31    2.41
  -7   0   7    4.49    3.43
   7   0  -7   14.49    4.63
   7   0  -7   17.50    3.47
   7   0  -7    5.23    2.73
  -7   0   6    3.70    3.19
  -7   0   6   -0.46    2.36
  -7   0   6    4.26    3.56
   7   0  -6    6.71    4.44
   7   0  -6    9.49    3.06
   7   0  -6    3.75    2.36
  -7   0   5   11.48    3.43
  -7   0   5   16.71    2.59
  -7   0   5   16.34    3.33
   7   0  -5   31.52    6.02
   7   0  -5   32.36    3.33
   7   0  -5   11.99    2.59
  -7   0   4   37.50    4.07
  -7   0   4   37.36    3.52
  -7   0   4   49.81    4.63
   7   0  -4   93.14    4.35
   7   0  -4   37.26    3.84
  -7   0   3    8.15    3.29
  -7   0   3   11.06    2.31
  -7   0   3   10.74    3.24
   7   0  -3   10.55    2.59
  -7   0   2   25.04    4.12
  -7   0   2   10.97    2.31
  -7   0   2   19.49    3.47
   7   0  -2   27.45    5.14
   7   0  -2   18.33    2.96
  -7   0   1    1.90    2.18
  -7   0   1    5.88    2.87
   7   0  -1   12.73    4.54
   7   0  -1    2.73    2.04
   7   0  -1    7.36    2.68
  -7   0   0   23.52    6.53
  -7   0   0   16.80    2.87
  -7   0   0   25.88    3.75
   7   0   0   33.10    5.93
   7   0   0   12.08    2.50
   7   0   0   19.49    3.29
  -7   0  -1    7.18    3.80
  -7   0  -1    0.83    2.55
  -7   0  -1    0.69    3.01
   7   0   1   -0.19    4.49
   7   0   1   -2.36    4.07
  -7   0  -2    3.24    3.75
  -7   0  -2   -1.71    2.55
  -7   0  -2   -0.19    3.15
   7   0   2   -5.23    5.05
   7   0   2    2.41    2.27
   7   0   2   -0.74    3.24
  -7  -1   8    0.28    3.33
  -7  -1   8    3.15    3.29
  -7   1   8   11.11    3.19
  -7   1   8    2.92    3.01
  -7   1   8   12.82    3.56
   7  -1  -8   19.54    4.81
   7  -1  -8    8.29    3.38
   7  -1  -8    7.87    3.06
   7   1  -8   16.99    4.91
   7   1  -8   16.80    3.84
   7   1  -8    4.91    2.82
  -7  -1   7   22.78    3.66
  -7   1   7   27.27    3.66
  -7   1   7   38.56    4.35
  -7   1   7   26.80    3.89
   7  -1  -7   48.10    5.69
   7  -1  -7   19.30    3.24
   7   1  -7   49.07    5.28
   7   1  -7   53.37    5.14
   7   1  -7   18.05    2.73
  -7  -1   6   21.34    3.93
  -7  -1   6   26.48    3.70
  -7   1   6   22.50    3.70
  -7   1   6   21.66    2.87
  -7   1   6   25.78    3.84
   7  -1  -6   38.28    4.95
   7  -1  -6   14.67    2.92
   7   1  -6   31.43    4.44
   7   1  -6   43.93    4.63
   7   1  -6   16.25    2.78
  -7  -1   5   59.76    7.18
  -7  -1   5   42.36    4.72
  -7   1   5   42.13    4.26
  -7   1   5   33.52    3.43
  -7   1   5   34.86    4.95
   7  -1  -5   52.45    6.11
   7  -1  -5   29.67    3.29
   7   1  -5   68.47    6.57
   7   1  -5   34.63    3.98
  -7  -1   4   24.07    6.06
  -7  -1   4   38.98    4.31
  -7  -1   4   28.33    3.43
  -7   1   4   26.62    3.80
  -7   1   4   21.62    2.78
   7  -1  -4   21.66    3.06
   7   1  -4   45.41    5.09
   7   1  -4   44.44    4.21
   7   1  -4   18.98    3.01
  -7  -1   3   41.99    4.26
  -7  -1   3   26.15    2.82
  -7   1   3   44.21    5.14
  -7   1   3   28.01    3.47
  -7   1   3   34.21    6.39
   7  -1  -3   35.27    3.75
   7   1  -3   56.99    6.85
   7   1  -3   57.26    4.07
   7   1  -3   34.58    3.80
  -7  -1   2   10.37    3.84
  -7  -1   2   18.47    3.47
  -7  -1   2    8.56    2.55
  -7   1   2   19.49    3.52
  -7   1   2   10.51    2.78
  -7   1   2   17.41    3.52
   7  -1  -2   32.36    5.56
   7  -1  -2   15.46    2.73
   7  -1  -2   13.56    3.10
   7   1  -2   34.02    5.05
   7   1  -2   16.80    3.38
   7   1  -2   12.68    3.06
  -7  -1   1   15.69    3.70
  -7  -1   1   15.55    3.29
  -7   1   1   20.83    4.35
  -7   1   1   12.27    2.55
  -7   1   1   18.42    3.61
   7  -1  -1   19.95    4.58
   7  -1  -1   10.92    2.50
   7   1  -1   25.28    5.18
   7   1  -1   15.83    2.68
   7   1  -1   14.21    2.92
  -7  -1   0   37.36    4.72
  -7  -1   0   37.82    4.44
  -7  -1   0   29.86    3.15
  -7   1   0   34.35    7.55
  -7   1   0   22.64    2.96
  -7   1   0   39.49    4.77
   7  -1   0   74.76    5.83
   7  -1   0   21.53    2.64
   7  -1   0   30.74    3.89
   7   1   0   60.23    7.22
   7   1   0   29.21    3.33
  -7  -1  -1    7.82    4.03
  -7  -1  -1    9.03    2.96
  -7  -1  -1    5.32    2.68
  -7   1  -1    3.89    4.12
  -7   1  -1    5.28    2.50
  -7   1  -1    9.77    3.84
   7  -1   1   19.35    4.44
   7  -1   1    2.41    2.13
   7  -1   1   10.28    3.19
   7   1   1   14.03    4.44
   7   1   1   11.71    3.38
   7  -1   2   64.76    7.18
   7   1   2   66.34    6.16
  -7  -2   5    7.04    4.12
  -7  -2   5    7.04    3.10
  -7  -2   5    6.48    2.82
  -7   2   5   11.06    3.56
  -7   2   5    4.12    2.92
  -7   2   5    5.14    3.43
   7  -2  -5   15.32    4.77
   7  -2  -5    1.85    2.87
   7   2  -5    2.64    4.26
   7   2  -5    4.21    3.19
   7   2  -5    8.61    2.59
  -7  -2   4   10.28    3.75
  -7  -2   4   24.30    3.75
  -7  -2   4   13.19    2.96
  -7   2   4   25.60    3.93
  -7   2   4    8.24    2.92
  -7   2   4   13.79    3.70
   7  -2  -4   23.52    4.72
   7  -2  -4   17.22    3.43
   7   2  -4   23.93    4.91
   7   2  -4   21.39    3.66
   7   2  -4   12.82    2.78
  -7  -2   3   11.85    3.80
  -7  -2   3   14.35    3.47
  -7  -2   3   12.73    3.01
  -7   2   3   13.33    3.89
  -7   2   3    2.50    2.68
  -7   2   3    2.96    3.33
   7  -2  -3   10.32    4.86
   7  -2  -3    8.80    3.24
   7   2  -3    8.93    4.49
   7   2  -3   10.88    3.15
   7   2  -3    9.40    2.59
  -7  -2   2    0.79    3.66
  -7  -2   2   -0.65    2.87
  -7  -2   2   -1.67    2.73
  -7   2   2    3.43    3.84
  -7   2   2    2.59    2.78
  -7   2   2    1.71    3.38
   7  -2  -2    3.10    2.82
   7  -2  -2    1.81    3.19
   7   2  -2    3.98    4.35
   7   2  -2    5.65    3.06
   7   2  -2    2.78    2.64
   7   2  -1    7.82    4.40
   0   0   0    0.00    0.00


_computing_structure_solution     'SHELXT 2014/4 (Sheldrick, 2014)'
_computing_structure_solution     'SHELXT 2014/5 (Sheldrick, 2014)'
_computing_structure_solution     'SHELXT 2014/5 (Sheldrick, 2014)'
;
_shelx_hkl_checksum              24450
_olex2_submission_special_instructions 'No special instructions were received'
loop_
_space_group_symop_operation_xyz
'x, y, z'
'-x, y+1/2, -z'
loop_
_atom_site_label
_atom_site_type_symbol
_atom_site_fract_x
_atom_site_fract_y
_atom_site_fract_z
_atom_site_U_iso_or_equiv
_atom_site_adp_type
_atom_site_occupancy
_atom_site_site_symmetry_order
_atom_site_calc_flag
_atom_site_refinement_flags_posn
_atom_site_refinement_flags_adp
_atom_site_refinement_flags_occupancy
_atom_site_disorder_assembly
_atom_site_disorder_group
O7 O 0.6345(6) 0.3155(7) 0.0717(2) 0.0386(10) Uani 1 1 d . . . . .
O8 O 0.5541(6) 0.6332(7) 0.1519(2) 0.0369(9) Uani 1 1 d . . . . .
O11 O 0.8606(6) -0.1226(9) 0.0713(3) 0.0411(10) Uani 1 1 d . . . . .
N9 N 0.2900(6) 0.0365(8) 0.0893(3) 0.0293(9) Uani 1 1 d . . . . .
H9A H 0.309165 0.063002 0.035391 0.035 Uiso 1 1 calc GR . . . .
H9B H 0.154976 -0.019617 0.088046 0.035 Uiso 1 1 calc GR . . . .
H9C H 0.385804 -0.077850 0.114803 0.035 Uiso 1 1 calc GR . . . .
O10 O -0.1531(8) 1.0914(9) 0.3997(3) 0.0562(13) Uani 1 1 d . . . . .
O9 O 0.1607(7) 1.1247(10) 0.4828(3) 0.0534(12) Uani 1 1 d . . . . .
N8 N 0.0351(8) 1.0243(9) 0.4228(3) 0.0368(11) Uani 1 1 d . . . . .
C10 C 0.5202(7) 0.4186(10) 0.1186(3) 0.0251(10) Uani 1 1 d . . . . .
C11 C 0.3232(7) 0.2763(9) 0.1387(3) 0.0238(10) Uani 1 1 d . . . . .
H11 H 0.193412 0.381870 0.120341 0.029 Uiso 1 1 calc R . . . .
C13 C 0.2682(8) 0.4322(10) 0.2862(3) 0.0292(10) Uani 1 1 d . . . . .
C16 C 0.1165(8) 0.8152(10) 0.3770(3) 0.0310(11) Uani 1 1 d . . . . .
C15 C 0.3305(8) 0.7397(12) 0.4017(3) 0.0354(12) Uani 1 1 d . . . . .
H15 H 0.421914 0.815524 0.448467 0.042 Uiso 1 1 calc R . . . .
C14 C 0.4071(8) 0.5479(11) 0.3553(3) 0.0334(11) Uani 1 1 d . . . . .
H14 H 0.551951 0.496284 0.370442 0.040 Uiso 1 1 calc R . . . .
C17 C -0.0255(8) 0.7038(11) 0.3101(3) 0.0354(12) Uani 1 1 d . . . . .
H17 H -0.170224 0.756082 0.295372 0.042 Uiso 1 1 calc R . . . .
C12 C 0.3455(9) 0.2211(10) 0.2361(3) 0.0330(12) Uani 1 1 d . . . . .
H12A H 0.262750 0.069960 0.243048 0.040 Uiso 1 1 calc R . . . .
H12B H 0.497736 0.186811 0.260457 0.040 Uiso 1 1 calc R . . . .
C18 C 0.0533(8) 0.5106(11) 0.2649(3) 0.0365(12) Uani 1 1 d . . . . .
H18 H -0.040477 0.432376 0.219359 0.044 Uiso 1 1 calc R . . . .
H11A H 0.770(12) -0.001(16) 0.068(5) 0.047(19) Uiso 1 1 d . . . . .
H11B H 0.790(16) -0.23(2) 0.093(5) 0.08(3) Uiso 1 1 d . . . . .
loop_
_atom_site_aniso_label
_atom_site_aniso_U_11
_atom_site_aniso_U_22
_atom_site_aniso_U_33
_atom_site_aniso_U_23
_atom_site_aniso_U_13
_atom_site_aniso_U_12
O7 0.041(2) 0.040(2) 0.0429(19) 0.0016(16) 0.0266(16) -0.0013(17)
O8 0.0406(19) 0.0314(19) 0.0402(18) -0.0044(16) 0.0114(14) -0.0088(16)
O11 0.0318(19) 0.043(2) 0.052(2) 0.0032(18) 0.0162(16) -0.0048(19)
N9 0.030(2) 0.031(2) 0.0299(19) -0.0062(16) 0.0126(15) -0.0066(17)
O10 0.060(3) 0.057(3) 0.054(2) -0.003(2) 0.0153(19) 0.023(2)
O9 0.064(3) 0.053(3) 0.044(2) -0.019(2) 0.0137(19) -0.005(2)
N8 0.049(3) 0.036(2) 0.030(2) 0.0003(19) 0.0197(19) 0.004(2)
C10 0.024(2) 0.028(2) 0.0241(19) 0.0064(18) 0.0061(16) -0.0013(18)
C11 0.028(2) 0.024(2) 0.0224(19) 0.0005(17) 0.0111(16) -0.0005(18)
C13 0.038(2) 0.036(2) 0.0177(19) 0.0020(19) 0.0140(17) -0.001(2)
C16 0.044(3) 0.030(2) 0.024(2) 0.0014(18) 0.016(2) 0.000(2)
C15 0.041(3) 0.046(3) 0.020(2) -0.004(2) 0.0063(17) -0.002(2)
C14 0.034(2) 0.043(3) 0.024(2) 0.001(2) 0.0070(19) 0.001(2)
C17 0.027(2) 0.049(3) 0.033(2) -0.003(2) 0.0137(18) 0.000(2)
C12 0.043(3) 0.035(3) 0.025(2) 0.004(2) 0.0159(19) 0.002(2)
C18 0.034(2) 0.045(3) 0.032(2) -0.008(2) 0.0103(19) -0.003(2)
loop_
_atom_type_symbol
_atom_type_description
_atom_type_scat_dispersion_real
_atom_type_scat_dispersion_imag
_atom_type_scat_source
C C 0.0033 0.0016 'International Tables Vol C Tables 4.2.6.8 and 6.1.1.4'
H H 0.0000 0.0000 'International Tables Vol C Tables 4.2.6.8 and 6.1.1.4'
N N 0.0061 0.0033 'International Tables Vol C Tables 4.2.6.8 and 6.1.1.4'
O O 0.0106 0.0060 'International Tables Vol C Tables 4.2.6.8 and 6.1.1.4'
loop_
_geom_angle_atom_site_label_1
_geom_angle_atom_site_label_2
_geom_angle_atom_site_label_3
_geom_angle
_geom_angle_site_symmetry_1
_geom_angle_site_symmetry_3
_geom_angle_publ_flag
H11A O11 H11B 98(7) . . ?
H9A N9 H9B 109.5 . . ?
H9A N9 H9C 109.5 . . ?
H9B N9 H9C 109.5 . . ?
C11 N9 H9A 109.5 . . ?
C11 N9 H9B 109.5 . . ?
C11 N9 H9C 109.5 . . ?
O10 N8 O9 122.8(5) . . ?
O10 N8 C16 118.8(5) . . ?
O9 N8 C16 118.4(5) . . ?
O7 C10 O8 125.1(4) . . ?
O7 C10 C11 118.9(4) . . ?
O8 C10 C11 116.0(4) . . ?
N9 C11 C10 110.5(4) . . ?
N9 C11 H11 108.1 . . ?
N9 C11 C12 109.6(4) . . ?
C10 C11 H11 108.1 . . ?
C10 C11 C12 112.3(4) . . ?
C12 C11 H11 108.1 . . ?
C14 C13 C12 121.5(4) . . ?
C18 C13 C14 119.0(5) . . ?
C18 C13 C12 119.5(5) . . ?
C15 C16 N8 119.4(5) . . ?
C17 C16 N8 117.9(5) . . ?
C17 C16 C15 122.7(5) . . ?
C16 C15 H15 120.7 . . ?
C16 C15 C14 118.6(5) . . ?
C14 C15 H15 120.7 . . ?
C13 C14 H14 119.8 . . ?
C15 C14 C13 120.4(5) . . ?
C15 C14 H14 119.8 . . ?
C16 C17 H17 121.0 . . ?
C16 C17 C18 118.0(5) . . ?
C18 C17 H17 121.0 . . ?
C11 C12 H12A 108.8 . . ?
C11 C12 H12B 108.8 . . ?
C13 C12 C11 113.9(4) . . ?
C13 C12 H12A 108.8 . . ?
C13 C12 H12B 108.8 . . ?
H12A C12 H12B 107.7 . . ?
C13 C18 C17 121.4(5) . . ?
C13 C18 H18 119.3 . . ?
C17 C18 H18 119.3 . . ?
loop_
_geom_bond_atom_site_label_1
_geom_bond_atom_site_label_2
_geom_bond_distance
_geom_bond_site_symmetry_2
_geom_bond_publ_flag
O7 C10 1.246(6) . ?
O8 C10 1.252(6) . ?
O11 H11A 0.85(9) . ?
O11 H11B 0.83(12) . ?
N9 H9A 0.8900 . ?
N9 H9B 0.8900 . ?
N9 H9C 0.8900 . ?
N9 C11 1.481(6) . ?
O10 N8 1.213(6) . ?
O9 N8 1.225(7) . ?
N8 C16 1.465(7) . ?
C10 C11 1.527(6) . ?
C11 H11 0.9800 . ?
C11 C12 1.539(6) . ?
C13 C14 1.393(7) . ?
C13 C12 1.501(7) . ?
C13 C18 1.381(7) . ?
C16 C15 1.376(7) . ?
C16 C17 1.370(7) . ?
C15 H15 0.9300 . ?
C15 C14 1.388(8) . ?
C14 H14 0.9300 . ?
C17 H17 0.9300 . ?
C17 C18 1.388(8) . ?
C12 H12A 0.9700 . ?
C12 H12B 0.9700 . ?
C18 H18 0.9300 . ?
