#------------------------------------------------------------------------------
#$Date: 2020-06-24 04:11:37 +0300 (Wed, 24 Jun 2020) $
#$Revision: 253384 $
#$URL: file:///home/coder/svn-repositories/cod/cif/1/55/83/1558397.cif $
#------------------------------------------------------------------------------
#
# This file is available in the Crystallography Open Database (COD),
# http://www.crystallography.net/
#
# All data on this site have been placed in the public domain by the
# contributors.
#
data_1558397
loop_
_publ_author_name
'Ding, Wei'
'Wang, Chen'
'Tan, Jie Ren'
'Ho, Chang Chin'
'Le\'on, Felix'
'Garcia, Felipe'
'Yoshikai, Naohiko'
_publ_section_title
;
 Site-selective aromatic C--H \l3-iodanation with cyclic iodine(III)
 electrophile in solution and solid phases
;
_journal_name_full               'Chemical Science'
_journal_paper_doi               10.1039/D0SC02737E
_journal_year                    2020
_chemical_formula_sum            'C17 H10 F6 I N O3'
_chemical_formula_weight         517.16
_chemical_melting_point          272.0(10)
_space_group_crystal_system      triclinic
_space_group_IT_number           2
_space_group_name_Hall           '-P 1'
_space_group_name_H-M_alt        'P -1'
_atom_sites_solution_hydrogens   geom
_atom_sites_solution_primary     dual
_audit_update_record
;
2020-02-03 deposited with the CCDC.	2020-06-22 downloaded from the CCDC.
;
_cell_angle_alpha                74.8246(15)
_cell_angle_beta                 86.9207(15)
_cell_angle_gamma                83.5890(14)
_cell_formula_units_Z            2
_cell_length_a                   7.5364(3)
_cell_length_b                   8.1598(3)
_cell_length_c                   14.6308(6)
_cell_measurement_reflns_used    7468
_cell_measurement_temperature    100.(2)
_cell_measurement_theta_max      31.4720
_cell_measurement_theta_min      2.5997
_cell_volume                     862.64(6)
_computing_cell_refinement       'SAINT V8.38A (Bruker AXS Inc., 2017)'
_computing_data_collection       'APEX3 (Bruker AXS Inc., 2018)'
_computing_data_reduction        'SAINT V8.38A (Bruker AXS Inc., 2017)'
_computing_molecular_graphics    'XP (Bruker AXS Inc., 2018)'
_computing_publication_material  'APEX3 (Bruker AXS Inc., 2018)'
_computing_structure_refinement  'SHELXL-2018/3 (Sheldrick, 2018)'
_computing_structure_solution    'XT, VERSION 2014/5'
_diffrn_ambient_temperature      100.(2)
_diffrn_detector_area_resol_mean 7.4074
_diffrn_measured_fraction_theta_full 0.995
_diffrn_measured_fraction_theta_max 0.995
_diffrn_measurement_device_type  'Photon II CPADs detector'
_diffrn_measurement_method       'phi and omega scans'
_diffrn_radiation_monochromator  'Multilayer Mirror'
_diffrn_radiation_type           MoK\a
_diffrn_radiation_wavelength     0.71073
_diffrn_reflns_av_R_equivalents  0.0585
_diffrn_reflns_av_unetI/netI     0.0737
_diffrn_reflns_limit_h_max       11
_diffrn_reflns_limit_h_min       -7
_diffrn_reflns_limit_k_max       12
_diffrn_reflns_limit_k_min       -12
_diffrn_reflns_limit_l_max       22
_diffrn_reflns_limit_l_min       -22
_diffrn_reflns_number            20823
_diffrn_reflns_theta_full        33.80
_diffrn_reflns_theta_max         33.80
_diffrn_reflns_theta_min         2.60
_diffrn_source                   'Incoatec microfocus source'
_diffrn_source_type              'Bruker D8 Quest'
_exptl_absorpt_coefficient_mu    1.938
_exptl_absorpt_correction_T_max  0.83
_exptl_absorpt_correction_T_min  0.66
_exptl_absorpt_correction_type   multi-scan
_exptl_absorpt_process_details
;
SADABS-2016/2 - Bruker AXS area detector scaling and absorption correction
;
_exptl_crystal_colour            colourless
_exptl_crystal_density_diffrn    1.991
_exptl_crystal_density_method    'not measured'
_exptl_crystal_description       block
_exptl_crystal_F_000             500
_exptl_crystal_recrystallization_method
'Re-crystallisation from solvent: CH2Cl2 and hexane'
_exptl_crystal_size_max          0.200
_exptl_crystal_size_mid          0.140
_exptl_crystal_size_min          0.100
_refine_diff_density_max         0.770
_refine_diff_density_min         -1.134
_refine_ls_extinction_method     none
_refine_ls_goodness_of_fit_ref   1.050
_refine_ls_hydrogen_treatment    constr
_refine_ls_matrix_type           full
_refine_ls_number_parameters     254
_refine_ls_number_reflns         6892
_refine_ls_number_restraints     0
_refine_ls_restrained_S_all      1.050
_refine_ls_R_factor_all          0.0633
_refine_ls_R_factor_gt           0.0439
_refine_ls_shift/su_max          0.001
_refine_ls_shift/su_mean         0.000
_refine_ls_structure_factor_coef Fsqd
_refine_ls_weighting_details
'w=1/[\s^2^(Fo^2^)+(0.0148P)^2^+0.7450P] where P=(Fo^2^+2Fc^2^)/3'
_refine_ls_weighting_scheme      calc
_refine_ls_wR_factor_gt          0.0714
_refine_ls_wR_factor_ref         0.0791
_reflns_number_gt                5554
_reflns_number_total             6892
_reflns_threshold_expression     'I > 2\s(I)'
_cod_data_source_file            d0sc02737e2.cif
_cod_data_source_block           yoshi95m
_cod_depositor_comments
;
The following automatic conversions were performed:

data item '_chemical_melting_point' value '271-273' was changed to
'272.0(10)' -- the average value was taken and precision was
estimated.

data item '_exptl_absorpt_correction_type' value 'Multi-Scan' was
changed to 'multi-scan' in accordance with the
/home/data/users/saulius/crontab/automatic-downloads/rss-feeds/RSC/lib/dictionaries/cif_core.dic
dictionary named 'cif_core.dic' version 2.4.2 last updated on
2011-04-26.

Automatic conversion script
Id: cif_fix_values 7556 2019-12-06 15:28:31Z antanas 
;
_cod_database_code               1558397
_shelx_res_file
;

TITL yoshi95m in P-1
    yoshi95m.res
    created by SHELXL-2018/3 at 14:21:32 on 19-Aug-2019
CELL 0.71073   7.53640   8.15980  14.63080  74.8246  86.9207  83.5890
ZERR    2.00   0.00030   0.00030   0.00060   0.0015   0.0015   0.0014
LATT 1
SFAC C  H  F  I  N  O
UNIT 34  20  12  2  2  6
L.S. 10
ACTA
BOND $H
FMAP 2
PLAN 5
SIZE 0.10 0.14 0.20
TEMP -173.0
WGHT    0.014800    0.745000
FVAR       0.19744
C1    1    0.584071    0.320062    0.233836    11.00000    0.01914    0.01499 =
         0.01268   -0.00217    0.00143   -0.00030
C2    1    0.480168    0.469057    0.239409    11.00000    0.01688    0.01679 =
         0.01596   -0.00509    0.00072    0.00026
AFIX  43
H2    2    0.400367    0.470823    0.291741    11.00000   -1.20000
AFIX   0
C3    1    0.495974    0.615076    0.166619    11.00000    0.02001    0.01369 =
         0.02026   -0.00204   -0.00114    0.00238
AFIX  43
H3    2    0.427705    0.719134    0.168942    11.00000   -1.20000
AFIX   0
C4    1    0.611944    0.608752    0.090279    11.00000    0.02378    0.01796 =
         0.01678    0.00027   -0.00201   -0.00308
AFIX  43
H4    2    0.621256    0.708555    0.040023    11.00000   -1.20000
AFIX   0
C5    1    0.714516    0.457957    0.086634    11.00000    0.02284    0.02161 =
         0.01270   -0.00438    0.00411   -0.00199
AFIX  43
H5    2    0.793483    0.455783    0.034026    11.00000   -1.20000
AFIX   0
C6    1    0.702566    0.309662    0.159568    11.00000    0.01964    0.01462 =
         0.01392   -0.00386    0.00022    0.00033
C7    1    0.810842    0.136882    0.161559    11.00000    0.02154    0.01532 =
         0.01167   -0.00291    0.00522    0.00053
C8    1    0.758310    0.073455    0.077354    11.00000    0.02217    0.01840 =
         0.02767   -0.00873    0.00240   -0.00045
C9    1    1.012222    0.158925    0.155992    11.00000    0.02470    0.02315 =
         0.01577   -0.00831   -0.00241    0.00400
C10   1    0.379296    0.207945    0.428956    11.00000    0.01875    0.01491 =
         0.01168   -0.00166    0.00225    0.00159
C11   1    0.197691    0.183821    0.433802    11.00000    0.01631    0.01770 =
         0.01418   -0.00590   -0.00110    0.00149
AFIX  43
H11   2    0.146078    0.132579    0.391699    11.00000   -1.20000
AFIX   0
C12   1    0.098920    0.239625    0.503957    11.00000    0.01137    0.01494 =
         0.01676   -0.00396   -0.00064   -0.00106
C13   1    0.173360    0.312228    0.567127    11.00000    0.01292    0.01270 =
         0.01142   -0.00412    0.00056    0.00082
C14   1    0.351917    0.336944    0.562138    11.00000    0.01506    0.01372 =
         0.01849   -0.00453   -0.00135   -0.00300
AFIX  43
H14   2    0.402095    0.388941    0.604347    11.00000   -1.20000
AFIX   0
C15   1    0.455177    0.281508    0.491750    11.00000    0.01461    0.01475 =
         0.01711   -0.00159    0.00079   -0.00151
AFIX  43
H15   2    0.579410    0.294040    0.486446    11.00000   -1.20000
AFIX   0
C16   1   -0.116680    0.287647    0.607480    11.00000    0.01528    0.01896 =
         0.01923   -0.00708   -0.00191    0.00186
C17   1    0.054525    0.399425    0.714688    11.00000    0.01920    0.02510 =
         0.02156   -0.01461   -0.00145    0.00240
AFIX 137
H17A  2   -0.062233    0.407915    0.746921    11.00000   -1.50000
H17B  2    0.100914    0.511295    0.697649    11.00000   -1.50000
H17C  2    0.137589    0.316540    0.756999    11.00000   -1.50000
AFIX   0
F1    3    0.583790    0.051015    0.085402    11.00000    0.02325    0.03356 =
         0.05281   -0.02054    0.00129   -0.00491
F2    3    0.847184   -0.076569    0.075485    11.00000    0.03471    0.01948 =
         0.03281   -0.01393    0.00090    0.00358
F3    3    0.783994    0.180299   -0.007544    11.00000    0.03874    0.02863 =
         0.01761   -0.00841   -0.00329   -0.00035
F4    3    1.113334    0.010475    0.167454    11.00000    0.02612    0.02930 =
         0.03529   -0.01123    0.00134    0.01045
F5    3    1.067606    0.262031    0.074992    11.00000    0.02299    0.03439 =
         0.02575   -0.00456    0.00666   -0.00633
F6    3    1.052913    0.226434    0.225713    11.00000    0.03522    0.04405 =
         0.03039   -0.02258   -0.01142    0.00690
I1    4    0.562863    0.091656    0.341532    11.00000    0.02072    0.01379 =
         0.01467   -0.00089    0.00549    0.00243
N1    5    0.035656    0.343722    0.629207    11.00000    0.01304    0.01810 =
         0.01520   -0.00763    0.00021    0.00036
O1    6    0.778970    0.015677    0.242618    11.00000    0.03652    0.01630 =
         0.02018    0.00123    0.01325    0.00708
O2    6   -0.079520    0.225678    0.527238    11.00000    0.01086    0.02709 =
         0.02139   -0.01248    0.00043   -0.00205
O3    6   -0.261671    0.288223    0.645307    11.00000    0.01197    0.03443 =
         0.02798   -0.01368    0.00276   -0.00093
HKLF 4




REM  yoshi95m in P-1
REM wR2 = 0.079140, GooF = S = 1.04956, Restrained GooF = 1.04956 for all data
REM R1 = 0.043948 for 5554 Fo > 4sig(Fo) and 0.063267 for all 6892 data
REM 254 parameters refined using 0 restraints

END

WGHT      0.0128      0.7680

REM Highest difference peak  0.770,  deepest hole -1.134,  1-sigma level  0.171
Q1    1   0.8897  0.1967  0.1526  11.00000  0.05    0.77
Q2    1   0.4641  0.2207  0.3212  11.00000  0.05    0.71
Q3    1   0.1548  0.2522  0.5399  11.00000  0.05    0.69
Q4    1   0.4967 -0.0427  0.2578  11.00000  0.05    0.68
Q5    1   0.5618 -0.0450  0.3514  11.00000  0.05    0.62
;
_shelx_res_checksum              47386
_shelx_hkl_file
;
   5   0   0   30.00    2.67
   5   0   0   29.67    2.81
   6   0   0  110.27    6.97
   6   0   0  121.01    6.98
   6   0   0  128.26    6.37
   7   0   0   27.04    3.13
   7   0   0   28.29    3.12
   7   0   0   32.42    2.80
   8   0   0   58.20    4.81
   8   0   0   46.46    4.56
   8   0   0   46.53    4.86
   8   0   0   52.02    3.92
   8   0   0   54.37    4.74
   9   0   0   13.27    2.71
   9   0   0   13.00    2.23
   9   0   0   14.58    2.79
   9   0   0    8.52    2.17
   9   0   0   12.58    2.63
  10   0   0    5.54    1.82
  10   0   0    8.79    2.61
  10   0   0    5.67    2.01
  10   0   0    4.72    1.77
  10   0   0    1.00    1.53
  11   0   0    2.25    1.38
  11   0   0    5.21    2.18
  11   0   0    2.35    1.64
  11   0   0    4.26    1.93
  11   0   0    3.41    2.19
  11  -1   0    6.06    1.78
  11  -1   0    9.33    2.75
  11  -1   0   10.49    3.75
  11  -1   0   10.64    2.67
  11  -1   0    8.65    1.98
  10  -1   0   21.47    2.48
  10  -1   0   13.98    3.21
  10  -1   0   20.40    3.78
  10  -1   0   18.67    3.77
  10  -1   0   22.37    2.71
   9  -1   0   63.64    6.92
   9  -1   0   83.30    6.65
   9  -1   0   80.44    6.83
   9  -1   0   75.07    5.95
   9  -1   0   67.88    5.67
   8  -1   0   30.69    2.85
   8  -1   0   23.14    3.90
   8  -1   0   26.97    2.62
   8  -1   0   25.98    3.62
   7  -1   0   67.94    4.52
   7  -1   0   68.48    5.50
   7  -1   0   60.66    5.46
   7  -1   0   76.89    4.57
   6  -1   0    0.42    0.43
   6  -1   0   -1.22    0.47
   6  -1   0    1.16    0.50
   5  -1   0    0.43    0.41
   5  -1   0    0.82    0.80
   4  -1   0   55.35    4.03
   4  -1   0   51.36    3.02
   3  -1   0   61.77    3.14
   2  -1   0  180.91    7.37
  -2   1   0  186.99    7.39
   1  -1   0  130.04    5.34
   1  -1   0  136.42    5.27
  -1   1   0  132.33    5.30
   0  -1   0  367.25   12.82
   0  -1   0  318.45   12.85
   0   1   0  328.40   12.90
  -1  -1   0    3.06    0.34
  -1  -1   0    1.96    0.45
   1   1   0    3.21    0.35
   1   1   0    2.75    0.54
  -2  -1   0   52.03    2.57
   2   1   0   53.65    2.54
   3   1   0  199.76    8.34
   4   1   0  167.98    7.60
   5   1   0  199.67    9.24
   5   1   0  202.48    9.31
   6   1   0  199.48    9.65
   6   1   0  203.58   10.35
   6   1   0  198.11    9.69
   7   1   0   26.08    2.68
   7   1   0   26.55    3.03
   7   1   0   23.85    2.61
   8   1   0   34.96    3.81
   8   1   0   30.88    3.29
   8   1   0   33.46    3.60
   8   1   0   32.70    3.22
   9   1   0    8.88    2.18
   9   1   0   11.72    2.79
   9   1   0   14.25    2.95
   9   1   0   12.37    2.89
   9   1   0   10.36    2.19
  10   1   0    1.32    1.38
  10   1   0    0.39    1.01
  10   1   0   -0.04    1.05
  10   1   0   -0.89    1.16
  10   1   0    0.72    1.32
  11   1   0    0.36    1.36
  11   1   0   -0.21    1.30
  11   1   0    2.04    1.65
  11   1   0    1.17    1.63
  11   1   0    1.44    1.15
  11  -2   0    5.95    2.46
  11  -2   0   -2.34    1.74
  11  -2   0    1.56    2.32
  10  -2   0   13.70    2.76
  10  -2   0   13.74    3.88
  10  -2   0   12.09    3.33
   9  -2   0   17.44    3.01
   9  -2   0   18.57    3.79
   9  -2   0   18.92    2.08
   9  -2   0   19.38    1.99
   9  -2   0   12.06    2.60
   9  -2   0   19.33    4.42
   9  -2   0   18.56    2.10
   8  -2   0    0.27    0.44
   8  -2   0    0.68    0.58
   8  -2   0   -0.34    0.76
   8  -2   0   -0.21    0.82
   7  -2   0    1.45    0.59
   7  -2   0    0.90    0.99
   7  -2   0    1.04    0.54
   6  -2   0    2.49    0.77
   6  -2   0    2.35    1.19
   6  -2   0    2.90    0.73
   5  -2   0   79.07    5.87
   5  -2   0   74.79    3.80
   5  -2   0   80.35    4.26
   4  -2   0  161.03    6.57
   4  -2   0  155.15    8.78
   4  -2   0  164.88    7.14
   3  -2   0  406.21   15.63
   3  -2   0  392.48   17.29
   3  -2   0  395.51   14.79
   3  -2   0  405.94   15.61
  -3   2   0  397.27   15.68
   2  -2   0  149.25    7.71
   2  -2   0  166.71    6.65
   2  -2   0  159.63    6.55
  -2   2   0  153.69    6.66
   1  -2   0  523.02   19.43
   1  -2   0  508.17   19.33
   1  -2   0  477.99   20.16
  -1   2   0  530.61   19.38
   0  -2   0   17.93    1.48
   0  -2   0   21.57    1.49
   0  -2   0   19.35    1.41
   0   2   0   20.44    1.43
   0   2   0   20.65    1.41
  -1  -2   0   29.31    2.07
  -1  -2   0   32.94    1.85
  -2  -2   0  120.22    5.05
   2   2   0  121.52    5.08
   2   2   0  111.00    5.77
  -3  -2   0   57.06    2.95
   3   2   0   50.82    3.58
   3   2   0   57.89    2.94
   4   2   0  161.61    8.20
   4   2   0  157.44    6.63
   4   2   0  159.17    7.05
   5   2   0  171.06    7.80
   5   2   0  181.29    9.44
   5   2   0  192.13    8.30
   6   2   0    7.84    1.09
   6   2   0    8.92    1.62
   6   2   0    6.90    1.83
   7   2   0   68.68    5.52
   7   2   0   71.66    4.68
   7   2   0   72.02    4.33
   8   2   0    2.44    0.99
   8   2   0    3.90    1.07
   8   2   0    2.95    1.49
   9   2   0   -0.46    0.65
   9   2   0    1.54    1.08
   9   2   0    0.72    1.25
   9   2   0    1.29    0.86
  10   2   0    4.27    1.64
  10   2   0    2.45    1.69
  10   2   0    0.70    1.50
  10   2   0    1.91    1.19
  10   2   0   -0.57    0.75
  11   2   0   15.00    2.90
  11   2   0   30.55    3.90
  11   2   0   16.53    3.28
  11   2   0   16.59    2.70
  11   2   0   22.22    4.12
  11  -3   0    2.42    2.50
  11  -3   0    4.63    3.16
  10  -3   0    9.53    3.09
  10  -3   0    5.99    1.50
  10  -3   0    8.61    2.86
  10  -3   0    5.81    1.71
   9  -3   0    5.56    2.66
   9  -3   0    5.69    1.42
   9  -3   0    3.84    1.81
   9  -3   0    4.19    1.75
   8  -3   0    6.23    2.34
   8  -3   0    3.35    1.25
   8  -3   0    4.62    1.25
   7  -3   0    8.46    1.49
   7  -3   0    8.09    2.61
   7  -3   0    5.20    1.45
   6  -3   0   17.34    3.54
   6  -3   0   21.48    1.95
   6  -3   0   15.28    1.71
   5  -3   0  188.02    8.33
   5  -3   0  193.52    8.42
   5  -3   0  170.05   10.52
   4  -3   0   86.28    4.28
   4  -3   0   81.44    4.25
   4  -3   0   76.40    5.87
  -4   3   0   80.36    4.37
   3  -3   0  140.12    6.14
   3  -3   0  141.24    6.25
   3  -3   0  125.20    7.69
  -3   3   0  133.30    6.30
   2  -3   0  120.37    5.52
   2  -3   0  109.68    6.59
   2  -3   0  113.29    5.34
  -2   3   0  120.80    5.49
  -2   3   0  122.76    5.46
   1  -3   0   41.28    2.61
   1  -3   0   42.54    2.56
   1  -3   0   45.52    3.28
  -1   3   0   43.47    2.52
  -1   3   0   43.06    2.55
   0  -3   0   24.72    1.98
   0  -3   0   25.39    2.10
   0  -3   0   29.31    2.10
   0   3   0   30.74    2.09
   0   3   0   27.16    1.96
  -1  -3   0   37.83    2.34
  -1  -3   0   44.31    2.90
  -1  -3   0   39.79    2.51
   1   3   0   40.44    2.79
   1   3   0   40.47    2.65
  -2  -3   0  149.65    7.51
  -2  -3   0  156.77    6.67
   2   3   0  152.07    7.53
  -3  -3   0  228.58    9.13
   3   3   0  212.60   10.36
   3   3   0  216.63    9.14
  -4  -3   0  217.54    9.40
   4   3   0  224.61   10.96
   4   3   0  225.59    9.41
   5   3   0  105.33    6.56
   5   3   0   94.79    5.00
   6   3   0   28.73    2.36
   6   3   0   24.37    3.02
   6   3   0   27.22    1.50
   7   3   0   14.56    1.14
   7   3   0   15.14    1.90
   7   3   0   12.62    2.79
   8   3   0    0.50    0.73
   8   3   0    1.18    0.68
   8   3   0    1.30    0.61
   8   3   0    0.75    0.41
   9   3   0   11.50    2.16
   9   3   0   15.77    3.28
   9   3   0   10.82    1.30
   9   3   0   12.09    1.15
  10   3   0    2.42    1.82
  10   3   0    8.59    2.63
  10   3   0    3.32    1.39
  11   3   0   13.68    3.71
  11   3   0   11.66    2.31
  11   3   0   16.43    3.18
  11   3   0   13.22    3.40
  10  -4   0   -1.36    1.64
  10  -4   0   -0.20    1.85
  10  -4   0    1.88    1.64
  10  -4   0   -1.41    1.63
   9  -4   0   -0.05    1.29
   9  -4   0   -0.32    0.66
   8  -4   0   10.15    1.94
   8  -4   0   11.93    3.32
   8  -4   0    9.69    1.71
   7  -4   0   20.42    2.06
   7  -4   0   24.62    4.73
   7  -4   0   18.57    2.05
   6  -4   0   16.01    1.80
   6  -4   0    7.87    2.53
   6  -4   0   16.49    1.81
   5  -4   0  256.61   13.59
   5  -4   0  239.94   10.40
   5  -4   0  222.28   10.16
  -5   4   0  222.14   10.40
   4  -4   0   48.16    4.65
   4  -4   0   43.64    3.38
   4  -4   0   45.89    3.04
  -4   4   0   44.52    3.14
   3  -4   0   50.79    3.12
   3  -4   0   56.62    4.71
   3  -4   0   49.85    3.25
  -3   4   0   51.01    3.32
   2  -4   0   53.47    3.30
   2  -4   0   46.67    4.02
   2  -4   0   48.62    3.07
  -2   4   0   52.13    3.11
  -2   4   0   50.92    3.13
  -2   4   0   44.15    2.19
  -2   4   0   51.34    2.19
   1  -4   0   55.16    3.35
   1  -4   0   50.41    3.91
   1  -4   0   52.35    3.37
  -1   4   0   51.76    3.20
  -1   4   0   52.06    3.18
   0  -4   0   10.09    1.41
   0  -4   0   11.55    2.09
   0   4   0    9.19    1.25
   0   4   0   11.21    1.31
  -1  -4   0  272.26   11.73
  -1  -4   0  274.86   12.31
  -1  -4   0  278.22   11.96
   1   4   0  280.25   12.28
   1   4   0  283.43   12.08
  -2  -4   0  321.49   13.14
  -2  -4   0  319.86   14.17
  -2  -4   0  327.77   12.64
   2   4   0  320.40   14.13
   2   4   0  298.67   13.60
  -3  -4   0  125.82    5.91
   3   4   0  122.66    6.65
  -4  -4   0  102.96    5.00
   4   4   0  101.62    5.07
   4   4   0   94.96    6.35
  -5  -4   0    5.01    1.04
   5   4   0    7.77    1.33
   5   4   0    6.33    1.79
   6   4   0   16.04    1.76
   6   4   0   20.59    3.46
   7   4   0   27.50    3.56
   7   4   0   28.29    2.45
   8   4   0   23.40    4.18
   8   4   0   20.51    2.18
   9   4   0   17.31    3.91
   9   4   0   17.88    2.12
  10   4   0   22.99    4.44
  10   4   0   22.28    4.52
  10   4   0   23.18    2.48
  11   4   0    1.31    1.88
  11   4   0   -1.18    1.92
  10  -5   0    2.34    2.35
  10  -5   0    4.77    2.85
   9  -5   0   14.18    2.01
   9  -5   0   12.96    3.55
   8  -5   0   16.37    4.58
   8  -5   0   23.08    2.32
   8  -5   0   22.08    2.40
   7  -5   0   84.60    7.95
   7  -5   0   75.22    4.68
   7  -5   0   86.75    5.10
   6  -5   0   21.25    2.31
   6  -5   0   20.62    4.31
   6  -5   0   20.75    2.07
   5  -5   0   18.91    3.76
   5  -5   0   24.89    2.14
   5  -5   0   20.39    2.18
  -5   5   0   20.07    2.35
   4  -5   0    3.70    1.01
   4  -5   0    4.21    1.71
   4  -5   0    4.71    1.14
  -4   5   0    2.28    0.99
   3  -5   0   12.34    1.63
   3  -5   0   10.88    1.74
   3  -5   0   12.40    2.63
  -3   5   0   13.40    1.63
   2  -5   0   -0.31    0.34
   2  -5   0    0.76    0.84
   2  -5   0    0.62    0.55
  -2   5   0    1.42    0.70
  -2   5   0    0.13    0.24
  -2   5   0    0.73    0.59
   1  -5   0  128.60    6.83
   1  -5   0  132.54    7.76
   1  -5   0  135.28    7.03
  -1   5   0  132.33    6.68
  -1   5   0  136.31    6.72
   0  -5   0  117.23    6.58
   0  -5   0  118.45    6.84
   0   5   0  127.85    6.46
   0   5   0  123.67    6.50
  -1  -5   0  234.93   11.06
  -1  -5   0  229.27   10.67
  -1  -5   0  229.16   10.49
   1   5   0  217.92   10.55
   1   5   0  237.25   10.95
  -2  -5   0  135.61    6.70
  -2  -5   0  140.01    6.31
  -2  -5   0  117.82    7.27
   2   5   0  123.80    6.98
   2   5   0  136.51    7.53
  -3  -5   0   32.85    1.87
  -3  -5   0   30.94    2.47
   3   5   0   26.69    2.75
   3   5   0   29.01    3.09
  -4  -5   0    4.30    1.09
   4   5   0    4.66    1.50
   4   5   0    6.44    1.69
  -5  -5   0   -0.63    0.45
   5   5   0   -0.62    0.59
   5   5   0    0.72    0.91
   6   5   0   13.93    3.16
   6   5   0   15.03    1.61
   7   5   0   78.46    4.50
   7   5   0   79.79    6.76
   8   5   0   50.01    5.27
   8   5   0   40.73    3.00
   9   5   0    8.98    4.76
   9   5   0   12.26    1.55
  10   5   0   21.87    4.16
  10   5   0   23.77    4.69
  11   5   0    3.86    2.65
  11   5   0    8.20    3.03
   9  -6   0    4.78    2.71
   8  -6   0   53.56    6.76
   7  -6   0   21.82    2.42
   6  -6   0   25.99    2.44
   6  -6   0   34.90    5.98
   6  -6   0   24.17    2.66
  -6   6   0   26.29    2.99
   5  -6   0   -0.40    0.56
   5  -6   0   -0.37    0.97
   5  -6   0    0.09    0.71
  -5   6   0    2.28    1.29
   4  -6   0    1.25    0.77
   4  -6   0   -0.45    0.89
   4  -6   0    2.35    0.89
  -4   6   0   -1.11    0.85
   3  -6   0   39.01    3.33
   3  -6   0   35.71    4.26
   3  -6   0   37.23    3.05
  -3   6   0   41.55    3.26
  -3   6   0   37.32    3.30
   2  -6   0  124.94    7.06
   2  -6   0  119.57    8.17
   2  -6   0  122.41    6.80
  -2   6   0  139.31    6.90
  -2   6   0  124.08    6.73
  -2   6   0  118.26    5.53
   1  -6   0  141.40    7.85
   1  -6   0  150.30    8.90
  -1   6   0  148.03    7.68
  -1   6   0  159.03    7.84
   0  -6   0   85.69    5.79
   0  -6   0   80.17    5.41
   0   6   0   89.46    5.41
   0   6   0   84.44    5.26
  -1  -6   0   23.96    2.67
  -1  -6   0   18.30    2.29
  -1  -6   0   26.18    2.53
   1   6   0   22.80    2.51
   1   6   0   26.34    2.59
  -2  -6   0   51.55    3.86
  -2  -6   0   52.60    4.57
  -2  -6   0   60.43    3.73
   2   6   0   53.61    4.17
  -3  -6   0    1.90    0.81
  -3  -6   0    0.70    0.40
   3   6   0    2.94    1.34
   3   6   0   -0.27    1.00
  -4  -6   0    2.12    0.87
   4   6   0    2.73    1.34
  -5  -6   0    2.43    1.14
   5   6   0    1.54    1.00
   6   6   0   62.44    5.77
   7   6   0   17.64    3.55
   8   6   0   11.13    3.05
   9   6   0    8.20    2.73
  10   6   0    0.57    1.78
  10   6   0    2.64    1.73
   8  -7   0    2.09    2.64
   7  -7   0    0.57    1.64
   6  -7   0   -2.31    1.17
   6  -7   0    0.46    1.11
  -6   7   0   -0.41    2.08
   5  -7   0    3.86    1.34
   5  -7   0    1.28    1.20
   5  -7   0   -0.03    0.96
  -5   7   0    0.43    1.81
   4  -7   0   26.96    2.86
   4  -7   0   30.04    4.30
   4  -7   0   34.42    3.35
  -4   7   0   35.97    3.66
   3  -7   0   45.27    5.08
   3  -7   0   45.62    3.88
   3  -7   0   42.66    3.63
  -3   7   0   46.33    3.79
  -3   7   0   39.62    3.61
   2  -7   0   94.28    7.24
   2  -7   0   80.24    5.61
  -2   7   0   84.15    5.62
  -2   7   0   89.01    4.34
  -2   7   0   96.73    5.76
  -2   7   0   88.65    4.43
   1  -7   0   44.64    3.87
   1  -7   0   44.82    4.44
  -1   7   0   41.38    3.55
  -1   7   0   50.36    3.81
  -1   7   0   37.75    3.01
   0  -7   0   36.00    6.80
   0  -7   0   37.58    3.73
   0  -7   0   31.18    3.60
   0   7   0   32.04    4.00
   0   7   0   34.81    3.31
  -1  -7   0   26.08    3.06
  -1  -7   0   26.90    2.81
  -1  -7   0   17.93    2.98
   1   7   0   26.74    2.95
  -2  -7   0    2.23    1.34
  -2  -7   0    1.35    0.72
  -2  -7   0    0.41    0.95
   2   7   0    0.14    0.79
  -3  -7   0   19.34    1.83
  -3  -7   0   17.17    2.24
   3   7   0   20.25    3.43
  -4  -7   0   58.65    4.34
   4   7   0   66.26    5.70
  -5  -7   0   26.17    2.58
   5   7   0   24.14    4.17
  -6  -7   0   32.29    3.33
   6   7   0   37.60    4.51
   7   7   0   24.96    4.72
   8   7   0   11.94    3.21
   9   7   0    5.94    2.54
   9   7   0    5.85    2.66
  10   7   0   -0.88    1.90
   8  -8   0    0.16    2.28
   7  -8   0   -0.11    1.60
   6  -8   0   20.49    4.54
   5  -8   0   12.43    2.55
   5  -8   0   24.28    4.92
   4  -8   0   44.99    5.58
   3  -8   0   48.40    4.40
   3  -8   0   49.49    5.65
  -3   8   0   61.93    4.65
   2  -8   0   16.44    3.58
   2  -8   0   15.05    2.76
  -2   8   0   14.03    1.47
  -2   8   0   16.63    1.57
  -2   8   0   18.63    2.49
   1  -8   0   16.97    3.08
   1  -8   0   15.03    3.28
  -1   8   0   15.06    2.73
  -1   8   0   18.44    2.05
   0  -8   0    4.60    1.60
   0   8   0    6.69    1.85
  -1  -8   0    1.35    1.14
  -1  -8   0    0.37    1.36
   1   8   0    0.19    0.77
  -2  -8   0   47.55    4.52
  -2  -8   0   60.04    4.34
   2   8   0   58.91    5.11
  -3  -8   0   37.79    3.84
  -3  -8   0   45.92    3.31
   3   8   0   41.82    4.40
  -4  -8   0   32.06    3.42
  -4  -8   0   30.61    2.37
   4   8   0   34.47    4.22
  -5  -8   0   69.70    4.86
   5   8   0   67.28    6.33
  -6  -8   0   12.79    2.05
   6   8   0   17.88    3.78
   7   8   0   13.74    3.37
   8   8   0   -0.69    0.96
   9   8   0    3.95    3.01
   9   8   0    5.98    3.13
   7  -9   0    5.54    4.43
   6  -9   0   42.46    7.95
   5  -9   0   23.47    5.16
   4  -9   0   32.42    6.26
   3  -9   0   34.71    6.16
  -3   9   0   35.90    3.93
   2  -9   0   12.54    3.21
  -2   9   0    9.37    1.28
  -2   9   0    9.60    2.26
   1  -9   0    1.15    1.09
  -1   9   0   -0.16    1.03
  -1   9   0    0.65    0.77
   0  -9   0   11.04    2.79
   0   9   0   12.31    2.68
   0   9   0    8.32    2.00
  -1  -9   0   19.79    3.52
   1   9   0   14.58    2.76
   1   9   0   17.65    3.20
   2   9   0   35.03    3.93
  -3  -9   0   32.49    2.90
  -3  -9   0   19.55    3.22
   3   9   0   26.18    3.54
  -4  -9   0    4.24    0.95
  -4  -9   0    3.88    2.15
   4   9   0    2.75    1.55
  -5  -9   0   19.56    3.24
  -6  -9   0    0.91    1.74
   6   9   0    3.72    1.92
   7   9   0    1.39    1.00
   8   9   0    1.86    2.08
   8   9   0    2.86    2.11
   5 -10   0    9.40    3.02
   4 -10   0    4.18    2.32
   3 -10   0    1.06    1.70
  -3  10   0   -1.92    1.44
  -2  10   0    0.10    1.17
  -2  10   0   -0.73    1.20
  -2  10   0    0.00    0.68
   1 -10   0   15.88    3.87
  -1  10   0   16.12    2.53
  -1  10   0   17.50    3.22
  -1  10   0   23.51    3.24
   0 -10   0   29.25    4.03
   0  10   0   45.52    4.55
   0  10   0   38.24    3.83
  -1 -10   0   37.64    4.20
   1  10   0   39.88    4.37
   1  10   0   39.94    4.16
  -2 -10   0   14.32    2.59
   2  10   0   18.63    3.51
   2  10   0   17.40    3.31
  -3 -10   0   13.05    2.28
   3  10   0   17.63    3.68
   3  10   0   22.18    4.79
  -4 -10   0    0.00    0.81
   4  10   0    1.26    1.45
   5  10   0    0.31    1.15
   6  10   0    1.23    1.63
   6  10   0    1.51    1.47
   7  10   0    4.80    2.38
   7  10   0    8.86    2.89
   4 -11   0    3.01    2.27
   3 -11   0    7.41    2.90
   2 -11   0   -2.12    1.29
  -2  11   0    2.58    2.17
   1 -11   0   21.29    4.19
  -1  11   0   32.67    4.10
   0 -11   0   20.63    3.67
   0  11   0   27.42    3.38
   0  11   0   22.08    4.37
  -1 -11   0    6.15    2.17
   1  11   0   11.00    2.82
   1  11   0   16.61    3.33
  -2 -11   0   19.48    3.56
   2  11   0   17.66    3.44
   2  11   0   10.56    2.82
  -3 -11   0    3.33    2.66
   3  11   0    4.97    1.89
   3  11   0    3.44    2.26
   4  11   0    4.41    2.22
   4  11   0    2.49    1.62
   5  11   0    0.87    2.19
   5  11   0   -0.36    1.33
   6  11   0    4.77    2.43
   6  11   0    6.13    2.68
   1 -12   0    0.18    2.34
  -1  12   0   11.56    3.56
   0 -12   0   11.62    3.36
   0  12   0   11.58    3.21
   0  12   0   10.11    2.64
  -1 -12   0   -0.55    1.68
   1  12   0    1.01    1.90
   1  12   0   -2.27    1.83
  -2 -12   0    0.58    1.81
   2  12   0   -0.63    1.77
   2  12   0    1.17    2.03
   3  12   0    1.25    2.01
   3  12   0    1.02    1.76
   3  12  -1   18.19    4.38
   2  12  -1    5.23    2.32
   2  12  -1    5.32    2.63
  -2 -12   1    2.08    2.50
   1  12  -1    2.24    2.19
   1  12  -1    2.12    2.48
  -1 -12   1    5.20    3.59
   0  12  -1   -0.72    2.03
   0  12  -1    2.15    2.14
   0 -12   1   -3.99    1.81
   6  11  -1   12.97    3.71
   6  11  -1    9.21    3.25
   5  11  -1   18.51    4.15
   5  11  -1   13.83    3.59
   4  11  -1    8.52    2.71
   4  11  -1    4.28    1.90
   3  11  -1    1.30    1.68
   3  11  -1    3.29    2.19
   2  11  -1   -0.67    1.57
   2  11  -1    0.71    1.45
  -2 -11   1    1.02    1.49
   1  11  -1    4.66    1.96
   1  11  -1    4.64    2.03
  -1 -11   1    5.29    2.03
   0  11  -1    1.91    1.62
   0  11  -1    4.16    1.94
   0 -11   1    6.34    2.38
  -1  11  -1   17.99    3.76
  -1  11  -1   16.80    3.45
   1 -11   1   15.72    3.70
  -2  11  -1   28.96    3.87
   2 -11   1   34.08    6.59
   3 -11   1    5.86    2.90
   7  10  -1   13.04    4.15
   6  10  -1   14.28    3.44
   5  10  -1   30.32    5.30
   4  10  -1    3.03    1.61
  -3 -10   1    0.88    0.97
   2  10  -1    0.48    1.48
  -2 -10   1    2.27    1.41
   1  10  -1   15.02    3.04
   1  10  -1   19.40    3.64
  -1 -10   1   13.09    2.85
   0  10  -1   18.47    3.45
   0  10  -1   22.42    2.85
   0 -10   1   15.93    3.15
  -1  10  -1   36.07    3.85
  -1  10  -1   32.04    4.19
   1 -10   1   29.16    4.96
  -2  10  -1   37.37    4.10
  -3  10  -1    6.83    2.36
   3 -10   1   17.87    4.61
   4 -10   1   15.28    4.75
   5 -10   1    2.91    2.48
   8   9  -1   10.55    3.57
   7   9  -1   11.66    3.41
   6   9  -1    8.46    2.86
   5   9  -1    7.22    2.28
  -5  -9   1    2.67    2.54
   4   9  -1    1.60    1.44
  -4  -9   1   -1.03    2.29
   3   9  -1    3.63    1.91
  -3  -9   1    4.05    1.21
   2   9  -1   37.32    4.15
  -2  -9   1   36.86    6.22
   1   9  -1   44.65    4.45
  -1  -9   1   52.17    4.79
   0   9  -1   55.95    5.05
   0  -9   1   62.40    5.68
  -1   9  -1   60.84    4.39
  -1   9  -1   53.09    4.19
  -1   9  -1   66.75    5.25
   1  -9   1   71.34    6.40
  -2   9  -1   25.45    2.16
  -2   9  -1   32.47    3.56
   2  -9   1   23.88    4.56
  -3   9  -1    3.43    1.58
   3  -9   1    1.53    1.89
   4  -9   1    0.17    1.07
   5  -9   1   12.51    4.09
   6  -9   1   20.57    5.21
   9   8  -1   23.40    4.78
   8   8  -1    3.87    2.16
   7   8  -1    0.57    1.80
   6   8  -1    1.08    1.39
  -6  -8   1    1.21    1.59
   5   8  -1   15.53    3.48
  -5  -8   1   11.80    2.55
   4   8  -1   43.15    4.69
  -4  -8   1   30.88    3.68
   3   8  -1   52.98    5.05
  -3  -8   1   53.65    3.56
  -3  -8   1   39.69    4.08
   2   8  -1   57.58    4.91
  -2  -8   1   52.02    4.04
  -2  -8   1   35.73    4.08
   1   8  -1   74.58    5.75
   0   8  -1   53.77    4.42
   0  -8   1   48.85    4.79
  -1   8  -1   33.05    3.34
  -1   8  -1   30.54    2.78
   1  -8   1   33.86    4.13
   1  -8   1   25.52    3.34
  -2   8  -1    2.94    1.31
  -2   8  -1    1.89    0.73
   2  -8   1    0.50    1.12
   2  -8   1    3.11    1.30
  -3   8  -1   14.67    2.68
   3  -8   1    9.20    2.58
   3  -8   1    8.26    2.07
   4  -8   1   21.30    3.10
   4  -8   1   19.72    4.06
   5  -8   1   13.44    2.29
   5  -8   1   17.54    4.45
   6  -8   1   74.61    8.13
   7  -8   1   45.69    7.85
   8  -8   1    9.79    4.98
  10   7  -1   23.01    4.93
  10   7  -1   17.35    4.25
   9   7  -1    6.52    2.91
   8   7  -1    5.25    2.08
   7   7  -1    1.36    1.18
   6   7  -1    7.72    2.33
  -6  -7   1    6.23    1.46
   5   7  -1   26.04    3.49
  -5  -7   1   18.88    2.48
   4   7  -1   52.79    5.08
  -4  -7   1   52.41    4.23
   3   7  -1  126.78    8.20
  -3  -7   1  118.20    5.96
  -3  -7   1  122.28    7.13
   2   7  -1   44.52    4.20
  -2  -7   1   40.15    3.69
  -2  -7   1   45.16    3.48
   1   7  -1   88.51    5.93
  -1  -7   1   77.85    5.48
  -1  -7   1   74.86    6.61
  -1  -7   1   76.82    5.70
   0  -7   1    1.81    1.20
   0  -7   1   -0.07    0.84
   0  -7   1   -0.74    0.73
  -1   7  -1   22.53    2.45
  -1   7  -1   18.58    2.50
   1  -7   1   18.40    3.51
   1  -7   1   19.19    3.01
  -2   7  -1   27.54    2.03
  -2   7  -1   31.94    3.19
  -2   7  -1   30.79    2.91
  -2   7  -1   26.64    2.04
   2  -7   1   24.05    2.91
   2  -7   1   26.95    3.61
   2  -7   1   23.95    2.78
  -3   7  -1   31.21    3.93
  -3   7  -1   37.58    3.23
   3  -7   1   32.17    3.06
   3  -7   1   30.77    3.33
   3  -7   1   35.14    4.40
   4  -7   1   50.86    5.64
   4  -7   1   51.86    3.90
   4  -7   1   57.14    4.58
   5  -7   1   51.68    6.09
   5  -7   1   41.21    3.34
   5  -7   1   45.97    4.14
   6  -7   1   25.11    2.91
   6  -7   1   28.16    6.00
   6  -7   1   22.45    2.29
   7  -7   1   19.07    4.91
   7  -7   1   18.64    3.03
   7  -7   1   11.67    2.27
   8  -7   1   -2.25    1.58
   8  -7   1    2.88    1.47
  10   6  -1    9.58    3.22
   9   6  -1    9.16    2.68
   8   6  -1    1.31    1.68
   7   6  -1    5.57    1.95
   6   6  -1   56.90    5.54
  -6  -6   1   55.72    3.87
   5   6  -1   41.40    4.43
  -5  -6   1   44.53    3.42
   4   6  -1   75.74    6.04
  -4  -6   1   78.22    5.00
   3   6  -1   54.71    4.44
   3   6  -1   56.83    4.89
  -3  -6   1   63.48    3.37
  -3  -6   1   68.95    4.46
   2   6  -1   40.28    4.14
   2   6  -1   41.79    3.49
  -2  -6   1   42.62    3.48
  -2  -6   1   41.43    3.05
   1   6  -1   10.56    2.03
   1   6  -1   10.55    1.97
  -1  -6   1    5.04    1.33
  -1  -6   1   10.24    2.07
  -1  -6   1    9.16    1.92
   0   6  -1    0.84    0.93
   0   6  -1    0.72    0.51
   0  -6   1    1.21    0.74
   0  -6   1    2.82    1.03
   0  -6   1    1.20    0.85
  -1   6  -1   20.59    2.11
  -1   6  -1   21.66    2.30
   1  -6   1   19.42    2.22
   1  -6   1   19.85    2.71
   1  -6   1   17.31    2.30
  -2   6  -1   52.30    3.90
  -2   6  -1   58.63    3.82
  -2   6  -1   54.46    2.93
   2  -6   1   54.66    5.09
   2  -6   1   53.24    4.22
   2  -6   1   47.44    3.71
  -3   6  -1  103.51    6.16
  -3   6  -1   98.66    5.62
   3  -6   1  104.82    7.80
   3  -6   1   91.69    7.09
   3  -6   1   94.94    5.55
   4  -6   1   66.49    4.18
   4  -6   1   60.44    5.40
   4  -6   1   62.77    6.05
  -5   6  -1   31.15    3.48
   5  -6   1   38.62    4.94
   5  -6   1   33.91    2.71
   5  -6   1   39.53    3.46
  -6   6  -1    1.54    1.73
   6  -6   1    2.12    0.77
   6  -6   1    0.01    0.80
   6  -6   1    4.03    2.24
   7  -6   1    2.38    1.93
   7  -6   1    4.35    1.39
   7  -6   1    2.12    1.10
   8  -6   1   -0.52    1.63
   8  -6   1    2.38    1.15
   9  -6   1   13.06    4.26
   9  -6   1   10.80    2.06
  11   5  -1   -3.09    1.65
  11   5  -1    1.32    2.00
  10   5  -1   -0.09    1.45
   9   5  -1    1.23    1.61
   9   5  -1    1.18    0.91
   8   5  -1    3.32    1.51
   8   5  -1    1.85    1.08
   7   5  -1   18.93    2.09
   7   5  -1   22.08    3.87
   6   5  -1   93.00    5.25
   6   5  -1   80.55    6.67
  -6  -5   1   83.50    5.03
   5   5  -1   42.09    3.88
   5   5  -1   47.01    4.53
   5   5  -1   41.89    3.22
  -5  -5   1   42.72    3.15
   4   5  -1   42.66    4.08
   4   5  -1   37.88    3.48
  -4  -5   1   39.20    3.02
   3   5  -1   16.05    2.81
   3   5  -1   16.47    2.08
  -3  -5   1   18.14    1.20
  -3  -5   1   15.58    1.85
   2   5  -1    0.41    0.54
   2   5  -1   -0.61    0.60
  -2  -5   1   -0.76    0.43
  -2  -5   1    1.20    0.53
   1   5  -1   57.08    4.03
   1   5  -1   60.96    4.30
  -1  -5   1   60.84    4.06
  -1  -5   1   64.81    4.30
  -1  -5   1   68.60    4.52
   0   5  -1  163.70    8.04
   0   5  -1  170.00    8.13
   0  -5   1  152.07    8.43
   0  -5   1  170.79    8.31
   0  -5   1  151.87    8.21
   0  -5   1  164.30    8.61
  -1   5  -1  143.48    7.00
  -1   5  -1  148.58    7.22
   1  -5   1  130.88    7.06
   1  -5   1  143.76    7.52
   1  -5   1  142.38    8.24
  -2   5  -1  277.48   10.76
  -2   5  -1  286.33   11.78
  -2   5  -1  276.34   12.10
   2  -5   1  277.65   12.38
   2  -5   1  262.64   13.71
   2  -5   1  246.96   11.71
  -3   5  -1  132.72    6.42
  -3   5  -1  126.31    6.83
   3  -5   1  133.06    6.92
   3  -5   1  115.62    7.95
   3  -5   1  122.09    8.35
  -4   5  -1   70.98    4.72
   4  -5   1   75.67    4.74
   4  -5   1   68.35    6.14
  -5   5  -1    9.12    1.90
   5  -5   1    8.55    2.57
   5  -5   1   10.23    1.88
   6  -5   1    2.71    1.00
   6  -5   1    0.95    0.98
   6  -5   1    0.11    0.67
   7  -5   1    8.40    3.02
   7  -5   1    5.01    1.36
   7  -5   1   11.19    2.38
   8  -5   1   15.93    2.57
   8  -5   1   26.52    5.73
   8  -5   1   14.29    2.95
   9  -5   1   21.65    2.77
   9  -5   1   22.97    4.99
  10  -5   1   22.63    5.16
  11   4  -1    5.92    2.81
  11   4  -1    2.86    2.26
  11   4  -1    6.49    2.33
  10   4  -1   14.33    3.41
   9   4  -1   19.43    2.51
   9   4  -1   18.00    3.89
   8   4  -1   51.68    5.45
   8   4  -1   50.08    3.87
   7   4  -1   63.94    4.29
   7   4  -1   57.98    5.48
   6   4  -1   52.76    4.32
   6   4  -1   59.54    3.89
   6   4  -1   55.68    5.07
   5   4  -1   50.57    3.99
   5   4  -1   50.74    3.46
   5   4  -1   53.38    4.62
  -5  -4   1   52.66    3.87
   4   4  -1    2.15    0.84
   4   4  -1   -0.31    0.25
   4   4  -1    0.21    0.27
  -4  -4   1    0.30    0.36
   3   4  -1   58.57    4.00
   3   4  -1   57.87    3.66
   3   4  -1   61.27    4.51
  -3  -4   1   57.99    3.59
   2   4  -1   46.22    3.60
   2   4  -1   41.94    3.18
  -2  -4   1   49.79    3.19
  -2  -4   1   46.06    2.61
   1   4  -1  166.13    8.14
   1   4  -1  169.72    7.96
  -1  -4   1  169.67    7.75
  -1  -4   1  161.06    8.14
  -1  -4   1  161.74    8.01
   0   4  -1   88.24    4.65
   0   4  -1   83.08    4.59
   0  -4   1   78.17    4.88
   0  -4   1   81.84    4.75
   0  -4   1   73.96    6.28
  -1   4  -1  238.57   10.22
  -1   4  -1  251.28   10.52
   1  -4   1  241.18   10.43
   1  -4   1  222.10   11.37
   1  -4   1  245.21   10.74
  -2   4  -1  136.50    5.51
  -2   4  -1  136.15    6.59
  -2   4  -1  139.15    6.27
   2  -4   1  127.36    7.79
   2  -4   1  139.49    6.77
   2  -4   1  126.71    6.24
  -3   4  -1  111.77    5.93
   3  -4   1  115.73    7.52
   3  -4   1  110.79    5.38
   3  -4   1  112.55    5.87
  -4   4  -1    1.73    0.81
   4  -4   1    5.76    1.28
   4  -4   1    2.40    1.30
   4  -4   1    3.46    0.76
  -5   4  -1   -1.39    0.49
   5  -4   1   -0.14    0.35
   5  -4   1   -0.33    0.79
   5  -4   1    0.36    0.53
   6  -4   1   42.79    3.28
   6  -4   1   42.63    4.89
   7  -4   1   27.27    5.08
   7  -4   1   30.11    2.70
   7  -4   1   23.40    2.14
   8  -4   1   55.53    3.62
   8  -4   1   62.88    6.75
   9  -4   1   10.37    1.84
   9  -4   1   22.80    4.90
   9  -4   1   15.10    2.40
  10  -4   1    6.16    1.83
  10  -4   1    6.43    3.15
  10  -4   1    4.97    3.14
  11   3  -1    0.38    1.42
  11   3  -1   -1.16    1.38
  11   3  -1    2.48    1.72
  11   3  -1    4.59    2.12
  10   3  -1    4.75    1.72
  10   3  -1    3.62    2.48
  10   3  -1    5.53    2.46
   9   3  -1   27.47    3.66
   9   3  -1   29.18    3.94
   8   3  -1   32.76    3.21
   8   3  -1   33.49    4.23
   7   3  -1   17.18    2.12
   7   3  -1   13.67    2.94
   6   3  -1   49.51    3.59
   6   3  -1   54.89    4.80
   5   3  -1    2.31    0.75
   5   3  -1    2.39    1.07
   4   3  -1   48.35    3.97
   4   3  -1   50.34    3.18
  -4  -3   1   49.98    3.14
   3   3  -1  163.31    7.46
   3   3  -1  160.07    7.83
   3   3  -1  166.53    8.49
  -3  -3   1  169.40    7.44
   2   3  -1  226.26   10.19
   2   3  -1  231.94   10.00
   2   3  -1  229.45   10.63
  -2  -3   1  245.45    9.96
   1   3  -1  495.07   19.11
  -1  -3   1  490.23   18.81
  -1  -3   1  462.70   19.01
  -1  -3   1  442.43   18.35
   0   3  -1  109.96    5.20
   0   3  -1  101.91    5.12
   0  -3   1  106.11    5.21
  -1   3  -1  175.90    7.44
  -1   3  -1  167.30    7.14
   1  -3   1  163.39    7.50
   1  -3   1  162.38    7.23
  -2   3  -1    1.15    0.39
  -2   3  -1    1.31    0.26
  -2   3  -1    0.99    0.42
   2  -3   1    0.52    0.45
   2  -3   1    0.67    0.27
   3  -3   1    0.90    0.34
   3  -3   1    0.85    0.41
  -4   3  -1  122.31    6.36
   4  -3   1  130.33    6.29
   4  -3   1  114.73    7.77
   4  -3   1  140.15    5.86
   5  -3   1   22.99    4.05
   5  -3   1   20.94    1.68
   5  -3   1   22.15    2.04
   6  -3   1   63.76    5.99
   6  -3   1   65.88    4.06
   6  -3   1   68.96    4.22
   7  -3   1  108.57    5.70
   7  -3   1  109.52    8.54
   7  -3   1  111.88    6.14
   8  -3   1   16.01    1.95
   8  -3   1   14.85    3.65
   8  -3   1   13.94    1.86
   9  -3   1   20.24    2.33
   9  -3   1   22.15    4.67
   9  -3   1   18.23    2.37
   9  -3   1   21.21    2.54
  10  -3   1   -0.20    1.48
  10  -3   1   -0.16    0.97
  10  -3   1    1.64    1.71
  11  -3   1    3.07    2.51
  11  -3   1    0.62    1.84
  11   2  -1   32.50    5.35
  11   2  -1   33.55    4.46
  11   2  -1   28.52    3.49
  11   2  -1   27.65    3.47
  11   2  -1   17.40    3.08
  10   2  -1   13.84    1.77
  10   2  -1   18.33    3.09
  10   2  -1   17.22    3.18
  10   2  -1    7.30    2.88
  10   2  -1   14.10    3.27
   9   2  -1   17.09    3.40
   9   2  -1   12.81    2.47
   9   2  -1   12.13    1.65
   8   2  -1   13.01    1.53
   8   2  -1    8.85    2.66
   8   2  -1   12.27    2.35
   7   2  -1    1.92    1.04
   7   2  -1    0.96    0.49
   7   2  -1   -0.01    0.54
   6   2  -1   -0.12    0.31
   6   2  -1    0.94    0.53
   6   2  -1   -0.04    0.30
   5   2  -1   49.16    3.29
   5   2  -1   49.55    2.66
   5   2  -1   48.03    4.01
   4   2  -1   13.63    1.84
   4   2  -1   13.80    1.43
  -4  -2   1   13.87    1.47
   3   2  -1  300.79   13.53
   3   2  -1  318.74   12.66
  -3  -2   1  312.78   12.64
   2   2  -1  159.53    7.59
   2   2  -1  188.36    7.57
  -2  -2   1  178.19    7.48
   1   2  -1  189.73    8.53
   1   2  -1  197.98    8.36
   1   2  -1  195.05    8.35
  -1  -2   1  211.33    8.35
  -1   2  -1   11.54    0.87
  -1   2  -1   11.83    1.07
  -1   2  -1   11.20    0.76
   1  -2   1   10.54    0.87
   1  -2   1   10.28    1.03
  -2   2  -1    8.60    0.96
  -2   2  -1    7.01    0.47
   2  -2   1    6.81    0.84
   2  -2   1    7.88    0.68
  -3   2  -1   47.36    2.85
   3  -2   1   45.26    2.38
   3  -2   1   46.10    2.02
   3  -2   1   46.75    2.77
   4  -2   1   64.55    3.30
   4  -2   1   59.74    3.56
   4  -2   1   63.14    2.91
   5  -2   1  163.98    9.62
   5  -2   1  170.40    7.10
   5  -2   1  165.02    7.83
   6  -2   1   77.84    4.10
   6  -2   1   83.39    4.81
   6  -2   1   80.92    6.39
   7  -2   1   56.28    3.99
   7  -2   1   62.49    3.57
   7  -2   1   55.07    5.55
   8  -2   1    1.15    0.64
   8  -2   1    1.41    0.82
   8  -2   1    1.22    0.75
   9  -2   1    0.48    2.01
   9  -2   1    2.94    1.34
   9  -2   1    2.36    1.04
   9  -2   1    1.45    1.60
   9  -2   1    2.09    0.82
  10  -2   1    1.80    1.23
  10  -2   1    0.00    0.69
  10  -2   1    2.41    1.13
  10  -2   1    1.34    1.60
  10  -2   1    1.06    1.60
  11  -2   1    3.16    2.64
  11  -2   1    4.87    2.08
  11  -2   1   -0.76    2.15
  11  -2   1    2.13    1.36
  11   1  -1   13.77    2.95
  11   1  -1   15.66    2.60
  11   1  -1   10.54    2.18
  11   1  -1   18.30    3.47
  11   1  -1   16.33    4.21
  10   1  -1    3.96    1.53
  10   1  -1   13.22    2.36
  10   1  -1    7.36    2.52
  10   1  -1    6.90    1.77
  10   1  -1    7.65    2.27
   9   1  -1    9.48    2.41
   9   1  -1   11.23    2.39
   9   1  -1   10.63    2.18
   9   1  -1   11.06    2.42
   8   1  -1    0.83    0.72
   8   1  -1    3.53    1.49
   8   1  -1    1.54    0.87
   7   1  -1    1.44    0.85
   7   1  -1    0.45    0.49
   7   1  -1    0.72    0.79
   6   1  -1   45.20    3.32
   6   1  -1   44.05    3.51
   5   1  -1   61.49    3.84
   5   1  -1   70.37    4.23
   4   1  -1  123.20    5.93
   4   1  -1  113.95    5.52
   3   1  -1  202.19    8.19
   3   1  -1  202.56    8.61
   2   1  -1  107.81    4.77
   2   1  -1  100.17    4.20
  -2  -1   1  112.24    4.84
   1   1  -1    9.96    0.85
   1   1  -1   10.15    0.85
  -1  -1   1   10.76    0.87
  -1  -1   1    9.46    0.55
   0   1  -1  152.71    5.98
   0  -1   1  150.82    6.01
   0  -1   1  140.27    5.90
   0  -1   1  149.96    6.18
  -1   1  -1   38.48    1.63
  -1   1  -1   40.00    1.70
  -1   1  -1   37.82    2.02
   1  -1   1   38.50    1.70
   1  -1   1   35.28    1.62
   1  -1   1   40.58    2.03
  -2   1  -1   58.56    2.90
   2  -1   1   52.23    2.81
   3  -1   1  139.31    5.94
   3  -1   1  140.97    6.28
   4  -1   1  170.21    7.59
   4  -1   1  164.46    7.30
   5  -1   1  235.02   10.26
   5  -1   1  224.82    9.98
   6  -1   1   69.83    5.53
   6  -1   1   69.66    4.24
   6  -1   1   70.54    4.39
   7  -1   1    5.16    1.36
   7  -1   1    3.97    1.17
   7  -1   1    4.85    1.86
   8  -1   1    5.05    1.85
   8  -1   1    4.21    1.28
   8  -1   1    1.60    0.94
   8  -1   1    2.96    1.00
   8  -1   1    4.33    1.40
   9  -1   1   -0.34    0.96
   9  -1   1   -0.33    0.98
   9  -1   1   -0.55    0.69
   9  -1   1    4.41    1.25
   9  -1   1    0.65    0.91
  10  -1   1    7.18    2.18
  10  -1   1    5.88    1.54
  10  -1   1    6.43    1.65
  10  -1   1   10.57    2.58
  10  -1   1    7.14    2.22
  11  -1   1   18.05    3.15
  11  -1   1   23.33    2.80
  11  -1   1   26.01    4.57
  11  -1   1   28.38    5.05
  11  -1   1   18.82    3.06
  11   0  -1   -0.33    1.21
  11   0  -1   -2.36    1.26
  11   0  -1   -0.75    1.41
  11   0  -1    0.76    1.86
  10   0  -1    2.34    1.18
  10   0  -1    3.49    1.62
  10   0  -1    3.77    1.38
  10   0  -1    1.99    1.22
  10   0  -1    0.69    1.11
   9   0  -1    0.54    0.85
   9   0  -1   -0.01    0.96
   9   0  -1    0.86    0.97
   9   0  -1   -1.26    0.59
   9   0  -1   -0.03    0.83
   8   0  -1    3.44    1.16
   8   0  -1    4.49    1.72
   8   0  -1    3.03    1.06
   7   0  -1   42.82    3.21
   7   0  -1   40.05    3.82
   6   0  -1   51.45    4.11
   6   0  -1   54.80    4.19
   5   0  -1   65.29    4.42
   5   0  -1   70.60    4.54
   4   0  -1  310.52   13.25
   4   0  -1  303.50   13.16
   3   0  -1   40.44    2.71
   3   0  -1   41.47    2.67
   2   0  -1   31.29    1.93
   2   0  -1   32.34    2.04
   1   0  -1   15.77    1.06
   1   0  -1   15.48    0.96
  -1   0   1   14.72    0.95
  -1   0   1   16.70    1.09
  -1   0  -1  263.81   10.08
   2   0   1  612.01   23.15
   5   0   1   52.43    3.36
   5   0   1   46.05    3.38
   6   0   1    0.30    0.39
   6   0   1    0.50    0.53
   6   0   1   -0.46    0.36
   6   0   1    0.15    0.45
   7   0   1    0.19    0.64
   7   0   1    0.45    0.63
   7   0   1   -0.39    0.52
   7   0   1   -0.08    0.54
   7   0   1   -0.22    0.53
   8   0   1   27.20    3.13
   8   0   1   27.03    3.14
   8   0   1   27.28    3.42
   9   0   1   39.54    3.94
   9   0   1   43.50    4.69
   9   0   1   37.44    4.10
   9   0   1   45.51    4.40
   9   0   1   34.69    3.50
  10   0   1   25.35    3.49
  10   0   1   36.47    4.38
  10   0   1   31.50    4.02
  10   0   1   28.05    3.24
  10   0   1   34.49    3.72
  11   0   1   29.33    3.95
  11   0   1   32.82    3.93
  11   0   1   37.32    4.73
  11   0   1   33.11    3.55
  11  -1  -1    0.89    1.84
  11  -1  -1    1.74    1.44
  11  -1  -1    2.19    2.09
  11  -1  -1   -1.52    1.69
  10  -1  -1   -0.68    1.35
  10  -1  -1    0.58    1.18
  10  -1  -1    1.36    1.11
  10  -1  -1   -1.78    0.77
  10  -1  -1    0.76    1.23
   9  -1  -1   11.26    2.55
   9  -1  -1    7.32    2.06
   9  -1  -1   10.10    2.45
   9  -1  -1   12.28    2.70
   9  -1  -1   10.93    1.92
   8  -1  -1   86.51    5.70
   8  -1  -1   84.16    5.12
   8  -1  -1   94.16    7.06
   8  -1  -1   94.97    6.99
   7  -1  -1   83.73    6.29
   7  -1  -1   81.73    6.09
   7  -1  -1   80.08    4.70
   6  -1  -1   63.45    3.71
   6  -1  -1   61.80    4.96
   6  -1  -1   58.69    4.72
   5  -1  -1   59.75    3.37
   5  -1  -1   58.63    4.47
   4  -1  -1  217.91    8.95
   4  -1  -1  213.57   10.35
   3  -1  -1    8.16    0.77
   3  -1  -1    7.84    1.50
   2  -1  -1    7.01    0.99
   1  -1  -1   80.93    3.21
   1  -1  -1   81.36    3.17
   1  -1  -1   81.22    3.57
   1  -1  -1   75.20    3.83
  -1   1   1   76.35    3.84
  -1   1   1   82.12    3.22
  -1   1   1   86.41    3.18
   0  -1  -1  142.48    5.69
   0  -1  -1  163.34    6.16
   0  -1  -1  135.05    5.60
   0   1   1  138.83    5.75
   0   1   1  131.06    5.58
   0   1   1  145.73    5.70
   2   1   1  480.71   19.69
   2   1   1  574.84   20.41
   3   1   1    6.41    0.75
   3   1   1    5.28    0.97
   4   1   1  317.52   13.44
   4   1   1  308.38   12.81
   5   1   1    0.44    0.37
   5   1   1    0.82    0.42
   6   1   1   27.19    2.76
   6   1   1   24.00    2.35
   6   1   1   22.54    2.49
   7   1   1    8.99    1.78
   7   1   1    9.49    2.17
   7   1   1    9.60    2.11
   7   1   1   10.73    2.22
   8   1   1   36.23    3.82
   8   1   1   33.60    3.73
   8   1   1   40.46    3.65
   8   1   1   44.33    3.98
   8   1   1   38.63    3.53
   9   1   1   18.57    3.27
   9   1   1   23.06    2.92
   9   1   1   14.45    2.55
   9   1   1   19.16    3.41
   9   1   1   21.95    3.67
  10   1   1    6.96    2.20
  10   1   1    6.50    1.80
  10   1   1    2.77    1.69
  10   1   1    2.78    1.47
  10   1   1    4.94    1.50
  11   1   1    3.69    1.95
  11   1   1    2.01    1.51
  11   1   1    5.37    1.99
  11   1   1    4.85    1.76
  11   1   1    0.76    1.67
  11  -2  -1   -2.12    1.66
  11  -2  -1    4.46    2.18
  11  -2  -1    2.37    1.83
  10  -2  -1   18.08    1.92
  10  -2  -1    9.57    2.47
  10  -2  -1   12.88    1.74
  10  -2  -1   23.40    5.09
   9  -2  -1   11.90    2.81
   9  -2  -1   13.97    3.29
   9  -2  -1   14.98    1.76
   9  -2  -1   15.77    1.77
   9  -2  -1   11.69    1.96
   8  -2  -1   50.00    5.24
   8  -2  -1   56.03    5.62
   8  -2  -1   57.00    3.59
   8  -2  -1   53.12    3.63
   7  -2  -1    3.76    1.46
   7  -2  -1    2.81    0.88
   7  -2  -1    3.01    0.82
   6  -2  -1   -0.77    0.64
   6  -2  -1    0.76    0.46
   6  -2  -1    0.39    0.33
   5  -2  -1  103.55    4.87
   5  -2  -1   95.29    6.61
   4  -2  -1   29.88    1.85
   4  -2  -1   25.26    2.82
   3  -2  -1   54.71    3.02
   3  -2  -1   51.98    3.86
   3  -2  -1   50.10    2.55
   3  -2  -1   51.66    2.27
  -3   2   1   49.31    2.59
   2  -2  -1  271.67   10.46
   2  -2  -1  259.69   11.82
   2  -2  -1  287.26   10.90
   2  -2  -1  266.58    9.94
  -2   2   1  261.38   10.49
   1  -2  -1   17.63    1.24
   1  -2  -1   16.26    1.54
   1  -2  -1   13.69    1.04
  -1   2   1   11.92    1.35
  -1   2   1   17.25    1.25
  -1   2   1   15.88    1.05
  -1   2   1   15.01    0.85
   0  -2  -1  182.60    7.37
   0  -2  -1  179.61    7.46
   0   2   1  165.69    7.15
   0   2   1  167.18    7.41
   0   2   1  180.79    7.33
  -1  -2  -1  306.57   12.72
  -1  -2  -1  325.90   12.19
   1   2   1  322.96   12.76
   1   2   1  309.94   12.20
  -2  -2  -1  159.09    6.11
  -2  -2  -1  153.26    7.19
   2   2   1  158.65    6.14
   2   2   1  160.39    6.20
   2   2   1  149.18    7.15
   3   2   1   16.83    1.75
   3   2   1   17.35    1.13
   3   2   1   15.70    1.12
   4   2   1   36.10    2.97
   4   2   1   34.93    2.14
   5   2   1   17.51    1.58
   5   2   1   17.04    2.13
   6   2   1   90.11    6.04
   6   2   1   93.83    5.25
   6   2   1   95.47    5.14
   7   2   1   68.58    4.29
   7   2   1   62.19    5.03
   7   2   1   56.65    4.08
   8   2   1   41.68    4.33
   8   2   1   40.18    3.42
   8   2   1   38.91    4.05
   8   2   1   36.01    3.23
   9   2   1   14.72    3.07
   9   2   1   17.27    3.54
   9   2   1   18.63    2.31
  10   2   1    8.15    1.99
  10   2   1   14.27    2.95
  10   2   1    9.80    2.70
  10   2   1    9.46    2.14
  10   2   1   10.73    2.99
  11   2   1    3.32    1.37
  11   2   1    1.81    1.77
  11   2   1    4.21    2.32
  11   2   1    2.07    2.35
  11   2   1   -0.51    1.20
  11  -3  -1   11.31    3.41
  11  -3  -1   13.70    4.26
  11  -3  -1    9.50    2.41
  10  -3  -1   15.33    2.81
  10  -3  -1   16.97    3.99
  10  -3  -1   31.78    5.52
   9  -3  -1   34.27    2.54
   9  -3  -1   37.20    4.86
   9  -3  -1   33.95    4.68
   8  -3  -1   11.12    1.01
   8  -3  -1    9.36    2.85
   8  -3  -1    9.02    1.47
   8  -3  -1   10.66    2.66
   8  -3  -1    9.10    0.73
   8  -3  -1   10.75    2.30
   7  -3  -1   36.43    4.44
   7  -3  -1   33.20    3.03
   7  -3  -1   30.08    1.67
   7  -3  -1   31.06    2.35
   6  -3  -1   12.28    1.32
   6  -3  -1   14.49    3.33
   6  -3  -1   13.96    1.71
   6  -3  -1   12.56    0.80
   5  -3  -1   16.65    3.28
   5  -3  -1   16.92    1.48
   5  -3  -1   15.78    1.73
   4  -3  -1  215.84    8.89
   4  -3  -1  218.80    9.59
   4  -3  -1  200.34   11.10
  -4   3   1  210.39    8.97
   3  -3  -1  140.50    7.90
   3  -3  -1  139.42    6.36
   3  -3  -1  137.76    6.06
  -3   3   1  132.12    6.10
   2  -3  -1   19.19    2.19
   2  -3  -1   22.12    1.70
   2  -3  -1   21.27    1.59
  -2   3   1   22.75    1.80
  -2   3   1   22.47    1.58
   1  -3  -1  134.70    6.85
   1  -3  -1  128.22    5.97
   1  -3  -1  139.99    6.18
  -1   3   1  123.70    5.51
  -1   3   1  137.90    5.92
  -1   3   1  142.15    6.15
   0  -3  -1  159.44    7.09
   0  -3  -1  152.25    7.17
   0   3   1  160.19    7.02
   0   3   1  151.88    6.85
   0   3   1  153.87    7.20
  -1  -3  -1  164.54    6.74
  -1  -3  -1  154.51    7.22
   1   3   1  143.51    6.68
   1   3   1  150.84    7.15
  -2  -3  -1   21.42    1.39
  -2  -3  -1   19.65    1.93
  -2  -3  -1   20.93    1.32
   2   3   1   21.51    2.02
   2   3   1   17.75    1.29
  -3  -3  -1    0.60    0.51
  -3  -3  -1    0.10    0.19
   3   3   1    0.33    0.45
   3   3   1    0.22    0.16
   3   3   1   -0.21    0.15
   4   3   1   40.05    2.31
   4   3   1   42.96    2.01
   4   3   1   44.65    3.58
   5   3   1   21.10    1.37
   5   3   1   20.56    1.63
   5   3   1   20.35    2.50
   6   3   1  115.59    5.76
   6   3   1  113.79    5.39
   6   3   1  126.29    7.59
   6   3   1  118.15    5.38
   7   3   1   56.09    3.25
   7   3   1   53.37    3.60
   7   3   1   52.88    3.23
   7   3   1   63.15    5.18
   8   3   1   17.87    3.54
   8   3   1   17.96    1.70
   8   3   1   14.18    1.67
   8   3   1   17.99    2.03
   9   3   1   15.43    2.78
   9   3   1   17.56    3.40
   9   3   1   18.01    1.76
   9   3   1   18.60    3.89
   9   3   1   17.43    2.25
  10   3   1    3.39    1.98
  10   3   1    1.24    1.04
  10   3   1    2.46    0.84
  10   3   1    1.20    1.37
  10   3   1   -0.17    1.25
  11   3   1   -3.72    1.71
  11   3   1    0.98    1.88
  11   3   1    3.96    2.18
  11   3   1    1.49    2.62
  10  -4  -1   -0.23    1.86
  10  -4  -1    5.56    2.67
  10  -4  -1    1.98    1.75
   9  -4  -1   10.55    1.36
   9  -4  -1   14.33    3.91
   9  -4  -1    5.17    2.29
   8  -4  -1    1.14    1.07
   8  -4  -1    2.23    0.81
   8  -4  -1    7.19    2.41
   7  -4  -1    0.66    0.92
   7  -4  -1   -0.26    0.42
   7  -4  -1   -0.09    0.78
   6  -4  -1    4.01    0.91
   6  -4  -1    1.98    1.42
   6  -4  -1    3.84    1.00
   5  -4  -1   50.38    5.08
   5  -4  -1   49.92    3.41
   5  -4  -1   50.90    3.16
   4  -4  -1   61.08    5.36
   4  -4  -1   64.04    3.63
   4  -4  -1   66.43    3.85
  -4   4   1   57.74    4.66
   3  -4  -1  259.97   10.90
   3  -4  -1  262.83   13.07
   3  -4  -1  260.29   11.06
  -3   4   1  243.66   10.81
   2  -4  -1   15.01    2.09
   2  -4  -1   13.12    1.45
   2  -4  -1   15.96    1.90
  -2   4   1   17.21    1.66
  -2   4   1   17.36    1.52
  -2   4   1   15.52    0.87
   1  -4  -1  345.53   15.16
   1  -4  -1  327.62   14.04
   1  -4  -1  336.26   15.12
  -1   4   1  337.03   14.70
  -1   4   1  374.89   14.23
  -1   4   1  326.55   13.43
   0  -4  -1   14.36    1.67
   0  -4  -1   15.56    1.67
   0   4   1   16.90    1.67
   0   4   1   15.26    1.54
  -1  -4  -1   14.96    1.73
  -1  -4  -1   13.42    1.40
   1   4   1   11.16    1.43
   1   4   1   12.44    1.57
  -2  -4  -1   -0.14    0.23
  -2  -4  -1   -0.15    0.22
   2   4   1    0.50    0.45
  -3  -4  -1   80.58    5.33
  -3  -4  -1   86.62    4.10
   3   4   1   83.69    5.38
  -4  -4  -1  103.51    4.68
   4   4   1   97.00    6.32
   5   4   1   88.70    4.30
   5   4   1   85.75    6.09
   6   4   1   80.08    4.20
   6   4   1   86.46    6.33
   7   4   1   14.77    3.12
   7   4   1   11.55    1.40
   8   4   1    3.65    1.40
   8   4   1    2.03    0.81
   9   4   1    0.72    0.70
   9   4   1    1.22    1.34
   9   4   1   -0.01    1.02
  10   4   1    6.24    2.50
  10   4   1    7.94    2.58
  10   4   1    5.69    1.18
  11   4   1    0.43    1.85
  11   4   1    2.59    1.98
  10  -5  -1    6.16    3.20
  10  -5  -1    4.89    2.57
   9  -5  -1   -1.02    1.44
   8  -5  -1    0.75    0.63
   8  -5  -1   -0.61    1.58
   7  -5  -1   55.30    3.70
   7  -5  -1   55.32    4.03
   7  -5  -1   64.80    6.69
   6  -5  -1   29.52    2.55
   6  -5  -1   24.39    2.32
   6  -5  -1   26.82    5.14
   5  -5  -1   61.27    3.91
   5  -5  -1   54.90    5.71
   5  -5  -1   59.20    3.80
  -5   5   1   57.55    3.81
   4  -5  -1   74.71    4.33
   4  -5  -1   65.80    5.92
   4  -5  -1   68.95    4.26
  -4   5   1   67.88    4.24
   3  -5  -1   84.49    6.45
   3  -5  -1   79.30    4.74
   3  -5  -1   85.07    4.87
  -3   5   1   88.14    4.84
   2  -5  -1    5.35    1.02
   2  -5  -1    3.84    1.05
   2  -5  -1    3.94    1.38
  -2   5   1    4.06    1.08
  -2   5   1    3.21    0.86
  -2   5   1    3.04    0.52
   1  -5  -1   13.81    1.69
   1  -5  -1   15.16    2.09
  -1   5   1   13.59    1.53
  -1   5   1   15.11    1.70
  -1   5   1   12.50    1.30
   0  -5  -1    1.22    0.65
   0  -5  -1    1.09    0.78
   0   5   1    1.75    0.70
   0   5   1    2.35    0.77
  -1  -5  -1  169.00    8.03
  -1  -5  -1  160.97    8.46
   1   5   1  168.32    8.40
   1   5   1  156.85    8.06
  -2  -5  -1    8.15    1.09
  -2  -5  -1    8.40    1.16
  -2  -5  -1    9.69    1.90
   2   5   1   11.25    2.08
   2   5   1    9.47    1.75
  -3  -5  -1  207.16    9.29
  -3  -5  -1  237.22    8.97
  -3  -5  -1  213.57   10.97
   3   5   1  189.14   10.19
   3   5   1  216.83   10.92
  -4  -5  -1   62.72    3.43
   4   5   1   63.89    5.03
  -5  -5  -1   10.50    1.10
   5   5   1   10.42    2.30
   6   5   1    9.84    2.47
   7   5   1   -0.09    0.81
   8   5   1   -0.27    0.84
   9   5   1   20.89    4.13
  10   5   1    5.71    3.00
  10   5   1    5.41    2.53
  11   5   1   15.48    3.99
  11   5   1   11.67    3.76
   9  -6  -1    4.10    2.95
   8  -6  -1   14.48    4.05
   7  -6  -1   47.85    8.61
   7  -6  -1   37.08    3.00
   7  -6  -1   33.98    3.21
   6  -6  -1   83.65    5.01
   6  -6  -1   76.23    5.06
   6  -6  -1   88.04    7.94
   5  -6  -1   13.51    2.25
   5  -6  -1   22.74    4.75
   5  -6  -1   15.93    2.38
  -5   6   1   14.94    2.35
   4  -6  -1   17.56    3.61
   4  -6  -1   19.46    2.17
   4  -6  -1   18.34    2.13
  -4   6   1   23.52    2.41
   3  -6  -1    9.64    1.86
   3  -6  -1    5.94    1.50
   3  -6  -1    8.49    2.37
  -3   6   1   10.92    1.83
  -3   6   1   10.14    2.03
   2  -6  -1   20.13    2.18
   2  -6  -1   15.27    3.09
  -2   6   1   16.66    2.02
  -2   6   1   19.00    1.39
  -2   6   1   17.99    2.02
   1  -6  -1   49.50    3.87
   1  -6  -1   52.88    4.57
  -1   6   1   55.74    3.81
  -1   6   1   51.21    3.30
  -1   6   1   58.29    3.98
   0  -6  -1   56.89    4.35
   0  -6  -1   51.00    3.97
   0   6   1   48.96    3.68
   0   6   1   52.23    3.88
  -1  -6  -1  100.09    5.83
  -1  -6  -1   94.90    5.84
  -1  -6  -1   91.24    6.09
   1   6   1   97.52    6.08
   1   6   1  102.13    5.93
  -2  -6  -1  114.76    6.26
  -2  -6  -1  109.69    7.17
  -2  -6  -1  113.40    6.00
   2   6   1  126.83    8.34
  -3  -6  -1   67.96    5.42
  -3  -6  -1   75.85    4.48
  -3  -6  -1   76.03    4.03
   3   6   1   72.22    5.49
   3   6   1   75.51    5.30
  -4  -6  -1   56.55    3.56
   4   6   1   60.13    5.10
  -5  -6  -1    6.76    1.12
   5   6   1    8.49    2.41
   6   6   1    5.33    2.03
   7   6   1    0.26    1.11
   8   6   1   16.98    3.73
   9   6   1   16.10    3.70
   9   6   1   13.14    3.74
  10   6   1    0.65    1.74
  10   6   1   -1.20    1.55
   9  -7  -1   32.90    6.89
   8  -7  -1   26.84    5.42
   7  -7  -1    6.95    2.83
   6  -7  -1   46.05    9.83
   6  -7  -1   45.84    3.82
   5  -7  -1   10.82    2.91
   5  -7  -1    9.48    2.12
  -5   7   1   10.57    3.05
   4  -7  -1    2.46    1.51
   4  -7  -1    2.21    1.12
  -4   7   1    0.59    1.47
   3  -7  -1    1.78    1.05
   3  -7  -1    4.14    1.69
  -3   7   1   -2.20    2.05
  -3   7   1    0.88    0.92
   2  -7  -1   44.86    3.99
   2  -7  -1   53.62    5.11
  -2   7   1   50.46    2.83
  -2   7   1   53.33    4.61
  -2   7   1   47.89    3.94
   1  -7  -1   62.28    4.75
   1  -7  -1   67.10    5.52
  -1   7   1   62.65    4.60
  -1   7   1   58.29    4.40
  -1   7   1   64.87    4.02
   0  -7  -1   35.03    4.26
   0  -7  -1   40.38    3.84
   0   7   1   32.26    3.01
   0   7   1   36.51    3.37
   0   7   1   45.42    3.76
  -1  -7  -1    1.76    1.35
  -1  -7  -1    6.19    1.87
   1   7   1    8.33    1.92
   1   7   1    6.49    1.57
  -2  -7  -1   38.94    4.02
  -2  -7  -1   41.10    3.26
  -2  -7  -1   32.32    3.15
   2   7   1   44.32    4.06
  -3  -7  -1    6.42    1.42
  -3  -7  -1    3.91    1.08
   3   7   1    3.64    1.41
  -4  -7  -1    1.92    0.96
   4   7   1    2.98    1.37
   5   7   1    4.48    1.79
   6   7   1    2.73    1.33
   7   7   1   16.41    3.67
   8   7   1   20.79    4.41
   8   7   1   19.24    4.31
   9   7   1    1.62    1.57
   9   7   1   -1.31    1.52
  10   7   1   16.88    4.72
  10   7   1   13.95    3.68
   8  -8  -1    7.20    3.24
   7  -8  -1    0.06    1.87
   6  -8  -1    5.21    2.87
   5  -8  -1    0.42    1.74
   4  -8  -1   30.91    5.75
   4  -8  -1   27.08    3.13
   3  -8  -1   30.11    5.30
   3  -8  -1   20.13    3.26
  -3   8   1   23.85    2.98
   2  -8  -1   52.36    4.58
   2  -8  -1   70.61    6.28
  -2   8   1   60.27    3.37
  -2   8   1   60.70    4.86
   1  -8  -1   67.62    5.87
   1  -8  -1   62.75    5.29
  -1   8   1   65.18    4.30
  -1   8   1   65.48    5.02
   0  -8  -1   61.97    5.24
   0   8   1   54.52    4.31
   0   8   1   60.04    4.81
  -1  -8  -1   60.49    5.17
  -1  -8  -1   62.32    5.45
   1   8   1   78.51    5.67
   1   8   1   62.38    4.95
  -2  -8  -1   20.28    2.44
  -2  -8  -1   13.50    2.49
   2   8   1   23.74    2.86
  -3  -8  -1    0.18    0.67
  -3  -8  -1   -0.32    1.03
   3   8   1    0.96    0.69
  -4  -8  -1   28.30    2.13
  -4  -8  -1   25.79    2.91
   4   8   1   30.09    3.87
  -5  -8  -1   19.17    2.10
   5   8   1   14.29    3.18
   6   8   1   12.78    3.38
   7   8   1   15.79    3.57
   8   8   1   12.65    3.72
   8   8   1   12.52    3.65
   9   8   1   -1.73    1.44
   9   8   1    2.42    1.76
   7  -9  -1    7.12    3.14
   6  -9  -1    2.23    2.26
   5  -9  -1   22.33    5.23
   4  -9  -1   32.36    5.79
   3  -9  -1   36.46    4.99
  -3   9   1   33.41    3.76
   2  -9  -1   34.21    4.47
  -2   9   1   37.63    2.45
  -2   9   1   32.76    3.21
  -2   9   1   32.07    3.66
   1  -9  -1   54.59    5.38
  -1   9   1   43.40    3.55
  -1   9   1   43.83    4.30
   0  -9  -1   -0.11    1.11
   0   9   1    1.32    0.77
   0   9   1   -0.57    0.48
  -1  -9  -1    2.64    1.36
   1   9   1    2.60    1.29
   1   9   1    2.37    1.27
  -2  -9  -1    3.01    2.32
  -2  -9  -1    6.53    3.09
   2   9   1    7.51    2.14
   2   9   1    7.87    2.18
  -3  -9  -1   15.36    2.85
  -3  -9  -1   16.67    2.20
   3   9   1   14.42    3.16
  -4  -9  -1   14.77    2.78
  -4  -9  -1   12.28    1.67
   4   9   1   15.68    3.59
  -5  -9  -1   10.93    2.21
   5   9   1   14.65    3.66
  -6  -9  -1   21.09    2.48
   6   9   1   33.78    4.39
   6   9   1   25.95    5.06
   7   9   1   15.85    3.75
   7   9   1   19.67    4.34
   8   9   1    4.19    2.11
   8   9   1    2.51    2.10
   9   9   1    0.27    1.50
   6 -10  -1   15.78    6.87
   5 -10  -1   19.61    4.56
   4 -10  -1   26.77    5.11
   3 -10  -1   34.59    5.98
   2 -10  -1   21.17    4.22
  -2  10   1   21.65    1.82
  -2  10   1   25.87    3.28
  -2  10   1   22.86    2.42
   1 -10  -1    8.11    2.61
  -1  10   1    2.43    1.44
  -1  10   1    4.37    1.34
   0 -10  -1    3.58    1.72
   0  10   1    2.21    1.33
   0  10   1    3.75    1.55
  -1 -10  -1   13.64    3.09
   1  10   1   10.36    2.53
   1  10   1    8.38    2.32
  -2 -10  -1   12.13    2.56
   2  10   1   14.19    3.05
   2  10   1   14.56    3.28
  -3 -10  -1   39.54    3.79
   3  10   1   42.45    4.84
   3  10   1   49.02    5.31
  -4 -10  -1    4.50    3.20
  -4 -10  -1   15.00    1.90
   4  10   1   17.49    3.74
   4  10   1   13.82    3.24
   5  10   1    4.60    1.81
   5  10   1    3.32    1.94
   6  10   1    2.43    1.99
   6  10   1    6.00    2.10
   7  10   1   -2.61    1.39
   7  10   1   -1.65    1.95
   4 -11  -1   12.43    3.75
   3 -11  -1    4.91    2.82
   2 -11  -1   -0.94    1.41
  -2  11   1    0.44    1.73
   1 -11  -1   14.34    3.76
  -1  11   1   15.06    3.06
   0 -11  -1    6.17    2.29
   0  11   1    6.60    2.14
   0  11   1    5.66    2.11
   1  11   1   11.23    2.77
   1  11   1   13.37    3.14
   2  11   1   21.11    3.78
   2  11   1   21.87    4.04
  -3 -11  -1   12.76    2.71
   3  11   1   18.29    3.77
   3  11   1   13.56    3.93
   4  11   1   12.39    3.21
   4  11   1   13.04    3.49
   5  11   1    7.02    2.48
   5  11   1    3.73    2.44
   6  11   1   -0.32    2.03
   6  11   1   -2.06    2.05
   2 -12  -1    1.55    2.03
   1 -12  -1    4.13    2.38
  -1  12   1    7.46    2.88
   0 -12  -1    5.78    2.22
   0  12   1   10.13    2.78
   0  12   1    8.97    2.85
   1  12   1   19.30    3.56
   1  12   1   22.61    4.22
  -2 -12  -1   12.93    3.14
   2  12   1   12.35    3.01
   2  12   1   21.87    4.33
  -3 -12  -1    1.67    2.75
   3  12   1   10.13    3.08
   3  12   1    4.89    2.94
   4  12   1    5.68    2.69
   4  12   1    2.87    2.14
   5  11  -2    6.36    2.33
   4  11  -2    7.82    2.92
   3  11  -2   28.50    4.95
  -3 -11   2   14.73    3.53
   2  11  -2   36.29    7.06
   2  11  -2   23.02    4.21
  -2 -11   2   32.88    4.95
   1  11  -2   15.19    3.21
  -1 -11   2   11.94    3.05
   0  11  -2    5.12    1.93
   0  11  -2   13.16    3.52
   0 -11   2    5.31    2.50
  -1  11  -2    4.40    1.70
  -1  11  -2   -1.75    1.52
   1 -11   2    1.26    1.96
  -2  11  -2    3.35    1.84
   2 -11   2    1.33    2.17
   3 -11   2   18.07    4.52
   7  10  -2    7.04    2.70
   6  10  -2   11.80    3.38
   5  10  -2   25.36    5.01
   4  10  -2   33.06    4.33
   3  10  -2   14.38    3.22
  -3 -10   2   12.18    2.47
   2  10  -2    6.13    2.41
  -2 -10   2    7.75    2.35
   1  10  -2   -1.44    1.11
  -1 -10   2    0.22    1.26
   0  10  -2    1.55    1.10
   0  10  -2    3.75    1.77
   0 -10   2   -0.31    1.57
  -1  10  -2    5.03    1.83
  -1  10  -2    4.12    2.19
   1 -10   2    1.82    1.73
  -2  10  -2    7.02    1.33
  -2  10  -2    9.49    2.59
   2 -10   2   11.96    3.63
   3 -10   2   52.95    6.51
   4 -10   2   20.73    5.26
   5 -10   2   11.41    4.69
   8   9  -2    4.17    2.04
   7   9  -2   11.39    3.39
   6   9  -2   17.18    3.90
   5   9  -2   14.06    3.54
   4   9  -2   39.40    4.89
   3   9  -2   24.48    4.26
  -3  -9   2   21.17    2.40
   2   9  -2    0.76    0.98
   1   9  -2   -0.89    0.77
  -1  -9   2   -0.75    0.93
   0   9  -2   17.48    3.27
   0  -9   2   21.88    4.08
  -1   9  -2   32.11    3.45
  -1   9  -2   43.54    3.97
  -1   9  -2   32.39    3.17
   1  -9   2   42.91    4.77
  -2   9  -2   54.79    3.63
  -2   9  -2   66.09    5.17
   2  -9   2   61.56    6.33
  -3   9  -2   35.99    3.78
   3  -9   2   43.38    5.63
   4  -9   2   15.27    3.85
   5  -9   2    4.19    2.16
   6  -9   2    1.56    1.92
   9   8  -2    7.65    3.00
   8   8  -2    8.66    2.87
   7   8  -2   13.14    3.50
   6   8  -2   37.20    6.03
   5   8  -2    4.31    1.82
  -5  -8   2    4.13    2.12
   4   8  -2    4.27    1.79
  -4  -8   2    3.88    1.90
   3   8  -2    4.56    1.67
  -3  -8   2    1.02    1.56
  -3  -8   2    0.82    0.72
   2   8  -2   24.53    3.19
  -2  -8   2   24.99    2.80
   1   8  -2   21.03    2.86
  -1  -8   2   23.72    3.92
   0   8  -2   40.50    3.92
   0  -8   2   39.96    4.33
  -1   8  -2   69.53    5.06
  -1   8  -2   64.98    4.42
   1  -8   2   80.37    6.68
   1  -8   2   68.29    5.32
  -2   8  -2   61.62    3.79
  -2   8  -2   59.28    3.73
  -2   8  -2   57.52    5.64
   2  -8   2   66.32    6.42
  -3   8  -2   20.25    2.60
   3  -8   2   22.48    2.75
   3  -8   2   16.98    3.22
   3  -8   2   21.89    4.62
   4  -8   2    0.88    1.46
   4  -8   2   -1.14    0.94
   4  -8   2    3.82    1.36
   5  -8   2    1.65    1.49
   6  -8   2    7.89    2.84
   6  -8   2    6.09    1.99
   7  -8   2   26.57    3.61
   7  -8   2   47.78    6.27
  10   7  -2    7.94    3.64
   9   7  -2    5.75    3.24
   8   7  -2   20.78    4.28
   6   7  -2    3.72    1.69
  -6  -7   2    4.16    1.93
   5   7  -2    0.95    0.77
  -5  -7   2    1.13    1.16
   4   7  -2    0.12    0.74
  -4  -7   2    3.67    1.49
   3   7  -2    9.93    2.43
  -3  -7   2   12.10    2.42
  -3  -7   2    8.77    1.22
   2   7  -2   96.00    6.79
  -2  -7   2   96.33    6.70
  -2  -7   2  104.02    6.00
   1   7  -2  138.42    8.07
  -1  -7   2  126.59    8.04
  -1  -7   2  130.98    7.81
   0  -7   2   80.78    7.81
   0  -7   2   64.56    5.94
  -1   7  -2   94.51    5.71
  -1   7  -2   86.08    5.01
   1  -7   2   91.31    6.93
   1  -7   2   93.11    6.44
   1  -7   2   85.15    5.81
  -2   7  -2   29.22    2.53
  -2   7  -2   34.45    3.00
   2  -7   2   30.57    3.40
   2  -7   2   30.28    3.97
   2  -7   2   33.95    3.02
  -3   7  -2    5.07    1.38
   3  -7   2    4.63    1.17
   3  -7   2    3.24    1.57
   3  -7   2    2.91    1.37
   4  -7   2    0.99    0.85
   4  -7   2   -0.30    0.49
   5  -7   2    8.21    2.17
   5  -7   2   12.39    3.49
   5  -7   2    9.48    2.37
   6  -7   2    8.90    3.09
   6  -7   2    8.68    2.04
   7  -7   2   54.13    4.66
   7  -7   2   52.50    6.88
   8  -7   2    9.69    3.68
   8  -7   2    7.96    2.12
  10   6  -2   19.47    4.48
   9   6  -2   29.39    5.46
   8   6  -2   10.68    3.04
   7   6  -2    2.66    1.39
   6   6  -2    2.08    1.45
  -6  -6   2    0.70    0.98
   5   6  -2   -0.79    0.70
  -5  -6   2    1.39    1.11
   4   6  -2   44.26    4.44
  -4  -6   2   36.81    3.45
   3   6  -2   30.23    3.34
  -3  -6   2   24.96    1.86
  -3  -6   2   26.48    2.79
   2   6  -2  157.90    8.93
   2   6  -2  155.36    8.47
  -2  -6   2  155.25    7.74
  -2  -6   2  153.07    8.36
   1   6  -2   53.48    4.03
   1   6  -2   46.39    3.91
  -1  -6   2   45.95    3.77
  -1  -6   2   46.55    3.96
   0   6  -2    1.50    0.93
   0   6  -2    2.08    0.93
   0  -6   2    0.27    0.72
   0  -6   2    2.23    0.99
   0  -6   2    0.85    0.72
   0  -6   2    1.27    0.97
  -1   6  -2   38.13    3.01
  -1   6  -2   33.09    3.05
   1  -6   2   32.37    3.55
   1  -6   2   34.46    3.33
   1  -6   2   32.68    3.74
   1  -6   2   34.80    3.08
  -2   6  -2    1.35    0.57
  -2   6  -2    1.50    0.77
  -2   6  -2    2.85    1.03
   2  -6   2    1.85    1.04
   2  -6   2    3.18    0.95
  -3   6  -2   10.08    1.75
  -3   6  -2    9.67    2.13
   3  -6   2   10.92    1.46
   3  -6   2   14.52    3.43
   3  -6   2    9.78    2.12
  -4   6  -2   33.40    3.62
   4  -6   2   35.90    4.59
   4  -6   2   37.65    3.40
   4  -6   2   35.07    3.34
  -5   6  -2   41.15    4.39
   5  -6   2   61.97    6.28
   5  -6   2   61.13    4.56
   5  -6   2   54.15    3.46
   6  -6   2   37.19    2.32
   6  -6   2   38.75    5.17
   6  -6   2   36.37    3.62
   7  -6   2   18.16    2.82
   7  -6   2   17.00    4.46
   8  -6   2   21.54    5.15
   8  -6   2   25.04    3.54
   9  -6   2    2.48    1.61
   9  -6   2   -1.15    1.85
  10   5  -2    1.41    2.13
  10   5  -2    3.29    1.85
   9   5  -2    4.76    1.67
   9   5  -2    4.51    2.27
   8   5  -2   -0.82    0.72
   8   5  -2    0.58    0.86
   7   5  -2    4.43    1.41
   7   5  -2    4.09    1.85
   6   5  -2    2.76    1.34
   6   5  -2    5.67    1.38
  -6  -5   2    3.81    1.34
   5   5  -2   55.58    5.10
   5   5  -2   52.50    3.95
  -5  -5   2   50.46    3.78
   4   5  -2   89.39    5.86
   4   5  -2   93.16    6.62
   4   5  -2   91.12    5.61
  -4  -5   2   94.19    5.56
   3   5  -2   88.53    8.30
   3   5  -2   83.10    8.82
  -3  -5   2  108.38    5.95
  -3  -5   2  104.09    4.44
   2   5  -2   68.53    4.63
   2   5  -2   69.25    4.98
  -2  -5   2   74.87    4.12
  -2  -5   2   67.68    4.48
   1   5  -2   44.11    3.52
   1   5  -2   44.77    3.40
  -1  -5   2   38.74    3.34
  -1  -5   2   43.91    3.34
   0   5  -2    4.76    1.20
   0   5  -2    4.43    1.21
   0  -5   2    2.54    1.21
   0  -5   2    5.83    1.49
   0  -5   2    3.57    1.23
   0  -5   2    3.19    1.00
  -1   5  -2   10.50    1.33
  -1   5  -2   11.18    1.79
   1  -5   2   12.89    2.61
   1  -5   2   11.05    1.41
   1  -5   2    8.74    1.80
  -2   5  -2   79.34    4.21
  -2   5  -2   71.44    4.60
  -2   5  -2   70.38    3.60
   2  -5   2   65.41    5.52
   2  -5   2   71.98    4.75
  -3   5  -2   75.49    4.10
  -3   5  -2   71.55    4.74
   3  -5   2   63.70    5.73
   3  -5   2   72.42    4.10
   3  -5   2   69.89    4.72
  -4   5  -2  105.45    6.63
   4  -5   2  113.81    5.67
   4  -5   2  122.38    6.75
   4  -5   2  130.16    8.92
  -5   5  -2   31.80    3.58
   5  -5   2   39.04    4.74
   5  -5   2   36.01    2.37
  -6   5  -2   40.69    3.76
   6  -5   2   37.61    4.99
   6  -5   2   42.58    3.53
   6  -5   2   38.45    2.42
   7  -5   2   11.89    2.19
   7  -5   2    6.78    0.86
   7  -5   2    3.95    1.93
   8  -5   2    1.98    0.97
   8  -5   2    1.33    1.92
   9  -5   2   -2.02    1.21
   9  -5   2   -1.56    1.52
  10  -5   2    9.87    3.36
  10  -5   2    7.61    2.88
  11   4  -2   14.57    3.74
  11   4  -2   12.64    3.64
  11   4  -2   10.78    2.54
  10   4  -2   -1.83    0.85
  10   4  -2    0.30    1.05
   9   4  -2    3.27    1.54
   9   4  -2    2.30    1.51
   8   4  -2    0.53    0.94
   8   4  -2    1.38    0.84
   7   4  -2   51.11    4.03
   7   4  -2   54.68    5.34
   6   4  -2   23.55    2.86
   6   4  -2   25.72    3.38
   6   4  -2   25.45    2.57
   5   4  -2  145.38    7.68
   5   4  -2  161.77    9.38
  -5  -4   2  149.22    7.66
   4   4  -2   48.08    5.23
   4   4  -2   54.31    3.73
   4   4  -2   50.03    3.88
  -4  -4   2   55.92    3.68
   3   4  -2   35.18    2.82
   3   4  -2   34.62    3.26
   3   4  -2   26.53    2.60
  -3  -4   2   36.29    2.75
   2   4  -2   58.26    3.91
   2   4  -2   60.61    4.32
  -2  -4   2   59.84    3.29
  -2  -4   2   64.62    3.98
   1   4  -2   23.38    2.24
   1   4  -2   19.84    1.95
  -1  -4   2   22.75    2.12
  -1  -4   2   18.64    2.06
   0   4  -2    1.72    0.71
   0   4  -2    0.76    0.51
   0  -4   2    1.45    0.67
   0  -4   2    1.46    0.67
   0  -4   2    1.83    0.63
  -1   4  -2  148.22    6.73
  -1   4  -2  141.31    7.00
   1  -4   2  143.79    7.28
   1  -4   2  145.45    6.89
  -2   4  -2  139.58    6.06
  -2   4  -2  133.83    6.64
  -2   4  -2  125.51    5.60
   2  -4   2  123.21    6.07
   2  -4   2  135.21    6.82
  -3   4  -2  133.25    7.01
   3  -4   2  133.16    6.14
   3  -4   2  141.82    7.05
  -4   4  -2   82.92    5.31
   4  -4   2   88.81    4.35
   4  -4   2   99.62    5.42
  -5   4  -2   64.50    4.56
   5  -4   2   62.64    5.86
   5  -4   2   73.33    4.54
   5  -4   2   62.60    3.37
   6  -4   2   27.24    5.08
   6  -4   2   20.39    1.65
   6  -4   2   25.82    2.48
   7  -4   2    2.88    1.05
   7  -4   2    1.63    0.68
   7  -4   2    2.28    1.31
   8  -4   2    4.47    1.96
   8  -4   2    4.65    0.85
   8  -4   2    5.40    1.54
   8  -4   2    4.46    0.92
   9  -4   2    8.33    0.92
   9  -4   2    5.91    0.81
   9  -4   2   12.16    3.53
   9  -4   2    7.52    1.87
  10  -4   2   14.98    3.71
  10  -4   2   13.86    2.37
  11   3  -2    1.12    2.02
  11   3  -2    1.77    1.71
  11   3  -2    3.89    2.10
  10   3  -2   -1.70    1.13
  10   3  -2   -1.08    1.53
   9   3  -2    5.58    1.52
   9   3  -2    2.03    1.55
   8   3  -2   17.47    3.68
   8   3  -2   22.42    2.82
   7   3  -2   22.75    3.29
   7   3  -2   25.97    2.73
   7   3  -2   26.30    3.46
   6   3  -2  118.19    6.46
   6   3  -2  101.26    6.38
   6   3  -2  121.08    7.83
   5   3  -2   35.14    2.88
   5   3  -2   34.76    3.00
   5   3  -2   32.81    3.66
  -5  -3   2   35.80    2.90
   4   3  -2   40.15    2.94
   4   3  -2   35.60    2.87
   4   3  -2   38.48    3.54
  -4  -3   2   42.60    3.07
   3   3  -2    8.30    1.42
   3   3  -2    7.34    1.66
   3   3  -2    7.80    1.47
  -3  -3   2    9.39    1.27
   2   3  -2    4.74    1.14
   2   3  -2    5.33    1.21
   2   3  -2    3.55    0.89
  -2  -3   2    3.21    0.91
   1   3  -2   35.31    2.49
  -1  -3   2   37.10    2.61
  -1  -3   2   31.12    2.51
   0   3  -2  389.79   15.23
   0   3  -2  392.10   15.28
   0  -3   2  381.32   15.24
   0  -3   2  312.21   18.41
   0  -3   2  387.31   15.47
  -1   3  -2   39.85    2.29
  -1   3  -2   42.91    2.73
  -1   3  -2   39.14    2.35
   1  -3   2   44.96    2.55
   1  -3   2   41.19    2.79
  -2   3  -2  107.02    4.59
  -2   3  -2  116.03    4.81
  -2   3  -2  108.58    5.49
   2  -3   2  109.22    5.51
   2  -3   2   99.55    4.78
  -3   3  -2  110.90    5.82
   3  -3   2  112.21    5.69
   3  -3   2  108.67    4.80
  -4   3  -2   31.61    2.64
   4  -3   2   32.55    2.57
   4  -3   2   29.95    1.81
   5  -3   2   14.03    1.69
   5  -3   2   12.69    1.17
   6  -3   2    8.75    2.52
   6  -3   2   10.64    1.14
   6  -3   2    9.23    1.71
   7  -3   2   17.43    2.14
   7  -3   2   19.79    4.04
   7  -3   2   17.77    1.79
   8  -3   2   33.26    5.73
   8  -3   2   30.79    2.54
   8  -3   2   31.20    3.03
   8  -3   2   28.15    2.26
   9  -3   2   19.26    2.05
   9  -3   2   22.64    2.05
   9  -3   2   13.02    3.50
   9  -3   2   23.00    2.72
  10  -3   2   11.04    3.02
  10  -3   2    8.32    3.08
  10  -3   2    9.47    2.01
  10  -3   2   10.64    1.69
  11   2  -2    4.87    2.06
  11   2  -2    7.86    2.08
  11   2  -2   -0.94    1.94
  11   2  -2    4.26    1.72
  10   2  -2    9.02    2.88
  10   2  -2    9.39    2.28
  10   2  -2   12.98    1.62
   9   2  -2   24.41    4.36
   9   2  -2   29.01    3.37
   9   2  -2   26.02    2.22
   8   2  -2   35.17    3.47
   8   2  -2   37.23    4.30
   8   2  -2   36.44    2.64
   7   2  -2   56.47    4.20
   7   2  -2   48.41    4.73
   7   2  -2   51.22    3.11
   6   2  -2   25.20    1.80
   6   2  -2   27.27    2.58
   6   2  -2   26.30    3.14
   5   2  -2    1.56    0.45
   5   2  -2    2.71    0.89
   4   2  -2    4.23    0.99
  -4  -2   2    3.97    1.16
   3   2  -2   53.33    5.04
   3   2  -2   68.16    3.83
  -3  -2   2   71.92    3.89
   2   2  -2  114.53    5.46
   2   2  -2  107.23    5.32
  -2  -2   2  115.89    4.46
  -2  -2   2  109.10    5.36
   1   2  -2  138.78    6.20
   1   2  -2  124.87    6.33
   1   2  -2  140.66    6.43
  -1  -2   2  141.62    6.32
  -1  -2   2  143.09    6.33
   0   2  -2  881.34   33.55
   0   2  -2  907.43   33.65
   0  -2   2  892.09   34.05
  -1   2  -2   29.32    1.63
  -1   2  -2   31.95    1.75
  -1   2  -2   29.81    2.02
   1  -2   2   33.11    2.13
   1  -2   2   29.03    1.68
  -2   2  -2   34.14    1.74
  -2   2  -2   33.66    2.31
   2  -2   2   32.15    1.63
   2  -2   2   33.53    2.25
   2  -2   2   32.93    1.73
  -3   2  -2   77.61    5.09
   3  -2   2   89.15    3.62
   3  -2   2   80.15    3.63
   3  -2   2   89.89    4.55
  -4   2  -2    2.60    0.74
   4  -2   2    3.26    0.85
   4  -2   2    3.27    0.58
   4  -2   2    3.22    0.55
   5  -2   2    2.98    0.88
   5  -2   2    2.41    0.65
   5  -2   2    2.70    0.59
   6  -2   2   64.29    3.48
   6  -2   2   66.61    3.67
   6  -2   2   62.57    4.26
   7  -2   2    5.81    1.35
   7  -2   2    4.14    1.70
   7  -2   2    3.16    0.96
   7  -2   2    3.12    0.76
   7  -2   2    3.77    0.95
   8  -2   2   69.71    4.85
   8  -2   2   60.94    4.28
   8  -2   2   62.51    4.00
   8  -2   2   65.94    3.83
   8  -2   2   65.75    6.35
   9  -2   2   21.83    2.40
   9  -2   2   28.36    2.75
   9  -2   2   17.45    3.76
   9  -2   2   28.11    2.23
   9  -2   2   29.15    3.07
  10  -2   2   11.48    2.29
  10  -2   2   11.07    3.09
  11  -2   2    5.41    2.15
  11  -2   2    5.88    2.00
  11  -2   2    5.04    2.64
  11   1  -2    8.71    2.42
  11   1  -2    5.03    1.98
  11   1  -2    9.12    2.91
  11   1  -2    8.81    1.96
  11   1  -2    4.68    1.54
  10   1  -2   18.62    2.56
  10   1  -2   25.78    4.22
  10   1  -2   17.98    2.79
  10   1  -2   17.19    3.52
  10   1  -2   13.64    3.52
   9   1  -2   35.94    3.42
   9   1  -2   43.36    4.26
   9   1  -2   39.55    4.62
   9   1  -2   42.29    3.51
   8   1  -2   15.22    3.12
   8   1  -2   15.26    2.77
   8   1  -2   18.86    2.25
   7   1  -2   33.93    3.25
   7   1  -2   35.46    2.97
   6   1  -2    1.19    0.62
   6   1  -2    0.97    0.67
   5   1  -2    4.50    1.20
   5   1  -2    5.01    1.05
   4   1  -2    8.96    1.55
   4   1  -2    7.59    0.95
   3   1  -2  143.48    5.87
   3   1  -2  140.60    6.51
  -3  -1   2  133.46    6.55
   2   1  -2   69.08    3.57
   2   1  -2   66.42    3.33
  -2  -1   2   67.36    2.99
  -2  -1   2   67.56    3.57
   1   1  -2  353.00   13.41
   1   1  -2  361.60   13.70
  -1  -1   2  337.71   13.60
  -1  -1   2  334.41   13.14
  -1  -1   2  343.83   13.44
   0   1  -2    3.20    0.57
   0   1  -2    2.85    0.64
   0   1  -2    3.03    0.56
   0  -1   2    3.72    0.71
   0  -1   2    2.83    0.53
  -1   1  -2  515.65   19.97
  -1   1  -2  531.73   19.62
   1  -1   2  531.60   19.97
   1  -1   2  511.62   19.61
  -2   1  -2   11.60    1.12
  -2   1  -2    9.46    0.83
   2  -1   2   10.10    0.81
   2  -1   2   10.52    1.08
   2  -1   2   10.42    0.55
   3  -1   2    4.15    0.70
   3  -1   2    4.57    0.97
   4  -1   2    8.70    1.01
   4  -1   2    8.56    1.42
   5  -1   2  170.63    8.15
   5  -1   2  166.68    7.70
   6  -1   2   65.19    4.26
   6  -1   2   57.01    3.73
   6  -1   2   58.13    3.82
   7  -1   2   31.08    2.79
   7  -1   2   30.01    3.68
   7  -1   2   27.58    2.55
   7  -1   2   30.45    2.83
   8  -1   2   21.60    2.56
   8  -1   2   16.09    3.37
   8  -1   2   19.88    2.28
   8  -1   2   20.09    2.35
   9  -1   2    7.87    2.17
   9  -1   2   15.63    3.42
   9  -1   2   14.88    2.60
   9  -1   2   14.28    2.30
  10  -1   2    0.39    1.06
  10  -1   2    2.80    1.53
  10  -1   2    0.11    0.87
  10  -1   2    0.64    1.27
  10  -1   2    0.29    1.22
  11  -1   2    0.91    1.57
  11  -1   2   -0.19    1.17
  11  -1   2    0.52    1.66
  11  -1   2   -0.69    1.17
  11  -1   2   -1.15    1.36
  11   0  -2    2.87    2.22
  11   0  -2    9.89    3.78
  11   0  -2    5.42    2.15
  11   0  -2    6.82    2.11
  11   0  -2    8.73    2.48
  10   0  -2   21.60    3.66
  10   0  -2   24.58    3.97
  10   0  -2   14.21    3.01
  10   0  -2   22.48    4.13
   9   0  -2    5.41    1.35
   9   0  -2    4.68    1.93
   9   0  -2    1.95    1.20
   9   0  -2    5.98    1.87
   8   0  -2    3.23    1.46
   8   0  -2   -1.52    1.14
   8   0  -2    3.18    1.04
   7   0  -2    3.55    1.23
   7   0  -2    3.91    1.02
   7   0  -2    3.49    1.32
   6   0  -2    9.00    1.85
   6   0  -2    8.70    1.88
   5   0  -2   88.33    5.21
   5   0  -2   87.09    5.40
   4   0  -2  117.64    6.25
   4   0  -2  119.38    6.02
   3   0  -2  349.88   14.45
   3   0  -2  349.57   14.12
   2   0  -2  204.11    8.70
   2   0  -2  206.46    8.42
  -2   0   2  207.45    8.79
  -2   0   2  203.28    8.47
   1   0  -2    3.25    0.55
   1   0  -2    2.89    0.32
   1   0  -2    3.38    0.53
   1   0  -2    2.42    0.54
  -1   0   2    2.58    0.55
  -1   0   2    2.20    0.35
  -1   0   2    2.91    0.53
   0   0  -2    3.58    0.44
   0   0  -2    3.40    0.45
   0   0  -2    3.17    0.39
   0   0   2    3.22    0.40
   0   0   2    3.04    0.54
   0   0   2    3.29    0.52
   0   0   2    3.58    0.45
  -1   0  -2  158.58    6.08
  -1   0  -2  161.17    6.47
  -1   0  -2  150.84    6.52
   1   0   2  167.99    6.46
   1   0   2  165.38    6.07
   1   0   2  153.22    6.49
   1   0   2  157.52    6.54
  -2   0  -2   34.34    2.05
   2   0   2   34.95    1.79
   2   0   2   33.73    2.03
   2   0   2   35.30    2.14
   3   0   2  308.67   12.46
   3   0   2  333.08   12.95
   3   0   2  302.13   12.73
   4   0   2    0.86    0.37
   4   0   2    1.40    0.59
   4   0   2    1.87    0.73
   5   0   2  116.02    5.97
   5   0   2  116.68    6.12
   5   0   2  112.26    6.10
   6   0   2   30.39    2.74
   6   0   2   28.25    2.64
   6   0   2   28.95    2.72
   7   0   2   87.03    5.47
   7   0   2   83.25    6.27
   7   0   2   82.37    5.36
   7   0   2   77.56    5.33
   8   0   2    8.29    3.08
   8   0   2    9.40    2.57
   8   0   2   11.81    2.16
   8   0   2   14.94    2.97
   8   0   2   10.80    2.21
   9   0   2    0.85    0.87
   9   0   2   -0.23    0.80
   9   0   2    0.42    0.90
   9   0   2    0.37    0.85
   9   0   2   -0.04    0.93
  10   0   2    4.95    2.04
  10   0   2    6.84    2.26
  10   0   2    1.29    1.42
  10   0   2    5.79    1.78
  10   0   2    5.69    1.90
  11   0   2   26.23    3.59
  11   0   2   15.04    3.46
  11   0   2   23.44    3.05
  11   0   2   23.91    3.62
  11  -1  -2   10.48    2.69
  11  -1  -2    3.53    1.78
  11  -1  -2    8.07    2.00
  10  -1  -2    6.44    1.24
  10  -1  -2    7.77    1.82
  10  -1  -2    7.03    2.09
  10  -1  -2    7.08    1.94
  10  -1  -2   11.11    3.07
   9  -1  -2    2.05    1.28
   9  -1  -2    3.72    1.34
   9  -1  -2    2.48    1.66
   9  -1  -2    5.03    1.23
   8  -1  -2    1.26    0.66
   8  -1  -2    0.69    0.71
   8  -1  -2    0.29    0.76
   7  -1  -2    3.95    1.60
   7  -1  -2    5.22    1.88
   7  -1  -2    4.64    1.05
   6  -1  -2   94.64    4.82
   6  -1  -2  102.19    6.52
   6  -1  -2   90.42    6.24
   5  -1  -2   87.07    5.73
   5  -1  -2   95.02    4.47
   5  -1  -2   90.49    5.81
   4  -1  -2  196.48    9.53
   4  -1  -2  184.92    9.46
   4  -1  -2  206.13    8.06
   3  -1  -2   49.10    2.24
   3  -1  -2   45.18    3.19
   2  -1  -2  150.71    6.03
   2  -1  -2  142.17    5.44
   2  -1  -2  145.46    6.69
  -2   1   2  142.32    6.71
   1  -1  -2   46.22    2.72
   1  -1  -2   53.28    2.81
   1  -1  -2   50.81    2.39
  -1   1   2   50.75    2.80
  -1   1   2   54.36    2.44
   0  -1  -2   65.20    3.03
   0  -1  -2   64.15    2.91
   0  -1  -2   68.49    2.98
   0  -1  -2   61.46    2.88
   0   1   2   57.07    2.84
   0   1   2   67.06    2.93
   0   1   2   64.90    2.95
   0   1   2   62.64    3.01
  -1  -1  -2  565.13   21.81
  -1  -1  -2  581.79   21.61
   1   1   2  572.43   21.79
  -2  -1  -2  538.82   20.69
   2   1   2  548.03   20.67
   2   1   2  529.08   20.95
   3   1   2  388.79   16.74
   3   1   2  438.81   16.60
   4   1   2   97.22    5.58
   4   1   2  106.91    5.45
   5   1   2   19.85    2.20
   5   1   2   17.26    1.91
   6   1   2  117.91    6.31
   6   1   2  112.76    6.86
   6   1   2  114.42    6.62
   7   1   2    1.18    0.78
   7   1   2    0.83    0.68
   7   1   2    0.89    0.77
   7   1   2    0.19    0.47
   8   1   2   -0.78    0.57
   8   1   2   -1.16    0.48
   8   1   2    0.67    0.85
   8   1   2    0.30    0.59
   8   1   2   -0.18    0.70
   9   1   2    8.92    2.28
   9   1   2    3.21    1.35
   9   1   2    4.81    1.74
   9   1   2    4.35    1.36
   9   1   2    5.56    1.73
  10   1   2    5.00    2.18
  10   1   2    3.40    1.36
  10   1   2    7.04    2.11
  10   1   2    6.89    2.33
  10   1   2    3.67    1.56
  11   1   2   -0.20    1.33
  11   1   2    0.49    1.56
  11   1   2    1.72    1.45
  11   1   2    3.15    1.55
  11   1   2   -0.42    1.24
  11  -2  -2   -0.22    1.60
  11  -2  -2    1.78    2.11
  11  -2  -2   -1.07    1.59
  10  -2  -2    2.08    0.65
  10  -2  -2    3.67    2.16
  10  -2  -2    1.51    1.04
  10  -2  -2    1.58    1.32
   9  -2  -2    0.88    1.07
   9  -2  -2   -0.67    0.49
   9  -2  -2    1.10    1.20
   9  -2  -2    1.04    1.31
   8  -2  -2   37.81    4.47
   8  -2  -2   34.59    2.86
   8  -2  -2   34.49    4.31
   8  -2  -2   38.07    2.52
   8  -2  -2   32.98    2.88
   7  -2  -2   91.20    5.03
   7  -2  -2   92.32    6.95
   7  -2  -2   90.24    7.03
   7  -2  -2  100.41    4.76
   6  -2  -2  107.07    8.59
   6  -2  -2  113.40    5.14
   6  -2  -2  105.82    5.38
   6  -2  -2  110.70    7.32
   5  -2  -2   65.47    3.24
   5  -2  -2   68.21    5.18
   5  -2  -2   63.93    3.46
   4  -2  -2   72.01    3.49
   4  -2  -2   73.62    5.09
   4  -2  -2   72.29    3.29
   3  -2  -2  100.16    5.86
   3  -2  -2  102.96    4.35
   3  -2  -2   99.84    4.17
   2  -2  -2    1.02    0.47
  -2   2   2    1.07    0.50
   1  -2  -2   36.79    2.16
   1  -2  -2   35.05    2.44
   1  -2  -2   33.99    1.78
  -1   2   2   33.17    1.73
  -1   2   2   27.59    2.25
  -1   2   2   37.22    2.20
  -1   2   2   39.37    1.81
   0  -2  -2   26.18    1.74
   0  -2  -2   23.48    1.59
   0  -2  -2   26.03    1.80
   0   2   2   24.58    1.59
   0   2   2   27.36    1.75
   0   2   2   26.34    1.83
  -1  -2  -2  120.55    5.66
  -1  -2  -2  131.19    5.40
   1   2   2  126.27    5.38
   1   2   2  132.80    5.72
   1   2   2  109.27    5.59
  -2  -2  -2   39.78    2.69
   2   2   2   43.98    2.30
   2   2   2   42.68    2.73
  -3  -2  -2   18.78    1.81
   3   2   2   16.63    1.35
   3   2   2   18.53    1.01
   3   2   2   17.83    1.79
   4   2   2   67.21    3.29
   4   2   2   72.62    4.44
   5   2   2    1.17    0.63
   5   2   2    1.76    0.58
   6   2   2   24.55    2.66
   6   2   2   25.13    2.92
   6   2   2   25.77    2.13
   7   2   2   59.66    4.74
   7   2   2   52.80    4.10
   7   2   2   50.29    4.68
   7   2   2   57.26    3.80
   8   2   2   16.84    2.27
   8   2   2   18.89    3.46
   8   2   2   15.69    2.02
   8   2   2   14.09    3.03
   9   2   2    7.62    2.07
   9   2   2    4.98    1.43
   9   2   2    9.33    2.44
   9   2   2    4.20    1.49
   9   2   2    4.53    1.33
  10   2   2   26.04    3.19
  10   2   2   25.13    2.98
  10   2   2   30.09    4.66
  10   2   2   27.99    3.21
  10   2   2   29.35    4.79
  11   2   2   -1.33    1.28
  11   2   2   -0.14    1.44
  11   2   2   -1.17    1.28
  11   2   2    3.36    1.42
  11   2   2    2.32    2.71
  11  -3  -2    0.74    2.12
  11  -3  -2   -0.96    1.88
  11  -3  -2   -0.28    2.15
  10  -3  -2   12.93    3.42
  10  -3  -2    9.71    2.83
   9  -3  -2    6.54    0.78
   9  -3  -2    8.57    1.15
   9  -3  -2    8.48    0.75
   9  -3  -2    7.73    2.41
   9  -3  -2    3.29    2.23
   8  -3  -2   35.86    3.41
   8  -3  -2   37.81    4.69
   8  -3  -2   35.30    2.09
   8  -3  -2   29.51    4.19
   8  -3  -2   36.41    2.23
   8  -3  -2   32.95    2.07
   7  -3  -2   92.10    4.36
   7  -3  -2   85.56    5.63
   7  -3  -2   96.56    7.54
   7  -3  -2   87.76    4.19
   7  -3  -2   83.53    4.08
   6  -3  -2    6.18    0.73
   6  -3  -2    6.33    2.14
   6  -3  -2    6.36    0.85
   6  -3  -2    7.01    1.57
   6  -3  -2    7.52    0.77
   5  -3  -2    0.47    0.23
   5  -3  -2    0.84    0.68
   5  -3  -2    0.84    0.38
   5  -3  -2    1.17    0.29
   5  -3  -2    0.75    1.22
   4  -3  -2   20.06    1.89
   4  -3  -2   18.71    0.97
   4  -3  -2   16.45    1.28
   4  -3  -2   16.76    2.37
   3  -3  -2    1.78    0.43
   3  -3  -2    2.74    1.01
   3  -3  -2    2.17    0.88
  -3   3   2    2.29    0.52
   2  -3  -2  396.53   16.47
   2  -3  -2  440.81   18.32
   2  -3  -2  438.17   17.12
  -2   3   2  452.12   16.49
  -2   3   2  419.98   16.17
   1  -3  -2  100.70    4.82
   1  -3  -2   90.23    5.21
  -1   3   2  106.58    4.88
  -1   3   2   96.83    4.21
  -1   3   2   90.38    4.34
  -1   3   2   88.40    5.19
   0  -3  -2  218.56    9.34
   0  -3  -2  220.62    9.24
   0   3   2  219.93    9.16
   0   3   2  194.80    8.80
   0   3   2  207.26    9.34
  -1  -3  -2  223.34    9.61
  -1  -3  -2  221.46    9.10
   1   3   2  201.91    9.40
   1   3   2  211.47    9.14
   1   3   2  224.76    9.54
  -2  -3  -2  139.47    5.99
  -2  -3  -2  128.84    6.78
  -2  -3  -2  142.92    5.56
   2   3   2  136.18    5.96
  -3  -3  -2   77.97    4.75
   3   3   2   71.78    4.60
   3   3   2   77.71    3.58
   4   3   2    0.45    0.56
   4   3   2    0.82    0.29
   5   3   2    0.90    0.37
   5   3   2    0.65    0.39
   5   3   2    0.37    0.58
   6   3   2   20.38    1.81
   6   3   2   22.51    1.75
   7   3   2   16.84    1.83
   7   3   2   17.71    3.28
   7   3   2   20.32    3.57
   7   3   2   16.93    1.82
   7   3   2   18.24    1.75
   8   3   2   21.92    2.41
   8   3   2   25.54    4.17
   8   3   2   21.23    3.91
   8   3   2   22.83    2.20
   8   3   2   21.33    2.12
   9   3   2   15.27    3.21
   9   3   2   16.76    1.95
   9   3   2   16.83    2.43
   9   3   2   18.67    3.67
   9   3   2   14.26    1.98
  10   3   2   15.05    3.21
  10   3   2   18.18    2.92
  10   3   2   14.19    3.32
  10   3   2   15.23    2.45
  10   3   2   15.01    1.92
  10   3   2   13.78    3.46
  11   3   2    6.94    2.28
  11   3   2    4.30    2.51
  11   3   2    5.56    1.73
  11   3   2    7.44    2.64
  10  -4  -2   17.61    4.35
  10  -4  -2   11.14    3.22
   9  -4  -2    9.91    3.14
   9  -4  -2   20.24    4.25
   8  -4  -2   60.50    3.12
   8  -4  -2   62.18    6.58
   8  -4  -2   55.37    4.54
   8  -4  -2   66.77    6.76
   7  -4  -2   57.86    5.83
   7  -4  -2   47.55    2.83
   7  -4  -2   46.25    4.04
   6  -4  -2   12.59    1.61
   6  -4  -2   10.34    1.15
   6  -4  -2    9.91    2.82
   5  -4  -2    1.55    0.98
   5  -4  -2    1.58    0.73
   5  -4  -2    0.36    0.33
   4  -4  -2    4.19    1.61
   4  -4  -2    4.23    1.07
   4  -4  -2    4.71    0.90
  -4   4   2    5.12    0.96
   3  -4  -2   39.49    2.84
   3  -4  -2   37.00    2.44
   3  -4  -2   42.73    3.91
  -3   4   2   37.88    2.43
   2  -4  -2  480.72   19.75
   2  -4  -2  473.13   21.07
  -2   4   2  522.73   18.58
  -2   4   2  497.43   19.22
  -2   4   2  487.34   19.85
   1  -4  -2   29.24    2.70
   1  -4  -2   27.70    2.27
  -1   4   2   28.18    2.03
  -1   4   2   23.66    2.46
  -1   4   2   25.69    1.77
  -1   4   2   27.21    2.21
   0  -4  -2   46.33    3.24
   0  -4  -2   40.45    3.01
   0   4   2   47.18    3.09
   0   4   2   41.60    2.77
  -1  -4  -2  155.05    7.24
  -1  -4  -2  150.99    7.67
   1   4   2  160.56    7.68
   1   4   2  155.33    7.36
  -2  -4  -2   36.80    2.21
  -2  -4  -2   33.04    2.92
  -2  -4  -2   37.79    2.35
   2   4   2   32.90    2.87
   2   4   2   35.54    2.37
  -3  -4  -2    9.87    1.02
  -3  -4  -2    9.38    1.95
  -3  -4  -2   10.33    0.86
   3   4   2    8.64    0.93
   3   4   2    9.44    1.89
   4   4   2    9.11    1.95
   4   4   2   10.77    0.93
   5   4   2    8.28    0.75
   6   4   2   43.70    4.21
   6   4   2   48.61    2.35
   6   4   2   49.05    2.51
   7   4   2   26.36    4.44
   7   4   2   28.89    1.91
   7   4   2   27.71    1.58
   7   4   2   27.53    1.96
   7   4   2   29.34    3.44
   8   4   2   40.24    4.34
   8   4   2   33.02    4.25
   8   4   2   35.61    2.35
   9   4   2   12.85    2.84
   9   4   2   15.61    3.58
   9   4   2   13.78    1.43
  10   4   2    0.08    0.65
  10   4   2    0.40    1.41
  10   4   2    0.45    2.09
  11   4   2    2.42    2.23
  11   4   2    1.99    1.91
  10  -5  -2    5.20    2.63
  10  -5  -2    1.27    2.26
   9  -5  -2   24.07    5.50
   9  -5  -2   27.99    5.85
   8  -5  -2   11.84    4.95
   8  -5  -2   14.79    2.59
   7  -5  -2    1.59    1.55
   7  -5  -2    2.16    1.77
   7  -5  -2    1.19    0.60
   6  -5  -2    0.16    0.91
   6  -5  -2   -0.58    0.98
   6  -5  -2   -0.40    0.42
   5  -5  -2    2.59    1.50
   5  -5  -2    2.07    0.79
   5  -5  -2    1.20    0.58
  -5   5   2    0.28    0.67
   4  -5  -2   67.59    5.84
   4  -5  -2   64.38    4.15
   4  -5  -2   57.11    3.65
  -4   5   2   62.90    3.77
   3  -5  -2  121.49    6.75
   3  -5  -2  141.24    8.66
  -3   5   2  138.37    6.52
   2  -5  -2  226.56   10.63
   2  -5  -2  226.67   11.94
  -2   5   2  238.01   10.16
  -2   5   2  234.60   10.67
  -2   5   2  235.94    9.22
   1  -5  -2   98.21    6.22
   1  -5  -2   97.99    5.59
  -1   5   2   98.52    5.21
  -1   5   2   95.18    4.85
  -1   5   2  106.38    5.63
   0  -5  -2   23.98    2.38
   0  -5  -2   20.52    2.17
   0   5   2   19.35    1.91
   0   5   2   21.17    2.05
   0   5   2   23.60    2.24
  -1  -5  -2   49.91    3.32
  -1  -5  -2   40.96    3.40
   1   5   2   42.29    3.21
   1   5   2   39.71    3.13
   1   5   2   45.73    3.47
  -2  -5  -2   49.26    3.92
  -2  -5  -2   56.41    3.29
  -2  -5  -2   49.61    3.15
   2   5   2   46.89    3.23
   2   5   2   51.33    3.94
  -3  -5  -2   83.53    4.19
  -3  -5  -2   84.00    4.12
  -3  -5  -2   77.18    5.49
   3   5   2   80.98    5.49
   3   5   2   75.70    4.15
  -4  -5  -2   79.11    3.65
  -4  -5  -2   75.75    6.50
   4   5   2   80.58    5.72
   5   5   2  102.83    7.00
   6   5   2    3.70    1.51
   7   5   2   46.62    4.83
   8   5   2    9.07    2.56
   8   5   2    5.51    2.21
   9   5   2   -0.48    1.87
   9   5   2    1.84    1.32
  10   5   2   -0.33    1.43
  10   5   2    4.81    1.99
  11   5   2    2.85    1.92
  11   5   2   -0.37    1.51
   9  -6  -2    8.66    3.19
   9  -6  -2    6.90    3.55
   8  -6  -2   -0.08    1.40
   7  -6  -2   13.72    4.15
   7  -6  -2    8.39    2.16
   6  -6  -2   39.93    4.12
   6  -6  -2   43.63    5.39
   5  -6  -2   82.00    7.23
   5  -6  -2   74.72    5.07
  -5   6   2   74.11    4.59
   4  -6  -2   95.94    7.47
   4  -6  -2   81.15    5.29
  -4   6   2   81.06    4.99
   3  -6  -2   86.38    5.43
   3  -6  -2   87.91    6.90
  -3   6   2   92.08    5.23
   2  -6  -2   20.35    2.92
   2  -6  -2   21.33    2.29
  -2   6   2   22.31    2.12
  -2   6   2   22.62    2.39
  -2   6   2   22.44    1.55
   1  -6  -2   27.75    3.05
   1  -6  -2   23.78    2.49
  -1   6   2   27.48    2.17
  -1   6   2   25.18    2.53
  -1   6   2   24.47    2.31
   0  -6  -2    4.43    1.33
   0  -6  -2    1.81    0.89
   0   6   2    3.03    1.13
   0   6   2    3.02    0.95
   0   6   2    5.54    1.19
  -1  -6  -2    1.41    0.70
  -1  -6  -2    0.49    0.65
   1   6   2    2.50    0.97
   1   6   2    3.42    1.13
   1   6   2    1.49    0.76
  -2  -6  -2  104.87    5.50
  -2  -6  -2   94.25    6.40
  -2  -6  -2   93.56    5.39
   2   6   2   99.77    6.22
   2   6   2   89.83    7.24
  -3  -6  -2   83.69    4.55
  -3  -6  -2   79.09    5.97
  -3  -6  -2   93.40    4.67
   3   6   2   75.78    5.43
   3   6   2   78.54    5.78
  -4  -6  -2   34.97    2.30
   4   6   2   33.99    3.67
   5   6   2  104.14    7.38
   6   6   2    5.21    1.80
   7   6   2    6.82    2.41
   7   6   2    8.67    2.53
   8   6   2   -0.98    0.77
   8   6   2   -0.81    0.99
   9   6   2   25.41    5.19
   9   6   2   26.78    4.80
  10   6   2    5.50    2.20
  10   6   2    0.09    1.38
   9  -7  -2    0.49    2.77
   9  -7  -2   -1.19    2.25
   8  -7  -2    0.55    2.14
   7  -7  -2   29.77    5.85
   6  -7  -2   56.16    7.11
   6  -7  -2   63.44    4.87
   5  -7  -2   58.12    4.69
   5  -7  -2   68.43    6.79
  -5   7   2   76.18    4.89
   4  -7  -2   64.65    6.25
   4  -7  -2   57.00    6.09
  -4   7   2   48.31    4.14
   3  -7  -2   18.31    3.62
   3  -7  -2   20.02    2.56
  -3   7   2   20.48    3.72
  -3   7   2   21.43    2.41
   2  -7  -2   26.75    3.44
   2  -7  -2   21.42    2.69
  -2   7   2   27.07    1.84
  -2   7   2   21.65    2.40
  -2   7   2   24.76    3.94
   1  -7  -2    4.52    1.53
   1  -7  -2    1.70    1.24
  -1   7   2    2.71    1.28
  -1   7   2    4.02    1.06
   0  -7  -2   94.47    6.31
   0  -7  -2   89.69    6.32
   0   7   2   93.17    5.80
   0   7   2   92.74    5.62
   0   7   2   96.89    6.12
  -1  -7  -2   60.96    4.40
  -1  -7  -2   49.98    4.46
   1   7   2   62.02    4.65
   1   7   2   54.06    4.23
   1   7   2   47.22    4.05
  -2  -7  -2   51.45    4.78
  -2  -7  -2   53.78    3.82
  -2  -7  -2   47.63    3.78
   2   7   2   50.83    4.45
   2   7   2   47.82    4.88
  -3  -7  -2   47.71    3.26
  -3  -7  -2   40.16    3.18
   3   7   2   44.62    4.26
  -4  -7  -2   25.11    2.30
  -4  -7  -2   23.25    1.93
   4   7   2   28.96    3.44
  -5  -7  -2   19.62    1.58
   5   7   2   29.61    3.59
   6   7   2    9.63    2.42
   7   7   2    2.77    1.68
   7   7   2    1.99    0.99
   8   7   2   -1.36    1.08
   8   7   2   -1.44    1.12
   9   7   2    0.62    1.64
   9   7   2    0.64    1.31
  10   7   2    4.65    2.64
  10   7   2    3.88    2.10
   8  -8  -2    5.41    3.08
   7  -8  -2   33.70    6.83
   6  -8  -2   10.72    3.55
  -5   8   2   18.94    3.24
   4  -8  -2   14.20    2.92
   4  -8  -2   22.09    4.45
  -4   8   2   11.97    2.65
   3  -8  -2    3.86    1.65
   3  -8  -2    4.10    1.93
  -3   8   2   -0.16    1.29
  -3   8   2    0.93    1.26
   2  -8  -2    0.72    0.84
   2  -8  -2    0.77    1.20
  -2   8   2   -0.32    0.71
  -2   8   2    1.74    1.30
  -2   8   2    0.25    0.42
   1  -8  -2   36.66    4.05
  -1   8   2   32.90    3.34
  -1   8   2   29.49    2.71
   0  -8  -2  110.83    7.39
   0   8   2   97.76    6.25
   0   8   2  109.86    6.99
  -1  -8  -2   12.62    2.52
   1   8   2   19.66    2.56
   1   8   2   21.96    2.78
  -2  -8  -2   28.20    3.25
  -2  -8  -2   40.41    3.42
   2   8   2   31.68    3.50
   2   8   2   35.75    3.74
  -3  -8  -2   71.53    4.49
  -3  -8  -2   59.78    4.50
   3   8   2   56.75    5.25
   3   8   2   69.80    5.74
  -4  -8  -2    9.79    1.93
  -4  -8  -2   14.33    1.67
   4   8   2   10.49    2.84
   4   8   2   16.47    3.37
  -5  -8  -2   12.34    1.51
   5   8   2    9.93    2.52
   5   8   2   18.67    3.83
   6   8   2    4.81    1.82
   6   8   2    6.91    2.34
   7   8   2   13.94    3.37
   7   8   2    3.00    1.49
   8   8   2   12.48    3.38
   8   8   2   11.35    3.16
   9   8   2    7.91    2.78
   9   8   2    8.86    3.08
   7  -9  -2   19.98    5.10
   6  -9  -2   20.38    4.99
   5  -9  -2    6.19    3.00
   4  -9  -2    2.31    1.45
   3  -9  -2   12.41    3.26
  -3   9   2   18.74    3.46
   2  -9  -2   15.95    3.54
  -2   9   2   22.49    3.57
  -2   9   2   13.84    1.49
   1  -9  -2   69.33    6.17
  -1   9   2   55.58    4.90
  -1   9   2   56.78    4.08
   0  -9  -2   92.57    7.10
   0   9   2   96.58    6.85
  -1  -9  -2   29.56    3.48
   1   9   2   29.12    3.39
   1   9   2   24.00    3.08
  -2  -9  -2   31.20    3.72
  -2  -9  -2   37.82    4.35
   2   9   2   33.55    3.88
   2   9   2   32.06    3.80
  -3  -9  -2   12.69    2.35
  -3  -9  -2   16.20    2.82
   3   9   2   10.95    2.70
   3   9   2   10.40    2.63
  -4  -9  -2    3.31    1.57
  -4  -9  -2   -0.07    0.70
   4   9   2    1.32    1.23
  -5  -9  -2   15.64    2.62
   5   9   2   17.71    3.69
   5   9   2   19.11    3.84
   6   9   2    8.59    2.79
   6   9   2    4.68    2.26
   7   9   2    5.64    2.35
   7   9   2    8.25    2.49
   8   9   2   16.36    3.92
   8   9   2   21.41    4.76
   9   9   2   13.86    3.91
   9   9   2    6.99    3.23
   6 -10  -2   -1.57    1.76
   5 -10  -2    1.19    2.01
   4 -10  -2   22.30    5.47
   3 -10  -2   11.88    3.49
   2 -10  -2   38.88    6.49
  -2  10   2   35.55    2.99
  -2  10   2   36.25    2.39
  -2  10   2   38.01    4.02
   1 -10  -2   36.55    4.53
  -1  10   2   36.48    3.20
  -1  10   2   36.48    4.03
   0 -10  -2   42.21    4.84
   0  10   2   53.08    5.02
   0  10   2   48.21    4.30
  -1 -10  -2    7.38    2.28
   1  10   2    5.54    2.14
   1  10   2    4.28    1.80
  -2 -10  -2    1.68    1.09
   2  10   2    1.97    1.02
   2  10   2   -1.15    0.80
  -3 -10  -2   -0.43    0.93
   3  10   2    0.16    1.24
   3  10   2   -0.17    1.25
  -4 -10  -2   19.83    2.52
   4  10   2   29.71    4.86
   4  10   2   20.07    3.94
   5  10   2   12.38    3.36
   5  10   2    6.03    2.18
   6  10   2   11.10    3.34
   6  10   2    7.36    2.61
   7  10   2    9.44    3.18
   7  10   2    2.38    1.89
   8  10   2    7.28    3.27
   8  10   2    7.86    3.16
   4 -11  -2   22.12    5.35
   3 -11  -2   27.48    5.79
   2 -11  -2   24.05    5.41
  -2  11   2   22.75    4.19
   1 -11  -2    0.95    1.86
  -1  11   2   10.95    2.63
   0 -11  -2   -0.53    1.28
   0  11   2    3.18    1.29
  -1 -11  -2    0.65    1.26
   1  11   2   -0.04    1.16
   1  11   2   -0.05    1.44
  -2 -11  -2   17.23    3.34
   2  11   2   15.80    3.34
   2  11   2   18.51    3.74
  -3 -11  -2    4.30    1.67
   3  11   2    2.98    1.69
  -4 -11  -2   20.10    2.93
   4  11   2   30.72    4.08
   4  11   2   25.48    4.47
   5  11   2    9.06    3.18
   5  11   2    7.14    2.61
   6  11   2    9.41    3.41
   6  11   2    1.39    2.15
   2 -12  -2    3.64    2.88
  -2  12   2   10.73    3.37
   1 -12  -2    4.29    2.45
  -1  12   2    8.91    3.18
   0 -12  -2    3.08    2.15
   0  12   2    2.73    1.99
   0  12   2    1.01    1.70
  -1 -12  -2    8.91    2.65
   1  12   2    5.08    2.67
   1  12   2    4.94    2.60
  -2 -12  -2    6.88    2.44
   2  12   2    6.09    2.27
   2  12   2    8.96    3.01
   3  12   2   24.73    4.87
   3  12   2   29.71    4.92
   4  12   2   11.78    3.09
   4  12   2    5.52    3.00
   5  11  -3    0.27    2.09
   4  11  -3    0.06    1.65
   3  11  -3   -0.50    1.96
   2  11  -3   15.35    3.22
  -2 -11   3    7.12    2.45
   1  11  -3   12.09    2.86
   1  11  -3   11.30    2.84
  -1 -11   3    8.45    2.53
   0  11  -3   25.93    6.93
   0  11  -3   28.91    3.78
  -1  11  -3   10.24    2.81
  -1  11  -3   12.52    2.78
   1 -11   3   17.93    4.54
  -2  11  -3    3.69    1.93
   2 -11   3    1.44    2.47
   3 -11   3   -1.38    2.23
   6  10  -3    0.00    1.79
   5  10  -3   -0.50    1.52
   4  10  -3    7.88    2.66
   3  10  -3   20.40    4.09
  -3 -10   3   21.65    2.74
   2  10  -3   30.35    4.04
  -2 -10   3   27.71    3.52
   1  10  -3   29.50    3.65
  -1 -10   3   28.10    4.72
   0  10  -3    8.40    2.34
   0 -10   3    3.30    1.86
  -1  10  -3   12.33    2.70
  -1  10  -3    6.46    1.70
   1 -10   3   12.75    3.50
  -2  10  -3   -0.30    0.97
  -2  10  -3    3.29    1.58
   2 -10   3    2.81    1.99
   3 -10   3    3.60    1.94
   4 -10   3   16.37    3.82
   5 -10   3   22.38    5.32
   8   9  -3    0.84    1.90
   7   9  -3    3.00    1.63
   6   9  -3    5.46    2.34
   5   9  -3   14.89    3.61
   4   9  -3   32.65    5.36
   3   9  -3   35.06    4.41
  -3  -9   3   30.45    2.93
   2   9  -3   31.36    3.77
  -2  -9   3   34.73    4.23
   1   9  -3   35.52    3.94
  -1  -9   3   32.17    3.76
   0   9  -3    2.08    1.35
   0  -9   3   -0.47    0.87
  -1   9  -3   -0.03    0.97
   1  -9   3   -1.24    1.04
  -2   9  -3   -1.96    0.94
  -2   9  -3    0.98    0.83
  -2   9  -3    0.41    1.37
   2  -9   3   -0.21    1.18
  -3   9  -3    9.79    2.40
   3  -9   3   18.66    6.64
   4  -9   3   29.81    6.41
   5  -9   3   29.07    5.86
   6  -9   3   -0.74    1.69
   9   8  -3    2.02    1.92
   8   8  -3   -0.91    2.12
   7   8  -3    3.50    2.09
   6   8  -3   18.19    3.83
  -6  -8   3   11.95    4.16
   5   8  -3   15.69    3.64
   4   8  -3   44.32    4.94
   3   8  -3   19.53    3.55
  -3  -8   3   17.74    1.95
   2   8  -3   56.19    5.14
  -2  -8   3   51.98    4.22
   1   8  -3    0.31    0.90
  -1  -8   3    1.31    0.97
   0   8  -3    6.89    1.89
   0  -8   3    8.35    2.48
  -1   8  -3   11.26    2.26
  -1   8  -3    7.49    1.88
   1  -8   3   12.13    3.12
  -2   8  -3   31.09    2.64
  -2   8  -3   34.13    3.44
   2  -8   3   31.83    3.68
   2  -8   3   30.16    4.19
  -3   8  -3   69.41    4.88
   3  -8   3   77.29    6.07
   3  -8   3   72.83    7.19
   4  -8   3   40.18    4.37
   4  -8   3   40.09    5.58
   5  -8   3   11.76    3.65
   5  -8   3   19.71    3.50
   6  -8   3   -1.49    1.65
   6  -8   3    2.25    1.53
   7  -8   3    0.16    1.67
   7  -8   3    0.53    1.66
   9   7  -3    2.92    2.47
   8   7  -3   10.68    3.09
   7   7  -3   19.12    4.18
  -7  -7   3   15.15    3.40
   6   7  -3   31.18    5.26
  -6  -7   3   26.42    4.08
  -5  -7   3   24.63    3.46
   4   7  -3   11.47    2.80
  -4  -7   3   11.68    2.74
   3   7  -3    1.28    1.09
  -3  -7   3    0.77    1.17
  -3  -7   3    2.77    0.88
   2   7  -3    0.95    0.96
  -2  -7   3    0.50    0.70
  -2  -7   3    0.11    0.94
   1   7  -3   36.29    3.64
  -1  -7   3   28.75    5.02
  -1  -7   3   31.05    3.37
   0   7  -3   61.31    7.08
   0  -7   3   67.17    5.52
  -1   7  -3   21.79    2.25
  -1   7  -3   22.39    2.55
   1  -7   3   24.93    3.35
   1  -7   3   22.66    2.91
  -2   7  -3  133.51    6.60
  -2   7  -3  142.07    7.39
   2  -7   3  134.93    8.42
   2  -7   3  132.37    9.45
  -3   7  -3   60.38    4.26
  -3   7  -3   68.84    3.09
   3  -7   3   70.06    5.45
   3  -7   3   70.67    6.67
   4  -7   3   27.38    3.36
   4  -7   3   27.37    4.97
   5  -7   3    2.65    1.32
   5  -7   3    1.60    1.11
   6  -7   3    1.58    1.66
   6  -7   3    2.32    1.28
   7  -7   3    6.40    2.23
   7  -7   3    5.66    2.60
   8  -7   3   19.66    3.36
   8  -7   3   12.91    4.49
  10   6  -3   10.32    3.44
   9   6  -3   16.30    2.72
   9   6  -3   25.60    5.39
   8   6  -3   40.55    4.97
   8   6  -3   32.32    3.57
   7   6  -3   54.65    5.80
   7   6  -3   43.75    7.70
  -7  -6   3   48.90    4.40
   6   6  -3   34.21    4.24
  -6  -6   3   29.16    3.32
   5   6  -3   27.58    4.51
  -5  -6   3   20.18    3.21
   4   6  -3    7.16    2.01
  -4  -6   3    2.91    1.29
   3   6  -3    2.55    1.22
  -3  -6   3    4.55    0.93
  -3  -6   3    3.02    1.43
   2   6  -3   21.68    2.77
  -2  -6   3   20.74    2.55
  -2  -6   3   22.50    2.28
   1   6  -3   76.64    5.49
   1   6  -3   83.15    5.47
  -1  -6   3   89.32    5.65
  -1  -6   3   78.57    5.78
   0   6  -3  105.01    6.12
   0   6  -3   90.20    5.89
   0  -6   3   96.98    6.63
   0  -6   3  102.45    6.63
   0  -6   3  105.86    6.93
  -1   6  -3   30.11    2.45
  -1   6  -3   31.44    2.96
  -1   6  -3   30.38    2.62
   1  -6   3   21.69    3.09
   1  -6   3   26.29    3.46
   1  -6   3   28.10    3.02
  -2   6  -3   50.99    3.43
  -2   6  -3   41.43    3.72
  -2   6  -3   49.65    3.07
   2  -6   3   46.46    4.79
   2  -6   3   47.09    4.04
   2  -6   3   44.18    3.39
  -3   6  -3   21.58    1.46
  -3   6  -3   23.46    2.13
  -3   6  -3   23.34    2.81
   3  -6   3   23.53    2.78
   3  -6   3   21.71    4.20
   3  -6   3   22.31    2.24
   4  -6   3    0.76    0.65
   4  -6   3    0.80    0.77
   4  -6   3    1.00    1.37
   5  -6   3    2.47    1.23
   5  -6   3   -0.80    0.70
   6  -6   3    9.02    3.04
   7  -6   3   16.98    4.12
   7  -6   3   20.41    3.36
   8  -6   3   18.50    3.15
   8  -6   3   23.24    5.23
   9  -6   3    9.11    3.77
   9  -6   3   11.70    2.32
  10   5  -3    3.61    1.73
  10   5  -3    0.03    1.59
   9   5  -3   16.07    2.92
   9   5  -3   15.22    4.01
   8   5  -3    3.09    1.78
   8   5  -3    4.22    1.53
   7   5  -3    4.26    1.42
   7   5  -3    2.57    1.30
   6   5  -3    7.43    2.02
   6   5  -3    6.51    2.18
  -6  -5   3    5.29    1.58
   5   5  -3    6.34    2.13
   5   5  -3    4.19    1.36
  -5  -5   3    8.45    1.85
   4   5  -3   25.32    3.17
   4   5  -3   23.23    2.56
   4   5  -3   20.57    2.55
  -4  -5   3   23.71    2.70
   3   5  -3   80.99    5.87
   3   5  -3   78.70    5.24
  -3  -5   3   79.51    3.85
  -3  -5   3   83.49    5.29
   2   5  -3   85.91    5.75
   2   5  -3   88.91    5.55
  -2  -5   3   80.64    4.68
  -2  -5   3   82.01    5.26
   1   5  -3  115.13    6.53
   1   5  -3  122.59    6.86
  -1  -5   3  109.43    6.78
  -1  -5   3  123.77    7.01
   0   5  -3  114.11    6.13
   0   5  -3  105.23    6.05
   0  -5   3  106.40    6.46
   0  -5   3  105.79    6.63
  -1   5  -3    0.58    0.42
  -1   5  -3    0.72    0.47
   1  -5   3    0.55    0.52
   1  -5   3    0.34    0.84
  -2   5  -3   45.99    2.88
  -2   5  -3   53.85    3.22
  -2   5  -3   51.08    3.77
   2  -5   3   52.54    4.00
   2  -5   3   46.52    3.21
  -3   5  -3   12.52    2.04
  -3   5  -3   12.28    1.00
  -3   5  -3   13.09    1.33
   3  -5   3    9.91    2.36
   3  -5   3   11.35    1.29
  -4   5  -3   23.89    2.98
   4  -5   3   29.36    1.96
   4  -5   3   31.61    2.99
  -5   5  -3    9.64    2.24
   5  -5   3   10.56    2.08
   5  -5   3    9.18    2.90
   5  -5   3    9.37    0.78
   6  -5   3   44.30    5.28
   6  -5   3   38.65    3.62
   7  -5   3   44.54    4.00
   7  -5   3   38.43    5.31
   8  -5   3   12.62    3.28
   8  -5   3    7.93    1.95
   9  -5   3   12.77    2.47
   9  -5   3   12.74    4.51
  11   4  -3   17.94    4.76
  11   4  -3   17.11    3.40
  10   4  -3   11.59    3.08
  10   4  -3    5.03    1.57
   9   4  -3   15.14    3.83
   9   4  -3    8.69    2.08
   8   4  -3    5.86    2.11
   8   4  -3    5.18    1.56
   7   4  -3   12.61    2.34
   7   4  -3   11.77    3.02
   6   4  -3    0.94    0.77
   6   4  -3    1.10    1.13
   6   4  -3    3.86    1.36
  -6  -4   3    2.47    1.09
   5   4  -3   30.89    3.58
   5   4  -3   25.15    2.68
   5   4  -3   26.24    2.87
  -5  -4   3   25.39    2.62
   4   4  -3   19.13    2.20
   4   4  -3   14.28    1.95
   4   4  -3   20.74    2.75
  -4  -4   3   19.86    2.14
   3   4  -3  192.28    9.42
   3   4  -3  184.56    9.18
   3   4  -3  188.92   10.04
  -3  -4   3  194.50    9.27
  -3  -4   3  187.25    7.44
   2   4  -3   79.50    5.08
   2   4  -3   76.06    5.14
   2   4  -3   79.53    4.80
  -2  -4   3   82.32    4.88
   1   4  -3   61.22    3.98
   1   4  -3   62.93    4.19
  -1  -4   3   62.38    4.21
  -1  -4   3   63.11    4.26
   0   4  -3  177.06    8.53
   0   4  -3  178.12    8.48
   0  -4   3  186.54    9.21
   0  -4   3  183.06    8.91
  -1   4  -3   25.72    1.92
  -1   4  -3   23.61    1.89
  -1   4  -3   22.47    2.19
   1  -4   3   22.60    2.56
   1  -4   3   23.47    2.36
  -2   4  -3    6.82    0.88
  -2   4  -3    6.53    0.83
  -2   4  -3    7.08    1.45
   2  -4   3    6.57    1.47
   2  -4   3    4.67    0.87
  -3   4  -3   44.53    3.44
  -3   4  -3   43.90    2.25
   3  -4   3   40.08    2.41
   3  -4   3   43.52    3.36
  -4   4  -3  125.39    7.37
   4  -4   3  146.39    5.86
   4  -4   3  138.65    7.37
  -5   4  -3   53.76    4.11
   5  -4   3   58.75    4.14
   5  -4   3   49.42    2.36
   6  -4   3   64.74    4.61
   6  -4   3   60.95    6.22
   7  -4   3   17.29    3.97
   7  -4   3   17.41    2.78
   8  -4   3    9.71    3.12
   8  -4   3   21.19    2.68
   9  -4   3    1.48    1.39
   9  -4   3    3.36    1.93
  10  -4   3   -0.86    1.78
  10  -4   3    2.66    1.57
  11   3  -3    1.24    2.60
  11   3  -3    4.52    1.84
  10   3  -3   10.29    2.34
  10   3  -3    8.05    3.00
   9   3  -3    6.54    1.87
   9   3  -3    7.30    2.44
   8   3  -3    0.26    0.60
   8   3  -3    1.36    1.11
   7   3  -3    5.32    1.99
   7   3  -3    8.33    1.83
   7   3  -3    7.64    1.81
   6   3  -3   94.64    6.97
   6   3  -3   98.56    5.93
   6   3  -3   87.97    5.71
   5   3  -3  125.15    7.96
   5   3  -3  126.56    6.91
   5   3  -3  121.42    6.78
  -5  -3   3  127.13    6.94
   4   3  -3   39.04    3.05
   4   3  -3   38.98    3.08
  -4  -3   3   39.88    3.11
   3   3  -3  209.92    9.75
   3   3  -3  212.04    9.61
   3   3  -3  207.62   10.41
  -3  -3   3  201.06    7.82
  -3  -3   3  210.69    9.66
   2   3  -3   62.09    3.99
   2   3  -3   57.08    4.08
   2   3  -3   59.43    3.73
  -2  -3   3   64.04    3.89
   1   3  -3   48.10    3.10
   1   3  -3   48.19    3.31
   1   3  -3   46.20    3.42
  -1  -3   3   47.03    3.24
  -1  -3   3   47.78    3.26
   0   3  -3    0.28    0.30
   0   3  -3    1.75    0.50
   0  -3   3    0.65    0.50
   0  -3   3    1.38    0.60
  -1   3  -3    7.91    1.33
  -1   3  -3    7.73    0.87
  -1   3  -3    7.40    0.89
   1  -3   3    6.66    1.27
   1  -3   3    6.19    1.39
  -2   3  -3  134.55    6.58
  -2   3  -3  136.74    5.47
  -2   3  -3  128.96    5.69
   2  -3   3  115.51    5.47
   2  -3   3  135.79    6.58
  -3   3  -3   33.93    2.76
  -3   3  -3   29.99    1.87
   3  -3   3   37.67    1.79
   3  -3   3   36.78    2.78
  -4   3  -3  128.82    7.28
   4  -3   3  144.14    5.63
   4  -3   3  152.05    7.36
  -5   3  -3   79.40    5.34
   5  -3   3   89.57    3.77
   5  -3   3   87.72    3.92
   5  -3   3   98.67    5.52
   6  -3   3   29.94    1.81
   6  -3   3   30.03    1.71
   6  -3   3   36.54    3.14
   7  -3   3   -0.25    0.79
   7  -3   3    0.59    0.42
   7  -3   3    1.10    0.74
   7  -3   3    1.21    0.48
   8  -3   3    0.72    0.39
   8  -3   3    2.25    1.75
   8  -3   3   -0.46    0.63
   8  -3   3    0.59    0.40
   9  -3   3    4.69    0.87
   9  -3   3    3.82    1.59
   9  -3   3    3.90    2.28
   9  -3   3    3.71    0.61
  10  -3   3   13.76    4.22
  10  -3   3    9.44    2.42
  11   2  -3    0.44    1.72
  11   2  -3   -1.51    1.60
  11   2  -3    0.47    1.90
  11   2  -3   -0.64    1.18
  10   2  -3   12.91    3.39
  10   2  -3   10.44    2.54
  10   2  -3    8.42    1.25
   9   2  -3    2.31    1.64
   9   2  -3    0.54    1.07
   9   2  -3    4.00    2.26
   9   2  -3    2.98    0.89
   8   2  -3   14.34    2.55
   8   2  -3   17.25    2.72
   8   2  -3   15.88    1.57
   8   2  -3   15.88    3.44
   7   2  -3   59.85    5.43
   7   2  -3   61.93    4.38
   7   2  -3   66.32    4.87
   7   2  -3   63.14    3.44
   6   2  -3   44.93    3.64
   6   2  -3   42.01    3.29
   6   2  -3   46.74    2.58
   5   2  -3  187.26    9.03
   5   2  -3  194.47    7.50
   5   2  -3  172.16    8.59
  -5  -2   3  174.16    9.04
   4   2  -3  110.74    5.90
   4   2  -3  112.67    5.68
   4   2  -3  102.16    4.56
  -4  -2   3  110.16    5.95
   3   2  -3   41.05    2.99
   3   2  -3   40.84    2.80
  -3  -2   3   44.48    2.11
  -3  -2   3   50.66    4.72
   2   2  -3    7.78    1.35
   2   2  -3    7.49    0.95
  -2  -2   3    8.35    0.78
  -2  -2   3    8.20    1.12
   1   2  -3  195.06    8.79
   1   2  -3  193.04    8.34
  -1  -2   3  200.79    8.66
  -1  -2   3  183.66    8.41
   0   2  -3  267.44   11.35
   0   2  -3  294.92   11.56
   0   2  -3  277.71   11.38
   0   2  -3  268.83   12.00
   0  -2   3  285.61   11.65
   0  -2   3  286.52   11.96
  -1   2  -3  225.36    9.45
  -1   2  -3  222.83    9.02
  -1   2  -3  212.61    8.68
   1  -2   3  205.36    9.83
   1  -2   3  233.19    9.54
  -2   2  -3  304.39   11.42
  -2   2  -3  260.56   12.81
   2  -2   3  279.90   11.35
   2  -2   3  301.88   12.15
  -3   2  -3   45.75    2.53
  -3   2  -3   46.60    3.18
   3  -2   3   51.36    3.24
   3  -2   3   46.05    2.47
  -4   2  -3   26.41    2.39
   4  -2   3   26.47    1.71
   4  -2   3   26.33    2.28
   4  -2   3   25.45    1.31
   5  -2   3   12.84    1.19
   5  -2   3   11.82    1.04
   5  -2   3   12.99    1.00
   5  -2   3   13.46    1.67
   6  -2   3    2.59    0.72
   6  -2   3    2.40    0.66
   6  -2   3    1.37    0.48
   6  -2   3    1.89    0.91
   7  -2   3    0.52    0.49
   7  -2   3    1.08    0.52
   7  -2   3    2.14    0.64
   7  -2   3    1.82    1.14
   8  -2   3   24.68    2.06
   8  -2   3   23.23    4.54
   8  -2   3   21.95    2.76
   8  -2   3   24.90    2.63
   8  -2   3   21.74    2.12
   9  -2   3   13.26    2.57
   9  -2   3    9.11    1.43
   9  -2   3   11.51    1.78
   9  -2   3    8.22    2.68
   9  -2   3   10.23    1.48
  10  -2   3   25.31    2.83
  10  -2   3   16.97    1.75
  10  -2   3   10.56    3.31
  10  -2   3   12.83    3.39
  11  -2   3    9.64    2.06
  11  -2   3    7.42    3.01
  11  -2   3   15.78    3.65
  11   1  -3   -0.76    1.08
  11   1  -3   -1.08    1.54
  11   1  -3   -0.87    0.97
  11   1  -3    1.45    1.64
  10   1  -3    7.29    2.18
  10   1  -3    2.22    1.15
   9   1  -3   25.07    2.72
   9   1  -3   27.98    3.02
   9   1  -3   27.71    3.44
   9   1  -3   21.29    3.96
   8   1  -3   69.69    4.76
   8   1  -3   77.27    4.86
   8   1  -3   76.14    5.71
   7   1  -3   35.70    2.98
   7   1  -3   47.08    4.00
   7   1  -3   40.43    3.12
   6   1  -3   64.62    4.61
   6   1  -3   66.38    3.98
   5   1  -3   75.60    4.01
   5   1  -3   74.33    4.69
   5   1  -3   66.41    3.99
   4   1  -3   12.54    1.55
   4   1  -3   13.11    1.22
   4   1  -3    9.80    1.16
  -4  -1   3   13.38    1.66
   3   1  -3   33.31    2.47
   3   1  -3   29.54    2.05
   3   1  -3   34.11    1.94
  -3  -1   3   29.68    2.42
  -3  -1   3   30.95    1.96
   2   1  -3    5.63    0.65
   2   1  -3    5.57    1.08
   2   1  -3    5.50    0.91
  -2  -1   3    7.95    1.29
  -2  -1   3    4.59    0.59
   1   1  -3  239.57    9.71
   1   1  -3  244.36   10.19
  -1  -1   3  241.59    9.79
  -1  -1   3  245.69   10.14
  -1  -1   3  236.44    9.68
   0   1  -3   49.75    2.96
   0   1  -3   49.67    2.65
   0   1  -3   48.43    2.64
   0  -1   3   48.46    2.84
  -1   1  -3  999.01   37.58
   1  -1   3 1000.00   37.85
  -2   1  -3  192.38    8.58
  -2   1  -3  193.25    8.09
   2  -1   3  206.13    8.08
   2  -1   3  194.96    8.54
  -3   1  -3   24.13    2.41
  -3   1  -3   21.62    1.69
   3  -1   3   25.30    2.08
   3  -1   3   25.74    1.26
   3  -1   3   28.11    1.78
   4  -1   3   82.07    3.94
   4  -1   3   91.61    4.44
   4  -1   3   88.22    4.92
   5  -1   3    0.30    0.29
   5  -1   3    0.16    0.33
   5  -1   3   -0.01    0.25
   6  -1   3    9.60    1.25
   6  -1   3    9.95    1.64
   6  -1   3   11.70    2.05
   7  -1   3   21.24    2.14
   7  -1   3   18.83    2.01
   8  -1   3   17.97    2.14
   8  -1   3   18.66    2.13
   8  -1   3   14.84    2.54
   8  -1   3   19.09    4.06
   9  -1   3   11.53    2.29
   9  -1   3    9.31    1.88
   9  -1   3   12.69    3.37
   9  -1   3   10.41    2.07
  10  -1   3    5.83    1.53
  10  -1   3    4.11    1.54
  10  -1   3    6.81    2.55
  10  -1   3    3.91    2.05
  11  -1   3    1.79    1.88
  11  -1   3    1.30    1.76
  11  -1   3    0.18    1.42
  11  -1   3    0.72    1.47
  11  -1   3   -0.88    1.21
  11   0  -3   -0.59    1.47
  11   0  -3   -2.08    1.36
  11   0  -3    2.38    2.11
  11   0  -3   -2.79    1.09
  10   0  -3   26.56    2.40
  10   0  -3   28.01    4.67
  10   0  -3   28.54    3.62
  10   0  -3   24.80    4.68
  10   0  -3   22.69    3.22
   9   0  -3   11.56    2.52
   9   0  -3   11.46    1.85
   9   0  -3    9.82    2.48
   9   0  -3    9.34    1.64
   8   0  -3   64.72    5.23
   8   0  -3   67.33    5.49
   8   0  -3   65.73    4.16
   7   0  -3   33.75    3.19
   7   0  -3   33.72    3.50
   6   0  -3   34.51    3.33
   6   0  -3   30.45    2.87
   5   0  -3   61.86    3.97
   5   0  -3   53.99    4.10
   4   0  -3   48.85    3.23
   4   0  -3   52.97    3.65
   3   0  -3   37.15    2.05
   3   0  -3   42.90    2.90
   3   0  -3   41.97    2.58
  -3   0   3   34.16    2.48
  -3   0   3   38.67    3.24
   2   0  -3  142.21    5.68
   2   0  -3  141.49    6.49
   2   0  -3  135.92    6.09
  -2   0   3  139.25    6.19
  -2   0   3  139.95    6.56
   1   0  -3  383.20   14.77
   1   0  -3  375.95   14.30
   1   0  -3  379.40   14.68
   1   0  -3  376.73   14.92
  -1   0   3  381.34   14.68
  -1   0   3  376.62   14.32
  -1   0   3  373.94   14.95
   0   0  -3   49.99    2.49
   0   0  -3   50.33    2.59
   0   0  -3   52.28    2.70
   0   0   3   46.23    2.59
   0   0   3   49.68    2.59
   0   0   3   46.03    2.62
   0   0   3   49.62    2.47
  -1   0  -3  151.36    6.48
  -1   0  -3  148.65    6.49
  -1   0  -3  147.47    5.89
  -1   0  -3  155.54    6.39
   1   0   3  141.66    5.96
   1   0   3  152.73    6.44
   1   0   3  159.54    6.39
  -2   0  -3    5.64    0.77
  -2   0  -3    5.61    0.54
   2   0   3    6.34    0.78
   2   0   3    7.24    1.13
   3   0   3    0.02    0.27
   3   0   3    0.78    0.32
   3   0   3    0.54    0.31
   4   0   3    0.42    0.28
   4   0   3    0.20    0.37
   4   0   3    0.27    0.26
   5   0   3   49.78    3.23
   5   0   3   52.81    3.58
   5   0   3   54.27    3.74
   6   0   3   84.10    5.24
   6   0   3   74.69    4.65
   6   0   3   82.17    5.05
   7   0   3   85.45    5.48
   7   0   3   70.95    7.88
   7   0   3   85.03    5.24
   8   0   3   15.17    2.51
   8   0   3   17.16    2.27
   8   0   3   11.64    2.94
   9   0   3   34.54    4.18
   9   0   3   25.47    3.38
   9   0   3   25.03    2.98
   9   0   3   28.30    3.13
   9   0   3   26.69    3.22
  10   0   3   15.56    3.75
  10   0   3   18.22    3.22
  10   0   3   21.35    3.71
  10   0   3   20.78    3.48
  10   0   3   18.38    2.98
  11   0   3    0.11    1.43
  11   0   3   -1.05    1.50
  11   0   3    4.47    2.45
  11   0   3    2.30    1.46
  11   0   3    0.21    1.18
  11  -1  -3   11.02    2.96
  11  -1  -3   17.08    3.45
  11  -1  -3   14.60    2.61
  11  -1  -3   11.36    3.26
  10  -1  -3   29.06    3.66
  10  -1  -3   35.66    4.74
  10  -1  -3   40.78    4.37
   9  -1  -3   19.16    1.88
   9  -1  -3   10.87    2.69
   9  -1  -3   17.09    2.82
   9  -1  -3   12.12    2.72
   9  -1  -3   15.54    1.55
   8  -1  -3   21.39    3.00
   8  -1  -3   25.31    3.38
   8  -1  -3   20.75    1.87
   7  -1  -3   50.04    8.32
   7  -1  -3   38.29    3.91
   7  -1  -3   39.28    2.60
   6  -1  -3    4.85    1.61
   6  -1  -3    7.99    1.99
   6  -1  -3    9.62    1.02
   5  -1  -3   23.10    2.60
   5  -1  -3   19.96    1.44
   5  -1  -3   19.50    2.25
   4  -1  -3  146.32    7.52
   4  -1  -3  145.15    5.96
   4  -1  -3  146.56    7.74
   3  -1  -3  264.27   11.28
   3  -1  -3  259.25    9.64
   3  -1  -3  258.75   11.48
   3  -1  -3  252.38   10.52
  -3   1   3  246.05   11.25
   2  -1  -3  169.38    7.69
   2  -1  -3  170.97    7.88
   2  -1  -3  177.33    7.24
  -2   1   3  168.00    7.77
   1  -1  -3  631.19   24.46
   1  -1  -3  652.26   24.10
   1  -1  -3  652.67   24.45
  -1   1   3  599.86   24.42
  -1   1   3  655.43   24.49
   0  -1  -3  247.90    9.72
   0  -1  -3  241.37    9.67
   0  -1  -3  243.88    9.71
   0  -1  -3  234.13    9.84
   0   1   3  251.22    9.73
   0   1   3  248.86    9.90
   0   1   3  244.95    9.72
   0   1   3  235.89    9.68
  -1  -1  -3  149.81    6.65
  -1  -1  -3  156.98    6.41
  -1  -1  -3  161.93    6.33
   1   1   3  152.46    6.63
   1   1   3  148.65    6.65
   1   1   3  156.92    6.37
   1   1   3  148.60    6.15
  -2  -1  -3   12.23    1.27
  -2  -1  -3   11.64    1.07
   2   1   3   10.74    1.19
   2   1   3   11.69    1.05
   2   1   3   11.42    0.88
  -3  -1  -3   19.44    1.62
   3   1   3   19.62    1.83
   3   1   3   19.01    1.60
   4   1   3  132.62    6.91
   4   1   3  137.16    6.54
   5   1   3   99.58    5.93
   5   1   3  103.45    5.62
   6   1   3   67.32    4.54
   6   1   3   71.46    4.79
   6   1   3   70.02    4.95
   7   1   3   26.37    2.82
   7   1   3   29.66    2.95
   7   1   3   28.30    3.23
   7   1   3   26.66    2.69
   8   1   3   12.88    2.94
   8   1   3   22.27    3.66
   8   1   3   15.26    2.74
   8   1   3   16.62    2.17
   8   1   3   15.01    2.82
   9   1   3    8.34    2.13
   9   1   3    6.13    1.67
   9   1   3    8.77    2.01
   9   1   3   10.15    2.37
   9   1   3    7.79    2.67
  10   1   3    3.66    1.37
  10   1   3    2.24    1.45
  10   1   3    2.27    1.31
  10   1   3    2.37    1.42
  10   1   3    0.36    0.95
  11   1   3    6.23    2.54
  11   1   3    8.39    2.34
  11   1   3    5.94    2.39
  11   1   3    2.37    1.51
  11   1   3    8.47    2.21
  11  -2  -3   14.51    3.97
  11  -2  -3    6.55    2.19
  11  -2  -3    7.41    2.27
  10  -2  -3   21.50    4.03
  10  -2  -3   22.34    4.33
   9  -2  -3   10.45    0.92
   9  -2  -3   10.27    2.94
   9  -2  -3   18.84    3.82
   9  -2  -3   11.48    2.05
   9  -2  -3    9.93    0.92
   9  -2  -3    7.05    1.52
   8  -2  -3   32.44    4.12
   8  -2  -3   29.66    1.86
   8  -2  -3   30.05    2.71
   8  -2  -3   37.32    4.31
   7  -2  -3    1.44    0.67
   7  -2  -3    0.26    0.32
   7  -2  -3    0.76    0.88
   7  -2  -3    0.62    0.91
   6  -2  -3   35.26    1.94
   6  -2  -3   33.92    2.56
   6  -2  -3   38.60    3.91
   6  -2  -3   30.00    4.27
   5  -2  -3  212.61    8.87
   5  -2  -3  189.13   10.53
   5  -2  -3  199.64    7.95
   5  -2  -3  211.15   10.79
   4  -2  -3  124.72    7.21
   4  -2  -3  127.13    4.98
   4  -2  -3  127.69    5.73
   3  -2  -3  343.49   14.64
   3  -2  -3  340.83   13.06
  -3   2   3  309.95   14.48
   2  -2  -3  370.48   15.44
   2  -2  -3  380.61   14.23
   2  -2  -3  374.44   14.93
  -2   2   3  345.63   15.40
  -2   2   3  367.40   14.23
   1  -2  -3  119.09    5.50
   1  -2  -3  115.04    5.09
   1  -2  -3  120.04    5.82
  -1   2   3  115.98    5.52
  -1   2   3  115.29    5.83
  -1   2   3  125.17    5.14
   0  -2  -3    0.63    0.33
   0  -2  -3    1.04    0.37
   0  -2  -3    1.17    0.43
   0  -2  -3    0.90    0.33
   0   2   3    0.85    0.41
   0   2   3    0.65    0.32
   0   2   3    0.86    0.33
  -1  -2  -3  279.20   11.05
  -1  -2  -3  278.14   11.15
  -1  -2  -3  240.48   11.07
   1   2   3  291.98   11.07
   1   2   3  268.42   11.21
   1   2   3  266.78   11.05
  -2  -2  -3   26.12    1.99
   2   2   3   24.79    1.91
   2   2   3   22.84    2.00
   2   2   3   23.29    1.72
  -3  -2  -3  275.92   12.05
   3   2   3  295.24   12.58
   3   2   3  274.66   11.60
   3   2   3  270.62   10.50
   3   2   3  294.68   12.10
   4   2   3  128.54    6.55
   4   2   3  121.03    6.82
   4   2   3  123.25    5.27
   5   2   3   86.83    5.80
   5   2   3   93.76    5.53
   5   2   3   94.01    4.50
   6   2   3   51.73    3.26
   6   2   3   56.74    4.22
   6   2   3   51.59    4.41
   7   2   3    9.30    2.20
   7   2   3    9.38    1.68
   7   2   3    8.63    2.18
   8   2   3   13.89    2.70
   8   2   3    9.02    1.72
   8   2   3   14.54    3.00
   8   2   3    8.22    2.01
   9   2   3    5.00    1.90
   9   2   3    1.89    1.27
   9   2   3    4.29    1.66
   9   2   3    1.52    0.90
   9   2   3    2.34    1.13
  10   2   3    5.50    2.15
  10   2   3    5.53    1.86
  10   2   3    7.12    2.15
  10   2   3    2.74    1.60
  10   2   3    3.40    1.67
  11   2   3   -0.33    2.02
  11   2   3    2.13    1.42
  11   2   3    1.58    1.23
  11   2   3    2.99    1.59
  11  -3  -3    7.68    2.49
  11  -3  -3    8.30    2.82
  11  -3  -3    4.30    2.43
  10  -3  -3    5.71    2.67
  10  -3  -3    6.12    2.64
   9  -3  -3   -0.12    0.48
   9  -3  -3    1.06    1.50
   9  -3  -3    2.52    1.63
   9  -3  -3   -1.19    0.62
   8  -3  -3    1.80    1.30
   8  -3  -3    2.37    1.33
   8  -3  -3    3.10    0.75
   8  -3  -3    2.33    0.74
   7  -3  -3   46.17    4.78
   7  -3  -3   36.79    2.35
   7  -3  -3   36.43    4.27
   7  -3  -3   37.44    3.66
   7  -3  -3   31.58    2.34
   7  -3  -3   35.44    2.06
   6  -3  -3   66.68    4.77
   6  -3  -3   69.96    3.13
   6  -3  -3   76.03    6.07
   6  -3  -3   67.28    3.51
   5  -3  -3   18.56    3.99
   5  -3  -3   23.36    1.56
   5  -3  -3   23.15    1.33
   5  -3  -3   22.75    2.41
   4  -3  -3  130.54    5.24
   4  -3  -3  113.64    4.98
   4  -3  -3  122.83    6.44
   4  -3  -3  123.21    7.53
   3  -3  -3  119.35    4.99
   3  -3  -3  114.98    6.89
   3  -3  -3  122.23    6.08
  -3   3   3  117.51    4.89
   2  -3  -3  148.22    6.12
   2  -3  -3  124.80    7.66
   2  -3  -3  144.16    7.63
  -2   3   3  163.02    6.06
  -2   3   3  148.76    6.12
  -2   3   3  142.08    7.64
   1  -3  -3   17.40    1.83
   1  -3  -3   15.75    1.29
   1  -3  -3   17.43    1.59
  -1   3   3   15.32    1.21
  -1   3   3   16.92    1.27
   0  -3  -3   60.09    3.49
   0  -3  -3   70.03    3.82
   0  -3  -3   66.17    3.85
   0   3   3   65.62    3.71
   0   3   3   69.10    3.98
   0   3   3   70.02    3.60
  -1  -3  -3  117.88    6.09
  -1  -3  -3  132.22    5.94
   1   3   3  124.77    5.93
   1   3   3  122.64    6.14
   1   3   3  129.68    6.15
  -2  -3  -3  179.20    7.61
  -2  -3  -3  163.06    8.08
   2   3   3  173.05    8.10
   2   3   3  164.15    8.22
   2   3   3  181.40    7.54
  -3  -3  -3  258.61   11.83
   3   3   3  251.56   12.09
   3   3   3  279.26   10.84
   3   3   3  260.04   11.75
  -4  -3  -3  118.03    6.73
   4   3   3  122.66    5.70
   4   3   3  123.34    7.12
   4   3   3  119.16    6.69
   5   3   3   26.97    2.13
   5   3   3   30.76    2.92
   5   3   3   19.97    2.64
   6   3   3    0.99    0.46
   6   3   3    0.89    0.68
   6   3   3    1.60    0.77
   6   3   3    1.75    0.99
   7   3   3   -0.19    0.35
   7   3   3   -0.32    0.55
   7   3   3    0.75    0.65
   7   3   3   -0.01    0.76
   8   3   3    8.37    2.19
   8   3   3    6.19    1.57
   8   3   3    8.69    1.49
   8   3   3   10.36    1.99
   8   3   3   11.20    2.78
   9   3   3   24.41    2.26
   9   3   3   23.88    2.63
   9   3   3   26.14    4.56
   9   3   3   21.08    2.66
   9   3   3   25.90    3.33
  10   3   3   15.50    3.30
  10   3   3    7.41    1.43
  10   3   3    5.67    2.63
  10   3   3    4.38    1.42
  10   3   3   12.99    2.81
  11   3   3    4.74    2.41
  11   3   3   11.23    3.12
  11   3   3    6.38    2.09
  11   3   3   12.73    3.18
  10  -4  -3    1.25    1.99
  10  -4  -3    2.82    1.93
   9  -4  -3   19.52    4.71
   9  -4  -3   17.36    5.20
   8  -4  -3   44.98    5.32
   8  -4  -3   35.00    4.79
   7  -4  -3   33.77    3.49
   7  -4  -3   42.50    5.01
   6  -4  -3  233.31   13.39
   6  -4  -3  229.56   11.15
   5  -4  -3   44.12    4.49
   5  -4  -3   33.95    2.95
   4  -4  -3   52.24    3.59
   4  -4  -3   53.71    4.86
  -4   4   3   51.60    2.74
   3  -4  -3   31.49    2.52
   3  -4  -3   27.48    3.09
  -3   4   3   29.50    1.93
   2  -4  -3   44.92    3.85
   2  -4  -3   45.78    3.18
  -2   4   3   45.13    3.81
  -2   4   3   49.22    3.39
  -2   4   3   52.47    2.77
  -2   4   3   49.27    2.49
   1  -4  -3   98.31    5.86
   1  -4  -3  100.68    5.40
  -1   4   3  102.30    4.77
  -1   4   3  104.86    4.95
  -1   4   3   99.15    5.37
  -1   4   3  100.15    5.96
   0  -4  -3   95.54    5.33
   0  -4  -3  101.55    5.34
   0   4   3   87.60    4.80
   0   4   3   89.61    5.35
   0   4   3   92.30    4.86
   0   4   3  104.50    5.30
  -1  -4  -3   43.47    3.20
  -1  -4  -3   46.26    2.99
   1   4   3   39.47    2.98
   1   4   3   40.03    2.92
  -2  -4  -3  430.84   18.28
  -2  -4  -3  459.39   17.37
   2   4   3  413.05   18.28
   2   4   3  428.13   17.35
   2   4   3  432.34   18.17
  -3  -4  -3   79.79    4.34
  -3  -4  -3   86.57    5.41
   3   4   3   88.93    4.34
   3   4   3   84.65    5.30
   3   4   3   85.46    5.59
  -4  -4  -3   37.78    3.41
   4   4   3   35.66    3.48
   4   4   3   38.65    2.33
   4   4   3   35.70    3.31
   5   4   3   30.50    2.02
   5   4   3   31.63    3.53
   5   4   3   26.71    3.05
   6   4   3    7.37    1.90
   6   4   3    6.39    1.98
   6   4   3    6.93    0.91
   7   4   3    2.71    0.87
   7   4   3    2.47    1.42
   7   4   3    3.13    1.44
   8   4   3   26.52    3.40
   8   4   3   23.73    2.01
   8   4   3   29.52    4.84
   8   4   3   25.05    2.00
   9   4   3   26.44    4.28
   9   4   3   26.26    2.06
   9   4   3   38.03    4.36
   9   4   3   27.49    2.04
  10   4   3   12.46    3.11
  10   4   3    9.07    3.04
  11   4   3    6.22    2.21
  11   4   3    1.75    2.53
  11   4   3    5.73    2.47
  10  -5  -3    2.51    2.42
  10  -5  -3    4.27    2.69
   9  -5  -3   13.46    3.44
   9  -5  -3   11.51    4.01
   8  -5  -3    6.45    2.71
   8  -5  -3   14.67    4.42
   7  -5  -3   32.83    4.69
   7  -5  -3   33.07    3.29
   6  -5  -3  120.30    9.00
   6  -5  -3  112.51    8.04
   5  -5  -3   18.87    2.32
   5  -5  -3   26.78    4.53
   4  -5  -3    3.23    1.38
   4  -5  -3    1.52    0.74
  -4   5   3    0.77    0.45
   3  -5  -3    7.66    2.07
   3  -5  -3    8.38    1.65
  -3   5   3   10.41    1.23
   2  -5  -3   74.85    4.69
   2  -5  -3   75.74    5.56
  -2   5   3   75.02    4.14
  -2   5   3   82.57    3.69
  -2   5   3   69.27    4.64
   1  -5  -3  190.63    9.01
   1  -5  -3  179.66    9.48
  -1   5   3  178.17    7.99
  -1   5   3  193.61    8.91
  -1   5   3  166.79    9.40
  -1   5   3  181.29    8.29
   0  -5  -3  265.63   12.40
   0  -5  -3  262.08   12.29
   0   5   3  280.13   11.82
   0   5   3  289.25   12.30
   0   5   3  271.29   11.84
   0   5   3  251.64   12.43
  -1  -5  -3   71.37    4.83
  -1  -5  -3   86.33    4.75
   1   5   3   72.96    4.62
   1   5   3   67.29    4.38
   1   5   3   77.16    4.83
   1   5   3   68.78    4.53
  -2  -5  -3  159.56    6.98
  -2  -5  -3  133.09    7.65
   2   5   3  145.35    7.70
   2   5   3  131.41    7.60
   2   5   3  126.05    6.80
  -3  -5  -3   32.63    3.29
  -3  -5  -3   34.05    1.98
  -3  -5  -3   32.33    2.41
   3   5   3   32.93    2.40
   3   5   3   32.68    3.16
   3   5   3   30.59    3.17
   4   5   3    9.52    2.14
   4   5   3    6.91    1.92
   4   5   3    7.45    0.99
   5   5   3   -0.24    0.44
   5   5   3    0.05    0.81
   5   5   3    0.71    0.35
   6   5   3   26.54    3.23
   6   5   3   26.25    3.47
   6   5   3   24.82    1.42
   7   5   3   39.79    4.30
   7   5   3   38.20    4.52
   8   5   3   18.84    3.61
   8   5   3   13.79    3.42
   9   5   3   14.60    4.11
   9   5   3   12.56    3.13
  10   5   3   12.98    3.23
  10   5   3    7.89    2.48
  11   5   3    2.88    1.78
  11   5   3    3.07    1.77
   9  -6  -3   13.01    3.99
   9  -6  -3   14.73    4.11
   8  -6  -3   19.53    4.69
   7  -6  -3   47.24    6.24
   6  -6  -3    2.59    1.47
   6  -6  -3    0.63    1.40
   5  -6  -3   -3.68    1.76
   5  -6  -3    0.02    1.02
  -5   6   3    2.18    0.83
   4  -6  -3   30.05    3.80
   4  -6  -3   24.65    2.60
  -4   6   3   19.20    2.12
   3  -6  -3   58.78    4.23
   3  -6  -3   59.44    5.39
  -3   6   3   63.54    3.90
   2  -6  -3   86.47    6.53
   2  -6  -3   92.01    5.76
  -2   6   3   88.63    5.09
  -2   6   3   98.97    4.46
  -2   6   3   94.24    5.77
   1  -6  -3  199.61   10.37
   1  -6  -3  217.66   11.27
  -1   6   3  213.06    9.43
  -1   6   3  218.21    9.88
  -1   6   3  213.75   10.35
   0  -6  -3  124.89    7.13
   0  -6  -3  112.02    6.81
   0   6   3  117.01    6.71
   0   6   3  113.97    6.36
   0   6   3  117.66    6.32
  -1  -6  -3   67.72    4.48
  -1  -6  -3   55.66    4.57
   1   6   3   62.29    4.46
   1   6   3   64.05    4.42
   1   6   3   68.77    4.71
   1   6   3   57.14    4.28
  -2  -6  -3    7.12    1.45
  -2  -6  -3    5.27    1.89
   2   6   3    7.56    1.75
   2   6   3    9.71    1.95
   2   6   3    6.26    1.51
  -3  -6  -3    1.14    0.59
  -3  -6  -3    1.08    0.68
  -3  -6  -3    0.64    1.07
   3   6   3    2.96    1.13
   3   6   3    2.15    0.73
   3   6   3    2.12    0.97
  -4  -6  -3   69.95    3.17
  -4  -6  -3   64.66    6.33
   4   6   3   63.20    3.73
   4   6   3   64.99    5.42
   4   6   3   70.12    5.41
   5   6   3   67.09    5.89
   5   6   3   80.25    6.11
   6   6   3   31.63    4.02
   6   6   3   38.60    4.18
   7   6   3   30.19    4.83
   7   6   3   33.41    4.32
   8   6   3   11.26    2.85
   8   6   3    5.56    2.36
   9   6   3    8.29    2.56
   9   6   3   11.40    3.25
  10   6   3    2.95    2.10
  10   6   3    1.88    1.64
   9  -7  -3   14.99    4.73
   9  -7  -3    7.86    3.91
   8  -7  -3   10.39    3.62
   7  -7  -3    7.69    2.75
   6  -7  -3   11.10    3.71
   5  -7  -3   19.85    3.12
   5  -7  -3   14.72    3.57
  -5   7   3   19.58    2.18
   4  -7  -3   28.59    3.27
   4  -7  -3   31.12    4.27
  -4   7   3   31.27    2.94
   3  -7  -3  102.79    7.78
   3  -7  -3   94.97    6.16
  -3   7   3   95.78    6.33
  -3   7   3   95.20    5.72
   2  -7  -3   67.88    5.78
   2  -7  -3   65.04    4.91
  -2   7   3   63.90    4.84
  -2   7   3   69.99    3.59
  -2   7   3   62.18    4.33
   1  -7  -3   82.21    6.00
   1  -7  -3   85.08    6.51
  -1   7   3   96.89    5.69
  -1   7   3  102.28    6.16
  -1   7   3   92.67    5.14
   0  -7  -3   24.38    3.01
   0  -7  -3   24.65    2.95
   0   7   3   24.65    2.53
   0   7   3   30.18    2.97
  -1  -7  -3   -2.17    0.87
  -1  -7  -3    0.32    0.68
   1   7   3    0.52    0.58
   1   7   3    0.86    0.87
   1   7   3   -0.77    0.72
  -2  -7  -3    7.26    1.65
  -2  -7  -3    9.81    1.83
  -2  -7  -3   10.83    2.23
   2   7   3    5.78    1.63
   2   7   3    8.84    2.05
   2   7   3   13.71    2.47
  -3  -7  -3   44.67    3.30
  -3  -7  -3   42.52    3.28
   3   7   3   40.60    4.14
   3   7   3   44.93    4.24
  -4  -7  -3   34.69    2.38
  -4  -7  -3   31.26    2.55
   4   7   3   35.68    3.86
   4   7   3   35.22    3.91
   5   7   3   76.78    6.58
   5   7   3   89.73    6.83
   6   7   3   40.48    4.66
   6   7   3   35.46    4.23
   7   7   3   31.04    4.17
   7   7   3   25.94    4.57
   8   7   3    2.26    1.79
   8   7   3    4.00    1.96
   9   7   3    3.38    2.20
   9   7   3    2.37    1.68
  10   7   3    5.16    2.79
  10   7   3    8.58    3.09
   8  -8  -3    0.07    2.25
   7  -8  -3   15.47    4.26
   6  -8  -3   16.61    4.54
   5  -8  -3   46.42   10.45
   4  -8  -3   47.57    5.52
   3  -8  -3   65.45    6.40
  -3   8   3   58.81    4.69
  -3   8   3   68.31    5.35
   2  -8  -3   61.62    5.77
  -2   8   3   61.00    3.35
  -2   8   3   55.53    4.72
  -2   8   3   51.67    4.25
   1  -8  -3    1.69    1.26
  -1   8   3    1.93    0.96
  -1   8   3    2.39    0.81
  -1   8   3    2.99    1.48
   0  -8  -3    8.25    2.23
   0   8   3   10.90    2.02
   0   8   3   11.13    2.48
  -1  -8  -3   36.10    4.00
   1   8   3   42.15    3.76
   1   8   3   37.80    3.87
  -2  -8  -3    4.97    1.76
  -2  -8  -3    4.40    1.32
   2   8   3    4.59    1.48
   2   8   3    3.72    1.38
  -3  -8  -3   21.50    2.43
  -3  -8  -3   24.40    2.60
   3   8   3   21.91    2.96
   3   8   3   18.09    3.29
  -4  -8  -3   33.96    3.00
   4   8   3   43.71    4.58
   4   8   3   54.91    4.99
  -5  -8  -3   12.13    1.05
   5   8   3   11.32    2.91
   5   8   3   11.11    2.88
   6   8   3   12.13    3.16
   6   8   3    8.28    2.47
   7   8   3   -2.00    0.76
   7   8   3   -0.61    0.87
   8   8   3   -1.04    1.18
   8   8   3   -0.74    1.21
   9   8   3    0.44    2.14
   9   8   3    2.83    1.90
   7  -9  -3    4.51    2.87
   6  -9  -3    8.10    3.02
   5  -9  -3   41.90    5.96
   4  -9  -3   36.74    6.58
   3  -9  -3    6.70    2.55
  -3   9   3    8.83    2.41
   2  -9  -3    1.67    1.07
  -2   9   3    0.11    1.07
  -2   9   3    0.36    0.52
   1  -9  -3   14.80    3.17
  -1   9   3   11.61    2.48
  -1   9   3   14.89    1.88
   0  -9  -3    9.09    2.58
   0   9   3    5.57    1.93
   0   9   3    7.09    2.74
  -1  -9  -3   72.00    5.76
   1   9   3   76.43    6.08
   1   9   3   70.14    5.54
  -2  -9  -3   74.84    5.97
  -2  -9  -3   90.66    6.09
   2   9   3   87.82    6.69
   2   9   3   89.47    6.65
  -3  -9  -3   27.89    3.17
  -3  -9  -3   23.88    2.74
   3   9   3   27.93    3.63
   3   9   3   30.44    3.59
  -4  -9  -3   89.56    5.64
  -4  -9  -3   90.29    5.69
   4   9   3  111.69    8.12
   4   9   3  104.35    7.78
  -5  -9  -3    2.19    0.82
   5   9   3    6.62    2.16
   5   9   3    2.20    1.44
   6   9   3    0.08    1.57
   6   9   3    1.80    1.36
   7   9   3    0.51    1.45
   7   9   3    1.53    1.42
   8   9   3    3.44    1.85
   8   9   3    4.01    2.13
   9   9   3    8.59    3.10
   9   9   3   13.08    3.45
   6 -10  -3   18.95    4.79
   5 -10  -3   32.88    6.06
   4 -10  -3    4.58    2.63
   3 -10  -3   -0.20    1.33
   2 -10  -3   -0.09    1.12
  -2  10   3    2.21    1.42
  -2  10   3    1.71    0.75
   1 -10  -3    1.96    1.47
  -1  10   3    1.52    1.06
  -1  10   3   -0.38    0.93
   0 -10  -3   50.11    5.12
   0  10   3   47.07    4.21
   0  10   3   48.13    4.77
  -1 -10  -3   43.42    4.60
   1  10   3   48.70    4.90
   1  10   3   47.18    4.47
  -2 -10  -3   28.77    3.35
   2  10   3   25.52    3.48
   2  10   3   23.39    4.03
  -3 -10  -3    7.58    2.47
  -3 -10  -3    8.95    2.56
   3  10   3    8.69    2.43
   3  10   3    9.06    2.24
  -4 -10  -3    4.58    2.10
  -4 -10  -3    9.37    1.97
   4  10   3    6.76    2.29
   4  10   3    6.10    1.96
  -5 -10  -3    2.88    1.23
   5  10   3   -1.23    0.88
   5  10   3   -1.14    1.00
   6  10   3   13.13    3.39
   6  10   3    6.64    2.36
   7  10   3    0.68    1.83
   7  10   3    0.99    1.93
   8  10   3   10.11    3.64
   8  10   3    5.80    3.18
   4 -11  -3   -0.05    1.93
   3 -11  -3   16.58    4.04
   2 -11  -3    5.13    2.63
  -2  11   3    8.39    2.43
   1 -11  -3   28.20    5.94
  -1  11   3   21.69    4.03
   0 -11  -3   48.08    5.40
   0  11   3   41.32    4.12
  -1 -11  -3   13.65    3.31
   1  11   3   11.37    3.08
   1  11   3   17.44    3.19
  -2 -11  -3    0.32    1.44
   2  11   3    3.26    1.75
   2  11   3    0.59    1.42
  -3 -11  -3    3.71    1.55
   3  11   3    0.15    1.12
   3  11   3    2.02    1.80
  -4 -11  -3   -0.48    1.47
   4  11   3    1.81    1.37
   4  11   3    1.32    1.29
   5  11   3    8.74    2.61
   5  11   3    5.95    2.68
   6  11   3   19.88    4.76
   6  11   3   16.57    4.46
   2 -12  -3    8.45    3.44
  -2  12   3   10.21    3.63
   1 -12  -3   36.95    4.98
  -1  12   3   28.19    4.76
   0 -12  -3    7.01    2.94
   0  12   3    3.70    2.20
   0  12   3    8.54    2.22
  -1 -12  -3    2.12    2.10
   1  12   3   -0.43    1.06
   1  12   3   -1.58    1.25
  -2 -12  -3    0.01    1.62
   2  12   3    2.21    1.88
   2  12   3   -1.76    1.76
  -3 -12  -3   -0.68    1.73
   3  12   3    4.52    2.46
   3  12   3    6.46    2.28
   4  12   3    7.27    2.34
   4  12   3   -2.50    1.43
   4  11  -4   22.67    4.78
   3  11  -4    6.58    2.86
   2  11  -4    0.95    1.80
  -2 -11   4    1.24    1.96
   1  11  -4   -2.80    1.51
  -1 -11   4   -0.90    1.77
   0  11  -4   16.85    5.69
   0  11  -4   10.84    2.63
   0 -11   4    9.47    3.00
  -1  11  -4   19.47    3.70
  -1  11  -4   17.26    3.28
   1 -11   4   32.46    5.70
  -2  11  -4   19.61    3.81
   2 -11   4   24.23    4.97
   6  10  -4    2.86    2.38
   5  10  -4    1.82    1.83
   4  10  -4    3.47    1.92
   3  10  -4    1.77    1.39
  -3 -10   4   -0.92    1.19
   2  10  -4    8.47    2.85
  -2 -10   4    3.78    1.77
   1  10  -4   22.92    3.96
  -1 -10   4   16.53    3.20
   0  10  -4   25.51    4.19
   0 -10   4   26.46    5.12
  -1  10  -4   38.16    4.11
   1 -10   4   26.80    5.17
  -2  10  -4   10.85    1.88
  -2  10  -4   17.27    3.08
   2 -10   4   19.15    4.40
   3 -10   4    8.40    2.89
   4 -10   4    2.64    2.14
   7   9  -4    8.45    3.27
   6   9  -4    3.72    1.63
   5   9  -4    2.31    1.34
   4   9  -4    6.56    2.29
   3   9  -4   17.06    3.77
  -3  -9   4   10.68    1.96
   2   9  -4   33.89    4.13
  -2  -9   4   31.09    3.50
   1   9  -4   39.96    4.29
  -1  -9   4   39.42    4.32
   0   9  -4   17.47    3.25
   0  -9   4   22.11    4.07
  -1   9  -4   21.44    2.73
  -1   9  -4   16.85    3.05
   1  -9   4   12.09    2.91
  -2   9  -4    5.93    1.95
  -2   9  -4    8.05    1.95
   2  -9   4    7.91    2.83
  -3   9  -4    2.38    1.37
   3  -9   4    4.24    2.20
   4  -9   4    4.13    1.98
   4  -9   4    2.25    1.90
   5  -9   4    7.74    2.53
   5  -9   4   10.35    3.88
   6  -9   4    6.31    3.24
   6  -9   4    2.59    2.26
   8   8  -4    5.86    2.80
   7   8  -4    0.58    1.87
   6   8  -4   -0.54    0.87
   5   8  -4    5.72    2.23
   4   8  -4   41.33    4.88
   3   8  -4   24.74    3.30
  -3  -8   4   24.16    2.41
   2   8  -4   36.68    4.14
  -2  -8   4   42.01    3.76
   1   8  -4   66.75    5.39
  -1  -8   4   54.91    5.04
   0   8  -4   33.12    3.47
   0   8  -4   26.67    3.23
   0  -8   4   29.32    3.77
  -1   8  -4    9.00    1.93
  -1   8  -4    7.37    1.70
   1  -8   4    9.06    2.32
   1  -8   4    7.30    2.35
  -2   8  -4   -1.08    0.86
  -2   8  -4   -0.19    0.74
   2  -8   4   -1.53    0.76
   2  -8   4    0.56    1.17
  -3   8  -4    3.88    0.88
  -3   8  -4    2.71    0.79
  -3   8  -4    3.62    1.21
   3  -8   4    3.66    1.64
   3  -8   4    5.05    2.12
   4  -8   4   21.80    6.13
   4  -8   4   22.25    3.88
   5  -8   4   47.67    4.93
   5  -8   4   49.68    6.20
   6  -8   4   13.72    4.12
   6  -8   4   14.60    3.36
   7  -8   4   14.43    4.52
   7  -8   4   10.06    3.16
   9   7  -4    1.03    2.45
   8   7  -4   -0.67    1.29
   7   7  -4    0.55    1.35
   6   7  -4    1.32    1.15
   5   7  -4   81.56    6.86
  -5  -7   4   60.32    6.07
   4   7  -4   91.80    7.28
   3   7  -4   54.56    5.19
  -3  -7   4   58.86    3.75
   2   7  -4   25.79    3.24
  -2  -7   4   25.38    2.77
   1   7  -4   24.74    3.10
  -1  -7   4   28.75    3.27
   0   7  -4    4.85    1.43
   0   7  -4    4.09    1.53
   0  -7   4    9.73    2.54
   0  -7   4    3.71    1.72
  -1   7  -4   44.75    3.68
  -1   7  -4   44.90    3.46
   1  -7   4   47.29    4.56
   1  -7   4   48.28    4.91
  -2   7  -4    3.45    1.11
  -2   7  -4    5.76    1.53
   2  -7   4    6.74    1.98
   2  -7   4    2.14    1.73
  -3   7  -4   37.01    2.98
  -3   7  -4   38.25    2.46
   3  -7   4   37.20    3.94
   3  -7   4   40.61    4.96
   4  -7   4   58.19    5.25
   4  -7   4   74.03    7.15
   5  -7   4   28.26    6.13
   5  -7   4   27.20    3.31
   6  -7   4    4.56    2.03
   6  -7   4    6.93    2.32
   7  -7   4    1.97    1.76
   7  -7   4    7.27    2.54
   8  -7   4    1.90    2.38
  10   6  -4   -1.84    2.01
   9   6  -4    1.86    1.89
   9   6  -4    3.06    1.51
   8   6  -4    1.52    1.79
   8   6  -4    1.66    1.39
   7   6  -4   15.49    3.55
   7   6  -4   15.04    2.69
  -7  -6   4    8.47    2.84
   6   6  -4   49.39    5.28
   6   6  -4   44.69    4.25
  -6  -6   4   36.57    4.31
   5   6  -4   66.29    5.99
  -5  -6   4   56.21    5.12
   4   6  -4   51.88    5.06
  -4  -6   4   54.17    5.90
   3   6  -4   14.97    2.87
  -3  -6   4    8.83    1.22
  -3  -6   4    9.63    2.63
   2   6  -4   35.83    3.68
  -2  -6   4   35.98    3.07
  -2  -6   4   33.47    3.49
   1   6  -4   -0.90    0.56
  -1  -6   4   -0.37    0.73
  -1  -6   4    1.40    0.79
  -1  -6   4    0.56    0.78
   0   6  -4   10.51    2.00
   0   6  -4    9.33    1.90
   0  -6   4    9.96    2.14
   0  -6   4    9.83    2.28
  -1   6  -4  256.38   11.47
  -1   6  -4  260.68   11.73
   1  -6   4  251.45   12.88
  -2   6  -4   62.83    3.85
  -2   6  -4   53.95    3.54
   2  -6   4   53.43    4.59
  -3   6  -4   84.62    4.76
  -3   6  -4   95.80    4.58
   3  -6   4   96.91    6.45
   4  -6   4  116.57    7.30
   4  -6   4  100.35    8.56
   5  -6   4   17.05    3.90
   5  -6   4   23.19    2.93
   6  -6   4    3.81    1.61
   6  -6   4    6.82    2.64
   7  -6   4    0.90    1.12
   7  -6   4    0.20    1.45
   8  -6   4   -0.83    1.58
   8  -6   4    1.16    1.49
   9  -6   4    7.31    2.41
   9  -6   4    9.29    3.95
  10   5  -4   -0.26    1.42
  10   5  -4    1.60    1.73
   9   5  -4    9.17    2.60
   8   5  -4   39.16    4.05
   7   5  -4   26.58    3.22
   7   5  -4   25.14    4.52
  -7  -5   4   24.89    3.35
   6   5  -4  120.30    8.64
  -6  -5   4  106.60    7.30
   5   5  -4   32.75    3.92
   5   5  -4   27.21    3.06
  -5  -5   4   26.93    3.14
   4   5  -4   13.82    2.59
   4   5  -4   14.51    2.44
   4   5  -4   16.49    3.22
  -4  -5   4   16.52    2.79
   3   5  -4    0.06    0.69
   3   5  -4   -0.80    0.41
   3   5  -4    1.05    0.62
  -3  -5   4    1.76    1.06
  -3  -5   4    0.73    0.42
  -3  -5   4    0.47    0.33
   2   5  -4    0.38    0.50
   2   5  -4    0.11    0.40
  -2  -5   4    0.32    0.62
   1   5  -4   28.00    2.76
   1   5  -4   22.09    3.65
  -1  -5   4   23.33    2.73
  -1  -5   4   25.15    2.74
   0   5  -4  218.81   10.02
   0   5  -4  189.70   12.94
   0  -5   4  194.88   11.92
   0  -5   4  210.98   10.77
  -1   5  -4    3.00    0.91
  -1   5  -4    2.62    0.88
   1  -5   4    4.63    1.28
   1  -5   4    4.87    1.53
  -2   5  -4   42.62    3.58
  -2   5  -4   39.21    3.10
  -2   5  -4   42.18    2.74
   2  -5   4   41.23    3.63
   2  -5   4   36.97    4.03
  -3   5  -4   11.03    1.16
  -3   5  -4   12.33    1.26
  -3   5  -4   12.90    2.26
   3  -5   4   12.82    2.31
  -4   5  -4   59.69    4.85
   4  -5   4   66.18    4.83
   5  -5   4    0.88    0.79
   6  -5   4    8.58    2.82
   6  -5   4    8.79    2.24
   7  -5   4    9.81    2.98
   7  -5   4   12.41    2.51
   8  -5   4   15.43    3.82
   8  -5   4   16.99    3.05
   9  -5   4   10.64    2.50
   9  -5   4   13.41    3.63
  11   4  -4    3.45    2.35
  11   4  -4    1.46    1.86
  10   4  -4    2.90    1.63
  10   4  -4    1.64    1.77
   9   4  -4   23.89    3.23
   9   4  -4   30.38    5.29
   8   4  -4   19.96    4.33
   8   4  -4   14.21    2.54
   7   4  -4   19.83    2.66
   7   4  -4   19.97    4.13
   6   4  -4   17.37    2.22
   6   4  -4   10.93    2.69
   6   4  -4   14.10    2.54
  -6  -4   4   10.60    2.02
   5   4  -4   68.82    4.78
   5   4  -4   67.04    4.91
  -5  -4   4   69.29    4.98
   4   4  -4    2.19    0.89
   4   4  -4    2.94    1.21
   4   4  -4    4.78    1.47
  -4  -4   4    2.26    1.07
   3   4  -4   18.27    2.21
   3   4  -4   17.29    2.91
   3   4  -4   20.01    2.12
  -3  -4   4   15.84    2.02
  -3  -4   4   15.41    1.25
   2   4  -4  156.81    8.24
   2   4  -4  145.25    8.03
   2   4  -4  145.50    7.52
  -2  -4   4  133.06    7.65
  -2  -4   4  148.25    7.74
   1   4  -4  188.13    9.32
   1   4  -4  182.44    9.01
  -1  -4   4  193.76    9.48
  -1  -4   4  193.37    9.49
   0   4  -4  401.86   16.52
   0   4  -4  390.13   16.60
   0   4  -4  374.47   16.21
   0  -4   4  389.78   17.29
   0  -4   4  415.73   17.16
  -1   4  -4   72.06    3.84
  -1   4  -4   70.17    3.99
  -1   4  -4   63.68    4.22
   1  -4   4   64.09    4.44
   1  -4   4   56.34    4.56
  -2   4  -4  102.98    5.91
  -2   4  -4  106.88    5.14
  -2   4  -4  105.25    4.82
   2  -4   4   96.36    6.57
   2  -4   4  101.84    6.00
  -3   4  -4   25.95    1.83
  -3   4  -4   24.79    2.64
   3  -4   4   26.10    2.63
  -4   4  -4    1.38    0.84
   4  -4   4   -0.03    0.60
  -5   4  -4   33.24    3.36
   5  -4   4   33.07    3.14
   6  -4   4   36.22    3.47
   7  -4   4    2.35    1.70
   7  -4   4    2.30    1.17
   8  -4   4   51.91    4.49
   9  -4   4   11.50    3.46
   9  -4   4   14.02    2.63
  10  -4   4    1.51    1.77
  10  -4   4    5.71    2.77
  11   3  -4    6.94    2.29
  11   3  -4    4.92    2.59
  10   3  -4   19.10    4.40
  10   3  -4   11.86    2.46
   9   3  -4   43.98    5.50
   9   3  -4   43.41    4.39
   8   3  -4   21.77    3.47
   8   3  -4   16.40    3.58
   7   3  -4   39.23    3.54
   7   3  -4   34.84    4.25
   7   3  -4   38.92    3.70
   6   3  -4    2.42    1.20
   6   3  -4    2.13    1.24
   6   3  -4    6.24    1.66
  -6  -3   4    5.22    1.66
   5   3  -4    0.92    0.73
   5   3  -4    1.45    0.70
   5   3  -4    1.33    0.88
   4   3  -4  110.97    6.22
   4   3  -4   93.99    5.63
  -4  -3   4  105.75    6.09
   3   3  -4   89.75    5.25
   3   3  -4   92.91    5.64
  -3  -3   4  107.56    4.31
  -3  -3   4   86.78    5.42
   2   3  -4   88.40    5.04
   2   3  -4   99.34    5.68
  -2  -3   4   92.38    5.34
  -2  -3   4   95.05    5.40
   1   3  -4  322.72   14.30
   1   3  -4  314.65   13.84
   1   3  -4  320.74   13.56
  -1  -3   4  305.95   13.75
  -1  -3   4  339.77   14.06
   0   3  -4   40.25    2.88
   0   3  -4   43.08    2.88
   0   3  -4   42.68    2.95
   0  -3   4   42.25    3.12
   0  -3   4   46.16    3.40
  -1   3  -4  406.35   15.98
  -1   3  -4  399.96   15.72
  -1   3  -4  404.59   16.51
   1  -3   4  370.62   17.07
   1  -3   4  408.71   16.71
  -2   3  -4    0.80    0.40
  -2   3  -4    0.33    0.22
  -2   3  -4    0.96    0.49
   2  -3   4    0.57    0.46
   2  -3   4   -0.73    0.38
  -3   3  -4   25.08    2.43
  -3   3  -4   27.09    1.85
   3  -3   4   26.31    2.47
  -4   3  -4   20.46    2.32
  -4   3  -4   18.01    1.46
   4  -3   4   22.28    2.30
  -5   3  -4  105.06    6.46
   5  -3   4  105.01    4.83
   5  -3   4  117.77    6.50
   6  -3   4   60.19    4.55
   6  -3   4   58.02    2.93
   7  -3   4   45.34    2.42
   7  -3   4   50.92    4.10
   8  -3   4   24.16    3.01
   8  -3   4   17.16    4.09
   9  -3   4    7.70    2.53
   9  -3   4    8.56    2.22
  10  -3   4    0.51    1.43
  10  -3   4   -3.03    1.21
  11   2  -4    4.59    2.09
  11   2  -4   10.09    2.18
  11   2  -4    9.46    3.06
  10   2  -4   27.07    3.66
  10   2  -4   32.24    5.43
   9   2  -4   13.45    3.34
   9   2  -4   12.15    2.65
   9   2  -4   16.52    2.97
   9   2  -4   15.08    1.46
   8   2  -4   12.95    2.95
   8   2  -4   12.57    1.37
   8   2  -4   11.46    2.82
   8   2  -4   17.29    3.13
   7   2  -4    1.06    0.84
   7   2  -4    1.92    0.56
   7   2  -4    1.18    1.05
   6   2  -4    1.82    0.98
   6   2  -4    2.26    0.97
   6   2  -4    1.96    0.58
   5   2  -4   50.59    3.59
   5   2  -4   55.75    4.10
   5   2  -4   54.90    2.85
  -5  -2   4   60.62    4.33
   4   2  -4  227.82    9.91
   4   2  -4  222.83   10.41
  -4  -2   4  207.01    8.90
  -4  -2   4  224.95   10.53
   3   2  -4  153.52    7.81
   3   2  -4  153.67    7.32
  -3  -2   4  162.75    7.90
  -3  -2   4  159.82    6.63
   2   2  -4  152.22    7.14
   2   2  -4  165.29    7.80
  -2  -2   4  152.35    7.31
  -2  -2   4  150.73    6.70
  -2  -2   4  161.42    7.65
   1   2  -4  332.72   13.81
  -1  -2   4  331.90   13.31
  -1  -2   4  284.70   14.98
   0   2  -4    2.06    0.59
   0   2  -4    0.66    0.43
   0   2  -4    0.91    0.59
   0  -2   4    1.72    0.68
   0  -2   4    1.63    0.65
  -1   2  -4    0.33    0.35
  -1   2  -4    0.88    0.48
  -1   2  -4    0.51    0.23
   1  -2   4   -0.32    0.21
   1  -2   4   -0.23    0.35
  -2   2  -4   54.47    3.53
  -2   2  -4   58.15    3.08
   2  -2   4   55.32    3.04
   2  -2   4   48.99    3.72
   2  -2   4   52.03    3.42
  -3   2  -4  235.98    9.82
  -3   2  -4  230.26   10.70
   3  -2   4  235.18    9.74
   3  -2   4  240.26   10.64
  -4   2  -4   46.32    3.50
   4  -2   4   48.63    3.45
   4  -2   4   43.07    2.61
   5  -2   4   87.85    4.36
   5  -2   4   83.47    5.28
   6  -2   4   96.27    3.89
   6  -2   4   87.68    4.48
   6  -2   4   83.16    6.81
   6  -2   4  100.79    4.85
   7  -2   4   25.00    2.84
   7  -2   4   29.33    2.22
   7  -2   4   25.87    1.62
   7  -2   4   29.15    1.79
   8  -2   4    0.51    0.38
   8  -2   4   -0.43    0.92
   8  -2   4    0.50    0.76
   8  -2   4    0.23    0.54
   8  -2   4   -0.04    0.38
   9  -2   4   -0.46    0.49
   9  -2   4    0.99    1.03
   9  -2   4    0.57    1.25
   9  -2   4    0.60    0.65
   9  -2   4   -0.79    0.40
  10  -2   4    1.45    1.54
  10  -2   4    1.45    0.79
  10  -2   4   -0.21    1.64
  11  -2   4   10.37    3.34
  11  -2   4   18.15    3.04
  11  -2   4   16.88    3.52
  11   1  -4   12.30    3.06
  11   1  -4   11.86    3.41
  11   1  -4   13.26    3.78
  10   1  -4   17.95    3.52
  10   1  -4   12.16    2.89
  10   1  -4    9.34    2.58
  10   1  -4   11.36    2.79
   9   1  -4   -0.03    1.21
   9   1  -4   -0.46    0.90
   9   1  -4    0.19    0.65
   9   1  -4    1.10    1.31
   8   1  -4    0.69    0.83
   8   1  -4    0.57    0.69
   8   1  -4    2.29    1.00
   7   1  -4   19.33    2.14
   7   1  -4   23.79    2.80
   7   1  -4   22.73    2.23
   6   1  -4  101.05    5.49
   6   1  -4  104.99    6.44
   6   1  -4  105.12    5.48
   5   1  -4  145.78    7.13
   5   1  -4  155.26    8.11
   5   1  -4  159.76    7.14
   4   1  -4  182.52    8.16
   4   1  -4  195.29    8.09
   4   1  -4  182.80    8.96
  -4  -1   4  179.22    8.20
  -4  -1   4  188.71    9.24
   3   1  -4  173.73    7.45
   3   1  -4  173.93    7.58
   3   1  -4  173.60    8.30
  -3  -1   4  171.57    7.53
  -3  -1   4  179.85    8.48
   2   1  -4   31.92    2.48
   2   1  -4   30.75    2.03
   2   1  -4   32.14    2.06
  -2  -1   4   29.13    2.06
  -2  -1   4   31.84    2.46
  -2  -1   4   33.96    2.05
   1   1  -4   63.73    3.22
   1   1  -4   59.08    3.60
   1   1  -4   59.27    3.40
  -1  -1   4   61.70    3.27
  -1  -1   4   59.13    3.25
  -1  -1   4   59.62    3.55
   0   1  -4   31.22    2.36
   0   1  -4   28.70    1.99
   0   1  -4   29.62    2.04
   0  -1   4   29.30    2.18
   0  -1   4   30.05    2.05
   0  -1   4   30.21    2.10
  -1   1  -4  249.94   10.85
  -1   1  -4  259.75   10.62
   1  -1   4  262.35   11.13
   1  -1   4  264.61   10.67
  -2   1  -4  147.19    6.47
   2  -1   4  148.96    6.43
   2  -1   4  145.88    6.86
   2  -1   4  137.93    7.02
  -3   1  -4  240.24   10.58
  -3   1  -4  254.38   11.21
   3  -1   4  253.29   11.14
   3  -1   4  267.57   10.54
   4  -1   4  118.32    5.56
   4  -1   4  109.69    6.10
   5  -1   4   29.46    2.74
   5  -1   4   28.78    1.83
   5  -1   4   31.17    2.35
   6  -1   4   95.48    5.94
   6  -1   4   88.01    5.14
   6  -1   4  101.89    4.83
   7  -1   4    2.52    0.86
   7  -1   4    1.83    0.91
   7  -1   4    2.79    0.83
   8  -1   4   -0.22    0.67
   8  -1   4    0.96    0.61
   8  -1   4    0.16    0.49
   9  -1   4    1.80    0.98
   9  -1   4    2.77    1.32
   9  -1   4    3.68    1.94
   9  -1   4    2.41    1.33
  10  -1   4    9.26    1.80
  10  -1   4    7.98    1.62
  10  -1   4    6.63    2.18
  10  -1   4    9.09    3.03
  10  -1   4    6.21    2.00
  11  -1   4    9.93    2.54
  11  -1   4    6.09    2.02
  11  -1   4    4.42    1.57
  11  -1   4    2.07    1.92
  11   0  -4    3.10    1.96
  11   0  -4    4.64    2.05
  11   0  -4    0.43    1.18
  11   0  -4   -1.00    1.59
  10   0  -4    0.40    1.05
  10   0  -4    1.62    0.76
  10   0  -4    2.67    1.53
  10   0  -4    2.48    1.71
   9   0  -4    0.10    0.79
   9   0  -4    1.73    0.92
   9   0  -4    2.27    1.24
   9   0  -4    0.96    0.62
   8   0  -4    4.81    1.06
   8   0  -4    5.13    1.67
   8   0  -4    4.72    1.13
   8   0  -4    4.31    1.61
   7   0  -4   77.59    5.20
   7   0  -4   78.40    5.80
   7   0  -4   79.52    4.44
   6   0  -4   67.06    3.80
   6   0  -4   77.50    7.92
   6   0  -4   71.02    4.66
   5   0  -4  114.65    6.66
   5   0  -4  111.94    6.05
   5   0  -4  111.79    5.25
   4   0  -4  143.70    7.27
   4   0  -4  132.71    5.85
   4   0  -4  135.96    6.61
  -4   0   4  127.55    6.72
   3   0  -4  274.19   10.70
   3   0  -4  284.33   12.01
   3   0  -4  272.86   11.39
  -3   0   4  255.88   11.46
  -3   0   4  272.83   12.12
   2   0  -4    0.95    0.53
   2   0  -4    2.18    0.44
   2   0  -4    1.71    0.54
   2   0  -4    1.31    0.51
  -2   0   4    1.54    0.50
  -2   0   4    1.50    0.38
  -2   0   4    0.85    0.47
   1   0  -4    0.52    0.32
   1   0  -4    0.51    0.34
   1   0  -4   -0.20    0.20
   1   0  -4    0.54    0.24
  -1   0   4    0.59    0.36
  -1   0   4    0.35    0.27
  -1   0   4   -0.09    0.23
  -1   0   4    0.25    0.22
   0   0  -4  139.33    6.26
   0   0  -4  136.89    6.10
   0   0  -4  140.67    5.98
   0   0   4  128.15    6.18
   0   0   4  135.67    6.18
   0   0   4  138.69    5.95
  -1   0  -4  420.33   15.76
  -1   0  -4  438.30   16.39
  -1   0  -4  407.81   16.47
  -1   0  -4  388.14   16.34
   1   0   4  444.00   16.37
   1   0   4  401.42   16.34
   1   0   4  411.69   16.35
  -2   0  -4   94.47    5.12
  -2   0  -4  106.80    4.41
  -2   0  -4  100.48    5.05
   2   0   4  110.65    4.36
   2   0   4  111.22    5.06
   2   0   4  108.60    5.27
   2   0   4  103.84    5.13
  -3   0  -4  247.14   11.18
   3   0   4  264.04   10.33
   3   0   4  276.32   11.20
   3   0   4  272.21   11.52
   4   0   4   77.77    4.66
   4   0   4   75.65    4.34
   4   0   4   76.84    3.79
   5   0   4   33.12    2.91
   5   0   4   29.77    2.23
   5   0   4   32.91    2.71
   6   0   4    6.19    1.54
   6   0   4    4.16    0.99
   6   0   4    5.45    1.33
   7   0   4   54.69    3.76
   7   0   4   51.61    4.28
   7   0   4   49.22    3.98
   8   0   4    8.49    1.72
   8   0   4    6.33    1.73
   8   0   4    9.55    2.10
   9   0   4    9.46    2.04
   9   0   4   10.64    2.47
   9   0   4    6.37    2.17
   9   0   4   10.21    1.94
   9   0   4   10.09    2.28
  10   0   4   16.98    2.73
  10   0   4   16.29    2.96
  10   0   4   22.94    3.19
  10   0   4   23.22    4.42
  10   0   4   20.03    3.47
  11   0   4    2.86    1.41
  11   0   4    3.39    1.78
  11   0   4    5.77    4.13
  11   0   4    0.66    1.58
  11   0   4   -0.33    1.56
  11  -1  -4    2.02    1.56
  11  -1  -4    0.61    1.60
  11  -1  -4    0.85    1.38
  11  -1  -4    1.60    1.36
  10  -1  -4   -1.55    0.96
  10  -1  -4    4.28    3.29
  10  -1  -4    1.52    1.48
   9  -1  -4   21.86    3.12
   9  -1  -4   22.45    1.58
   9  -1  -4   22.80    4.14
   9  -1  -4   21.16    1.49
   8  -1  -4   36.78    4.10
   8  -1  -4   33.95    2.25
   8  -1  -4   42.89    4.31
   8  -1  -4   36.45    3.77
   8  -1  -4   37.08    2.31
   7  -1  -4   49.82    2.74
   7  -1  -4   46.12    2.66
   7  -1  -4   42.55    5.01
   7  -1  -4   45.60    3.73
   7  -1  -4   50.89    4.66
   6  -1  -4   36.57    2.14
   6  -1  -4   39.72    3.81
   6  -1  -4   36.62    2.12
   6  -1  -4   33.44    3.35
   5  -1  -4    3.97    0.61
   5  -1  -4    5.14    1.65
   5  -1  -4    2.06    0.95
   5  -1  -4    2.64    0.51
   5  -1  -4    3.15    0.94
   4  -1  -4  111.32    4.34
   4  -1  -4  103.41    5.89
   4  -1  -4  112.27    6.37
   4  -1  -4  104.89    5.55
  -4   1   4   97.43    5.95
   3  -1  -4    0.29    0.32
   3  -1  -4    0.75    0.43
   3  -1  -4   -0.29    0.32
   3  -1  -4    0.58    0.15
  -3   1   4    0.56    0.41
   2  -1  -4  313.26   12.33
   2  -1  -4  301.31   11.33
   2  -1  -4  314.27   12.72
   2  -1  -4  304.77   12.90
  -2   1   4  281.97   12.84
  -2   1   4  303.90   12.78
   1  -1  -4  109.92    5.01
   1  -1  -4   96.59    4.40
   1  -1  -4  106.77    5.22
   1  -1  -4  118.77    5.31
  -1   1   4  109.93    5.05
  -1   1   4  109.15    5.24
  -1   1   4  106.45    4.43
  -1   1   4  102.74    5.23
   0  -1  -4  209.76    8.70
   0  -1  -4  216.12    9.03
   0  -1  -4  213.66    8.78
   0  -1  -4  209.64    8.75
   0   1   4  208.06    8.96
   0   1   4  203.74    8.74
   0   1   4  221.66    8.82
   0   1   4  201.07    8.46
  -1  -1  -4  485.80   18.72
  -1  -1  -4  488.65   18.31
  -1  -1  -4  477.08   18.30
   1   1   4  506.89   18.73
   1   1   4  496.12   18.31
   1   1   4  448.85   18.48
   1   1   4  454.19   18.22
   1   1   4  460.89   18.79
  -2  -1  -4  363.18   14.56
  -2  -1  -4  345.76   15.02
   2   1   4  386.62   15.13
   2   1   4  373.79   14.39
   2   1   4  388.14   14.53
  -3  -1  -4  215.54    9.33
  -3  -1  -4  192.66   10.53
   3   1   4  223.34    9.86
   3   1   4  225.96    9.18
   3   1   4  241.46    9.36
   4   1   4    7.14    1.26
   4   1   4    6.69    1.50
   5   1   4    0.25    0.40
   5   1   4    0.30    0.40
   5   1   4    0.29    0.40
   6   1   4   59.55    4.43
   6   1   4   58.05    3.97
   6   1   4   59.06    4.45
   7   1   4   43.28    3.46
   7   1   4   31.14    3.36
   8   1   4   48.72    4.33
   8   1   4   49.06    4.35
   8   1   4   41.72    3.77
   8   1   4   43.39    3.83
   9   1   4   36.42    3.60
   9   1   4   34.99    3.54
   9   1   4   34.17    4.26
   9   1   4   34.48    3.71
   9   1   4   32.67    3.61
  10   1   4   28.12    3.56
  10   1   4   25.02    3.13
  10   1   4   20.35    3.68
  10   1   4   22.42    4.11
  10   1   4   25.05    3.16
  11   1   4    7.38    2.10
  11   1   4    2.69    1.70
  11   1   4    8.13    2.80
  11   1   4    6.81    2.22
  11  -2  -4    5.03    2.34
  11  -2  -4   -0.25    1.93
  11  -2  -4    1.69    1.69
  10  -2  -4   22.23    2.64
  10  -2  -4   23.20    4.76
  10  -2  -4   16.07    3.17
   9  -2  -4   54.58    5.53
   9  -2  -4   41.20    4.68
   9  -2  -4   40.02    3.79
   8  -2  -4   54.92    4.08
   8  -2  -4   63.33    5.70
   8  -2  -4   65.30    5.93
   7  -2  -4   46.50    4.62
   7  -2  -4   43.88    4.51
   7  -2  -4   45.10    3.31
   6  -2  -4  172.14   10.25
   6  -2  -4  182.66    8.30
   6  -2  -4  165.81    9.95
   5  -2  -4   -0.02    0.57
   4  -2  -4    0.99    0.69
   4  -2  -4    1.33    0.50
   4  -2  -4    1.48    0.88
  -4   2   4    3.38    0.99
   3  -2  -4   70.23    4.67
   3  -2  -4   72.01    3.66
   3  -2  -4   66.66    4.45
  -3   2   4   70.39    4.64
   2  -2  -4  516.05   21.36
   2  -2  -4  536.39   21.33
   2  -2  -4  539.07   20.32
  -2   2   4  529.73   20.37
  -2   2   4  513.24   21.64
   1  -2  -4   79.61    4.18
   1  -2  -4   73.75    4.29
   1  -2  -4   86.75    3.95
   1  -2  -4   74.62    4.27
  -1   2   4   81.60    4.47
  -1   2   4   75.90    3.84
   0  -2  -4  193.46    8.35
   0  -2  -4  196.89    8.55
   0  -2  -4  180.51    8.22
   0  -2  -4  183.15    8.20
   0   2   4  210.48    8.34
   0   2   4  201.41    8.43
   0   2   4  196.78    8.58
  -1  -2  -4  621.31   22.74
  -1  -2  -4  564.12   23.43
  -1  -2  -4  622.10   23.52
  -1  -2  -4  602.21   23.33
   1   2   4  611.52   23.29
   1   2   4  565.38   22.70
   1   2   4  639.41   23.52
   1   2   4  606.68   23.47
  -2  -2  -4   67.05    3.68
  -2  -2  -4   58.66    3.74
  -2  -2  -4   62.65    2.80
   2   2   4   66.84    2.79
   2   2   4   66.15    3.61
   2   2   4   64.79    3.65
  -3  -2  -4   29.02    2.33
   3   2   4   33.17    2.41
   3   2   4   28.01    2.26
   3   2   4   31.17    1.51
   3   2   4   28.43    2.53
  -4  -2  -4   40.15    3.09
   4   2   4   42.92    2.30
   4   2   4   47.58    3.64
   4   2   4   47.04    3.24
   5   2   4   34.25    3.23
   5   2   4   34.21    2.90
   6   2   4   95.03    5.06
   6   2   4  104.83    6.68
   6   2   4  102.10    6.08
   7   2   4   66.48    4.06
   7   2   4   60.65    5.14
   7   2   4   66.19    4.85
   8   2   4   44.06    4.22
   8   2   4   53.45    4.53
   8   2   4   50.51    3.65
   8   2   4   46.60    4.59
   9   2   4   11.13    2.57
   9   2   4   11.18    2.86
   9   2   4   15.24    2.04
   9   2   4   15.97    3.05
   9   2   4   14.72    2.94
  10   2   4    1.59    1.65
  10   2   4   -1.44    0.82
  10   2   4    1.24    1.34
  10   2   4    4.15    1.50
  10   2   4    1.93    1.17
  11   2   4   -0.10    1.35
  11   2   4   -1.26    1.11
  11   2   4   -1.60    1.03
  11   2   4    1.73    1.79
  11   2   4   -2.93    1.27
  10  -3  -4    7.23    2.71
  10  -3  -4    7.72    2.52
   9  -3  -4   29.43    4.08
   9  -3  -4   27.11    2.21
   9  -3  -4   27.89    5.88
   8  -3  -4    6.47    2.22
   8  -3  -4    9.85    2.95
   8  -3  -4    8.35    1.85
   8  -3  -4    6.39    1.24
   7  -3  -4    0.86    0.89
   7  -3  -4    1.84    1.49
   7  -3  -4    0.49    0.95
   6  -3  -4   10.68    2.45
   6  -3  -4   10.21    2.67
   6  -3  -4    8.25    1.12
   6  -3  -4    6.55    2.18
   5  -3  -4   49.06    2.82
   5  -3  -4   54.60    3.94
   5  -3  -4   40.46    4.18
   5  -3  -4   47.34    4.42
   4  -3  -4  132.53    5.90
   4  -3  -4  137.34    7.11
   4  -3  -4  128.72    7.81
   3  -3  -4   69.56    4.82
   3  -3  -4   66.30    4.14
   3  -3  -4   71.10    3.41
  -3   3   4   60.74    4.68
   2  -3  -4  286.04   12.09
   2  -3  -4  285.54   11.28
   2  -3  -4  287.83   12.78
  -2   3   4  289.41   10.75
  -2   3   4  273.45   11.28
  -2   3   4  257.19   12.67
   1  -3  -4  367.92   15.43
   1  -3  -4  380.76   16.39
   1  -3  -4  396.05   16.03
  -1   3   4  414.80   15.46
  -1   3   4  388.87   16.56
  -1   3   4  402.00   16.10
   0  -3  -4  206.24    9.38
   0  -3  -4  223.84   10.43
   0  -3  -4  221.35    9.80
   0   3   4  226.27    9.66
   0   3   4  222.54    9.89
   0   3   4  217.73    9.37
  -1  -3  -4   68.93    3.79
  -1  -3  -4   61.84    3.20
  -1  -3  -4   59.60    3.78
   1   3   4   62.52    3.80
   1   3   4   67.24    3.77
   1   3   4   63.45    3.75
  -2  -3  -4   39.01    1.71
  -2  -3  -4   34.16    2.69
  -2  -3  -4   33.70    2.49
   2   3   4   35.22    2.83
   2   3   4   39.09    2.55
   2   3   4   35.75    2.70
  -3  -3  -4   28.66    2.56
   3   3   4   28.51    2.15
   3   3   4   29.56    2.73
   3   3   4   28.73    2.49
  -4  -3  -4   13.43    1.75
   4   3   4   13.87    1.83
   4   3   4   12.93    2.36
   4   3   4   14.21    1.46
   5   3   4   77.23    5.55
   5   3   4   75.76    4.84
   5   3   4   74.68    5.05
   6   3   4   50.99    2.58
   6   3   4   56.53    4.36
   6   3   4   51.26    3.64
   6   3   4   55.81    4.80
   7   3   4   52.33    3.96
   7   3   4   55.90    3.07
   7   3   4   59.04    5.23
   7   3   4   59.64    4.79
   8   3   4    1.89    1.12
   8   3   4    2.62    1.41
   8   3   4    2.79    0.81
   8   3   4    2.99    1.43
   9   3   4    0.01    0.49
   9   3   4    1.78    1.02
   9   3   4    1.20    1.35
   9   3   4   -0.22    0.93
   9   3   4   -0.46    1.06
  10   3   4   -1.11    1.20
  10   3   4    2.28    1.69
  10   3   4   -0.24    1.24
  10   3   4    3.15    1.51
  10   3   4    1.46    0.85
  11   3   4   10.11    3.04
  11   3   4   12.00    2.53
  11   3   4    5.28    2.62
  11   3   4    6.02    1.92
  10  -4  -4    8.60    2.71
  10  -4  -4   16.09    4.20
   9  -4  -4    8.01    2.79
   9  -4  -4    7.99    3.03
   8  -4  -4   -1.51    0.94
   8  -4  -4    0.16    1.16
   7  -4  -4    4.02    1.66
   7  -4  -4    1.16    1.20
   6  -4  -4   18.28    3.50
   6  -4  -4   19.98    1.05
   6  -4  -4   20.27    3.87
   6  -4  -4   17.77    2.99
   5  -4  -4   52.50    4.05
   5  -4  -4   58.12    5.24
   5  -4  -4   52.85    2.51
   4  -4  -4   94.65    5.49
   4  -4  -4   91.46    6.55
   4  -4  -4   89.60    4.05
   3  -4  -4   43.32    3.23
   3  -4  -4   42.55    2.36
   3  -4  -4   44.62    3.98
  -3   4   4   40.60    3.87
  -3   4   4   42.51    2.27
   2  -4  -4   90.60    5.17
   2  -4  -4   92.83    5.91
   2  -4  -4   82.25    4.35
  -2   4   4   99.01    5.44
  -2   4   4   86.21    5.87
  -2   4   4   96.27    4.33
  -2   4   4   98.38    4.44
   1  -4  -4   79.36    4.32
   1  -4  -4   84.50    5.25
   1  -4  -4   81.01    4.78
  -1   4   4   84.31    5.38
  -1   4   4   89.68    4.32
  -1   4   4   92.27    5.00
  -1   4   4   81.16    4.21
   0  -4  -4    0.19    0.50
   0  -4  -4    0.30    0.32
   0   4   4    0.05    0.32
   0   4   4    0.99    0.51
   0   4   4    0.24    0.31
  -1  -4  -4   16.04    1.70
  -1  -4  -4   14.50    1.77
   1   4   4   17.10    1.83
   1   4   4   16.22    1.79
   1   4   4   16.89    2.75
  -2  -4  -4  130.22    6.25
  -2  -4  -4  125.06    6.81
   2   4   4  120.81    6.13
   2   4   4  122.24    6.79
   2   4   4  127.02    6.70
  -3  -4  -4   65.11    3.96
  -3  -4  -4   66.60    4.64
   3   4   4   67.54    4.85
   3   4   4   73.93    4.70
   3   4   4   69.84    3.89
  -4  -4  -4  162.57    8.93
   4   4   4  167.15    9.49
   4   4   4  173.23    7.70
   4   4   4  176.30    9.01
   5   4   4  172.54    9.52
   5   4   4  181.87    8.09
   5   4   4  182.24   10.30
   6   4   4   40.88    4.27
   6   4   4   41.02    3.90
   6   4   4   38.13    2.73
   7   4   4    0.92    1.08
   7   4   4    2.13    1.42
   8   4   4   -1.11    0.54
   8   4   4   -0.75    0.75
   8   4   4    1.15    1.05
   9   4   4    0.45    0.92
   9   4   4   -0.25    0.94
   9   4   4    0.83    1.31
   9   4   4    1.47    0.65
  10   4   4    6.69    2.32
  10   4   4    2.49    1.69
  10   4   4    3.92    1.08
  11   4   4    9.42    2.96
  11   4   4   11.57    3.05
  11   4   4    4.40    1.95
  10  -5  -4    6.62    2.66
  10  -5  -4   -1.40    1.88
   9  -5  -4    2.80    2.53
   9  -5  -4    3.53    1.90
   8  -5  -4    1.43    2.01
   8  -5  -4    3.10    2.84
   7  -5  -4   14.13    3.56
   7  -5  -4    9.93    3.00
   6  -5  -4   78.34    6.90
   6  -5  -4   65.28    5.02
   5  -5  -4  100.85    7.75
   4  -5  -4  104.25    7.42
   4  -5  -4   94.67    5.84
  -4   5   4   97.06    4.57
   3  -5  -4   33.54    3.69
   3  -5  -4   31.61    2.80
  -3   5   4   33.88    2.27
   2  -5  -4   88.14    5.37
   2  -5  -4   87.73    6.11
  -2   5   4   97.81    4.43
  -2   5   4   76.99    5.95
  -2   5   4   93.21    4.62
  -2   5   4   88.98    5.45
   1  -5  -4    5.84    1.42
   1  -5  -4    6.53    1.56
  -1   5   4    6.30    1.47
  -1   5   4    7.26    0.99
  -1   5   4    7.30    1.72
  -1   5   4    6.76    1.23
   0  -5  -4   44.22    3.57
   0  -5  -4   58.72    4.01
   0   5   4   48.32    3.33
   0   5   4   53.18    3.75
   0   5   4   48.64    3.30
   0   5   4   47.52    3.85
  -1  -5  -4   12.78    1.61
  -1  -5  -4    9.04    1.84
   1   5   4    7.19    1.56
   1   5   4   10.30    1.86
   1   5   4    7.22    1.62
  -2  -5  -4   67.02    4.02
  -2  -5  -4   56.74    4.42
   2   5   4   59.05    3.96
   2   5   4   59.54    4.46
   2   5   4   70.36    4.65
  -3  -5  -4  108.24    6.81
  -3  -5  -4  107.43    4.60
  -3  -5  -4  115.76    5.89
   3   5   4  114.92    7.07
   3   5   4  106.35    6.60
   3   5   4  112.11    5.76
   4   5   4  110.86    7.20
   4   5   4  107.66    7.10
   4   5   4  107.26    5.45
  -5  -5  -4   68.07    5.50
   5   5   4   72.04    5.87
   5   5   4   78.88    5.72
   5   5   4   74.12    3.99
   6   5   4   25.26    4.17
   6   5   4   23.19    1.81
   6   5   4   28.07    3.30
   7   5   4    0.98    0.47
   7   5   4   -0.08    0.68
   7   5   4   -0.46    0.72
   8   5   4    1.87    0.55
   8   5   4    3.92    1.69
   8   5   4    6.63    1.95
   8   5   4    2.99    0.63
   9   5   4    1.43    1.56
   9   5   4    3.04    1.79
  10   5   4   35.69    5.63
  10   5   4   38.08    6.33
  11   5   4    4.92    2.63
  11   5   4    5.02    2.05
   9  -6  -4    0.12    2.14
   9  -6  -4    3.34    2.63
   8  -6  -4   10.62    3.61
   8  -6  -4   11.26    3.74
   7  -6  -4   34.50    6.16
   6  -6  -4   41.33    5.08
   5  -6  -4   55.94    5.75
   5  -6  -4   58.64    4.34
  -5   6   4   51.53    2.98
   4  -6  -4   30.03    3.46
   4  -6  -4   41.57    4.56
   3  -6  -4    1.90    1.09
   3  -6  -4    1.73    0.97
  -3   6   4    1.59    0.71
   2  -6  -4    7.86    2.12
   2  -6  -4    4.21    1.13
  -2   6   4    8.21    1.93
  -2   6   4    6.96    1.28
  -2   6   4    7.83    1.00
   1  -6  -4   62.06    4.64
   1  -6  -4   72.12    5.29
  -1   6   4   66.30    4.60
  -1   6   4   68.69    3.94
  -1   6   4   58.56    4.92
  -1   6   4   66.20    4.12
   0  -6  -4  110.81    6.57
   0  -6  -4  105.31    6.47
   0   6   4   88.26    6.24
   0   6   4  113.72    6.40
   0   6   4  104.21    5.78
   0   6   4   95.89    5.73
  -1  -6  -4  123.69    6.69
  -1  -6  -4  109.83    6.89
   1   6   4  105.61    6.34
   1   6   4  109.72    6.62
   1   6   4  116.91    6.81
   1   6   4  111.50    6.52
  -2  -6  -4   62.04    4.01
   2   6   4   56.37    4.64
   2   6   4   49.99    3.84
   2   6   4   51.88    4.25
  -3  -6  -4  109.18    5.00
  -3  -6  -4  114.28    5.91
  -3  -6  -4   95.66    6.71
   3   6   4  109.90    6.87
   3   6   4   86.32    5.50
   3   6   4  108.78    7.05
  -4  -6  -4    9.34    3.05
   4   6   4   11.76    2.59
   4   6   4   13.89    1.54
   4   6   4   12.26    2.52
   5   6   4    5.35    1.90
   5   6   4    6.39    1.13
   5   6   4    8.12    2.17
   6   6   4    9.47    0.95
   6   6   4    8.61    2.47
   6   6   4    7.90    2.25
   7   6   4    5.50    1.94
   7   6   4   10.48    2.64
   8   6   4   15.08    3.71
   8   6   4   24.98    4.25
   9   6   4   15.10    4.00
   9   6   4   14.34    3.61
  10   6   4   13.36    3.62
  10   6   4   14.85    4.10
   9  -7  -4   16.26    4.91
   9  -7  -4   18.21    4.56
   8  -7  -4    9.83    3.55
   8  -7  -4   11.71    3.73
   7  -7  -4   20.21    4.25
   6  -7  -4   17.07    4.18
   5  -7  -4    9.25    2.75
  -5   7   4   10.40    1.55
   4  -7  -4    2.39    1.61
   4  -7  -4    4.39    1.79
  -4   7   4    1.74    1.06
   3  -7  -4   29.01    3.93
   3  -7  -4   22.62    2.95
  -3   7   4   26.45    2.60
   2  -7  -4   39.61    3.69
   2  -7  -4   36.26    4.24
  -2   7   4   36.16    3.16
  -2   7   4   43.63    2.66
  -2   7   4   41.53    3.81
   1  -7  -4   75.14    5.56
   1  -7  -4   88.61    6.34
  -1   7   4   89.33    5.82
  -1   7   4   77.87    5.01
  -1   7   4   86.41    4.85
   0  -7  -4   71.76    5.45
   0   7   4   74.37    5.29
   0   7   4   73.37    4.81
   0   7   4   77.62    5.03
  -1  -7  -4  119.02    7.78
  -1  -7  -4  141.82    7.72
   1   7   4  140.35    7.94
   1   7   4  118.77    7.28
   1   7   4  121.70    7.31
   1   7   4  126.13    7.68
  -2  -7  -4   59.48    4.07
  -2  -7  -4   67.64    4.49
   2   7   4   64.41    5.01
   2   7   4   62.77    4.95
   2   7   4   51.80    4.30
   2   7   4   56.12    4.51
  -3  -7  -4   13.86    1.86
  -3  -7  -4   14.89    1.69
   3   7   4   14.57    1.89
   3   7   4   13.47    2.73
   3   7   4   14.58    2.77
  -4  -7  -4    4.05    0.72
  -4  -7  -4    2.76    0.92
   4   7   4    3.80    1.65
   4   7   4    2.98    1.00
   4   7   4    3.61    1.57
   5   7   4   12.72    2.80
   5   7   4    9.71    2.74
   6   7   4   13.47    2.95
   6   7   4   13.40    3.08
   7   7   4   14.32    3.55
   7   7   4   14.06    3.33
   8   7   4   21.74    4.28
   8   7   4   26.01    7.03
   9   7   4   18.89    3.98
   9   7   4   17.83    3.89
  10   7   4    3.30    2.11
  10   7   4   -0.32    1.66
   8  -8  -4   12.19    3.89
   8  -8  -4    4.79    3.28
   7  -8  -4    7.16    2.90
   6  -8  -4    1.45    1.67
   5  -8  -4   -0.28    2.54
  -5   8   4    1.30    1.38
   4  -8  -4   16.20    3.67
  -4   8   4   19.21    2.81
   3  -8  -4   22.14    4.52
  -3   8   4   23.31    2.80
   2  -8  -4   48.88    5.14
  -2   8   4   50.53    4.38
  -2   8   4   42.35    3.71
  -2   8   4   47.46    2.98
   1  -8  -4   36.02    4.05
  -1   8   4   34.46    2.84
  -1   8   4   33.61    3.51
  -1   8   4   32.38    3.30
   0  -8  -4   76.11    5.85
   0   8   4   64.89    5.91
   0   8   4   67.79    4.80
   0   8   4   66.41    5.28
  -1  -8  -4   14.02    2.70
   1   8   4   16.26    2.79
   1   8   4   14.14    2.79
  -2  -8  -4    0.58    0.61
  -2  -8  -4    0.80    1.06
   2   8   4    0.11    0.84
   2   8   4    0.03    0.69
  -3  -8  -4   10.35    2.07
  -3  -8  -4    8.09    1.69
   3   8   4   14.17    2.78
   3   8   4    6.80    2.08
  -4  -8  -4    8.05    1.84
  -4  -8  -4    5.72    1.08
   4   8   4    7.58    2.20
   4   8   4    6.52    2.04
   5   8   4    8.64    2.22
   5   8   4    3.57    1.64
   6   8   4   36.80    4.54
   6   8   4   33.71    5.54
   7   8   4   14.52    3.50
   7   8   4   18.60    4.10
   8   8   4   13.09    3.39
   8   8   4   12.97    3.23
   9   8   4    1.25    2.07
   9   8   4    4.71    2.39
   7  -9  -4   -3.80    1.84
   6  -9  -4    6.27    3.28
   5  -9  -4   18.05    4.10
   4  -9  -4   12.00    3.30
  -4   9   4    6.80    2.86
   3  -9  -4   51.14    5.88
   2  -9  -4   45.13    5.06
  -2   9   4   34.38    2.48
  -2   9   4   32.46    3.74
   1  -9  -4   10.45    2.79
  -1   9   4   13.11    2.09
  -1   9   4   14.08    2.93
   0  -9  -4   10.53    2.83
   0   9   4    9.09    2.27
   0   9   4   10.52    2.19
  -1  -9  -4   -0.03    0.87
   1   9   4    1.89    1.06
   1   9   4    0.71    0.86
  -2  -9  -4    2.27    1.23
  -2  -9  -4    2.40    1.60
   2   9   4    2.43    1.17
   2   9   4    2.42    1.22
  -3  -9  -4    7.35    1.72
  -3  -9  -4    9.83    2.09
   3   9   4    6.50    1.85
   3   9   4    8.17    2.36
  -4  -9  -4    3.50    1.45
  -4  -9  -4    8.64    2.01
   4   9   4    6.72    2.11
   4   9   4    8.28    2.49
   5   9   4   42.08    4.84
   5   9   4   38.07    4.66
   6   9   4   21.30    3.93
   6   9   4   16.96    3.80
   7   9   4    5.90    2.10
   7   9   4    5.61    2.33
   8   9   4    2.02    2.17
   8   9   4   -1.37    1.48
   9   9   4    6.02    2.29
   9   9   4   -1.59    1.82
   6 -10  -4    5.19    3.17
   5 -10  -4   23.66    5.65
   4 -10  -4   62.56    7.11
   3 -10  -4   22.49    4.39
   2 -10  -4   10.92    3.26
  -2  10   4   16.21    1.70
  -2  10   4   13.93    3.00
   1 -10  -4    5.04    2.36
  -1  10   4    3.33    1.23
  -1  10   4    5.77    1.85
   0 -10  -4    1.10    1.28
   0  10   4    2.03    1.23
   0  10   4    2.40    1.33
  -1 -10  -4   11.04    2.45
   1  10   4   15.83    3.31
   1  10   4   18.04    3.11
  -2 -10  -4   23.49    3.73
   2  10   4   16.40    3.52
   2  10   4   20.72    3.77
  -3 -10  -4   66.89    5.23
   3  10   4   63.86    6.15
   3  10   4   64.69    6.00
  -4 -10  -4    9.15    2.08
  -4 -10  -4    4.36    1.76
   4  10   4   12.74    3.08
   4  10   4   14.94    3.48
   5  10   4   20.94    4.28
   5  10   4   19.74    3.80
   6  10   4    8.63    2.68
   6  10   4    9.71    2.77
   7  10   4    3.07    1.46
   7  10   4    1.51    1.81
   8  10   4   -1.81    1.92
   8  10   4    1.98    1.99
   4 -11  -4   14.13    3.83
   3 -11  -4    2.28    2.14
   2 -11  -4    2.97    2.21
   1 -11  -4    0.32    1.34
   0 -11  -4   12.68    2.96
   0  11   4    8.85    2.09
   0  11   4   10.84    3.14
  -1 -11  -4   17.98    3.55
   1  11   4   19.26    3.17
   1  11   4   13.34    3.32
  -2 -11  -4   34.32    4.11
   2  11   4   31.21    4.99
   2  11   4   27.15    4.36
  -3 -11  -4   13.77    2.89
   3  11   4   15.34    3.49
   3  11   4   11.18    2.95
  -4 -11  -4    8.15    2.37
   4  11   4   11.76    2.98
   4  11   4   16.45    3.85
   5  11   4   -2.48    1.17
   5  11   4    2.55    1.75
   6  11   4   -0.65    1.51
   6  11   4    0.93    2.16
   7  11   4    5.44    2.28
   7  11   4    7.42    5.17
   2 -12  -4   38.60    6.57
  -2  12   4   31.48    5.40
   1 -12  -4    1.83    2.15
  -1  12   4    6.76    2.82
   0 -12  -4    9.48    2.97
   0  12   4    8.64    2.91
   0  12   4   12.00    2.54
   1  12   4   19.27    3.26
   1  12   4   12.58    3.19
  -2 -12  -4    3.75    2.09
   2  12   4   10.51    3.45
   2  12   4    8.89    2.68
  -3 -12  -4    1.70    1.91
   3  12   4    1.25    1.71
   3  12   4   -2.60    1.20
   4  12   4    1.13    2.06
   4  12   4   -0.93    1.64
   5  12   4    3.25    1.77
   5  12   4    0.59    2.16
   3  11  -5   18.42    4.23
   2  11  -5   17.99    4.05
  -2 -11   5   15.70    3.47
   1  11  -5    5.54    2.54
  -1 -11   5    9.51    2.99
   0  11  -5    1.83    1.99
   0 -11   5   -4.07    2.01
  -1  11  -5    0.27    2.92
  -1  11  -5   -4.11    1.72
   1 -11   5    5.09    2.59
   6  10  -5   12.32    3.86
   5  10  -5   15.07    3.91
   4  10  -5   20.50    4.15
   3  10  -5   12.89    2.92
  -3 -10   5    8.40    2.10
   2  10  -5   20.22    4.83
  -2 -10   5   25.37    4.13
   1  10  -5    1.41    1.73
  -1 -10   5   -0.40    1.51
   0  10  -5   -0.71    1.17
   0 -10   5   -0.74    1.27
  -1  10  -5    2.03    1.89
   1 -10   5    3.01    2.04
  -2  10  -5   16.67    2.53
   2 -10   5   26.78    4.97
   3 -10   5   10.37    3.54
   4 -10   5   18.02    4.96
   7   9  -5   12.76    3.72
   6   9  -5   11.49    3.34
   5   9  -5   24.75    4.69
   4   9  -5    8.32    2.85
   3   9  -5    6.16    2.30
  -3  -9   5    3.54    1.24
   2   9  -5    5.13    2.05
  -2  -9   5    3.33    1.39
   1   9  -5   12.50    2.80
  -1  -9   5    6.76    2.08
   0   9  -5   45.97    4.37
   0  -9   5   36.23    4.58
  -1   9  -5   41.50    3.99
   1  -9   5   35.57    4.93
  -2   9  -5   43.35    4.02
   2  -9   5   50.27    6.19
   3  -9   5   19.49    3.70
   3  -9   5   17.98    4.45
   4  -9   5   15.60    4.76
   4  -9   5   10.15    2.81
   5  -9   5    2.32    2.01
   5  -9   5    2.91    2.53
   8   8  -5   12.69    3.87
   7   8  -5   19.77    4.44
   6   8  -5    6.23    2.66
   5   8  -5   11.92    3.46
   4   8  -5    2.39    1.25
   3   8  -5    0.81    1.29
  -3  -8   5    0.77    0.87
   2   8  -5   13.11    2.83
  -2  -8   5    9.53    2.38
   1   8  -5   33.36    3.60
  -1  -8   5   23.29    3.21
   0   8  -5   32.46    3.44
   0  -8   5   26.03    3.73
  -1   8  -5   87.62    5.71
  -1   8  -5   72.99    5.36
   1  -8   5   79.07    6.70
   1  -8   5   85.56    7.28
  -2   8  -5   17.24    2.33
  -2   8  -5   21.37    2.75
   2  -8   5   19.68    3.75
   2  -8   5   18.38    3.50
  -3   8  -5   30.37    2.89
  -3   8  -5   33.76    2.77
   3  -8   5   23.93    4.31
   3  -8   5   28.19    5.43
   4  -8   5    2.37    1.86
   4  -8   5    2.37    1.21
   5  -8   5   -0.55    1.71
   6  -8   5   16.19    3.22
   6  -8   5    9.62    3.46
   7  -8   5    3.84    3.44
   7  -8   5    9.39    2.87
   9   7  -5   11.75    3.62
   8   7  -5   16.77    4.43
   7   7  -5   22.00    4.59
   4   7  -5    2.25    1.22
   3   7  -5   92.30    7.04
  -3  -7   5   84.53    5.07
   2   7  -5   35.20    3.70
  -2  -7   5   27.09    2.96
   1   7  -5   88.48    6.28
  -1  -7   5   84.08    6.39
   0   7  -5   84.87    5.67
   0   7  -5   80.69    5.45
   0  -7   5   70.69    6.10
   0  -7   5   77.83    6.27
  -1   7  -5   15.44    2.47
  -1   7  -5   12.77    2.23
   1  -7   5    8.30    2.42
   1  -7   5   14.27    2.99
  -2   7  -5    3.32    1.33
  -2   7  -5    5.54    1.45
   2  -7   5    4.92    1.85
   2  -7   5    6.01    2.11
  -3   7  -5   -0.07    0.55
   3  -7   5   -0.39    0.72
   3  -7   5    0.05    1.16
   4  -7   5    1.72    1.26
   4  -7   5    4.80    2.04
   5  -7   5   39.86    5.57
   5  -7   5   33.45    3.97
   6  -7   5   35.86    6.82
   6  -7   5   33.88    4.27
   7  -7   5   18.31    5.37
   8  -7   5   12.63    4.42
   8  -7   5    6.79    2.67
   9   6  -5   12.77    3.57
   9   6  -5    7.02    2.16
   8   6  -5    3.48    2.54
   8   6  -5    9.37    2.12
   7   6  -5    0.33    1.11
   7   6  -5    1.19    1.15
   6   6  -5    4.13    1.75
   6   6  -5    2.18    1.39
   5   6  -5    4.42    2.04
   5   6  -5    4.08    1.67
  -5  -6   5    7.75    2.60
   4   6  -5   29.45    3.73
  -4  -6   5   25.34    3.41
   3   6  -5  164.22    9.75
  -3  -6   5  156.12    7.42
  -3  -6   5  146.55    8.82
  -3  -6   5  148.26    7.17
   2   6  -5   73.37    5.48
  -2  -6   5   58.98    4.37
  -2  -6   5   60.11    4.99
  -1  -6   5   45.24    4.54
  -1  -6   5   49.36    4.55
   0   6  -5  125.67    7.11
   0   6  -5  115.87    6.73
   0  -6   5  123.66    7.87
  -1   6  -5   -0.61    0.32
  -1   6  -5    0.99    0.90
   1  -6   5    0.03    0.86
  -2   6  -5    6.68    1.43
  -2   6  -5    9.78    1.68
   2  -6   5    9.26    2.24
  -3   6  -5   41.51    2.75
  -3   6  -5   44.46    3.89
   3  -6   5   50.35    4.49
   4  -6   5   39.01    4.01
   5  -6   5   83.28    6.14
   5  -6   5   77.20    7.71
   6  -6   5   24.76    3.28
   6  -6   5   19.67    4.80
   7  -6   5    4.89    2.37
   7  -6   5    2.76    1.59
   8  -6   5   13.35    3.01
   8  -6   5   17.13    5.29
  10   5  -5   18.22    4.29
  10   5  -5    4.30    2.26
   9   5  -5    5.37    1.83
   9   5  -5    7.85    2.83
   8   5  -5   -0.96    0.56
   8   5  -5   -0.69    1.16
   7   5  -5   10.55    3.01
   7   5  -5    5.74    2.00
   6   5  -5   33.86    3.80
   6   5  -5   48.11    5.18
  -6  -5   5   33.64    4.05
   5   5  -5   58.34    4.89
   5   5  -5   50.10    5.22
  -5  -5   5   54.64    4.75
   4   5  -5  118.05    9.34
   4   5  -5  127.35    8.44
  -4  -5   5  121.37   10.37
   3   5  -5   69.19    5.01
   3   5  -5   66.11    5.72
   3   5  -5   68.80    5.52
  -3  -5   5   70.41    3.82
  -3  -5   5   68.15    5.13
   2   5  -5   47.82    3.89
   2   5  -5   50.84    4.51
  -2  -5   5   47.85    4.08
  -2  -5   5   52.41    4.38
   1   5  -5   20.84    2.44
   1   5  -5   16.66    2.18
  -1  -5   5   18.02    3.00
  -1  -5   5   20.27    3.64
   0   5  -5   19.32    2.13
   0   5  -5   18.72    2.07
   0   5  -5   15.25    2.06
   0  -5   5   21.54    2.64
   0  -5   5   18.39    3.02
  -1   5  -5    6.92    1.43
  -1   5  -5   12.30    2.11
  -1   5  -5    8.42    1.54
   1  -5   5    9.74    2.19
   1  -5   5   11.06    2.31
  -2   5  -5  107.65    5.63
  -2   5  -5  101.50    6.44
  -2   5  -5  107.67    5.27
   2  -5   5  106.08    6.73
  -3   5  -5   47.81    3.11
  -3   5  -5   45.80    4.13
   3  -5   5   49.26    4.12
  -4   5  -5   30.14    1.91
   4  -5   5   31.92    3.27
   5  -5   5   92.33    6.43
   6  -5   5   22.55    2.94
   7  -5   5    0.43    1.24
   7  -5   5    1.89    1.21
   8  -5   5   -0.05    1.91
   8  -5   5   -0.83    1.30
   9  -5   5    3.48    1.87
   9  -5   5    2.09    2.83
  10   4  -5    4.90    2.99
  10   4  -5   11.44    2.81
   9   4  -5   -2.29    1.01
   9   4  -5    2.20    1.62
   8   4  -5    8.29    2.27
   8   4  -5   16.80    3.93
   7   4  -5   10.48    2.18
   7   4  -5   16.69    3.54
   6   4  -5   11.50    2.92
   6   4  -5   15.23    2.72
  -6  -4   5   11.94    2.66
   5   4  -5   38.65    3.84
   5   4  -5   40.51    3.54
   5   4  -5   46.78    4.65
  -5  -4   5   47.50    4.14
   4   4  -5  147.95    9.07
   4   4  -5  138.94    7.88
   4   4  -5  156.76    8.57
  -4  -4   5  137.37    8.15
   3   4  -5   -0.12    0.78
   3   4  -5    0.77    0.71
   3   4  -5    0.32    0.67
  -3  -4   5    0.90    0.39
  -3  -4   5    0.08    0.62
   2   4  -5    5.44    1.27
   2   4  -5    5.74    1.59
   2   4  -5    6.02    1.67
  -2  -4   5    5.52    1.46
  -2  -4   5    6.31    1.70
   1   4  -5    4.05    1.07
   1   4  -5    2.90    0.93
  -1  -4   5    5.73    1.39
  -1  -4   5    4.57    1.25
   0   4  -5   58.05    3.91
   0   4  -5   64.28    4.01
   0   4  -5   59.62    4.09
   0  -4   5   59.56    4.37
   0  -4   5   62.35    4.54
  -1   4  -5  146.57    6.90
  -1   4  -5  149.31    7.11
  -1   4  -5  135.16    7.48
   1  -4   5  152.32    8.00
   1  -4   5  145.08    8.37
  -2   4  -5  101.86    4.74
  -2   4  -5   96.72    5.97
  -2   4  -5  106.88    5.55
   2  -4   5  103.45    6.20
  -3   4  -5   60.12    3.47
   3  -4   5   54.64    4.42
   3  -4   5   55.51    4.82
  -4   4  -5   84.15    5.69
  -4   4  -5   79.16    4.08
   4  -4   5   83.00    5.52
  -5   4  -5   34.08    3.74
   5  -4   5   40.90    3.71
   6  -4   5   10.16    2.23
   7  -4   5    0.94    1.05
   8  -4   5   12.41    3.67
   8  -4   5   15.74    2.91
   9  -4   5   10.97    3.36
   9  -4   5    9.01    2.32
  10  -4   5   14.80    4.54
  11   3  -5    4.89    2.94
  10   3  -5    1.86    1.48
  10   3  -5    4.22    2.02
   9   3  -5    3.45    1.53
   9   3  -5    5.52    1.94
   8   3  -5   70.80    5.70
   8   3  -5   66.90    6.74
   7   3  -5   23.33    4.13
   7   3  -5   23.71    2.73
   7   3  -5   21.06    2.85
   6   3  -5   89.15    6.06
   6   3  -5   77.93    6.97
  -6  -3   5   62.19    7.65
   5   3  -5  143.22    7.94
   5   3  -5  136.49    7.29
  -5  -3   5  127.75    7.78
   4   3  -5   77.60    5.19
   4   3  -5   73.03    4.57
  -4  -3   5   71.42    3.38
  -4  -3   5   75.91    5.15
   3   3  -5    1.48    0.62
   3   3  -5    0.16    0.48
  -3  -3   5    1.15    0.44
  -3  -3   5   -0.57    0.58
   2   3  -5   28.55    2.39
   2   3  -5   24.54    2.64
  -2  -3   5   25.57    2.49
  -2  -3   5   25.93    2.48
  -2  -3   5   25.34    2.00
   1   3  -5   -0.33    0.34
   1   3  -5    0.35    0.57
   1   3  -5    0.61    0.43
   1   3  -5    0.77    0.40
  -1  -3   5    1.67    0.72
  -1  -3   5    0.19    0.40
   0   3  -5  207.16    9.57
   0   3  -5  221.40    9.71
   0   3  -5  210.60    9.78
   0  -3   5  217.82   10.11
   0  -3   5  215.95   10.37
  -1   3  -5  364.62   15.24
  -1   3  -5  368.27   15.74
  -1   3  -5  363.82   14.85
   1  -3   5  389.29   16.05
   1  -3   5  375.51   16.48
  -2   3  -5  108.90    4.74
  -2   3  -5  120.72    5.71
  -2   3  -5  109.01    6.22
   2  -3   5  112.31    6.84
   2  -3   5  118.71    6.37
  -3   3  -5   76.96    5.02
  -3   3  -5   78.92    4.16
   3  -3   5   80.78    5.00
   3  -3   5   66.06    5.27
  -4   3  -5   46.44    3.88
  -4   3  -5   43.57    2.85
   4  -3   5   50.46    3.83
   4  -3   5   49.54    2.89
  -5   3  -5    5.85    1.83
   5  -3   5    6.45    1.09
   5  -3   5    9.10    1.85
   6  -3   5    4.41    1.43
   6  -3   5    4.45    0.82
   7  -3   5   29.53    3.27
   7  -3   5   30.32    1.94
   8  -3   5    4.50    2.28
   8  -3   5   10.59    2.37
   9  -3   5   12.69    3.53
   9  -3   5   24.40    3.06
  10  -3   5   13.20    2.91
  10  -3   5   22.84    5.59
  11   2  -5    6.49    2.54
  11   2  -5    2.24    1.85
  11   2  -5    1.14    1.41
  10   2  -5    4.83    2.11
  10   2  -5    8.04    2.47
   9   2  -5    6.48    2.30
   9   2  -5   10.21    2.68
   9   2  -5    5.47    0.92
   9   2  -5    3.96    1.68
   8   2  -5   36.66    3.88
   8   2  -5   32.24    2.25
   7   2  -5   50.65    3.84
   7   2  -5   51.42    4.50
   7   2  -5   51.68    3.00
   6   2  -5    6.96    1.08
   6   2  -5    7.87    1.57
   6   2  -5    7.18    2.39
   5   2  -5   62.23    3.33
   5   2  -5   64.62    4.04
   5   2  -5   65.55    4.67
  -5  -2   5   57.79    4.55
   4   2  -5   41.70    3.46
   4   2  -5   41.33    2.94
  -4  -2   5   41.16    3.48
  -4  -2   5   42.33    2.55
   3   2  -5    2.71    0.79
   3   2  -5    1.97    0.88
  -3  -2   5    0.74    0.54
  -3  -2   5    2.21    0.60
   2   2  -5  165.15    7.63
   2   2  -5  168.92    8.39
  -2  -2   5  167.13    8.23
  -2  -2   5  169.62    7.41
  -2  -2   5  153.83    7.72
   1   2  -5   68.02    4.10
   1   2  -5   69.10    3.93
   1   2  -5   68.33    4.53
  -1  -2   5   68.70    4.31
  -1  -2   5   73.43    4.19
   0   2  -5  457.61   19.80
   0   2  -5  466.65   18.98
   0   2  -5  484.95   19.06
   0  -2   5  475.04   19.53
   0  -2   5  486.18   19.23
  -1   2  -5  296.79   11.88
  -1   2  -5  284.98   12.18
  -1   2  -5  256.77   11.17
   1  -2   5  271.12   11.83
   1  -2   5  293.98   12.71
   1  -2   5  286.40   12.22
  -2   2  -5   24.31    1.97
  -2   2  -5   25.44    1.12
  -2   2  -5   24.31    2.29
   2  -2   5   24.64    2.26
   2  -2   5   25.89    2.57
   2  -2   5   24.05    1.95
  -3   2  -5  100.03    4.90
  -3   2  -5   96.34    5.56
   3  -2   5   95.86    4.77
   3  -2   5   90.90    5.37
   3  -2   5   83.23    5.71
  -4   2  -5    3.54    0.94
  -4   2  -5    3.33    1.11
   4  -2   5    3.38    0.74
   4  -2   5    2.58    0.90
   5  -2   5   19.72    1.74
   5  -2   5   23.23    2.43
   6  -2   5   48.77    3.13
   6  -2   5   47.25    3.99
   7  -2   5   95.86    5.07
   7  -2   5   91.86    6.24
   8  -2   5   15.99    1.85
   8  -2   5   23.32    2.77
   9  -2   5   15.63    3.79
   9  -2   5   13.69    2.75
   9  -2   5   16.95    1.80
  10  -2   5    0.15    1.39
  10  -2   5    5.58    2.46
  10  -2   5    3.06    0.95
  11  -2   5    0.05    1.92
  11   1  -5   13.03    3.25
  11   1  -5   12.90    3.29
  10   1  -5    8.56    1.60
  10   1  -5   12.58    3.36
  10   1  -5   11.54    2.64
  10   1  -5   15.34    2.05
   9   1  -5   43.60    3.42
   9   1  -5   47.47    4.91
   9   1  -5   56.61    3.88
   8   1  -5   25.16    4.05
   8   1  -5   19.43    2.19
   8   1  -5   20.09    2.20
   7   1  -5   26.31    3.07
   7   1  -5   22.29    2.22
   7   1  -5   23.35    2.29
   6   1  -5    7.55    1.44
   6   1  -5    7.17    1.77
   6   1  -5    8.71    1.54
   5   1  -5    8.61    1.17
   5   1  -5    9.26    1.21
   5   1  -5    7.60    1.80
  -5  -1   5    9.14    2.14
   4   1  -5   36.88    2.53
   4   1  -5   33.79    2.37
   4   1  -5   34.27    3.04
  -4  -1   5   33.70    2.50
  -4  -1   5   37.72    3.23
   3   1  -5  190.67    9.27
   3   1  -5  186.49    8.40
   3   1  -5  202.04    8.44
  -3  -1   5  199.63    9.48
  -3  -1   5  191.93    8.49
   2   1  -5  197.82    9.21
   2   1  -5  209.53    8.69
   2   1  -5  196.59    8.80
   2   1  -5  211.79    9.57
  -2  -1   5  213.00    8.83
  -2  -1   5  198.87    9.46
  -2  -1   5  193.57    8.74
   1   1  -5  251.06   11.51
   1   1  -5  254.87   10.29
   1   1  -5  256.50   11.06
  -1  -1   5  249.57   10.38
  -1  -1   5  243.21   10.47
  -1  -1   5  216.44   11.53
   0   1  -5   71.32    3.97
   0   1  -5   70.65    3.90
   0   1  -5   75.19    4.42
   0  -1   5   75.18    3.99
   0  -1   5   73.82    4.09
   0  -1   5   68.33    4.14
  -1   1  -5   42.55    2.67
  -1   1  -5   40.10    2.84
  -1   1  -5   37.92    2.98
   1  -1   5   37.41    3.42
   1  -1   5   42.80    2.79
   1  -1   5   37.76    2.58
  -2   1  -5    1.18    0.52
  -2   1  -5    0.81    0.51
   2  -1   5    1.10    0.55
   2  -1   5    1.81    0.58
   2  -1   5    0.65    0.47
  -3   1  -5    2.68    0.77
  -3   1  -5    2.50    0.82
   3  -1   5    2.14    0.67
   3  -1   5    1.96    0.72
   3  -1   5    1.75    0.80
   4  -1   5  122.56    6.74
   4  -1   5  127.26    6.10
   5  -1   5   76.77    4.27
   5  -1   5   63.53    4.63
   6  -1   5   32.90    1.88
   6  -1   5   34.84    2.75
   6  -1   5   29.88    3.06
   7  -1   5   50.79    4.35
   7  -1   5   55.84    3.85
   7  -1   5   51.14    2.89
   8  -1   5   30.62    2.76
   8  -1   5   28.25    2.06
   8  -1   5   26.12    3.24
   9  -1   5    0.77    1.36
   9  -1   5    0.73    0.94
   9  -1   5    1.81    0.62
   9  -1   5    3.21    1.22
  10  -1   5    0.45    1.40
  10  -1   5   -0.10    0.93
  10  -1   5    0.26    0.54
  10  -1   5    1.01    1.41
  11  -1   5   -1.21    1.36
  11  -1   5   -0.55    1.82
  11  -1   5   -1.39    1.49
  11  -1   5   -0.43    1.73
  11   0  -5    6.78    2.18
  11   0  -5    5.32    2.11
  11   0  -5    9.32    2.87
  10   0  -5    8.64    1.98
  10   0  -5   11.91    2.87
   9   0  -5   16.96    2.38
   9   0  -5   19.36    1.77
   9   0  -5   22.25    3.76
   9   0  -5   15.50    2.33
   8   0  -5    4.06    1.11
   8   0  -5    5.71    1.91
   8   0  -5    5.77    2.07
   8   0  -5    2.90    0.84
   7   0  -5    8.44    1.85
   7   0  -5    7.35    1.66
   7   0  -5    7.60    1.98
   6   0  -5    0.11    0.41
   6   0  -5    1.74    0.70
   6   0  -5    1.28    0.70
   5   0  -5  149.09    8.18
   5   0  -5  141.60    7.35
   5   0  -5  150.60    6.50
   4   0  -5   30.97    2.67
   4   0  -5   40.81    2.80
   4   0  -5   34.28    2.06
   4   0  -5   33.07    2.98
  -4   0   5   32.30    3.18
  -4   0   5   36.02    3.22
   3   0  -5  223.56    8.92
   3   0  -5  219.69    9.65
   3   0  -5  228.05   10.31
   3   0  -5  214.27    9.87
  -3   0   5  223.61    9.83
  -3   0   5  211.76   10.37
   2   0  -5  210.98   10.61
   2   0  -5  224.05   10.09
   2   0  -5  231.76    9.07
   2   0  -5  230.48    9.70
  -2   0   5  224.63    9.70
  -2   0   5  221.08   10.19
  -2   0   5  222.28    9.11
   1   0  -5   40.07    2.76
   1   0  -5   40.03    2.60
   1   0  -5   38.91    2.25
   1   0  -5   35.47    2.54
  -1   0   5   36.89    2.60
  -1   0   5   36.42    2.52
  -1   0   5   36.92    2.22
  -1   0   5   39.03    2.74
   0   0  -5   18.43    1.73
   0   0  -5   18.65    1.55
   0   0  -5   17.76    1.59
   0   0   5   20.59    1.72
   0   0   5   19.42    1.56
   0   0   5   19.15    1.75
   0   0   5   20.68    1.75
  -1   0  -5   26.82    2.02
  -1   0  -5   27.85    2.19
  -1   0  -5   26.98    2.07
  -1   0  -5   27.45    1.67
   1   0   5   27.41    2.06
   1   0   5   29.54    2.09
   1   0   5   26.66    2.03
  -2   0  -5    4.69    1.04
  -2   0  -5    6.00    1.09
  -2   0  -5    4.39    0.55
   2   0   5    6.43    1.16
   2   0   5    5.55    0.57
   2   0   5    6.62    1.09
   2   0   5    5.36    1.11
  -3   0  -5  209.37    8.48
  -3   0  -5  184.97    9.53
   3   0   5  208.89    8.33
   3   0   5  230.14    9.87
   3   0   5  216.23    9.59
   3   0   5  223.35    9.42
  -4   0  -5   76.68    4.87
   4   0   5   90.27    4.06
   4   0   5   96.58    5.05
   4   0   5   91.74    5.34
   5   0   5  119.89    5.39
   5   0   5  111.14    6.54
   5   0   5  111.31    6.14
   6   0   5   63.20    4.92
   6   0   5   67.04    3.80
   6   0   5   66.58    4.45
   7   0   5   61.61    4.88
   7   0   5   64.60    4.00
   7   0   5   61.95    4.52
   8   0   5   15.89    2.85
   8   0   5   14.07    1.77
   8   0   5   13.55    2.36
   9   0   5    5.53    1.38
   9   0   5    7.39    1.76
   9   0   5    5.47    1.78
  10   0   5    1.59    1.13
  10   0   5   -0.52    1.00
  10   0   5    0.62    0.93
  10   0   5    1.03    1.24
  10   0   5    0.79    1.03
  11   0   5   -0.94    1.45
  11   0   5    1.85    1.47
  11   0   5   -0.97    1.32
  11   0   5    1.73    1.50
  11  -1  -5    5.65    1.97
  11  -1  -5   10.65    2.89
  11  -1  -5   10.38    3.03
  11  -1  -5    4.49    2.13
  10  -1  -5    1.21    1.60
  10  -1  -5    3.45    1.50
   9  -1  -5   -0.09    1.02
   9  -1  -5   -0.97    1.04
   8  -1  -5   -0.10    0.78
   8  -1  -5    1.58    1.06
   8  -1  -5    2.03    0.41
   8  -1  -5    0.50    1.37
   8  -1  -5    1.77    0.52
   7  -1  -5   32.18    1.76
   7  -1  -5   31.28    1.80
   7  -1  -5   30.62    3.59
   7  -1  -5   37.23    3.64
   7  -1  -5   31.53    3.01
   6  -1  -5   11.49    0.93
   6  -1  -5    9.86    2.13
   6  -1  -5   11.16    2.41
   6  -1  -5   12.57    0.91
   6  -1  -5   15.15    1.88
   5  -1  -5   76.43    4.65
   5  -1  -5   79.95    5.13
   5  -1  -5   76.47    3.30
   5  -1  -5   78.97    5.52
   4  -1  -5  149.05    7.28
   4  -1  -5  156.34    5.87
   4  -1  -5  150.72    8.12
   4  -1  -5  159.83    7.82
  -4   1   5  133.10    7.66
   3  -1  -5  100.95    3.99
   3  -1  -5  103.03    5.78
   3  -1  -5   91.23    5.68
   3  -1  -5  101.67    5.45
  -3   1   5   94.45    5.49
   2  -1  -5  285.29   12.80
   2  -1  -5  312.94   12.73
   2  -1  -5  291.95   11.40
   2  -1  -5  300.34   12.38
  -2   1   5  301.11   11.38
  -2   1   5  293.80   12.72
  -2   1   5  301.96   13.06
   1  -1  -5    1.60    0.43
   1  -1  -5    3.24    0.84
   1  -1  -5    3.28    0.78
   1  -1  -5    2.52    0.71
  -1   1   5    3.26    0.83
  -1   1   5    2.36    0.50
  -1   1   5    2.74    0.79
  -1   1   5    3.42    0.98
   0  -1  -5    4.86    0.92
   0  -1  -5    4.03    0.95
   0  -1  -5    5.88    1.03
   0  -1  -5    4.40    0.90
   0   1   5    3.82    0.87
   0   1   5    3.75    0.98
   0   1   5    3.63    0.71
   0   1   5    5.12    1.00
  -1  -1  -5    0.03    0.26
  -1  -1  -5   -0.32    0.20
  -1  -1  -5   -0.06    0.25
   1   1   5   -0.01    0.21
   1   1   5   -0.10    0.37
   1   1   5    0.25    0.25
   1   1   5    0.44    0.33
   1   1   5    0.03    0.24
  -2  -1  -5  180.75    7.51
  -2  -1  -5  166.92    8.01
  -2  -1  -5  166.96    7.58
   2   1   5  184.39    7.54
   2   1   5  186.22    8.10
   2   1   5  164.02    8.10
   2   1   5  177.60    7.41
  -3  -1  -5   96.22    5.77
  -3  -1  -5  114.07    5.35
   3   1   5  113.19    5.31
   3   1   5  116.86    5.22
   3   1   5  120.05    5.97
   4   1   5   42.64    2.63
   4   1   5   36.34    2.96
   4   1   5   39.53    2.66
   4   1   5   33.89    2.95
   5   1   5   50.69    3.97
   5   1   5   56.40    3.47
   5   1   5   52.98    3.95
   6   1   5    7.55    1.78
   6   1   5   10.29    2.09
   6   1   5    8.10    1.52
   7   1   5    1.76    1.07
   7   1   5    4.06    1.25
   7   1   5    3.22    1.49
   8   1   5   12.86    2.65
   8   1   5   15.00    2.53
   8   1   5   18.26    3.09
   9   1   5   17.05    2.77
   9   1   5   18.95    3.34
   9   1   5   20.95    2.73
   9   1   5   20.05    3.52
  10   1   5    3.24    1.81
  10   1   5    2.23    1.35
  10   1   5    1.31    1.06
  10   1   5    2.71    1.40
  10   1   5    2.44    1.46
  11   1   5   19.47    4.17
  11   1   5   19.62    3.05
  11   1   5   23.80    4.08
  11   1   5   21.62    3.98
  11  -2  -5    0.03    1.63
  11  -2  -5    2.28    2.52
  10  -2  -5    2.89    1.75
  10  -2  -5   -1.42    1.03
  10  -2  -5   -0.59    1.32
   9  -2  -5   23.44    4.36
   9  -2  -5   10.55    2.35
   9  -2  -5   14.45    2.80
   8  -2  -5   15.12    3.48
   8  -2  -5   17.03    2.65
   8  -2  -5   18.47    3.59
   7  -2  -5   41.27    3.27
   7  -2  -5   34.18    3.85
   7  -2  -5   38.68    4.24
   6  -2  -5  107.10    7.33
   6  -2  -5  102.54    5.71
   6  -2  -5  103.43    6.92
   5  -2  -5   32.66    2.55
   5  -2  -5   31.01    3.36
   5  -2  -5   34.52    3.35
   4  -2  -5   50.57    3.98
   4  -2  -5   55.99    4.36
  -4   2   5   51.33    4.13
   3  -2  -5    1.24    0.69
   3  -2  -5    2.91    0.76
   3  -2  -5    0.90    0.63
  -3   2   5    3.44    1.05
   2  -2  -5    0.04    0.26
   2  -2  -5    0.06    0.32
   2  -2  -5    0.89    0.50
   2  -2  -5    0.45    0.33
  -2   2   5    0.10    0.27
  -2   2   5    0.10    0.39
  -2   2   5    0.29    0.10
   1  -2  -5  112.23    5.26
   1  -2  -5  108.92    6.18
   1  -2  -5  104.18    5.55
   1  -2  -5  117.04    5.78
  -1   2   5  106.94    5.22
  -1   2   5  111.43    6.27
  -1   2   5  100.97    4.60
   0  -2  -5   97.38    5.00
   0  -2  -5  106.76    5.34
   0  -2  -5   99.09    5.01
   0  -2  -5  101.15    4.97
   0   2   5   94.61    4.93
   0   2   5  104.24    5.31
   0   2   5  105.82    5.04
  -1  -2  -5   19.19    1.45
  -1  -2  -5   17.89    1.79
  -1  -2  -5   17.75    1.72
  -1  -2  -5   20.49    1.68
   1   2   5   19.60    1.78
   1   2   5   21.69    1.89
   1   2   5   19.27    1.46
   1   2   5   20.68    1.69
  -2  -2  -5  961.62   35.49
  -2  -2  -5  934.94   36.22
  -2  -2  -5  882.75   36.59
   2   2   5  973.76   35.43
   2   2   5  984.84   36.18
   2   2   5  970.21   36.66
   2   2   5  957.48   36.57
  -3  -2  -5  239.58   10.47
  -3  -2  -5  218.73   10.85
   3   2   5  245.91   10.36
   3   2   5  245.01   10.99
   3   2   5  240.03    9.38
  -4  -2  -5  110.46    6.05
   4   2   5  120.43    6.07
   4   2   5  117.07    5.11
   4   2   5  116.73    6.66
   5   2   5   48.63    4.03
   5   2   5   51.16    2.94
   5   2   5   52.20    3.65
   6   2   5    0.96    0.77
   7   2   5   19.51    2.35
   7   2   5   17.41    1.85
   7   2   5   15.84    2.86
   7   2   5   16.66    3.10
   8   2   5   21.74    2.22
   8   2   5   20.20    3.46
   8   2   5   20.01    2.64
   8   2   5   21.76    3.57
   9   2   5   19.30    3.13
   9   2   5   19.12    3.43
   9   2   5   22.78    2.46
   9   2   5   19.62    3.64
  10   2   5    8.35    2.17
  10   2   5    9.09    2.20
  10   2   5   10.16    1.77
  10   2   5   11.64    2.66
  10   2   5    8.99    2.48
  11   2   5   11.94    2.67
  11   2   5   11.00    2.58
  11   2   5   17.74    3.60
  11   2   5   10.74    2.41
  10  -3  -5    2.14    1.62
  10  -3  -5    2.06    1.41
  10  -3  -5    0.08    0.96
   9  -3  -5   17.67    2.09
   9  -3  -5   17.43    2.31
   9  -3  -5   17.78    3.83
   9  -3  -5   17.60    3.94
   8  -3  -5   28.53    2.50
   8  -3  -5   34.38    4.30
   8  -3  -5   31.33    4.04
   7  -3  -5   72.87    4.32
   7  -3  -5   80.29    6.55
   7  -3  -5   70.91    6.31
   6  -3  -5  112.52    7.86
   6  -3  -5  121.11    7.93
   6  -3  -5  108.65    6.87
   6  -3  -5  100.50    5.45
   5  -3  -5   27.76    3.29
   5  -3  -5   27.33    2.85
   5  -3  -5   27.16    3.28
   5  -3  -5   25.97    2.05
   4  -3  -5    1.30    0.53
   4  -3  -5    1.27    0.78
   4  -3  -5    2.24    1.07
   4  -3  -5    1.61    0.78
  -4   3   5    1.47    0.98
   3  -3  -5    7.69    1.52
   3  -3  -5   10.30    1.07
   3  -3  -5    7.12    1.70
   3  -3  -5    9.17    1.89
  -3   3   5    9.27    1.98
   2  -3  -5   29.70    2.47
   2  -3  -5   32.28    2.16
   2  -3  -5   27.16    2.67
   2  -3  -5   34.08    2.93
  -2   3   5   29.76    2.16
  -2   3   5   30.67    2.87
  -2   3   5   31.87    1.59
   1  -3  -5  195.18    9.22
   1  -3  -5  191.15    8.43
   1  -3  -5  201.38    8.92
   1  -3  -5  177.19    8.93
  -1   3   5  186.47    9.26
  -1   3   5  201.18    8.42
  -1   3   5  196.79    8.97
   0  -3  -5  298.68   12.70
   0  -3  -5  295.79   12.52
   0  -3  -5  312.97   12.99
   0  -3  -5  275.35   12.46
   0   3   5  304.44   12.49
   0   3   5  302.57   13.00
   0   3   5  305.80   12.75
  -1  -3  -5    0.80    0.50
  -1  -3  -5    0.57    0.28
  -1  -3  -5    0.46    0.46
  -1  -3  -5    0.37    0.44
   1   3   5    0.40    0.40
   1   3   5    0.53    0.39
   1   3   5    0.61    0.42
  -2  -3  -5  200.16    9.29
  -2  -3  -5  202.86    8.03
  -2  -3  -5  206.90    9.41
  -2  -3  -5  177.49    9.35
   2   3   5  211.59    9.31
   2   3   5  220.86    9.32
  -3  -3  -5    4.29    1.13
   3   3   5    3.36    1.06
   3   3   5    4.09    0.91
   3   3   5    2.47    0.82
  -4  -3  -5   24.34    2.47
   4   3   5   24.43    2.26
   4   3   5   32.53    2.74
   4   3   5   28.76    2.93
   5   3   5    6.09    1.72
   5   3   5    5.38    1.36
   5   3   5    4.60    1.20
   6   3   5    3.72    1.23
   6   3   5    3.16    0.51
   6   3   5    4.62    1.66
   6   3   5    3.36    1.06
   7   3   5   44.97    4.12
   7   3   5   49.38    2.61
   7   3   5   59.50    5.12
   7   3   5   43.21    3.71
   7   3   5   48.43    2.63
   8   3   5   28.64    1.99
   8   3   5   24.19    3.15
   8   3   5   28.26    3.69
   8   3   5   27.11    1.98
   8   3   5   29.41    3.15
   9   3   5   10.24    1.40
   9   3   5    9.47    2.45
   9   3   5   14.90    3.20
   9   3   5   10.40    1.26
   9   3   5   10.35    2.59
  10   3   5   23.67    2.13
  10   3   5   26.64    3.56
  10   3   5   24.08    1.84
  10   3   5   25.53    3.51
  10   3   5   29.72    4.83
  10   3   5   28.96    4.52
  11   3   5    0.21    1.44
  11   3   5    3.96    1.82
  11   3   5    0.51    1.74
  11   3   5    2.04    1.50
  10  -4  -5   14.65    4.05
  10  -4  -5   19.43    4.21
   9  -4  -5   19.80    4.71
   9  -4  -5   13.94    3.80
   8  -4  -5   23.29    4.50
   8  -4  -5   34.36    4.43
   7  -4  -5   29.11    4.88
   7  -4  -5   26.43    1.74
   7  -4  -5   25.66    4.60
   6  -4  -5   11.86    2.99
   6  -4  -5    8.61    2.42
   6  -4  -5   10.09    1.07
   6  -4  -5   13.91    2.37
   5  -4  -5   -0.16    0.58
   5  -4  -5   -0.69    0.27
   5  -4  -5    0.29    0.73
   5  -4  -5   -0.93    0.77
   4  -4  -5    3.10    1.24
   4  -4  -5    5.36    0.87
   4  -4  -5    3.93    1.24
  -4   4   5    3.59    1.45
   3  -4  -5   60.02    4.17
   3  -4  -5   59.59    3.34
   3  -4  -5   66.09    4.98
  -3   4   5   64.27    2.77
  -3   4   5   61.42    4.93
   2  -4  -5   49.39    3.93
   2  -4  -5   44.18    3.31
   2  -4  -5   44.18    2.78
  -2   4   5   46.33    2.46
  -2   4   5   42.29    3.82
  -2   4   5   46.04    2.81
   1  -4  -5  225.29   10.36
   1  -4  -5  245.60   11.00
   1  -4  -5  237.11   11.39
  -1   4   5  263.34   10.40
  -1   4   5  233.98   11.55
  -1   4   5  244.56   11.05
   0  -4  -5  111.71    6.09
   0  -4  -5   97.52    6.19
   0  -4  -5  120.16    6.34
   0   4   5  120.74    5.85
   0   4   5  114.15    6.38
   0   4   5  116.33    6.12
  -1  -4  -5   57.80    4.01
  -1  -4  -5   66.64    4.08
  -1  -4  -5   58.83    3.45
  -1  -4  -5   60.39    4.04
   1   4   5   67.92    4.14
   1   4   5   61.76    4.01
   1   4   5   64.58    4.10
  -2  -4  -5   10.82    1.89
  -2  -4  -5   11.56    1.85
  -2  -4  -5    8.27    0.81
   2   4   5   11.77    1.91
   2   4   5    9.32    1.87
   2   4   5    7.64    1.53
  -3  -4  -5    8.76    1.78
  -3  -4  -5   10.51    1.45
   3   4   5    9.74    1.84
   3   4   5   15.40    3.39
   3   4   5   11.86    2.25
  -4  -4  -5   63.97    4.78
   4   4   5   69.78    4.77
   4   4   5   67.53    5.13
   4   4   5   70.54    5.96
  -5  -4  -5   21.36    2.70
   5   4   5   24.49    3.09
   5   4   5   27.54    2.91
   5   4   5   22.88    2.14
   6   4   5   32.89    3.46
   6   4   5   33.96    3.92
   6   4   5   39.35    2.92
   7   4   5   32.00    4.01
   7   4   5   32.92    2.89
   7   4   5   27.36    3.36
   8   4   5   10.03    2.45
   8   4   5   11.70    1.94
   8   4   5   13.46    3.33
   9   4   5   -0.64    1.18
   9   4   5    0.08    1.32
   9   4   5    1.79    1.33
  10   4   5    1.64    1.45
  10   4   5    1.32    1.70
  10   4   5    2.58    1.49
  11   4   5    1.93    1.67
  11   4   5    0.55    1.72
  11   4   5    1.82    1.63
  10  -5  -5   18.37    4.19
  10  -5  -5   36.70    7.08
   9  -5  -5    8.61    3.09
   9  -5  -5   22.01    5.17
   8  -5  -5   -1.36    1.86
   8  -5  -5    5.24    2.13
   7  -5  -5    2.29    1.29
   7  -5  -5    1.10    1.19
   6  -5  -5   12.61    3.11
   6  -5  -5   21.07    4.22
   5  -5  -5   25.07    2.87
   5  -5  -5   24.89    4.43
   4  -5  -5   46.47    3.72
   4  -5  -5   49.35    4.77
  -4   5   5   39.85    2.08
   3  -5  -5  199.95    9.79
   3  -5  -5  198.71   10.96
   3  -5  -5  182.77    8.29
  -3   5   5  183.79   10.87
  -3   5   5  200.74    8.24
  -3   5   5  206.05    8.37
   2  -5  -5   62.03    4.42
   2  -5  -5   66.35    5.07
  -2   5   5   73.48    3.78
  -2   5   5   69.83    3.66
  -2   5   5   65.43    5.20
  -2   5   5   62.40    4.53
   1  -5  -5   34.73    2.98
   1  -5  -5   37.68    3.43
  -1   5   5   33.52    2.46
  -1   5   5   32.49    2.45
  -1   5   5   33.28    3.37
  -1   5   5   36.63    3.08
   0  -5  -5   13.31    2.25
   0  -5  -5   16.02    2.06
   0   5   5   16.96    2.12
   0   5   5   18.37    1.86
   0   5   5   14.32    1.85
  -1  -5  -5   22.49    2.25
  -1  -5  -5   17.78    2.13
   1   5   5   18.66    2.17
   1   5   5   20.52    2.21
   1   5   5   19.06    2.12
  -2  -5  -5    0.72    0.51
  -2  -5  -5    0.15    0.20
   2   5   5   -0.06    0.49
   2   5   5    0.48    0.55
   2   5   5    0.70    0.57
  -3  -5  -5   18.31    2.31
  -3  -5  -5   15.68    1.89
   3   5   5   19.96    2.38
   3   5   5   19.13    2.43
   3   5   5   15.51    1.79
  -4  -5  -5   28.55    6.14
   4   5   5   33.30    3.50
   4   5   5   31.58    2.70
   4   5   5   30.85    3.23
  -5  -5  -5   43.21    4.10
   5   5   5   48.77    4.64
   5   5   5   47.01    4.20
   6   5   5   54.98    5.27
   6   5   5   62.47    5.16
   7   5   5   38.67    4.13
   7   5   5   39.33    4.58
   8   5   5   13.35    3.37
   8   5   5   12.94    2.80
   9   5   5    1.93    0.71
   9   5   5    3.42    1.78
   9   5   5    2.44    1.01
  10   5   5    1.36    1.78
  10   5   5    3.85    1.70
  11   5   5   -1.35    1.44
  11   5   5   -2.38    1.61
  11   5   5    0.07    1.64
   9  -6  -5   10.18    3.18
   9  -6  -5   10.91    3.91
   8  -6  -5    2.03    1.84
   8  -6  -5    1.34    2.12
   7  -6  -5    8.03    3.61
   7  -6  -5    6.05    2.62
   6  -6  -5    8.86    2.69
   5  -6  -5   76.52    6.85
   4  -6  -5   48.64    5.11
   4  -6  -5   46.29    3.96
  -4   6   5   49.68    2.86
   3  -6  -5   79.54    5.53
   3  -6  -5   89.13    6.79
  -3   6   5   87.86    4.18
   2  -6  -5   41.36    4.22
   2  -6  -5   41.60    3.68
  -2   6   5   39.68    4.39
  -2   6   5   41.37    4.23
  -2   6   5   44.41    2.83
  -2   6   5   51.29    3.17
   1  -6  -5    1.55    1.45
   1  -6  -5    0.62    0.86
  -1   6   5    0.65    0.96
  -1   6   5    1.19    0.55
  -1   6   5    0.95    0.69
  -1   6   5   -0.48    0.60
   0  -6  -5   39.29    3.64
   0  -6  -5   44.62    3.79
   0   6   5   39.29    3.14
   0   6   5   38.01    3.69
   0   6   5   38.89    3.10
   0   6   5   42.26    3.59
  -1  -6  -5   33.35    3.38
  -1  -6  -5   41.92    3.46
   1   6   5   41.09    4.31
   1   6   5   34.55    3.28
   1   6   5   39.15    3.33
  -2  -6  -5   49.67    3.66
  -2  -6  -5   41.55    3.97
   2   6   5   42.52    3.56
   2   6   5   47.75    4.03
   2   6   5   51.76    4.09
  -3  -6  -5   46.94    3.54
  -3  -6  -5   45.06    2.46
  -3  -6  -5   37.78    3.88
  -3  -6  -5   46.86    2.55
   3   6   5   48.47    4.13
   3   6   5   44.33    4.11
   3   6   5   40.31    3.29
   4   6   5   61.37    4.97
   4   6   5   55.20    5.02
   4   6   5   60.14    3.94
   5   6   5   23.48    3.01
   5   6   5   14.75    3.18
   6   6   5   40.94    4.66
   6   6   5   43.60    4.39
   6   6   5   34.61    2.59
   7   6   5    1.98    0.65
   7   6   5   -0.65    0.72
   7   6   5    0.94    1.01
   8   6   5    0.07    0.75
   8   6   5    0.28    1.15
   9   6   5    1.75    1.32
  10   6   5   -2.17    1.53
  10   6   5    1.20    2.04
   9  -7  -5    3.56    2.39
   9  -7  -5    1.06    3.73
   8  -7  -5   17.13    4.95
   8  -7  -5   16.70    4.51
   7  -7  -5    8.30    3.22
   7  -7  -5   11.39    3.63
   6  -7  -5   42.97    8.10
   5  -7  -5  109.60    8.93
   4  -7  -5   23.34    4.26
  -4   7   5   17.54    1.97
   3  -7  -5   17.65    4.74
   3  -7  -5   17.17    3.61
  -3   7   5   20.47    1.45
  -3   7   5   18.37    2.05
   2  -7  -5    1.29    0.99
   2  -7  -5    0.97    1.10
  -2   7   5    1.80    0.69
  -2   7   5    0.55    0.86
  -2   7   5   -0.05    0.76
   1  -7  -5   23.10    2.99
   1  -7  -5   19.73    3.17
  -1   7   5   24.35    2.24
  -1   7   5   19.87    2.22
  -1   7   5   23.98    2.79
  -1   7   5   24.16    3.12
   0  -7  -5   21.91    2.83
   0  -7  -5   18.42    2.57
   0   7   5   22.25    2.36
   0   7   5   20.80    2.40
   0   7   5   21.36    2.96
   0   7   5   19.55    2.56
  -1  -7  -5   76.43    5.98
  -1  -7  -5   94.50    6.00
   1   7   5   88.38    5.70
   1   7   5   88.00    5.75
   1   7   5   93.87    6.20
   1   7   5   82.27    5.95
  -2  -7  -5   85.84    5.43
   2   7   5   73.09    5.36
   2   7   5   87.17    6.04
   2   7   5   80.34    5.86
  -3  -7  -5   30.52    2.88
  -3  -7  -5   25.94    2.14
   3   7   5   31.40    3.45
   3   7   5   23.91    3.03
   3   7   5   24.33    2.62
  -4  -7  -5   38.10    3.33
   4   7   5   38.30    3.13
   4   7   5   43.98    4.46
   4   7   5   44.26    4.34
   5   7   5   10.03    2.37
   5   7   5    6.58    2.11
   6   7   5    0.65    0.48
   6   7   5   -0.13    0.79
   6   7   5    0.37    0.66
   7   7   5    2.06    1.39
   7   7   5    2.51    1.40
   8   7   5   14.25    3.58
   9   7   5    1.08    1.70
   9   7   5    1.41    1.72
  10   7   5   18.51    4.11
   8  -8  -5   37.10    6.95
   8  -8  -5   31.84    6.37
   7  -8  -5   25.80    5.75
   7  -8  -5   19.73    4.61
   6  -8  -5   27.40    5.23
   4  -8  -5    2.68    1.40
  -4   8   5    5.61    1.59
   3  -8  -5    2.14    1.32
  -3   8   5    4.50    1.43
   2  -8  -5    2.59    1.38
  -2   8   5    3.12    1.44
  -2   8   5    2.10    0.79
  -2   8   5    3.15    1.49
   1  -8  -5   24.43    3.35
  -1   8   5   22.06    2.70
  -1   8   5   24.98    2.40
  -1   8   5   22.21    2.91
   0  -8  -5   70.09    5.60
   0   8   5   64.23    4.65
   0   8   5   58.41    4.68
   0   8   5   60.08    5.03
  -1  -8  -5   85.87    6.03
   1   8   5   78.70    5.70
   1   8   5   85.07    6.23
  -2  -8  -5   30.75    3.22
   2   8   5   27.50    3.25
   2   8   5   33.81    3.70
   2   8   5   29.74    3.37
  -3  -8  -5   26.69    2.51
  -3  -8  -5   29.43    3.02
   3   8   5   32.67    3.76
   3   8   5   21.57    2.74
   3   8   5   28.61    3.55
  -4  -8  -5    1.48    1.08
  -4  -8  -5    1.28    0.52
  -4  -8  -5    0.87    0.37
   4   8   5   -0.16    0.45
   4   8   5    1.49    0.95
   5   8   5    2.59    1.58
   5   8   5    1.38    1.18
   6   8   5   12.82    3.11
   6   8   5   11.98    2.88
   7   8   5    0.76    1.68
   7   8   5    1.53    1.39
   8   8   5    7.41    2.51
   8   8   5    8.96    2.88
   9   8   5   13.03    3.46
   9   8   5    4.28    2.26
   7  -9  -5    9.42    3.46
   7  -9  -5    8.16    3.54
   6  -9  -5    2.11    1.99
   5  -9  -5    6.08    2.31
   4  -9  -5   -1.73    0.97
   3  -9  -5   34.93    4.80
  -3   9   5   30.96    3.76
   2  -9  -5   29.09    5.19
  -2   9   5   26.85    2.27
  -2   9   5   24.48    3.30
   1  -9  -5   40.29    4.66
  -1   9   5   37.62    4.10
  -1   9   5   44.80    3.42
   0  -9  -5   44.89    4.68
   0   9   5   41.49    3.68
   0   9   5   37.77    4.05
  -1  -9  -5   22.02    2.99
   1   9   5   17.18    2.96
   1   9   5   18.53    3.44
  -2  -9  -5   11.90    2.43
  -2  -9  -5   12.71    2.72
   2   9   5    8.78    2.27
   2   9   5    7.65    2.13
  -3  -9  -5    2.58    1.14
  -3  -9  -5    1.03    1.37
   3   9   5    2.11    1.17
   3   9   5    1.71    1.17
  -4  -9  -5    1.47    1.25
  -4  -9  -5   -0.12    0.71
   4   9   5    2.71    1.44
   4   9   5    1.06    1.10
   5   9   5    0.89    1.29
   5   9   5    5.58    2.26
   6   9   5    9.49    3.11
   6   9   5    8.36    2.64
   7   9   5   10.42    2.98
   7   9   5   10.78    3.23
   8   9   5    1.74    1.65
   8   9   5    6.16    2.62
   9   9   5    3.58    2.91
   9   9   5    9.07    2.70
   6 -10  -5   -2.19    1.88
   5 -10  -5    2.41    1.88
   4 -10  -5   10.59    3.44
   3 -10  -5   30.14    5.89
   2 -10  -5   57.63    6.34
  -2  10   5   57.43    5.46
  -2  10   5   64.11    3.80
   1 -10  -5   38.11    4.53
  -1  10   5   24.91    4.23
  -1  10   5   29.48    2.95
   0 -10  -5    5.97    2.24
   0  10   5    4.92    1.73
   0  10   5    2.90    1.29
  -1 -10  -5    0.99    1.27
   1  10   5    3.67    1.51
   1  10   5    3.93    1.50
  -2 -10  -5    1.65    1.16
  -2 -10  -5   -2.05    2.06
   2  10   5   -0.53    0.93
   2  10   5    1.31    1.07
  -3 -10  -5   15.44    2.87
  -3 -10  -5   23.94    3.39
   3  10   5   19.95    3.86
   3  10   5   24.12    4.12
  -4 -10  -5    7.60    2.35
  -4 -10  -5    6.00    1.93
   4  10   5    7.97    2.60
   4  10   5    6.93    2.48
   5  10   5   24.79    4.76
   5  10   5   28.63    4.92
   6  10   5   14.71    3.47
   6  10   5   10.59    3.33
   7  10   5    7.66    2.86
   7  10   5   12.29    3.24
   8  10   5    7.49    3.22
   8  10   5   10.79    3.87
   4 -11  -5   39.95    7.22
   3 -11  -5   23.47    4.93
   2 -11  -5   17.90    3.95
  -2  11   5   14.31    3.22
   1 -11  -5   19.82    4.50
  -1  11   5   15.72    2.73
  -1  11   5   16.63    3.75
   0 -11  -5    4.27    1.94
   0  11   5    4.40    1.80
   0  11   5    3.42    1.73
  -1 -11  -5    2.33    1.37
   1  11   5    3.84    1.94
   1  11   5    1.18    1.32
  -2 -11  -5    4.59    1.79
   2  11   5    9.75    2.42
   2  11   5    4.13    2.17
  -3 -11  -5   16.47    3.28
   3  11   5   18.62    3.90
   3  11   5   15.71    3.52
  -4 -11  -5   11.30    1.83
  -4 -11  -5   20.34    4.04
   4  11   5   19.87    3.95
   4  11   5   16.38    3.69
   5  11   5   11.27    2.89
   5  11   5   11.53    3.07
   6  11   5    3.97    2.38
   6  11   5    2.06    1.60
   7  11   5    6.61    2.61
   7  11   5   -0.92    2.06
   2 -12  -5    1.71    2.63
  -2  12   5    1.44    2.12
   1 -12  -5    7.89    2.85
  -1  12   5    4.26    2.01
  -1  12   5    3.25    2.05
   0 -12  -5   -1.08    1.61
   0  12   5    0.29    1.63
   0  12   5    3.48    2.07
   1  12   5   15.84    3.32
   1  12   5   17.43    3.60
  -2 -12  -5   19.05    3.86
   2  12   5   24.31    4.59
   2  12   5   23.09    4.69
  -3 -12  -5    3.01    2.25
   3  12   5   11.55    3.37
   3  12   5    5.66    2.10
  -4 -12  -5    4.39    3.37
   4  12   5    6.71    2.49
   4  12   5    6.88    3.12
   5  12   5    6.40    3.05
   5  12   5   -1.32    2.35
   1  11  -6   16.00    3.66
  -1 -11   6   25.23    4.81
   5  10  -6    6.91    2.94
   4  10  -6   17.21    4.08
   3  10  -6   25.01    4.52
  -3 -10   6   14.17    2.52
   2  10  -6   15.71    3.44
  -2 -10   6   15.12    2.94
   1  10  -6   23.28    4.22
  -1 -10   6   31.87    5.24
   0  10  -6   18.35    3.34
   0 -10   6   17.56    4.09
  -1  10  -6    0.99    1.67
   1 -10   6    1.73    1.85
  -2  10  -6    0.07    2.51
  -2  10  -6    1.43    1.85
   2 -10   6   -2.21    1.57
   3 -10   6    3.08    2.72
   7   9  -6    1.85    2.20
   6   9  -6    3.40    1.70
   5   9  -6   25.21    4.96
   4   9  -6   19.77    4.05
   3   9  -6   27.08    5.58
  -3  -9   6   29.15    3.12
   2   9  -6   19.16    3.84
  -2  -9   6   10.47    2.58
   1   9  -6   10.82    2.79
  -1  -9   6   14.22    3.52
   0   9  -6    0.21    1.16
   0  -9   6    0.64    1.50
  -1   9  -6   15.73    2.72
   1  -9   6   15.15    3.82
  -2   9  -6    6.69    2.00
   2  -9   6    7.32    2.53
   2  -9   6   17.69    3.48
   3  -9   6   23.22    4.48
   3  -9   6   19.11    4.61
   4  -9   6   32.04    5.27
   4  -9   6   28.23    6.35
   5  -9   6    9.07    3.22
   5  -9   6   17.50    4.50
   8   8  -6    0.48    1.83
   7   8  -6   11.25    3.72
   6   8  -6   28.08    5.29
   5   8  -6   15.68    3.71
   4   8  -6   30.29    4.05
   3   8  -6   48.26    4.98
  -3  -8   6   32.42    3.19
  -3  -8   6   36.27    3.21
   2   8  -6    5.68    1.98
   1   8  -6    2.69    1.38
  -1  -8   6   -0.30    0.99
   0   8  -6    2.73    1.23
   0  -8   6    1.56    1.19
   0  -8   6    2.99    1.54
  -1   8  -6   22.87    2.83
  -1   8  -6   24.10    3.24
   1  -8   6   23.04    4.18
   1  -8   6   27.78    4.59
  -2   8  -6   29.03    2.88
  -2   8  -6   28.33    3.42
   2  -8   6   21.12    4.31
   2  -8   6   31.96    4.10
  -3   8  -6   32.56    2.98
   3  -8   6   25.81    4.43
   3  -8   6   29.35    5.32
   4  -8   6   31.88    6.23
   4  -8   6   34.98    5.45
   5  -8   6   17.76    4.42
   6  -8   6    3.82    2.01
   6  -8   6    4.62    2.91
   9   7  -6    0.76    2.58
   8   7  -6   15.68    4.03
   7   7  -6    7.17    2.86
   6   7  -6   41.17    5.16
   5   7  -6   16.52    3.62
   4   7  -6   12.11    3.14
   3   7  -6   10.14    2.43
  -3  -7   6    9.54    1.73
  -3  -7   6    7.23    1.66
   2   7  -6    0.03    0.76
  -2  -7   6    2.55    1.10
   1   7  -6   13.78    2.75
  -1  -7   6    6.64    1.82
  -1  -7   6    6.40    1.94
   0   7  -6   27.44    3.30
   0   7  -6   32.72    3.30
   0  -7   6   32.97    3.84
  -1   7  -6   20.99    2.38
  -1   7  -6   24.47    4.69
   1  -7   6   23.71    3.14
  -2   7  -6  102.07    5.52
  -2   7  -6   85.08    5.53
   2  -7   6   81.60    6.71
  -3   7  -6   37.66    2.54
  -3   7  -6   34.95    3.05
   3  -7   6   35.05    4.91
   3  -7   6   33.97    4.05
   4  -7   6   18.47    3.48
   4  -7   6   14.54    3.74
   5  -7   6    4.93    2.03
   5  -7   6    3.71    2.16
   6  -7   6    7.22    2.92
   7  -7   6    5.88    2.84
   7  -7   6    3.91    2.15
   9   6  -6   10.61    3.51
   9   6  -6   10.83    2.47
   8   6  -6   15.78    4.23
   8   6  -6   11.05    2.67
   7   6  -6   24.34    3.36
   7   6  -6   21.92    4.50
   6   6  -6    6.10    2.17
   6   6  -6    6.07    2.23
   5   6  -6   28.70    4.76
   5   6  -6   29.67    3.86
   4   6  -6    0.79    0.74
   3   6  -6   23.78    3.95
  -3  -6   6   19.76    2.10
  -3  -6   6   22.17    2.37
   2   6  -6   65.30    5.30
   1   6  -6  127.49    7.63
   1   6  -6  111.41    7.01
  -1  -6   6  119.50    7.96
   0   6  -6   46.09    3.89
   0   6  -6   43.93    6.77
   0  -6   6   49.47    4.54
  -1   6  -6  135.67    7.03
  -1   6  -6  124.19    6.99
   1  -6   6  125.72    8.25
  -2   6  -6   22.82    2.07
  -2   6  -6   22.59    2.40
   2  -6   6   23.49    3.05
  -3   6  -6   14.82    2.14
   3  -6   6   12.82    2.81
  -4   6  -6   -0.05    0.57
   4  -6   6   -1.69    0.78
   5  -6   6    2.75    1.23
   6  -6   6   11.15    2.52
   6  -6   6    6.67    2.64
   7  -6   6    8.09    3.14
   7  -6   6    9.65    2.70
   8  -6   6   35.88    7.13
   8  -6   6   25.92    4.35
  10   5  -6   14.66    3.97
   9   5  -6    7.58    2.21
   9   5  -6    6.89    2.66
   8   5  -6   29.48    5.32
   8   5  -6   21.09    3.58
   7   5  -6    7.58    2.47
   7   5  -6   13.13    3.24
   6   5  -6    4.15    1.87
   6   5  -6    5.21    2.00
   5   5  -6   -0.59    0.67
   5   5  -6   -0.72    0.66
  -5  -5   6   -2.29    1.30
   4   5  -6    4.76    1.85
   4   5  -6    4.52    1.57
  -4  -5   6    8.96    2.08
  -4  -5   6    5.45    0.68
   3   5  -6   63.88    5.39
   3   5  -6   63.31    5.39
  -3  -5   6   64.79    5.19
  -3  -5   6   67.16    3.90
   2   5  -6   50.32    4.33
  -2  -5   6   48.68    4.31
  -2  -5   6   44.42    4.11
   1   5  -6  106.66    6.53
   1   5  -6  113.24    6.81
  -1  -5   6  103.62    6.85
  -1  -5   6  110.25    7.11
   0   5  -6   31.10    3.08
   0   5  -6   35.14    3.06
   0   5  -6   32.75    2.99
   0  -5   6   35.33    3.60
   0  -5   6   32.43    3.47
  -1   5  -6  197.43    9.29
  -1   5  -6  154.97   12.26
  -1   5  -6  199.76    9.08
   1  -5   6  201.26   10.52
  -2   5  -6    0.19    0.61
  -2   5  -6    0.14    0.35
   2  -5   6    0.17    0.57
  -3   5  -6   38.19    2.95
   3  -5   6   36.76    3.63
  -4   5  -6    9.00    1.23
   4  -5   6    7.82    2.05
   5  -5   6   76.15    5.91
   6  -5   6   29.62    3.52
   7  -5   6   49.27    6.39
   7  -5   6   50.30    4.82
   8  -5   6    1.07    1.91
   8  -5   6    8.78    3.10
   9  -5   6   10.17    3.46
   9  -5   6    4.37    2.27
  10   4  -6    9.66    2.58
  10   4  -6    3.08    2.96
   9   4  -6    3.32    1.49
   9   4  -6    0.57    1.87
   8   4  -6   24.84    3.40
   8   4  -6   21.05    5.34
   7   4  -6    1.47    1.12
   7   4  -6    1.77    1.15
   6   4  -6   23.71    4.04
   6   4  -6   28.40    3.40
  -6  -4   6   22.38    4.14
   5   4  -6   30.94    3.48
   5   4  -6   31.06    3.84
   5   4  -6   28.76    2.90
  -5  -4   6   22.31    3.58
   4   4  -6   64.81    5.68
   4   4  -6   67.25    5.67
   4   4  -6   68.86    4.73
  -4  -4   6   64.60    3.24
   3   4  -6   68.03    4.67
   3   4  -6   69.04    5.45
   3   4  -6   71.38    5.45
  -3  -4   6   73.11    4.02
  -3  -4   6   73.44    5.24
   2   4  -6  104.37    6.76
   2   4  -6  109.23    6.72
   2   4  -6  106.77    6.97
  -2  -4   6   98.62    6.42
  -2  -4   6   88.26    9.21
   1   4  -6   21.53    2.78
   1   4  -6   24.98    2.63
   1   4  -6   24.62    2.49
   1   4  -6   23.14    2.44
  -1  -4   6   23.04    3.69
  -1  -4   6   26.84    2.79
   0   4  -6   42.40    3.29
   0   4  -6   45.58    3.40
   0   4  -6   44.73    3.52
   0  -4   6   43.92    3.81
   0  -4   6   50.94    4.82
  -1   4  -6    1.10    0.69
  -1   4  -6   -1.31    0.87
  -1   4  -6    0.92    0.39
   1  -4   6    0.37    1.43
   1  -4   6    0.00    0.55
  -2   4  -6    0.32    0.53
  -2   4  -6    0.47    0.70
   2  -4   6   -0.66    1.01
   2  -4   6    0.28    0.49
  -3   4  -6   25.18    2.86
  -3   4  -6   30.87    2.47
   3  -4   6   26.41    2.88
   3  -4   6   26.26    3.63
  -4   4  -6    1.91    0.71
   4  -4   6    2.10    0.98
   5  -4   6   32.51    3.41
   6  -4   6   65.71    5.20
   7  -4   6   23.20    3.05
   8  -4   6    0.52    1.49
   8  -4   6    2.72    1.26
   9  -4   6    0.81    1.66
   9  -4   6   -0.26    2.03
  10  -4   6    3.60    3.07
  10   3  -6    3.94    2.24
  10   3  -6    3.06    1.63
   9   3  -6   -0.20    1.26
   9   3  -6    1.08    1.12
   8   3  -6   -2.03    1.21
   8   3  -6    0.01    1.05
   7   3  -6   23.41    2.67
   7   3  -6   17.92    3.79
   7   3  -6   25.06    3.20
   6   3  -6   53.62    4.65
   6   3  -6   54.72    4.07
  -6  -3   6   50.88    4.71
   5   3  -6    0.38    0.76
   5   3  -6    0.03    0.77
   4   3  -6  113.63    6.27
   4   3  -6  120.62    7.12
  -4  -3   6   98.15    6.63
  -4  -3   6  113.43    5.23
   3   3  -6  110.65    6.31
   3   3  -6  116.70    7.17
  -3  -3   6  129.91    7.27
  -3  -3   6  122.27    5.84
   2   3  -6   45.17    3.61
   2   3  -6   42.31    3.23
   2   3  -6   45.59    3.92
  -2  -3   6   47.91    3.73
  -2  -3   6   44.68    3.49
  -2  -3   6   45.19    3.05
   1   3  -6    7.35    1.36
   1   3  -6    6.86    1.38
   1   3  -6    4.49    1.42
  -1  -3   6    5.48    1.43
  -1  -3   6    5.74    1.54
   0   3  -6    1.09    0.69
   0   3  -6   -0.55    0.38
   0   3  -6    0.47    0.51
   0   3  -6    0.33    0.24
   0  -3   6   -0.57    0.56
   0  -3   6    0.07    0.34
  -1   3  -6   86.13    4.42
  -1   3  -6   81.03    4.73
  -1   3  -6   83.22    5.09
   1  -3   6   85.83    5.27
   1  -3   6   85.15    5.61
  -2   3  -6   80.82    3.62
  -2   3  -6   85.25    4.66
  -2   3  -6   75.04    5.05
   2  -3   6   78.29    5.55
   2  -3   6   84.27    5.21
  -3   3  -6  125.02    6.23
  -3   3  -6  111.96    6.82
   3  -3   6  119.84    8.36
   3  -3   6  124.65    7.01
  -4   3  -6  140.16    8.24
   4  -3   6  148.04    8.97
   4  -3   6  158.74    8.27
   4  -3   6  140.61    6.89
  -5   3  -6   35.37    3.86
   5  -3   6   43.41    2.87
   5  -3   6   51.26    4.08
   6  -3   6   41.48    3.79
   6  -3   6   35.70    2.57
   7  -3   6    0.23    0.44
   7  -3   6    1.85    1.15
   8  -3   6    1.48    1.21
   9  -3   6   -1.01    1.47
   9  -3   6    0.62    1.53
  10  -3   6    0.12    1.67
  10  -3   6    5.58    2.01
  11   2  -6   -0.65    1.92
  11   2  -6   -1.03    1.78
  10   2  -6   -0.98    1.50
  10   2  -6   -2.58    1.35
   9   2  -6   -0.87    1.03
   9   2  -6   -1.37    1.64
   9   2  -6   -2.36    0.84
   8   2  -6   19.11    3.51
   7   2  -6   51.38    4.70
   7   2  -6   47.83    3.00
   7   2  -6   53.88    3.90
   6   2  -6   66.33    5.13
   6   2  -6   60.98    3.54
   6   2  -6   65.91    4.23
  -6  -2   6   61.02    5.01
   5   2  -6   50.11    4.45
   5   2  -6   50.29    3.43
  -5  -2   6   51.78    4.36
  -5  -2   6   47.96    3.04
   4   2  -6  182.51    8.31
   4   2  -6  167.89    9.10
  -4  -2   6  165.78    9.16
  -4  -2   6  172.98    7.79
   3   2  -6   80.55    5.23
   3   2  -6   74.13    4.37
  -3  -2   6   72.79    4.56
  -3  -2   6   78.89    4.22
  -3  -2   6   78.58    5.14
   2   2  -6   31.68    2.74
   2   2  -6   30.26    2.37
   2   2  -6   27.25    2.79
  -2  -2   6   30.43    2.78
  -2  -2   6   29.56    2.54
  -2  -2   6   32.30    2.41
   1   2  -6    1.01    0.55
   1   2  -6    1.20    0.74
   1   2  -6    0.74    0.47
  -1  -2   6    0.79    0.70
  -1  -2   6    1.48    0.66
   0   2  -6   11.47    1.40
   0   2  -6   12.30    1.44
   0   2  -6   12.24    2.14
   0  -2   6    8.20    1.67
   0  -2   6   10.53    1.74
  -1   2  -6   31.49    2.66
  -1   2  -6   36.90    2.64
   1  -2   6   33.89    2.98
   1  -2   6   33.89    2.64
   1  -2   6   35.97    2.84
  -2   2  -6  204.34    8.72
  -2   2  -6  209.41   10.01
  -2   2  -6  210.64    9.45
   2  -2   6  220.85    9.53
   2  -2   6  206.94   10.35
   2  -2   6  207.70    9.90
  -3   2  -6   88.11    4.88
  -3   2  -6   90.76    5.55
   3  -2   6   84.05    5.63
   3  -2   6   90.61    5.41
   3  -2   6   84.00    4.69
  -4   2  -6   43.55    3.09
  -4   2  -6   47.57    3.82
   4  -2   6   45.10    3.01
   4  -2   6   37.80    3.74
   4  -2   6   48.16    3.73
   5  -2   6   24.07    2.10
   5  -2   6   23.82    2.69
   6  -2   6    0.30    0.43
   6  -2   6   -0.48    0.43
   7  -2   6    1.46    0.94
   7  -2   6    0.39    0.59
   8  -2   6    6.13    1.80
   8  -2   6    7.28    1.45
   9  -2   6   20.86    2.11
   9  -2   6   22.77    3.75
  10  -2   6    9.24    3.13
  10  -2   6   15.38    3.33
  10  -2   6    8.36    1.55
  11   1  -6   -0.18    1.83
  11   1  -6   -1.66    1.93
  10   1  -6   10.51    1.68
  10   1  -6   10.30    3.03
  10   1  -6   11.15    2.91
  10   1  -6   11.19    2.03
   9   1  -6    8.38    1.61
   9   1  -6    9.03    1.66
   9   1  -6    7.37    2.02
   8   1  -6   42.49    3.12
   8   1  -6   43.97    3.34
   8   1  -6   46.87    4.63
   7   1  -6   53.67    3.67
   7   1  -6   53.23    3.51
   7   1  -6   54.06    4.78
   6   1  -6   25.13    2.90
   6   1  -6   20.24    1.96
   6   1  -6   22.93    2.10
   5   1  -6    9.63    1.28
   5   1  -6   11.20    1.38
   5   1  -6   14.24    2.53
  -5  -1   6   14.47    3.03
  -5  -1   6   14.41    2.59
   4   1  -6   31.97    2.44
   4   1  -6   35.39    2.42
   4   1  -6   31.13    2.96
   4   1  -6   34.63    3.16
  -4  -1   6   30.67    2.54
  -4  -1   6   35.68    3.32
   3   1  -6   -0.19    0.32
   3   1  -6    0.40    0.51
   3   1  -6   -0.18    0.23
  -3  -1   6    0.44    0.31
  -3  -1   6    0.19    0.31
   2   1  -6  183.39    9.10
   2   1  -6  194.76    8.92
   2   1  -6  186.84    8.83
  -2  -1   6  193.23    8.49
  -2  -1   6  178.08    9.03
  -2  -1   6  177.82    8.30
   1   1  -6    6.79    1.41
   1   1  -6    6.95    1.57
   1   1  -6    4.26    1.01
  -1  -1   6    7.50    1.27
  -1  -1   6    6.90    1.26
  -1  -1   6    5.86    1.38
   0   1  -6  209.19    9.47
   0   1  -6  218.12    9.42
   0   1  -6  208.68   10.00
   0  -1   6  207.32    9.60
   0  -1   6  206.57    9.70
   0  -1   6  215.79    9.43
  -1   1  -6  260.68   11.28
  -1   1  -6  260.64   11.95
  -1   1  -6  256.50   11.42
   1  -1   6  267.40   11.33
   1  -1   6  259.79   11.37
   1  -1   6  259.29   11.61
  -2   1  -6  204.01    9.12
  -2   1  -6  197.82    9.31
  -2   1  -6  191.78    7.64
   2  -1   6  198.17    9.40
   2  -1   6  191.43    8.79
   2  -1   6  195.58    9.18
  -3   1  -6   15.70    1.96
  -3   1  -6   18.52    1.80
   3  -1   6   20.17    1.84
   3  -1   6   18.36    2.01
   3  -1   6   16.48    2.04
  -4   1  -6    0.07    0.48
   4  -1   6    0.76    0.68
   4  -1   6    1.36    0.70
   4  -1   6    0.49    0.54
   5  -1   6    0.16    0.46
   6  -1   6   55.89    4.51
   6  -1   6   59.83    3.99
   7  -1   6    6.45    1.43
   7  -1   6    7.21    1.93
   8  -1   6   47.17    3.73
   8  -1   6   49.17    4.56
   9  -1   6   14.64    2.94
   9  -1   6   17.17    2.24
  10  -1   6    2.67    1.70
  10  -1   6    1.28    1.44
  10  -1   6    1.80    1.22
  11  -1   6    7.42    2.99
  11  -1   6    8.66    2.42
  11   0  -6    8.49    3.22
  11   0  -6    4.42    1.87
  11   0  -6    7.27    2.41
  10   0  -6   15.39    2.74
  10   0  -6   15.55    3.72
   9   0  -6   61.09    5.56
   9   0  -6   57.77    3.17
   9   0  -6   59.84    4.74
   8   0  -6   36.04    2.74
   8   0  -6   32.90    3.87
   8   0  -6   30.69    2.25
   7   0  -6   41.48    4.19
   7   0  -6   36.96    3.97
   7   0  -6   42.15    2.62
   7   0  -6   43.70    3.58
   6   0  -6   17.87    2.47
   6   0  -6   17.70    2.10
   6   0  -6   19.18    1.55
   6   0  -6   17.47    3.40
   5   0  -6    8.63    1.63
   5   0  -6    5.95    0.95
   5   0  -6    6.68    2.12
   5   0  -6    9.38    1.84
  -5   0   6    6.25    1.55
   4   0  -6   73.15    4.64
   4   0  -6   70.11    3.56
   4   0  -6   75.27    4.40
   4   0  -6   75.41    4.99
  -4   0   6   70.37    4.53
  -4   0   6   67.36    5.00
   3   0  -6  108.30    5.56
   3   0  -6  103.39    6.01
   3   0  -6  102.11    5.69
   3   0  -6  105.79    4.82
  -3   0   6  104.71    6.24
   2   0  -6  206.68    9.38
   2   0  -6  208.73    9.48
   2   0  -6  206.65    8.69
   2   0  -6  210.51    9.82
  -2   0   6  217.43    9.46
  -2   0   6  209.48    9.93
  -2   0   6  201.99    8.74
   1   0  -6  110.15    5.25
   1   0  -6  111.33    5.68
   1   0  -6  113.11    5.95
   1   0  -6  107.34    5.74
  -1   0   6  111.86    5.94
  -1   0   6  109.42    5.78
  -1   0   6  113.21    5.26
  -1   0   6  111.51    5.73
   0   0  -6   67.43    4.07
   0   0  -6   56.73    4.37
   0   0  -6   62.92    3.63
   0   0   6   69.29    3.98
   0   0   6   66.34    4.12
   0   0   6   66.75    4.05
   0   0   6   65.62    3.64
  -1   0  -6  126.41    6.23
  -1   0  -6  128.51    6.45
  -1   0  -6  120.02    5.55
   1   0   6  125.11    6.14
   1   0   6  121.96    6.09
   1   0   6  130.29    6.24
  -2   0  -6   22.58    2.18
  -2   0  -6   27.91    2.27
  -2   0  -6   27.96    1.68
   2   0   6   30.74    2.43
   2   0   6   25.97    2.20
   2   0   6   28.93    2.24
  -3   0  -6    2.87    0.54
  -3   0  -6    2.44    0.74
   3   0   6    1.85    0.73
   3   0   6    3.33    0.90
   3   0   6    3.36    0.44
   3   0   6    2.01    0.73
  -4   0  -6    2.84    0.84
   4   0   6    3.71    0.50
   4   0   6    3.80    1.05
   4   0   6    4.10    1.19
   4   0   6    5.66    1.21
   5   0   6    7.42    1.51
   5   0   6    7.25    0.77
   5   0   6    7.53    1.68
   5   0   6    5.65    1.42
   6   0   6   36.13    3.09
   6   0   6   36.67    3.45
   6   0   6   34.90    2.27
   7   0   6   53.88    4.09
   7   0   6   48.96    4.30
   7   0   6   49.53    3.10
   8   0   6   19.29    1.91
   8   0   6   23.79    3.13
   8   0   6   19.67    2.53
   9   0   6   24.62    2.91
   9   0   6   24.22    2.21
   9   0   6   22.38    3.74
  10   0   6   -1.27    1.00
  10   0   6   -1.48    1.21
  10   0   6    0.72    1.07
  10   0   6    0.47    0.74
  10   0   6   -1.82    1.27
  11   0   6    5.35    2.04
  11   0   6    1.11    1.82
  11   0   6    0.89    1.48
  11  -1  -6   26.79    3.75
  11  -1  -6   23.65    4.68
  10  -1  -6    1.80    1.27
  10  -1  -6   -0.40    1.35
   9  -1  -6   35.67    3.84
   9  -1  -6   30.20    5.04
   8  -1  -6    9.40    2.40
   8  -1  -6    7.15    1.89
   7  -1  -6    6.12    1.72
   7  -1  -6    7.85    2.09
   7  -1  -6    7.91    1.98
   6  -1  -6    0.61    0.85
   6  -1  -6    2.16    1.07
   6  -1  -6    0.71    0.20
   6  -1  -6    1.38    0.91
   5  -1  -6   29.10    2.84
   5  -1  -6   29.27    1.43
   5  -1  -6   28.34    3.04
   5  -1  -6   29.66    2.72
  -5   1   6   27.00    2.96
   4  -1  -6   68.38    4.48
   4  -1  -6   72.47    4.96
   4  -1  -6   70.02    4.30
   4  -1  -6   68.18    2.94
  -4   1   6   60.04    4.49
   3  -1  -6  110.63    6.35
   3  -1  -6  112.05    5.80
   3  -1  -6  120.57    6.16
   3  -1  -6  106.57    4.62
  -3   1   6  108.24    6.48
  -3   1   6  109.95    6.16
   2  -1  -6   85.70    3.86
   2  -1  -6   83.98    4.80
   2  -1  -6   81.37    4.59
   2  -1  -6   80.53    4.92
  -2   1   6   81.19    4.70
  -2   1   6   84.03    4.87
  -2   1   6   89.07    3.84
  -2   1   6   85.66    5.14
   1  -1  -6  562.43   22.49
   1  -1  -6  596.75   23.48
   1  -1  -6  602.09   23.50
  -1   1   6  593.32   22.49
  -1   1   6  595.51   23.32
  -1   1   6  588.33   23.62
  -1   1   6  591.78   24.82
   0  -1  -6   95.31    4.78
   0  -1  -6   98.93    4.96
   0  -1  -6   94.30    5.07
   0  -1  -6   96.37    5.35
   0  -1  -6   99.54    5.23
   0   1   6  102.27    5.17
   0   1   6  100.69    5.16
   0   1   6   93.08    4.72
   0   1   6  105.26    5.57
  -1  -1  -6   51.02    3.17
  -1  -1  -6   51.27    2.93
   1   1   6   49.43    3.99
   1   1   6   53.90    3.15
   1   1   6   48.85    3.11
   1   1   6   52.59    3.27
   1   1   6   49.52    2.91
  -2  -1  -6    0.48    0.32
  -2  -1  -6    0.35    0.43
  -2  -1  -6    0.10    0.23
   2   1   6    0.77    0.32
   2   1   6    0.47    0.40
   2   1   6    1.27    0.46
   2   1   6    0.64    0.48
   2   1   6    0.24    0.41
  -3  -1  -6   20.38    2.15
  -3  -1  -6   22.77    1.78
   3   1   6   23.31    2.28
   3   1   6   23.00    1.69
   3   1   6   22.06    1.83
   3   1   6   25.56    2.28
  -4  -1  -6   37.83    3.20
  -4  -1  -6   40.13    2.74
   4   1   6   41.37    2.85
   4   1   6   46.19    3.52
   4   1   6   42.34    3.28
   4   1   6   45.91    2.70
   5   1   6   65.83    4.13
   5   1   6   69.59    3.91
   5   1   6   66.28    4.61
   5   1   6   69.20    4.84
   6   1   6   10.54    2.18
   6   1   6   11.24    1.47
   6   1   6   10.77    1.85
   6   1   6   13.21    2.27
   7   1   6   71.30    5.47
   7   1   6   65.21    4.71
   7   1   6   75.43    5.42
   7   1   6   79.90    4.72
   8   1   6    4.24    1.13
   8   1   6    4.36    1.55
   9   1   6    4.88    1.87
   9   1   6    3.90    1.64
   9   1   6    1.37    1.42
   9   1   6    3.40    1.29
   9   1   6    2.28    1.24
  10   1   6    1.95    1.18
  10   1   6    1.22    1.50
  10   1   6   -0.12    1.18
  10   1   6    0.15    1.08
  10   1   6    3.07    1.42
  11   1   6    5.41    2.12
  11   1   6    4.45    1.46
  11   1   6    2.15    1.69
  11   1   6    0.30    1.83
  10  -2  -6   10.84    2.89
  10  -2  -6   10.90    3.01
   9  -2  -6    5.10    2.07
   9  -2  -6    5.14    2.01
   9  -2  -6    6.06    2.24
   8  -2  -6    2.64    1.66
   8  -2  -6    2.34    1.25
   7  -2  -6   16.76    3.31
   7  -2  -6   19.94    3.81
   7  -2  -6   17.16    2.34
   6  -2  -6   52.70    4.66
   6  -2  -6   53.92    4.88
   6  -2  -6   52.78    3.80
   5  -2  -6   51.91    4.25
   5  -2  -6   44.54    4.20
   5  -2  -6   53.96    3.57
  -5   2   6   44.32    4.17
   4  -2  -6   53.49    3.52
   4  -2  -6   58.52    4.53
   4  -2  -6   53.33    4.13
  -4   2   6   52.74    4.28
   3  -2  -6   92.45    5.47
   3  -2  -6   86.19    5.56
   3  -2  -6   88.47    4.78
  -3   2   6   83.89    5.46
   2  -2  -6   60.55    5.36
   2  -2  -6   75.60    4.55
   2  -2  -6   69.52    4.32
   2  -2  -6   70.63    4.51
  -2   2   6   71.13    4.08
  -2   2   6   68.03    3.05
  -2   2   6   65.10    4.41
   1  -2  -6   56.86    3.42
   1  -2  -6   56.16    3.55
   1  -2  -6   55.54    3.62
   1  -2  -6   61.32    3.82
  -1   2   6   53.26    3.65
  -1   2   6   51.76    2.77
  -1   2   6   52.51    3.59
  -1   2   6   54.85    3.39
   0  -2  -6    6.89    1.17
   0  -2  -6    8.02    1.55
   0  -2  -6    6.98    1.86
   0   2   6    6.24    1.20
   0   2   6    8.22    1.39
   0   2   6   10.07    1.73
   0   2   6    7.70    0.94
   0   2   6    6.90    1.25
  -1  -2  -6  125.24    6.72
  -1  -2  -6  133.34    6.10
  -1  -2  -6  129.04    6.60
  -1  -2  -6  132.72    6.32
   1   2   6  136.57    6.78
   1   2   6  127.79    6.07
   1   2   6  141.77    6.39
  -2  -2  -6    1.20    0.68
  -2  -2  -6    1.36    0.54
  -2  -2  -6    1.25    0.44
   2   2   6    1.86    0.66
   2   2   6    1.10    0.66
   2   2   6    1.66    0.72
   2   2   6    2.08    0.57
  -3  -2  -6   63.30    4.08
  -3  -2  -6   63.07    4.36
   3   2   6   67.40    3.31
   3   2   6   62.27    4.17
   3   2   6   68.77    4.36
   3   2   6   66.41    3.79
  -4  -2  -6  319.26   13.94
   4   2   6  303.37   14.26
   4   2   6  325.26   13.74
   4   2   6  338.48   14.76
   4   2   6  339.68   12.97
   5   2   6   90.96    4.46
   5   2   6   88.54    5.81
   5   2   6   84.82    5.05
   6   2   6   15.91    2.73
   6   2   6   13.45    2.49
   6   2   6   15.18    1.59
   6   2   6   16.37    1.93
   7   2   6    1.52    0.95
   7   2   6    5.17    1.68
   7   2   6    3.65    1.29
   7   2   6    3.79    1.19
   8   2   6    1.63    1.34
   8   2   6    1.70    1.04
   8   2   6    0.98    0.89
   8   2   6    1.97    0.77
   8   2   6    2.03    1.03
   9   2   6    6.33    1.67
   9   2   6    6.66    1.82
   9   2   6    3.57    1.55
   9   2   6    4.14    1.18
   9   2   6    3.47    1.44
  10   2   6    6.58    2.36
  10   2   6    4.20    1.81
  10   2   6    5.95    2.38
  10   2   6    5.13    1.53
  10   2   6   11.52    2.38
  11   2   6    9.43    2.77
  11   2   6    3.37    2.33
  11   2   6    7.55    2.07
  11   2   6    9.65    2.89
  10  -3  -6    4.12    2.21
  10  -3  -6   10.33    3.26
  10  -3  -6    0.88    1.06
   9  -3  -6    3.22    1.62
   9  -3  -6    8.12    2.61
   8  -3  -6    8.05    1.73
   8  -3  -6    4.52    1.99
   8  -3  -6   10.35    2.70
   7  -3  -6   45.03    4.91
   7  -3  -6   43.47    4.64
   7  -3  -6   39.60    3.06
   6  -3  -6  109.97    7.51
   6  -3  -6   98.63    5.51
   6  -3  -6  102.95    7.53
   5  -3  -6  169.05    9.89
   5  -3  -6  179.43    9.82
   5  -3  -6  158.50    8.92
   5  -3  -6  167.67    7.83
  -5   3   6  153.38    9.57
   4  -3  -6  162.74    9.51
   4  -3  -6  175.58    9.34
   4  -3  -6  167.47    7.67
   4  -3  -6  165.47    8.71
  -4   3   6  149.56    9.16
   3  -3  -6   67.65    5.01
   3  -3  -6   74.58    4.18
   3  -3  -6   69.94    4.96
   3  -3  -6   68.71    4.60
  -3   3   6   74.32    5.23
   2  -3  -6   62.13    3.52
   2  -3  -6   57.14    3.85
   2  -3  -6   60.81    4.24
   2  -3  -6   59.24    4.19
  -2   3   6   52.06    4.10
  -2   3   6   54.03    3.46
  -2   3   6   55.54    2.58
   1  -3  -6   57.63    3.68
   1  -3  -6   51.14    3.38
   1  -3  -6   50.05    3.60
   1  -3  -6   53.39    3.81
  -1   3   6   50.99    3.78
  -1   3   6   57.27    3.37
   0  -3  -6   75.03    4.26
   0  -3  -6   73.51    4.35
   0  -3  -6   76.49    4.64
   0  -3  -6   74.02    4.36
   0   3   6   71.02    4.56
   0   3   6   82.78    4.39
  -1  -3  -6   40.13    3.06
  -1  -3  -6   41.17    3.09
  -1  -3  -6   43.58    2.61
  -1  -3  -6   42.21    3.00
   1   3   6   42.33    2.98
   1   3   6   37.25    2.96
   1   3   6   42.47    3.03
  -2  -3  -6   43.21    3.17
  -2  -3  -6   42.90    3.30
  -2  -3  -6   44.06    3.44
  -2  -3  -6   46.10    2.48
   2   3   6   44.81    3.25
   2   3   6   46.16    3.39
   2   3   6   49.47    3.24
  -3  -3  -6  197.96    9.50
  -3  -3  -6  184.96    9.82
   3   3   6  204.64    9.48
   3   3   6  211.07    9.43
  -4  -3  -6  143.93    7.81
   4   3   6  147.04    7.70
   4   3   6  164.03    8.67
   4   3   6  153.63    7.77
  -5  -3  -6    2.90    1.03
   5   3   6    4.69    1.85
   5   3   6    4.44    1.33
   5   3   6    7.31    1.64
   6   3   6   14.67    2.81
   6   3   6   13.48    1.25
   6   3   6   11.21    2.23
   6   3   6   12.05    2.21
   6   3   6   10.94    0.77
   7   3   6    1.61    0.44
   7   3   6    2.91    1.16
   7   3   6    0.79    0.81
   7   3   6    1.91    0.87
   7   3   6    0.84    0.40
   8   3   6    3.09    1.50
   8   3   6    1.83    1.28
   8   3   6    6.90    2.95
   8   3   6    3.13    1.40
   8   3   6    2.51    0.66
   8   3   6    1.97    0.55
   9   3   6   11.28    1.18
   9   3   6   11.68    1.19
   9   3   6   12.19    2.77
   9   3   6   10.56    2.49
   9   3   6    9.70    2.81
   9   3   6   15.84    3.37
  10   3   6   17.44    3.35
  10   3   6   12.18    3.05
  10   3   6   19.96    3.90
  10   3   6   21.37    4.05
  11   3   6    2.51    1.92
  11   3   6    0.07    1.29
  11   3   6   -2.76    1.76
  11   3   6    1.85    1.81
  10  -4  -6    0.89    2.10
  10  -4  -6    0.84    1.70
   9  -4  -6    4.04    2.37
   9  -4  -6    7.55    2.46
   8  -4  -6   19.17    4.16
   8  -4  -6   21.26    4.37
   8  -4  -6   23.82    1.91
   7  -4  -6   37.48    3.25
   7  -4  -6   42.23    4.73
   7  -4  -6   53.88    5.47
   6  -4  -6   51.69    5.31
   6  -4  -6   57.27    3.56
   6  -4  -6   60.24    5.55
   5  -4  -6   69.75    5.83
   5  -4  -6   59.77    3.54
   5  -4  -6   61.37    4.78
   5  -4  -6   67.07    5.61
   4  -4  -6   -0.44    0.72
   4  -4  -6   -0.16    0.35
   4  -4  -6    0.28    0.39
   4  -4  -6    1.94    0.92
  -4   4   6   -0.83    0.91
   3  -4  -6    2.73    1.06
   3  -4  -6    3.41    1.23
   3  -4  -6    1.71    0.61
   3  -4  -6    1.22    0.58
  -3   4   6    2.06    0.70
  -3   4   6    2.28    1.25
   2  -4  -6    3.40    0.89
   2  -4  -6    3.93    1.34
   2  -4  -6    4.39    1.15
   2  -4  -6    2.33    1.00
  -2   4   6    5.26    1.43
  -2   4   6    3.72    0.91
  -2   4   6    4.03    0.68
   1  -4  -6  150.30    7.78
   1  -4  -6  143.43    7.47
   1  -4  -6  141.60    7.07
   1  -4  -6  152.45    7.97
  -1   4   6  132.35    7.82
  -1   4   6  157.28    7.05
   0  -4  -6  106.28    5.75
   0  -4  -6  102.24    5.90
   0  -4  -6  107.59    6.16
   0  -4  -6  101.51    5.72
   0   4   6  114.29    5.77
   0   4   6  105.71    6.19
   0   4   6  116.33    6.11
  -1  -4  -6  184.61    8.06
  -1  -4  -6  179.39    8.82
  -1  -4  -6  188.52    8.87
  -1  -4  -6  156.67    8.55
   1   4   6  181.07    8.72
   1   4   6  185.94    8.77
   1   4   6  175.21    8.77
  -2  -4  -6   92.73    5.52
  -2  -4  -6   81.07    5.50
  -2  -4  -6   94.56    4.22
  -2  -4  -6   93.60    5.36
   2   4   6   87.03    5.29
   2   4   6   89.89    5.22
   2   4   6   90.83    5.59
  -3  -4  -6   39.21    3.34
   3   4   6   40.50    3.06
   3   4   6   39.67    3.27
   3   4   6   40.53    3.53
  -4  -4  -6   23.69    2.60
   4   4   6   19.10    2.31
   4   4   6   23.30    2.97
   4   4   6   21.46    2.17
  -5  -4  -6   36.37    3.48
   5   4   6   39.75    3.10
   5   4   6   34.26    3.37
   5   4   6   38.85    3.91
   6   4   6    4.88    1.51
   6   4   6    6.06    1.94
   6   4   6    5.59    1.35
   7   4   6    1.46    0.90
   7   4   6    4.39    1.92
   7   4   6    1.46    1.05
   8   4   6   29.09    3.14
   8   4   6   26.93    3.43
   8   4   6   25.74    4.39
   9   4   6   11.99    2.35
   9   4   6   13.49    2.84
   9   4   6   10.09    2.87
  10   4   6   -0.06    1.10
  10   4   6    0.08    1.54
  10   4   6    0.15    0.94
  10   4   6   -0.29    1.34
  11   4   6    8.90    3.04
  11   4   6    5.72    2.38
  11   4   6    8.39    3.28
  11   4   6    6.54    2.49
  10  -5  -6   15.14    4.28
  10  -5  -6   10.64    3.78
   9  -5  -6   20.52    4.80
   9  -5  -6   23.01    5.12
   8  -5  -6   61.00   10.60
   8  -5  -6   55.57    6.52
   7  -5  -6   36.39    6.26
   7  -5  -6   34.45    5.73
   6  -5  -6   55.63    5.59
   6  -5  -6   45.55    5.04
   5  -5  -6   29.51    3.77
   5  -5  -6   22.05    3.88
   5  -5  -6   20.72    1.56
   5  -5  -6   24.42    4.24
   4  -5  -6   32.37    3.87
   4  -5  -6   27.33    2.02
   4  -5  -6   28.86    2.99
   4  -5  -6   32.04    3.69
   3  -5  -6    1.72    0.50
   3  -5  -6   -1.08    0.72
   3  -5  -6   -0.19    0.76
  -3   5   6   -0.07    0.30
  -3   5   6   -0.15    0.43
  -3   5   6   -0.31    0.98
   2  -5  -6  107.54    6.39
   2  -5  -6  118.08    9.64
   2  -5  -6  106.51    6.32
  -2   5   6  106.84    7.23
  -2   5   6  108.73    6.57
  -2   5   6  112.14    5.24
  -2   5   6  115.74    5.66
   1  -5  -6  134.44    7.56
   1  -5  -6  152.34    8.24
   1  -5  -6  129.30    6.95
  -1   5   6  147.20    7.77
  -1   5   6  154.51    7.02
  -1   5   6  141.17    8.29
  -1   5   6  131.82    6.72
   0  -5  -6  129.00    7.20
   0  -5  -6  145.75    7.58
   0  -5  -6  110.63    6.62
   0  -5  -6  130.71    6.96
   0   5   6  137.79    7.29
   0   5   6  137.26    6.82
   0   5   6  120.66    7.33
  -1  -5  -6   44.92    3.77
  -1  -5  -6   53.54    3.41
  -1  -5  -6   57.28    4.00
   1   5   6   53.12    3.85
   1   5   6   49.18    3.87
  -2  -5  -6   34.20    3.25
  -2  -5  -6   38.51    2.36
  -2  -5  -6   36.45    3.08
   2   5   6   34.27    3.15
   2   5   6   37.24    3.32
   2   5   6   34.72    3.00
  -3  -5  -6   -0.88    0.62
  -3  -5  -6    0.03    0.52
   3   5   6    0.55    0.61
   3   5   6    0.13    0.34
   3   5   6    0.75    0.50
  -4  -5  -6   -0.65    0.61
   4   5   6    0.50    0.67
   4   5   6    0.32    0.54
   4   5   6   -0.60    0.38
  -5  -5  -6   25.97    3.06
   5   5   6   34.94    3.88
   5   5   6   29.70    3.25
   5   5   6   28.38    2.51
   6   5   6   32.22    3.98
   6   5   6   30.51    2.70
   6   5   6   26.95    3.31
   7   5   6   16.75    3.18
   7   5   6   13.48    2.22
   7   5   6   18.65    3.75
   8   5   6   41.25    4.94
   8   5   6   38.33    3.12
   8   5   6   38.83    4.19
   9   5   6    2.74    1.22
   9   5   6    1.44    1.44
  10   5   6    1.52    1.59
  10   5   6   -2.26    1.69
  10   5   6    1.55    0.88
  11   5   6    1.81    2.11
  11   5   6    1.89    2.12
  11   5   6    1.47    2.00
   9  -6  -6   30.18    5.65
   9  -6  -6   21.92    5.08
   8  -6  -6   11.51    3.67
   8  -6  -6   11.74    3.28
   7  -6  -6    8.37    2.65
   6  -6  -6    2.18    1.33
   6  -6  -6    1.00    0.92
   5  -6  -6    2.89    1.74
   5  -6  -6    6.40    2.12
   4  -6  -6   54.30    5.16
  -4   6   6   45.08    2.41
   3  -6  -6   28.13    2.96
   3  -6  -6   31.11    3.75
  -3   6   6   31.93    2.35
  -3   6   6   33.45    2.31
   2  -6  -6   94.31    6.19
   2  -6  -6  109.38    7.20
  -2   6   6   95.85    7.03
  -2   6   6   92.75    6.25
  -2   6   6   94.85    5.10
  -2   6   6  109.09    5.35
   1  -6  -6  129.33    9.30
   1  -6  -6  173.62    9.24
  -1   6   6  152.68    7.49
  -1   6   6  163.73    7.58
  -1   6   6  164.70    8.60
  -1   6   6  124.94    9.03
   0  -6  -6   54.05    4.29
   0   6   6   47.04    4.24
   0   6   6   46.27    4.23
   0   6   6   53.98    3.80
  -1  -6  -6   32.29    3.53
  -1  -6  -6   42.02    3.56
   1   6   6   45.14    3.58
   1   6   6   37.56    3.47
   1   6   6   34.73    3.40
  -2  -6  -6    4.11    1.00
  -2  -6  -6    6.28    1.66
  -2  -6  -6    4.59    1.52
   2   6   6    3.68    1.15
   2   6   6    4.70    1.39
   2   6   6    3.16    1.25
  -3  -6  -6   -0.23    0.26
  -3  -6  -6    0.39    0.42
  -3  -6  -6    0.82    0.82
   3   6   6   -0.20    0.60
   3   6   6    0.94    0.74
   3   6   6    0.55    0.68
   4   6   6   37.07    3.71
   4   6   6   38.28    4.03
   4   6   6   33.48    2.90
   5   6   6    5.01    1.67
   5   6   6    8.56    1.62
   5   6   6    8.56    2.13
   6   6   6   67.84    4.33
   6   6   6   79.68    6.17
   6   6   6   74.19    6.51
   7   6   6   15.06    3.36
   7   6   6   16.25    3.22
   7   6   6   14.35    2.63
   8   6   6   19.85    2.10
   8   6   6   21.73    4.46
   8   6   6   19.75    3.74
   9   6   6   -0.08    1.24
   9   6   6    4.34    2.40
  10   6   6   -1.21    1.70
  10   6   6    3.09    1.79
   8  -7  -6   17.57    4.80
   8  -7  -6   13.58    3.90
   7  -7  -6    2.89    1.46
   7  -7  -6    0.74    1.39
   6  -7  -6    6.50    4.72
   5  -7  -6   45.62    5.36
   4  -7  -6   41.25    4.84
  -4   7   6   36.82    2.65
   3  -7  -6  146.66    9.77
  -3   7   6  154.68    7.26
  -3   7   6  137.10    6.63
   2  -7  -6   48.46    4.78
  -2   7   6   46.04    3.33
  -2   7   6   50.01    3.25
  -2   7   6   41.04    3.99
   1  -7  -6   85.96    6.47
   1  -7  -6   79.03    6.88
  -1   7   6   91.93    5.18
  -1   7   6   84.15    5.96
  -1   7   6   88.62    5.30
   0  -7  -6    7.18    2.02
   0  -7  -6    8.62    2.57
   0   7   6    5.97    1.57
   0   7   6    2.56    1.26
   0   7   6    4.91    1.59
   0   7   6    7.07    1.58
  -1  -7  -6   -0.39    0.58
   1   7   6    1.11    0.86
   1   7   6    0.91    0.89
   1   7   6   -0.02    0.67
   1   7   6   -0.55    0.61
  -2  -7  -6   12.75    2.49
   2   7   6    9.14    2.09
   2   7   6    7.96    1.85
   2   7   6    9.69    2.12
  -3  -7  -6   56.21    3.33
  -3  -7  -6   63.49    3.34
  -3  -7  -6   59.74    4.51
   3   7   6   58.72    4.96
   3   7   6   54.10    4.29
   3   7   6   53.15    4.89
  -4  -7  -6   34.59    3.27
   4   7   6   28.27    2.75
   4   7   6   30.39    3.74
   4   7   6   31.60    3.61
   5   7   6   43.51    4.73
   5   7   6   45.93    4.56
   5   7   6   40.39    3.31
   6   7   6   13.56    2.63
   6   7   6   18.50    3.58
   6   7   6   15.83    3.10
   7   7   6    1.33    0.76
   7   7   6    1.87    1.39
   7   7   6    3.82    1.67
   8   7   6   -0.72    1.45
   8   7   6    1.17    1.37
   9   7   6    0.94    1.65
   9   7   6    1.87    1.50
  10   7   6    6.71    2.89
  10   7   6    6.10    2.38
   8  -8  -6   -2.66    1.84
   8  -8  -6    1.81    2.18
   7  -8  -6   13.60    4.07
   7  -8  -6   12.47    3.65
   6  -8  -6   21.76    5.02
   6  -8  -6   21.75    4.95
   5  -8  -6   35.40    8.86
  -5   8   6   21.97    1.73
   4  -8  -6   81.68    7.49
  -4   8   6   86.62    4.98
   3  -8  -6   42.24    4.93
  -3   8   6   37.16    2.40
  -3   8   6   38.18    3.36
   2  -8  -6   13.47    3.18
  -2   8   6   15.47    1.83
  -2   8   6   19.25    2.24
  -2   8   6   10.02    2.46
   1  -8  -6    2.42    1.50
  -1   8   6    2.35    0.94
  -1   8   6    3.26    1.19
  -1   8   6    2.78    1.28
   0  -8  -6   33.83    3.85
   0   8   6   34.16    3.35
   0   8   6   35.72    3.26
   0   8   6   30.48    3.42
  -1  -8  -6   28.09    3.13
   1   8   6   26.27    3.26
   1   8   6   26.20    2.94
   1   8   6   22.95    3.79
  -2  -8  -6   38.87    3.71
   2   8   6   36.10    3.77
   2   8   6   36.34    3.78
   2   8   6   28.40    3.41
  -3  -8  -6  155.83    8.51
  -3  -8  -6  140.35    6.97
   3   8   6  157.65    9.53
   3   8   6  133.23    8.25
   3   8   6  146.53    9.28
  -4  -8  -6   23.62    2.99
   4   8   6   24.81    3.40
   4   8   6   20.82    2.50
   4   8   6   33.61    3.73
   5   8   6   21.59    2.27
   5   8   6   25.40    4.10
   5   8   6   27.44    4.62
   6   8   6    3.86    1.97
   6   8   6    4.13    1.63
   7   8   6   -0.24    1.25
   7   8   6    2.74    1.67
   8   8   6    0.52    1.00
   8   8   6   -2.41    1.24
   9   8   6    0.51    2.09
   9   8   6    2.05    1.64
   7  -9  -6   23.56    5.66
   7  -9  -6   19.70    4.99
   6  -9  -6   52.75    6.92
   6  -9  -6   48.65    6.70
   5  -9  -6   13.67    3.63
   4  -9  -6   48.85    5.96
  -4   9   6   45.02    4.13
   3  -9  -6    2.84    2.15
  -3   9   6   -1.07    1.56
   2  -9  -6    3.73    2.10
  -2   9   6    0.69    0.80
  -2   9   6   -0.96    1.46
  -2   9   6    0.61    0.78
   1  -9  -6    1.86    1.07
  -1   9   6    0.47    0.94
  -1   9   6    0.16    0.76
   0  -9  -6   17.10    3.62
   0   9   6   14.52    2.56
   0   9   6   11.74    2.58
  -1  -9  -6   36.76    3.89
   1   9   6   34.19    4.08
   1   9   6   40.94    4.04
  -2  -9  -6   48.15    4.44
  -2  -9  -6   34.19    3.85
   2   9   6   51.03    4.72
   2   9   6   55.85    5.08
  -3  -9  -6   17.79    2.53
  -3  -9  -6   15.57    2.10
   3   9   6   17.74    3.37
   3   9   6   17.93    3.51
  -4  -9  -6    5.92    1.64
  -4  -9  -6    5.01    0.74
  -4  -9  -6    5.85    0.86
   4   9   6    9.48    2.58
   4   9   6   10.21    2.65
   5   9   6    0.85    1.11
   5   9   6   -0.43    1.12
   6   9   6    2.22    1.81
   6   9   6    1.75    1.38
   7   9   6    1.46    1.83
   7   9   6   -1.90    1.28
   8   9   6   13.28    3.74
   8   9   6    9.30    3.21
   9   9   6    4.43    2.84
   9   9   6    5.85    2.73
   6 -10  -6   11.50    3.81
   6 -10  -6   23.34    5.85
   5 -10  -6    2.68    2.27
   4 -10  -6   -0.88    1.64
   3 -10  -6   -0.04    1.28
   2 -10  -6   29.50    5.67
  -2  10   6   27.55    3.66
  -2  10   6   22.04    2.32
   1 -10  -6   39.64    4.67
  -1  10   6   37.85    4.23
   0 -10  -6   29.26    4.89
   0  10   6   21.28    3.76
   0  10   6   18.96    3.10
  -1 -10  -6   68.03    5.87
   1  10   6   58.95    5.22
   1  10   6   63.07    5.86
  -2 -10  -6    5.83    2.47
  -2 -10  -6    9.90    2.39
   2  10   6    8.42    2.35
   2  10   6   10.10    2.70
  -3 -10  -6    8.70    2.44
  -3 -10  -6    6.26    2.17
   3  10   6   10.38    2.80
   3  10   6    4.99    2.13
  -4 -10  -6    4.35    1.35
  -4 -10  -6    4.67    2.23
  -4 -10  -6    4.63    0.93
   4  10   6    6.41    2.11
   4  10   6    8.30    2.57
   5  10   6    1.95    1.25
   5  10   6    0.87    1.35
   6  10   6    6.83    2.49
   6  10   6    2.46    1.92
   7  10   6    9.74    3.09
   7  10   6   11.89    3.39
   8  10   6    9.15    3.10
   8  10   6    5.59    3.10
   4 -11  -6    3.04    2.49
   3 -11  -6   11.58    3.95
   2 -11  -6   38.22    4.95
  -2  11   6   24.73    2.39
  -2  11   6   25.49    4.48
   1 -11  -6   55.62    6.20
  -1  11   6   50.13    5.34
   0 -11  -6   27.70    5.16
   0  11   6   17.36    3.60
   0  11   6   18.78    3.21
  -1 -11  -6   27.93    3.84
   1  11   6   22.69    4.20
   1  11   6   25.29    3.41
  -2 -11  -6    2.81    1.53
   2  11   6    1.25    1.42
   2  11   6    3.50    1.80
  -3 -11  -6   -0.24    1.22
   3  11   6   -2.65    1.02
   3  11   6    0.44    1.29
  -4 -11  -6    4.63    2.00
  -4 -11  -6    3.80    1.14
   4  11   6    4.86    2.46
   4  11   6    9.76    2.84
   5  11   6   12.90    3.29
   5  11   6   12.32    3.34
   6  11   6    8.06    3.16
   6  11   6    6.88    2.79
   7  11   6   14.38    4.21
   7  11   6   12.38    3.76
   2 -12  -6   24.96    5.00
  -2  12   6   29.77    4.96
   1 -12  -6    4.86    2.71
  -1  12   6    3.83    2.33
  -1  12   6    4.52    1.97
   0 -12  -6    5.46    2.52
   0  12   6   11.08    2.69
   0  12   6   10.26    3.10
  -1 -12  -6   -0.09    1.68
   1  12   6    1.32    1.87
   1  12   6    1.49    1.85
  -2 -12  -6    0.12    1.45
   2  12   6    5.32    2.09
   2  12   6    0.56    1.55
  -3 -12  -6    2.60    1.91
  -3 -12  -6    2.86    2.03
   3  12   6    5.44    2.24
   3  12   6    3.81    2.36
  -4 -12  -6    3.10    2.63
   4  12   6   13.83    3.46
   4  12   6    5.54    2.75
   5  12   6   12.46    3.37
   5  12   6   17.80    4.12
   4  10  -7    1.84    1.92
   3  10  -7    3.31    1.93
   2  10  -7    5.50    2.50
  -2 -10   7    1.93    2.12
   1  10  -7   16.84    4.29
  -1 -10   7   23.14    4.19
   0  10  -7   18.50    3.60
  -1  10  -7   22.37    3.72
   1 -10   7   12.82    3.58
   2 -10   7   16.54    4.51
   6   9  -7    0.09    2.46
   5   9  -7    5.09    2.15
   4   9  -7    9.69    2.86
   3   9  -7   25.99    4.54
  -3  -9   7   15.10    2.53
   2   9  -7   22.07    3.91
  -2  -9   7   14.08    2.95
   1   9  -7   44.20    4.52
  -1  -9   7   31.74    4.21
   0   9  -7   34.31    3.94
   0  -9   7   34.02    4.65
  -1   9  -7    6.29    2.11
   1  -9   7    4.00    2.14
   2  -9   7   11.98    3.64
   2  -9   7   12.34    3.27
   3  -9   7    0.85    1.80
   3  -9   7   -3.79    1.40
   4  -9   7   -4.08    1.60
   4  -9   7   -0.60    1.49
   5  -9   7    4.56    3.18
   7   8  -7    0.85    1.35
   6   8  -7   -1.46    1.43
   5   8  -7    2.30    1.66
   4   8  -7   24.50    5.48
   3   8  -7   36.13    4.41
  -3  -8   7   27.85    3.27
  -3  -8   7   22.42    2.81
   2   8  -7   46.07    4.80
  -2  -8   7   44.40    4.35
   1   8  -7   34.85    3.81
  -1  -8   7   27.63    3.76
   0   8  -7   10.67    2.48
   0  -8   7    9.72    2.97
   0  -8   7   12.05    3.27
  -1   8  -7    1.53    1.01
   1  -8   7    0.84    1.36
   1  -8   7    0.17    1.34
  -2   8  -7   13.22    2.25
  -2   8  -7   14.00    3.09
   2  -8   7   15.15    3.85
  -3   8  -7    7.96    3.14
   3  -8   7   17.87    4.16
   3  -8   7   14.23    3.33
   4  -8   7   16.49    4.82
   4  -8   7   21.16    4.10
   5  -8   7   15.54    4.36
   5  -8   7   21.52    4.06
   6  -8   7   14.30    3.59
   6  -8   7   22.58    5.77
   8   7  -7    3.48    2.67
   7   7  -7    4.74    1.98
   6   7  -7   16.28    3.51
   5   7  -7   35.66    5.72
   4   7  -7   38.04    4.55
  -4  -7   7   30.46    1.88
  -4  -7   7   26.60    2.03
  -3  -7   7   18.01    2.30
  -3  -7   7   17.06    2.22
   2   7  -7   23.68    3.85
  -2  -7   7   20.71    2.83
   1   7  -7   25.90    3.29
  -1  -7   7   19.58    3.71
   0   7  -7   -0.21    0.67
   0  -7   7    0.83    1.03
  -1   7  -7    7.93    2.31
  -1   7  -7    5.96    1.54
   1  -7   7    3.16    1.67
  -2   7  -7   42.16    3.84
  -2   7  -7   48.34    3.41
   2  -7   7   40.53    4.60
  -3   7  -7   19.33    2.87
   3  -7   7   23.71    4.11
  -4   7  -7   27.33    2.15
   4  -7   7   32.94    3.95
   5  -7   7   43.60    6.21
   6  -7   7   13.16    3.28
   6  -7   7   27.85    5.57
   7  -7   7    1.53    2.06
   7  -7   7    0.88    2.42
   9   6  -7   -0.31    2.04
   9   6  -7    2.92    2.26
   8   6  -7   -3.73    1.43
   8   6  -7   -0.75    1.59
   7   6  -7    9.97    2.86
   7   6  -7    6.88    2.21
   6   6  -7   29.55    4.01
   6   6  -7   31.83    5.51
   5   6  -7   51.57    5.55
   5   6  -7   56.14    5.54
   4   6  -7   52.63    5.18
  -4  -6   7   45.07    2.62
  -4  -6   7   40.63    2.48
   3   6  -7   15.03    3.12
  -3  -6   7   11.55    1.91
   2   6  -7    2.33    1.32
  -2  -6   7    2.00    1.20
   1   6  -7    1.04    0.87
  -1  -6   7    1.46    1.09
   0   6  -7   61.54    4.63
   0   6  -7   56.56    4.49
   0  -6   7   58.69    5.35
  -1   6  -7   48.17    3.55
  -1   6  -7   36.20    4.36
   1  -6   7   44.13    4.47
  -2   6  -7   27.09    2.27
  -2   6  -7   27.19    2.92
   2  -6   7   22.27    3.84
  -3   6  -7   42.45    3.58
   3  -6   7   43.02    4.51
   4  -6   7   18.72    3.53
   5  -6   7    9.93    2.50
   6  -6   7    2.05    1.29
   6  -6   7    2.23    1.82
   7  -6   7    4.49    2.99
   7  -6   7    4.45    1.76
   8  -6   7    8.37    2.81
   8  -6   7   11.21    4.40
   9   5  -7    9.34    2.88
   9   5  -7    8.24    3.80
   8   5  -7   23.70    4.30
   8   5  -7   24.50    5.08
   7   5  -7   38.78    4.59
   6   5  -7   46.13    5.35
   6   5  -7   36.87    4.40
   5   5  -7   17.09    3.24
   5   5  -7   20.30    3.92
   4   5  -7    6.35    2.00
   4   5  -7    6.61    2.09
  -4  -5   7    8.89    1.18
   3   5  -7    1.37    0.94
   3   5  -7    1.62    1.19
  -3  -5   7    2.84    1.02
   2   5  -7   41.24    3.94
  -2  -5   7   33.88    3.67
   1   5  -7   35.33    3.43
   1   5  -7   37.71    3.54
  -1  -5   7   34.43    3.66
   0   5  -7   90.81    5.93
   0   5  -7   96.00    5.90
   0  -5   7  100.80    6.78
  -1   5  -7  153.48    8.27
  -1   5  -7  164.38    8.02
   1  -5   7  168.96    9.57
  -2   5  -7   35.46    3.07
  -2   5  -7   36.03    2.41
   2  -5   7   37.26    3.84
  -3   5  -7   94.85    5.57
   3  -5   7   89.58    6.49
  -4   5  -7    7.03    1.38
   4  -5   7    9.39    2.44
   5  -5   7    3.03    1.27
   6  -5   7    4.15    1.55
   7  -5   7   13.24    2.68
   8  -5   7    5.09    1.79
   8  -5   7    3.10    2.14
   9  -5   7   18.27    3.43
   9  -5   7   14.75    4.24
  10   4  -7    4.53    2.78
  10   4  -7    6.83    3.60
   9   4  -7    4.05    2.09
   9   4  -7    7.03    2.81
   8   4  -7   12.37    2.94
   8   4  -7   12.35    3.29
   7   4  -7   51.49    5.88
   7   4  -7   56.38    5.35
   6   4  -7   11.62    2.62
   6   4  -7   14.45    3.21
   5   4  -7    0.76    0.94
   5   4  -7    0.46    0.82
   4   4  -7    2.17    1.30
   4   4  -7    4.72    1.63
   4   4  -7    2.83    1.07
  -4  -4   7    2.75    0.78
  -4  -4   7    3.50    1.46
   3   4  -7   26.69    3.24
   3   4  -7   23.33    3.01
   3   4  -7   19.84    2.46
  -3  -4   7   26.31    3.00
   2   4  -7   94.00    6.65
   2   4  -7   84.50    6.03
   2   4  -7   99.30    5.81
   2   4  -7   86.34    5.81
  -2  -4   7   84.04    5.92
  -2  -4   7   99.05    6.28
  -2  -4   7   86.16    5.19
   1   4  -7  104.22    7.30
   1   4  -7  110.24    6.62
   1   4  -7  104.57    6.26
   1   4  -7  111.00    6.51
  -1  -4   7  110.94    6.87
  -1  -4   7  106.70    6.79
   0   4  -7   56.87    4.08
   0   4  -7   61.72    4.12
   0   4  -7   51.05    4.03
   0  -4   7   55.41    4.48
   0  -4   7   55.73    4.62
  -1   4  -7   87.10    5.66
  -1   4  -7   82.46    4.74
  -1   4  -7   86.17    5.19
   1  -4   7   86.10    6.14
   1  -4   7   87.23    5.85
  -2   4  -7   12.47    1.69
  -2   4  -7   12.92    2.30
  -2   4  -7   12.53    1.16
   2  -4   7    9.35    2.16
   2  -4   7   10.62    2.28
  -3   4  -7    7.01    1.53
   3  -4   7    9.71    2.24
  -4   4  -7    9.40    1.63
   4  -4   7   10.24    2.33
   5  -4   7   13.82    2.63
   6  -4   7   12.23    2.61
   7  -4   7   35.15    3.77
   8  -4   7   13.57    2.85
   9  -4   7   18.61    3.38
   9  -4   7    7.97    3.36
  10   3  -7   18.46    4.44
  10   3  -7   16.66    4.92
   9   3  -7   26.61    5.20
   9   3  -7   23.94    3.33
   8   3  -7   17.94    3.56
   8   3  -7   17.72    4.14
   7   3  -7    5.40    1.64
   7   3  -7    6.17    1.99
   6   3  -7    0.52    0.89
   6   3  -7    1.59    1.09
   5   3  -7   62.97    5.04
  -5  -3   7   54.90    3.13
  -5  -3   7   59.02    5.23
   4   3  -7    3.05    0.99
   4   3  -7    0.69    0.69
  -4  -3   7    1.90    1.13
  -4  -3   7    1.37    0.60
   3   3  -7   74.29    4.75
   3   3  -7   75.71    5.68
   3   3  -7   76.94    5.37
  -3  -3   7   75.84    4.38
  -3  -3   7   73.02    5.31
  -3  -3   7   77.44    5.16
   2   3  -7  146.19    7.54
   2   3  -7  144.76    8.55
   2   3  -7  144.95    7.96
  -2  -3   7  145.54    7.95
  -2  -3   7  148.21    7.35
  -2  -3   7  148.43    8.21
   1   3  -7   59.02    4.08
   1   3  -7   60.85    4.18
   1   3  -7   63.05    4.95
  -1  -3   7   64.82    4.50
  -1  -3   7   56.84    4.45
   0   3  -7   36.26    3.69
   0   3  -7   34.91    2.93
   0   3  -7   32.90    2.91
   0   3  -7   34.86    2.83
   0  -3   7   31.57    3.03
   0  -3   7   40.10    3.48
  -1   3  -7    9.28    1.68
  -1   3  -7   10.91    1.88
  -1   3  -7   11.19    1.24
   1  -3   7   12.86    2.32
   1  -3   7    8.37    1.82
  -2   3  -7    4.86    1.39
  -2   3  -7    3.59    1.17
  -2   3  -7    4.29    0.67
   2  -3   7    1.14    1.18
   2  -3   7    4.00    2.17
  -3   3  -7   27.05    2.93
  -3   3  -7   27.47    2.53
   3  -3   7   26.34    2.83
   3  -3   7   25.80    3.20
  -4   3  -7   21.10    2.82
  -4   3  -7   19.11    2.08
   4  -3   7   21.79    2.58
   4  -3   7   20.59    2.05
   4  -3   7   26.33    3.53
  -5   3  -7   37.16    2.90
   5  -3   7   42.77    3.76
   5  -3   7   36.92    2.85
   6  -3   7   38.87    2.95
   6  -3   7   52.34    4.44
   7  -3   7   23.59    3.74
   7  -3   7   24.59    2.09
   8  -3   7   28.66    3.64
   9  -3   7    1.25    1.06
   9  -3   7    2.23    2.14
  10  -3   7   -2.85    1.74
  10  -3   7    0.73    2.01
  10   2  -7   17.92    4.49
  10   2  -7   16.10    3.41
   9   2  -7    4.91    2.20
   9   2  -7    7.18    2.65
   8   2  -7    3.65    1.76
   7   2  -7    3.97    1.39
   7   2  -7    4.49    1.75
   6   2  -7    4.62    1.50
   6   2  -7    7.23    1.44
   5   2  -7  169.69    8.18
   5   2  -7  173.42    9.47
  -5  -2   7  159.60    7.75
  -5  -2   7  158.49    9.49
   4   2  -7  110.47    7.04
   4   2  -7  106.12    6.64
   4   2  -7  107.45    5.80
  -4  -2   7  101.02    6.81
  -4  -2   7  112.06    5.69
   3   2  -7  169.83    8.08
   3   2  -7  168.76    8.82
   3   2  -7  171.92    9.17
  -3  -2   7  167.70    8.41
  -3  -2   7  157.01    8.92
  -3  -2   7  172.58    8.03
   2   2  -7  428.50   17.18
   2   2  -7  402.99   17.67
   2   2  -7  396.81   18.20
  -2  -2   7  414.81   17.45
  -2  -2   7  418.26   17.15
  -2  -2   7  414.14   18.06
   1   2  -7    1.41    0.69
   1   2  -7    2.47    0.73
   1   2  -7    2.71    1.16
  -1  -2   7    1.12    0.62
  -1  -2   7   -0.20    0.55
  -1  -2   7    1.25    0.57
   0   2  -7    8.65    1.58
   0   2  -7    8.38    1.63
   0   2  -7    9.95    2.20
   0  -2   7    8.38    1.67
   0  -2   7   11.03    2.02
  -1   2  -7    2.24    0.76
  -1   2  -7    1.42    0.68
   1  -2   7    1.22    0.61
   1  -2   7    0.60    0.44
   1  -2   7    0.87    0.55
  -2   2  -7   17.02    2.04
  -2   2  -7   16.15    1.77
  -2   2  -7   14.93    1.10
  -2   2  -7   15.98    1.09
   2  -2   7   15.38    2.56
   2  -2   7   22.09    2.26
   2  -2   7   14.89    1.77
  -3   2  -7   97.39    6.10
  -3   2  -7   96.56    5.52
   3  -2   7  106.33    6.11
   3  -2   7   97.86    5.42
   3  -2   7   95.00    6.29
  -4   2  -7   68.51    4.50
  -4   2  -7   73.28    5.27
   4  -2   7   78.57    5.26
   4  -2   7   77.39    6.28
   4  -2   7   76.67    4.47
  -5   2  -7   43.16    3.39
   5  -2   7   50.57    4.48
   5  -2   7   50.40    4.17
   5  -2   7   47.97    3.37
   6  -2   7   44.43    4.11
   6  -2   7   43.09    3.20
   7  -2   7   10.99    1.84
   7  -2   7   13.61    2.75
   8  -2   7    5.15    1.62
   8  -2   7    2.30    0.99
   9  -2   7   -0.29    1.13
   9  -2   7    1.96    0.93
  10  -2   7   -4.03    1.55
  10  -2   7    1.67    1.57
  10   1  -7   -1.15    1.03
  10   1  -7    3.62    1.74
  10   1  -7   -0.74    0.75
   9   1  -7    2.67    1.59
   9   1  -7    0.13    0.81
   9   1  -7    1.50    1.05
   8   1  -7   -0.66    0.57
   8   1  -7   -1.02    0.82
   8   1  -7   -0.13    0.74
   7   1  -7    4.88    1.74
   7   1  -7    6.81    1.39
   7   1  -7    4.91    1.28
   6   1  -7   67.65    4.20
   6   1  -7   65.51    3.92
   6   1  -7   60.89    5.07
   5   1  -7   56.88    4.51
   5   1  -7   50.84    4.26
   5   1  -7   54.81    3.36
   5   1  -7   48.98    3.42
  -5  -1   7   43.32    4.29
  -5  -1   7   51.43    3.69
   4   1  -7  156.47    7.02
   4   1  -7  142.88    7.96
   4   1  -7  145.91    7.23
   4   1  -7  145.90    8.23
  -4  -1   7  142.79    8.44
  -4  -1   7  144.44    7.39
   3   1  -7   31.95    2.29
   3   1  -7   30.99    2.99
   3   1  -7   30.80    2.50
   3   1  -7   23.74    2.53
  -3  -1   7   32.19    2.68
  -3  -1   7   26.18    2.29
  -3  -1   7   26.61    2.79
   2   1  -7  151.74    7.85
   2   1  -7  133.37    6.62
   2   1  -7  138.32    7.27
  -2  -1   7  144.99    6.93
  -2  -1   7  136.84    7.58
  -2  -1   7  139.95    7.02
   1   1  -7    6.95    1.25
   1   1  -7    6.64    1.43
   1   1  -7    6.10    1.57
  -1  -1   7    6.00    1.46
  -1  -1   7    4.37    1.12
  -1  -1   7    5.24    1.19
   0   1  -7   36.32    3.24
   0   1  -7   44.09    3.02
   0   1  -7   38.91    2.94
   0  -1   7   38.18    3.11
   0  -1   7   41.87    3.16
   0  -1   7   41.59    3.20
   0  -1   7   40.49    2.94
  -1   1  -7   47.91    3.29
  -1   1  -7   43.20    3.59
  -1   1  -7   45.03    3.32
   1  -1   7   45.01    3.26
   1  -1   7   48.55    3.51
   1  -1   7   45.42    3.27
  -2   1  -7  362.10   15.01
  -2   1  -7  360.46   13.60
  -2   1  -7  348.99   15.34
   2  -1   7  345.60   15.16
   2  -1   7  345.32   14.84
   2  -1   7  350.61   15.40
  -3   1  -7   88.40    5.09
  -3   1  -7   82.92    5.41
   3  -1   7   82.13    4.83
   3  -1   7   92.90    5.48
   3  -1   7   85.72    5.41
  -4   1  -7   84.90    5.36
   4  -1   7   96.17    5.98
   4  -1   7   99.73    5.37
   4  -1   7   97.49    6.09
  -5   1  -7   28.15    2.64
   5  -1   7   29.08    2.55
   5  -1   7   28.72    3.25
   5  -1   7   28.76    3.02
   6  -1   7   -0.18    0.69
   6  -1   7   -0.17    1.09
   6  -1   7    2.49    1.04
   7  -1   7    0.46    0.66
   7  -1   7    2.69    1.34
   8  -1   7   17.73    3.05
   8  -1   7   20.73    3.42
   9  -1   7    3.01    1.59
   9  -1   7    2.15    1.25
  10  -1   7   11.44    3.77
  10  -1   7    9.91    2.25
  10  -1   7    9.07    1.90
  11   0  -7    4.63    2.44
  11   0  -7    3.01    2.37
  11   0  -7    1.76    2.75
  10   0  -7    0.59    1.28
  10   0  -7    3.20    1.57
   9   0  -7    3.88    0.45
   9   0  -7    6.60    2.32
   9   0  -7    6.34    0.53
   9   0  -7    6.38    1.75
   8   0  -7   29.40    1.92
   8   0  -7   31.52    3.18
   8   0  -7   26.48    1.86
   8   0  -7   29.34    3.71
   7   0  -7  103.10    6.39
   7   0  -7  110.51    7.54
   7   0  -7  107.11    5.04
   6   0  -7  191.46   10.53
   6   0  -7  209.71    8.66
   6   0  -7  197.47   11.02
   6   0  -7  212.09   10.11
   5   0  -7   21.46    1.66
   5   0  -7   24.66    2.34
   5   0  -7   23.49    2.79
   5   0  -7   22.09    2.55
  -5   0   7   18.96    2.36
   4   0  -7   27.66    2.75
   4   0  -7   35.13    2.76
   4   0  -7   31.09    2.05
   4   0  -7   28.35    2.97
  -4   0   7   31.33    3.23
  -4   0   7   29.00    2.75
   3   0  -7    7.18    1.60
   3   0  -7   12.17    2.26
   3   0  -7   10.69    1.45
   3   0  -7    9.35    1.01
  -3   0   7   10.05    2.06
  -3   0   7    7.84    1.02
  -3   0   7   10.52    1.46
   2   0  -7   32.49    2.91
   2   0  -7   36.86    2.87
   2   0  -7   32.29    2.21
   2   0  -7   32.43    2.69
  -2   0   7   31.82    2.92
  -2   0   7   33.45    2.68
  -2   0   7   34.94    2.34
   1   0  -7   89.20    5.32
   1   0  -7  101.99    5.66
   1   0  -7   95.47    5.29
   1   0  -7   90.66    4.79
  -1   0   7   94.97    5.44
  -1   0   7   89.95    5.42
  -1   0   7   97.73    4.86
  -1   0   7   98.50    5.40
   0   0  -7  296.71   12.96
   0   0  -7  281.14   12.30
   0   0  -7  309.17   12.79
   0   0   7  282.47   12.80
   0   0   7  281.73   12.23
   0   0   7  299.16   12.81
   0   0   7  287.33   12.74
  -1   0  -7   70.85    4.20
  -1   0  -7   69.66    4.17
  -1   0  -7   67.49    4.37
  -1   0  -7   64.70    3.57
   1   0   7   67.44    4.15
   1   0   7   63.33    4.31
   1   0   7   66.05    4.04
   1   0   7   74.94    4.30
  -2   0  -7  282.80   12.89
  -2   0  -7  290.25   11.54
  -2   0  -7  294.39   12.70
  -2   0  -7  275.45   12.71
   2   0   7  301.30   12.65
   2   0   7  274.94   12.60
   2   0   7  298.43   12.54
  -3   0  -7   56.53    2.94
  -3   0  -7   56.30    3.91
   3   0   7   62.36    4.18
   3   0   7   57.60    3.87
   3   0   7   63.32    3.92
  -4   0  -7   25.09    2.60
   4   0   7   31.56    2.66
   4   0   7   28.09    1.66
   4   0   7   31.83    2.71
   4   0   7   31.28    2.93
  -5   0  -7    8.29    1.71
   5   0   7    9.54    0.84
   5   0   7   11.60    2.02
   5   0   7    7.43    1.70
   5   0   7    8.68    1.66
   6   0   7   18.85    1.41
   6   0   7   24.64    2.51
   6   0   7   24.14    2.81
   6   0   7   19.39    2.52
   7   0   7   11.85    1.11
   7   0   7   14.64    2.49
   7   0   7   12.16    2.80
   7   0   7    8.98    2.18
   8   0   7   24.24    3.69
   8   0   7   14.36    1.28
   8   0   7   16.49    3.10
   8   0   7   14.03    2.48
   9   0   7    9.71    2.02
   9   0   7    6.73    0.96
   9   0   7   10.78    2.36
  10   0   7   24.23    2.98
  11   0   7    4.04    1.74
  11   0   7   -0.69    1.74
  11   0   7    3.98    1.83
  11   0   7    0.61    1.81
  10  -1  -7   16.66    4.03
  10  -1  -7   10.10    2.25
   9  -1  -7   17.88    3.25
   9  -1  -7   16.97    3.45
   8  -1  -7   36.99    3.75
   8  -1  -7   32.33    4.11
   7  -1  -7  114.71    7.04
   7  -1  -7  116.52    8.06
   7  -1  -7  116.63    7.29
   6  -1  -7   32.37    3.72
   6  -1  -7   35.28    3.84
   6  -1  -7   35.24    3.32
   5  -1  -7   55.23    4.62
   5  -1  -7   49.78    3.79
   5  -1  -7   61.35    4.28
   5  -1  -7   49.74    2.29
  -5   1   7   45.05    4.09
   4  -1  -7   -0.42    0.34
   4  -1  -7    0.34    0.47
   4  -1  -7   -0.24    0.15
   4  -1  -7    0.28    0.43
  -4   1   7    1.46    0.65
   3  -1  -7    4.10    1.33
   3  -1  -7    5.49    1.20
   3  -1  -7    4.03    0.67
   3  -1  -7    3.64    1.10
  -3   1   7    3.53    0.94
  -3   1   7    4.44    1.26
  -3   1   7    3.10    0.60
   2  -1  -7   81.94    4.88
   2  -1  -7   86.98    4.16
   2  -1  -7   88.37    5.13
   2  -1  -7   88.81    5.31
  -2   1   7   91.03    5.23
  -2   1   7   85.44    4.09
  -2   1   7   83.60    5.34
  -2   1   7   86.18    5.09
   1  -1  -7  236.56   11.08
   1  -1  -7  250.50   10.90
   1  -1  -7  239.02   10.19
   1  -1  -7  241.08   11.07
  -1   1   7  252.88   10.18
  -1   1   7  233.00   11.12
  -1   1   7  258.55   11.21
  -1   1   7  244.14   11.00
   0  -1  -7  177.23    8.28
   0  -1  -7  173.22    8.60
   0  -1  -7  164.18    7.81
   0  -1  -7  181.44    8.38
   0   1   7  174.32    8.30
   0   1   7  174.83    7.83
   0   1   7  178.19    8.34
   0   1   7  174.04    8.50
  -1  -1  -7   96.43    5.27
  -1  -1  -7   92.15    4.74
  -1  -1  -7   88.53    5.05
   1   1   7   94.10    5.03
   1   1   7   98.12    5.52
   1   1   7   93.95    5.03
   1   1   7   93.22    5.17
  -2  -1  -7   38.10    2.99
  -2  -1  -7   37.58    2.44
  -2  -1  -7   38.91    2.85
   2   1   7   39.85    2.93
   2   1   7   37.82    2.43
   2   1   7   36.32    2.61
   2   1   7   40.10    2.99
   2   1   7   34.81    3.02
  -3  -1  -7   71.15    4.70
  -3  -1  -7   72.26    4.02
   3   1   7   83.21    4.84
   3   1   7   81.88    4.40
   3   1   7   76.77    4.85
   3   1   7   79.54    3.98
  -4  -1  -7    9.38    1.19
  -4  -1  -7   11.86    2.06
   4   1   7   11.53    2.90
   4   1   7   11.98    2.07
   4   1   7   10.18    1.13
   4   1   7   13.43    1.78
   5   1   7    4.57    1.39
   5   1   7    1.98    0.62
   5   1   7    2.90    1.03
   5   1   7    2.97    0.97
   6   1   7   15.46    1.61
   6   1   7   12.67    2.54
   6   1   7   13.38    1.83
   7   1   7   31.90    2.59
   7   1   7   31.78    3.53
   7   1   7   33.33    3.34
   7   1   7   28.43    2.82
   8   1   7   32.52    3.47
   8   1   7   30.74    2.69
   8   1   7   26.88    3.00
   8   1   7   29.45    3.61
   9   1   7   26.05    3.30
   9   1   7   25.85    2.53
   9   1   7   26.69    3.56
  10   1   7    7.15    1.94
  10   1   7   18.19    3.27
  10   1   7    9.17    1.71
  11   1   7    3.87    2.11
  11   1   7    2.28    1.29
  11   1   7   -2.70    1.40
  11   1   7    1.89    1.77
  10  -2  -7   23.05    4.67
  10  -2  -7   11.14    2.63
   9  -2  -7   28.13    3.43
   9  -2  -7   21.10    4.19
   8  -2  -7   29.96    3.99
   8  -2  -7   25.51    3.44
   8  -2  -7   23.91    3.31
   7  -2  -7   56.97    5.39
   7  -2  -7   47.38    4.61
   7  -2  -7   57.90    5.01
   6  -2  -7    4.77    1.82
   6  -2  -7    5.49    1.45
   6  -2  -7    6.49    1.91
   5  -2  -7    6.77    1.93
   5  -2  -7    9.09    2.18
   5  -2  -7    6.14    1.40
  -5   2   7    7.87    2.01
   4  -2  -7   25.84    2.29
   4  -2  -7   22.35    4.59
   4  -2  -7   21.10    2.50
  -4   2   7   23.75    2.89
   3  -2  -7  186.88    8.99
   3  -2  -7  199.77    9.76
   3  -2  -7  199.90   10.03
  -3   2   7  191.13    9.89
   2  -2  -7   66.83    4.40
   2  -2  -7   75.93    4.68
   2  -2  -7   69.71    4.60
   2  -2  -7   71.61    4.19
  -2   2   7   68.19    3.17
  -2   2   7   68.75    4.22
  -2   2   7   60.34    4.44
  -2   2   7   64.94    4.53
   1  -2  -7  514.72   20.67
   1  -2  -7  511.00   20.36
   1  -2  -7  497.61   20.51
   1  -2  -7  536.41   20.94
  -1   2   7  482.73   20.76
  -1   2   7  510.13   20.38
  -1   2   7  485.31   20.70
  -1   2   7  491.17   19.43
   0  -2  -7  132.63    6.69
   0  -2  -7  139.57    6.89
   0  -2  -7  139.78    7.20
   0  -2  -7  133.12    6.69
   0   2   7  134.80    7.09
   0   2   7  132.42    6.31
   0   2   7  142.49    6.83
  -1  -2  -7  245.58   10.47
  -1  -2  -7  230.97   10.27
  -1  -2  -7  235.04   11.08
  -1  -2  -7  243.76   10.90
   1   2   7  240.43   10.43
   1   2   7  226.06   10.26
   1   2   7  236.33   10.46
   1   2   7  243.03   11.05
   1   2   7  246.13   10.73
  -2  -2  -7   21.28    2.12
  -2  -2  -7   21.92    1.84
  -2  -2  -7   17.57    2.15
   2   2   7   19.48    2.02
   2   2   7   23.24    2.20
   2   2   7   18.45    1.63
   2   2   7   19.37    1.79
   2   2   7   23.53    2.25
  -3  -2  -7    1.90    0.83
   3   2   7    1.33    0.66
   3   2   7    0.78    0.45
   3   2   7    1.96    0.50
   3   2   7    1.22    0.76
   3   2   7    1.52    0.66
  -4  -2  -7    6.30    1.29
  -4  -2  -7    5.28    1.38
   4   2   7    6.73    1.28
   4   2   7    4.53    1.31
   4   2   7    6.13    1.05
   4   2   7    7.55    1.80
   4   2   7    7.56    1.86
  -5  -2  -7  103.68    6.09
   5   2   7  117.87    7.02
   5   2   7  116.66    6.02
   5   2   7  109.55    5.41
   5   2   7  120.64    6.97
   5   2   7  100.02    6.50
   6   2   7    8.39    1.89
   6   2   7    8.52    2.09
   6   2   7    9.62    1.27
   6   2   7   11.33    1.88
   7   2   7   24.58    3.22
   7   2   7   32.82    3.47
   7   2   7   28.54    2.80
   7   2   7   27.62    2.43
   8   2   7    9.07    2.34
   8   2   7    7.62    1.53
   8   2   7   10.37    2.51
   8   2   7    8.20    1.82
   8   2   7   10.23    1.70
   9   2   7    5.99    1.84
   9   2   7    8.07    2.10
   9   2   7    8.03    1.88
   9   2   7    4.22    1.33
   9   2   7    7.23    1.57
  10   2   7    1.31    1.59
  10   2   7    4.27    1.42
  10   2   7    2.14    1.59
  10   2   7    1.22    1.19
  11   2   7    3.08    1.68
  11   2   7    2.15    1.93
  11   2   7    2.24    2.09
  11   2   7    4.70    1.84
  10  -3  -7   14.74    2.99
  10  -3  -7   26.17    5.02
   9  -3  -7   29.47    5.51
   9  -3  -7   20.18    4.08
   8  -3  -7    8.55    2.69
   8  -3  -7    8.90    2.59
   8  -3  -7   10.23    2.03
   7  -3  -7    0.24    0.99
   7  -3  -7    2.42    1.39
   6  -3  -7    0.91    0.92
   6  -3  -7    2.91    1.41
   6  -3  -7   -0.44    0.55
   5  -3  -7   27.50    3.41
   5  -3  -7   31.85    2.59
   5  -3  -7   25.51    3.19
   5  -3  -7   33.02    3.57
  -5   3   7   31.04    3.63
   4  -3  -7   71.12    7.28
   4  -3  -7   83.75    8.15
   4  -3  -7   76.96    4.51
   4  -3  -7   81.15    5.84
  -4   3   7   68.36    5.53
   3  -3  -7  242.43   11.68
   3  -3  -7  241.67   10.50
   3  -3  -7  241.04   11.84
   3  -3  -7  230.45   11.23
  -3   3   7  234.67   10.61
  -3   3   7  215.20   11.65
   2  -3  -7  126.49    7.03
   2  -3  -7  143.03    7.30
   2  -3  -7  120.52    6.18
   2  -3  -7  115.35    6.61
  -2   3   7  116.46    5.07
  -2   3   7  121.30    6.27
  -2   3   7  112.42    6.96
   1  -3  -7   75.45    4.70
   1  -3  -7   78.02    4.45
   1  -3  -7   73.35    4.84
   1  -3  -7   78.83    4.70
  -1   3   7   74.21    4.93
  -1   3   7   68.74    3.69
  -1   3   7   74.11    4.36
   0  -3  -7  160.18    7.70
   0  -3  -7  163.23    8.22
   0  -3  -7  159.47    7.84
   0  -3  -7  154.57    7.80
   0   3   7  159.67    7.91
   0   3   7  157.84    8.19
   0   3   7  168.30    7.81
  -1  -3  -7   17.87    1.66
  -1  -3  -7   20.11    2.19
  -1  -3  -7   18.63    2.01
  -1  -3  -7   19.53    1.94
   1   3   7   20.70    2.10
   1   3   7   18.90    1.93
   1   3   7   17.58    1.66
   1   3   7   19.60    2.13
  -2  -3  -7    3.51    0.78
  -2  -3  -7    4.07    1.28
  -2  -3  -7    1.43    0.63
  -2  -3  -7    1.95    0.73
   2   3   7    3.04    0.90
   2   3   7    4.09    0.84
   2   3   7    3.71    1.04
   2   3   7    3.08    1.02
  -3  -3  -7  151.52    8.59
  -3  -3  -7  154.25    8.07
   3   3   7  170.24    6.91
   3   3   7  163.50    8.55
   3   3   7  173.23    8.08
   3   3   7  166.16    8.37
  -4  -3  -7   45.31    3.62
   4   3   7   50.32    3.59
   4   3   7   47.63    2.38
   4   3   7   52.18    4.15
   4   3   7   50.73    3.84
  -5  -3  -7  349.82   16.13
   5   3   7  330.04   16.05
   5   3   7  373.59   13.81
   5   3   7  381.00   17.08
   5   3   7  385.38   16.08
   6   3   7   77.23    5.47
   6   3   7   82.90    6.08
   6   3   7   70.53    3.78
   6   3   7   81.44    3.45
   6   3   7   80.72    5.31
   7   3   7   19.05    3.37
   7   3   7   18.31    1.23
   7   3   7   16.79    3.19
   7   3   7   16.48    1.32
   7   3   7   20.41    3.59
   7   3   7   18.35    2.93
   8   3   7   17.85    3.43
   8   3   7   13.63    2.94
   8   3   7   13.81    1.11
   8   3   7   14.93    2.75
   8   3   7   14.10    3.04
   8   3   7   14.72    1.22
   9   3   7   -0.51    0.77
   9   3   7   -1.29    0.82
  10   3   7    1.72    1.99
  10   3   7    3.28    1.61
  11   3   7   -1.53    1.58
  11   3   7    7.13    2.08
  11   3   7   -0.80    1.74
  11   3   7    2.29    1.88
  10  -4  -7   12.36    3.27
  10  -4  -7   13.06    3.15
   9  -4  -7    6.99    2.15
   9  -4  -7    7.45    2.65
   8  -4  -7   -1.04    1.11
   8  -4  -7    1.24    1.83
   8  -4  -7    0.74    0.94
   7  -4  -7    4.47    1.09
   7  -4  -7    8.94    2.95
   7  -4  -7    7.17    2.49
   6  -4  -7   22.89    2.12
   6  -4  -7   20.98    3.97
   6  -4  -7   25.18    3.55
   5  -4  -7  203.79   11.64
   5  -4  -7  203.85   11.43
   5  -4  -7  185.42    8.87
   4  -4  -7  217.11    9.87
   4  -4  -7  216.65   11.15
   4  -4  -7  228.87   12.01
   4  -4  -7  250.31   12.48
  -4   4   7  199.77   11.85
   3  -4  -7   58.18    5.63
   3  -4  -7   66.94    3.95
   3  -4  -7   56.00    4.41
   3  -4  -7   65.85    5.67
  -3   4   7   68.23    4.08
   2  -4  -7  107.62    6.65
   2  -4  -7  104.14    6.53
   2  -4  -7  106.75    5.60
   2  -4  -7  111.05    6.28
  -2   4   7   96.30    6.58
  -2   4   7  106.29    5.63
   1  -4  -7   16.45    2.09
   1  -4  -7   12.18    2.05
   1  -4  -7   13.08    1.58
   1  -4  -7   11.79    1.65
  -1   4   7   12.98    1.58
  -1   4   7   13.98    2.49
  -1   4   7   13.82    1.85
   0  -4  -7   46.50    3.55
   0  -4  -7   57.11    4.11
   0  -4  -7   52.80    3.79
   0  -4  -7   53.25    3.62
   0   4   7   49.36    3.92
   0   4   7   57.54    3.70
   0   4   7   52.45    3.83
  -1  -4  -7  179.31    9.39
  -1  -4  -7  192.30    9.48
  -1  -4  -7  190.70    9.56
  -1  -4  -7  205.54    8.80
   1   4   7  195.50    9.39
   1   4   7  195.08    9.42
   1   4   7  199.41    9.69
  -2  -4  -7   33.31    2.10
  -2  -4  -7   32.68    3.10
  -2  -4  -7   29.33    2.83
  -2  -4  -7   30.44    2.85
   2   4   7   33.55    2.83
   2   4   7   30.14    2.72
   2   4   7   29.52    2.81
  -3  -4  -7   42.18    3.68
   3   4   7   52.36    3.76
   3   4   7   48.99    3.73
   3   4   7   55.98    4.28
  -4  -4  -7   79.79    5.50
   4   4   7   75.80    5.67
   4   4   7   81.45    5.10
   4   4   7   86.64    5.39
  -5  -4  -7   11.80    2.37
   5   4   7   10.87    2.59
   5   4   7   14.73    2.37
   5   4   7    6.61    1.75
   6   4   7   22.90    2.66
   6   4   7   28.27    3.52
   6   4   7   21.92    2.69
   7   4   7    7.21    2.20
   7   4   7    4.10    1.62
   7   4   7    5.61    1.87
   8   4   7    2.67    1.53
   8   4   7    1.54    1.80
   8   4   7    4.86    1.92
   9   4   7   10.26    2.68
   9   4   7    9.34    2.31
   9   4   7    5.97    2.19
   9   4   7   11.08    2.94
  10   4   7    5.50    2.00
  10   4   7    2.58    1.83
  10   4   7    5.21    2.15
  11   4   7    8.79    3.34
  11   4   7    3.38    2.38
  11   4   7    8.92    2.50
  11   4   7    8.81    2.93
   9  -5  -7    2.00    1.38
   9  -5  -7   -1.43    1.61
   8  -5  -7   14.90    3.78
   8  -5  -7   11.11    3.11
   7  -5  -7   12.17    3.24
   7  -5  -7   18.31    3.80
   7  -5  -7    9.84    0.93
   6  -5  -7   85.01    7.20
   6  -5  -7   76.19    4.04
   6  -5  -7   81.15    7.13
   5  -5  -7   95.87    7.35
   5  -5  -7   83.86    4.62
   5  -5  -7   93.13    7.31
   4  -5  -7   34.46    3.87
   4  -5  -7   38.74    4.21
   4  -5  -7   33.58    3.29
   3  -5  -7    6.50    1.88
   3  -5  -7    8.85    1.77
   3  -5  -7    8.92    2.25
   3  -5  -7    7.58    1.36
  -3   5   7    7.14    1.39
  -3   5   7    4.00    1.61
  -3   5   7    5.47    0.63
   2  -5  -7    3.87    0.97
   2  -5  -7    3.53    1.37
   2  -5  -7    1.61    0.92
   2  -5  -7    2.67    1.20
  -2   5   7    3.91    1.31
  -2   5   7    1.75    0.53
  -2   5   7    1.52    0.76
   1  -5  -7    5.09    1.44
   1  -5  -7    8.30    2.02
   1  -5  -7    6.18    1.37
   1  -5  -7    8.39    1.78
  -1   5   7    7.27    1.47
  -1   5   7    7.83    1.99
  -1   5   7    7.67    1.70
   0  -5  -7  217.11   10.49
   0  -5  -7  208.07   10.75
   0  -5  -7  230.50   11.18
   0  -5  -7  201.45   10.41
   0   5   7  242.06   10.54
   0   5   7  237.11   11.01
   0   5   7  219.71   11.25
  -1  -5  -7  152.43    8.08
  -1  -5  -7  146.64    7.19
  -1  -5  -7  129.56    7.66
  -1  -5  -7  138.23    7.95
   1   5   7  145.49    8.05
   1   5   7  160.18    8.11
   1   5   7  152.33    7.85
  -2  -5  -7  117.11    7.14
  -2  -5  -7  128.86    5.80
  -2  -5  -7  122.52    6.99
   2   5   7  121.38    7.02
   2   5   7  118.55    7.09
   2   5   7  126.98    7.02
  -3  -5  -7   52.08    4.31
  -3  -5  -7   56.92    4.24
   3   5   7   53.06    3.93
   3   5   7   52.01    4.71
   3   5   7   55.44    4.52
  -4  -5  -7  102.51    6.98
   4   5   7  111.42    7.34
   4   5   7  115.16    6.95
   4   5   7  112.05    6.30
  -5  -5  -7    9.82    2.39
   5   5   7    7.04    1.88
   5   5   7    9.31    2.33
   5   5   7   10.85    1.90
   6   5   7    0.63    1.05
   6   5   7   -0.18    0.63
   6   5   7    0.36    0.80
   7   5   7    5.79    1.97
   7   5   7    6.46    1.61
   7   5   7    6.77    1.89
   8   5   7   10.59    2.55
   8   5   7    8.07    2.59
   8   5   7    6.37    1.87
   9   5   7    8.84    2.33
   9   5   7   11.20    3.16
   9   5   7    7.36    2.03
  10   5   7    9.33    3.00
  10   5   7    7.86    2.07
  10   5   7   12.46    2.96
  11   5   7    2.40    1.78
  11   5   7   -2.05    1.61
  11   5   7    2.11    2.30
   9  -6  -7   15.80    4.52
   9  -6  -7   14.03    3.87
   8  -6  -7   48.11    5.81
   8  -6  -7   39.59    5.47
   7  -6  -7   31.15    6.56
   7  -6  -7   25.56    5.02
   6  -6  -7   30.62    5.38
   6  -6  -7   35.77    4.66
   5  -6  -7   34.44    4.43
   5  -6  -7   37.57    4.45
   4  -6  -7   26.81    4.64
   4  -6  -7   27.94    3.81
   3  -6  -7    0.90    0.79
   3  -6  -7    1.51    0.53
   3  -6  -7    0.52    0.67
  -3   6   7    0.28    0.40
  -3   6   7   -0.28    0.42
   2  -6  -7    6.80    1.90
   2  -6  -7    5.50    1.81
   2  -6  -7    6.50    1.34
   2  -6  -7    4.13    1.62
  -2   6   7    8.02    1.28
  -2   6   7    7.59    1.49
  -2   6   7    7.29    1.83
   1  -6  -7   14.79    2.92
   1  -6  -7   10.92    2.69
   1  -6  -7   12.23    2.39
  -1   6   7   11.22    1.52
  -1   6   7   11.21    1.46
  -1   6   7    7.75    2.11
  -1   6   7    9.21    2.14
   0  -6  -7  326.76   14.91
   0  -6  -7  347.77   19.29
   0  -6  -7  310.46   15.20
   0   6   7  330.74   15.27
   0   6   7  351.14   14.73
   0   6   7  309.83   15.66
  -1  -6  -7   40.51    3.18
  -1  -6  -7   37.71    3.72
  -1  -6  -7   46.05    3.83
   1   6   7   42.26    3.81
   1   6   7   46.26    3.88
   1   6   7   40.30    3.53
  -2  -6  -7   38.51    2.68
  -2  -6  -7   42.50    3.57
  -2  -6  -7   39.91    3.84
   2   6   7   34.80    3.39
   2   6   7   37.53    3.53
   2   6   7   35.67    4.22
  -3  -6  -7   98.32    4.32
  -3  -6  -7   95.18    6.16
  -3  -6  -7   95.96    6.72
   3   6   7   94.88    6.65
   3   6   7  102.78    6.06
   3   6   7  106.56    6.70
   4   6   7    5.55    1.94
   4   6   7    4.74    1.42
   4   6   7    6.74    1.88
   5   6   7    1.72    0.91
   5   6   7    0.25    0.94
   5   6   7    1.10    0.71
   6   6   7   12.74    2.77
   6   6   7   12.73    2.05
   6   6   7   13.58    3.20
   7   6   7    3.56    1.31
   7   6   7    3.81    1.85
   7   6   7    4.54    1.58
   8   6   7   13.68    2.92
   8   6   7    9.56    2.98
   8   6   7   14.21    2.06
   9   6   7   27.23    4.89
   9   6   7   21.80    4.28
  10   6   7    5.82    2.92
  10   6   7    4.34    2.11
   8  -7  -7   26.34    6.02
   8  -7  -7   33.33    5.77
   7  -7  -7   30.95    5.98
   7  -7  -7   26.54    5.46
   6  -7  -7   13.58    3.59
   6  -7  -7   14.55    3.82
   5  -7  -7    8.90    2.80
   5  -7  -7    6.77    2.28
   4  -7  -7    2.70    1.48
   4  -7  -7    1.04    0.91
  -4   7   7    0.04    0.44
   3  -7  -7   23.36    4.16
  -3   7   7   19.12    1.99
  -3   7   7   25.18    2.16
   2  -7  -7   41.94    4.57
  -2   7   7   51.16    3.35
  -2   7   7   43.10    3.19
  -2   7   7   39.47    4.02
   1  -7  -7   34.07    3.75
  -1   7   7   30.61    2.84
  -1   7   7   34.82    3.60
  -1   7   7   37.45    3.01
   0  -7  -7  146.45    8.48
   0   7   7  122.71    8.35
   0   7   7  117.91    7.17
   0   7   7  143.24    8.25
   0   7   7  137.00    7.45
  -1  -7  -7   62.62    4.38
  -1  -7  -7   59.11    4.78
   1   7   7   56.82    5.52
   1   7   7   58.23    4.87
   1   7   7   64.22    5.05
  -2  -7  -7   27.64    3.01
  -2  -7  -7   28.32    2.40
   2   7   7   23.67    2.94
   2   7   7   30.85    3.32
   2   7   7   22.97    2.92
  -3  -7  -7   17.96    3.11
  -3  -7  -7   16.25    1.37
   3   7   7   14.90    2.85
   3   7   7   16.77    2.29
   3   7   7   13.25    2.93
  -4  -7  -7    0.33    0.81
   4   7   7    1.83    0.97
   4   7   7    1.88    1.02
   4   7   7    1.97    1.23
   5   7   7   36.02    4.29
   5   7   7   39.10    4.14
   5   7   7   31.42    2.91
   6   7   7   21.76    2.38
   6   7   7   22.12    4.01
   6   7   7   25.42    4.18
   7   7   7   26.48    4.81
   7   7   7   31.83    3.90
   7   7   7   24.49    2.46
   8   7   7   20.51    4.46
   8   7   7   18.54    3.98
   8   7   7   12.40    2.17
   9   7   7    5.86    2.11
   9   7   7   10.72    2.84
  10   7   7    1.02    1.75
  10   7   7    0.99    1.65
   8  -8  -7    5.42    3.20
   8  -8  -7    0.72    2.34
   7  -8  -7    9.35    3.20
   7  -8  -7    9.99    3.68
   6  -8  -7    0.84    1.57
   6  -8  -7    1.90    1.89
   5  -8  -7    0.71    1.43
   5  -8  -7    0.10    1.28
   4  -8  -7   61.97    6.46
  -4   8   7   70.15    5.02
   3  -8  -7   45.41    5.14
  -3   8   7   40.59    3.41
  -3   8   7   43.41    2.95
   2  -8  -7  103.44    7.79
  -2   8   7  105.11    7.25
  -2   8   7   99.78    5.61
  -2   8   7   95.92    5.90
   1  -8  -7   80.14    6.57
  -1   8   7   77.36    5.02
  -1   8   7   83.52    6.18
  -1   8   7   80.78    7.31
   0  -8  -7   10.56    2.71
   0   8   7    9.61    2.08
   0   8   7    7.42    2.11
   0   8   7    7.62    2.67
  -1  -8  -7   21.80    2.91
   1   8   7   22.56    2.78
   1   8   7   20.26    3.46
  -2  -8  -7    6.34    1.93
  -2  -8  -7    8.06    1.64
   2   8   7    4.82    1.72
   2   8   7    7.26    2.18
   2   8   7    6.53    1.84
  -3  -8  -7    0.75    0.81
  -3  -8  -7    1.82    0.64
  -3  -8  -7    3.43    2.23
   3   8   7    1.50    1.36
   3   8   7    3.97    2.48
   3   8   7    3.29    1.49
  -4  -8  -7   24.03    2.99
   4   8   7   19.71    3.68
   4   8   7   20.99    3.75
   4   8   7   18.25    2.60
   5   8   7   28.38    3.69
   5   8   7   22.62    2.70
   5   8   7   30.81    4.11
   6   8   7   13.33    2.22
   6   8   7   22.39    4.27
   6   8   7   15.88    3.58
   7   8   7   23.71    4.90
   7   8   7   17.46    3.67
   7   8   7   17.54    2.07
   8   8   7   12.85    3.39
   9   8   7    0.35    1.74
   9   8   7   -0.85    1.56
   7  -9  -7    2.49    2.44
   7  -9  -7    4.49    2.76
   6  -9  -7    1.77    1.83
   6  -9  -7    2.94    2.14
   5  -9  -7   44.47    5.67
   5  -9  -7   38.90    5.44
   4  -9  -7   35.87    5.06
   3  -9  -7   48.74    5.57
  -3   9   7   44.12    4.21
  -3   9   7   48.16    2.87
   2  -9  -7   33.81    4.44
  -2   9   7   23.89    3.23
  -2   9   7   29.71    2.69
  -2   9   7   27.76    3.59
   1  -9  -7   52.51    5.42
  -1   9   7   41.39    4.49
  -1   9   7   47.59    3.74
   0  -9  -7    5.27    2.07
   0   9   7    6.25    2.04
   0   9   7    9.45    2.16
  -1  -9  -7    0.99    0.99
   1   9   7    1.75    1.19
   1   9   7    1.64    1.14
  -2  -9  -7   26.23    2.76
  -2  -9  -7   24.38    3.25
   2   9   7   21.07    3.85
   2   9   7   31.02    3.56
  -3  -9  -7   20.98    2.28
  -3  -9  -7   21.64    2.14
  -3  -9  -7   21.43    2.87
   3   9   7   21.03    3.73
   3   9   7   21.44    3.67
   3   9   7   22.83    3.90
  -4  -9  -7   50.34    5.18
   4   9   7   46.59    5.15
   4   9   7   45.68    4.96
   4   9   7   46.73    5.25
   5   9   7   19.03    3.83
   5   9   7   13.77    3.23
   5   9   7   12.59    2.46
   6   9   7    3.83    2.12
   6   9   7    2.74    1.57
   7   9   7    7.49    2.72
   7   9   7   12.13    3.45
   8   9   7    1.85    1.52
   8   9   7   -1.74    1.33
   9   9   7    3.53    2.26
   9   9   7    0.84    2.09
   6 -10  -7    6.63    3.06
   6 -10  -7    4.52    3.15
   5 -10  -7   24.31    5.58
   5 -10  -7   31.24    5.75
   4 -10  -7    3.73    2.13
   3 -10  -7    6.47    2.53
  -2  10   7    6.76    2.50
  -2  10   7    7.19    1.51
   1 -10  -7    1.89    1.25
  -1  10   7    3.43    1.21
  -1  10   7    1.95    1.67
   0 -10  -7    1.57    1.17
   0  10   7    2.42    1.42
   0  10   7    1.28    1.04
  -1 -10  -7   29.28    4.65
   1  10   7   28.21    3.20
   1  10   7   21.03    3.92
  -2 -10  -7   27.22    4.27
  -2 -10  -7   16.22    2.67
  -2 -10  -7    9.46    3.09
   2  10   7   11.79    2.83
   2  10   7   16.69    3.65
  -3 -10  -7   12.70    2.11
  -3 -10  -7   17.11    3.21
  -3 -10  -7   12.04    2.50
   3  10   7   11.86    2.89
  -4 -10  -7   14.46    3.19
   4  10   7   21.52    4.09
   4  10   7   13.71    3.25
   5  10   7   15.43    3.66
   5  10   7   14.96    3.23
   6  10   7   13.80    3.53
   6  10   7   11.83    3.00
   7  10   7    0.08    1.51
   7  10   7    2.11    2.10
   8  10   7   -0.50    1.76
   8  10   7   -0.56    1.85
   4 -11  -7   14.90    4.17
   4 -11  -7   12.47    4.17
   3 -11  -7    4.78    2.64
   2 -11  -7   -0.11    2.00
  -2  11   7    5.43    1.47
  -2  11   7    5.48    2.37
   1 -11  -7   11.43    3.27
  -1  11   7   13.47    2.28
  -1  11   7   13.01    3.10
   0 -11  -7   16.88    4.04
   0  11   7   29.42    3.92
   0  11   7   23.40    3.68
  -1 -11  -7    7.71    2.31
   1  11   7    9.12    2.83
   1  11   7   14.78    2.99
  -2 -11  -7   28.65    3.51
   2  11   7   28.07    4.82
   2  11   7   32.65    4.10
  -3 -11  -7   10.73    2.12
  -3 -11  -7    7.90    2.28
   3  11   7   12.60    3.09
  -4 -11  -7    1.02    1.95
   4  11   7    3.99    1.86
   4  11   7    3.04    1.99
   5  11   7    5.78    2.38
   5  11   7    4.45    1.88
   6  11   7    2.82    1.89
   6  11   7    3.65    1.85
   7  11   7    1.47    4.51
   7  11   7   10.33    3.09
   2 -12  -7   11.04    3.85
   1 -12  -7   13.89    3.52
  -1  12   7   14.46    2.90
  -1  12   7   18.79    3.86
   0 -12  -7   21.89    4.51
   0  12   7   20.47    3.40
   0  12   7   22.85    4.34
  -1 -12  -7    4.47    2.01
  -1 -12  -7    6.40    2.46
   1  12   7   10.12    2.86
   1  12   7    5.76    2.38
  -2 -12  -7   20.66    3.72
   2  12   7   24.45    4.72
   2  12   7   17.89    3.79
  -3 -12  -7    2.51    2.11
  -3 -12  -7    3.90    1.88
   3  12   7   10.88    3.22
   3  12   7    8.59    3.07
  -4 -12  -7    1.91    2.33
   4  12   7   -0.05    1.81
   4  12   7    1.02    2.50
   5  12   7   -0.17    1.32
   5  12   7    0.28    2.20
   3  10  -8    9.51    3.08
   2  10  -8   12.60    3.27
  -1 -10   8   -0.36    2.09
   0  10  -8    5.29    2.10
   0 -10   8    4.22    2.82
  -1  10  -8    6.25    2.67
   1 -10   8   11.68    3.39
   5   9  -8   27.03    5.44
   4   9  -8    2.85    2.25
   3   9  -8   -0.64    1.33
  -3  -9   8    2.19    1.82
   2   9  -8    2.39    1.59
  -2  -9   8    2.30    1.70
   1   9  -8    5.77    2.43
  -1  -9   8    3.90    2.03
   0   9  -8   27.09    3.58
   0  -9   8   24.96    4.84
  -1   9  -8    8.05    2.25
   1  -9   8    5.00    2.03
   1  -9   8   12.44    3.63
  -2   9  -8   40.38    3.66
   2  -9   8   40.98    5.81
   2  -9   8   44.83    5.50
   3  -9   8    9.29    2.99
   3  -9   8   21.75    6.01
   4  -9   8    8.61    2.56
   4  -9   8    0.60    2.73
   7   8  -8   15.63    4.38
   6   8  -8   10.29    3.13
   5   8  -8   11.08    3.19
   4   8  -8   -2.31    1.14
   3   8  -8    8.91    2.52
  -3  -8   8    8.47    2.77
  -3  -8   8    9.64    2.20
   2   8  -8   13.95    3.21
  -2  -8   8    9.84    2.29
   1   8  -8   34.58    3.87
  -1  -8   8   28.44    4.83
   0   8  -8   59.36    5.05
   0  -8   8   51.56    5.67
   0  -8   8   47.59    5.34
  -1   8  -8   31.86    3.28
   1  -8   8   36.51    4.48
   1  -8   8   22.25    4.48
  -2   8  -8    0.41    1.01
   2  -8   8    1.79    1.79
   2  -8   8    1.06    1.34
   3  -8   8   -0.56    1.22
   3  -8   8    1.03    1.74
   4  -8   8   -0.25    1.39
   4  -8   8   -0.07    1.29
   5  -8   8    5.44    2.36
   5  -8   8    4.24    2.50
   6  -8   8    2.68    3.39
   8   7  -8   10.49    3.56
   7   7  -8    4.59    2.25
   6   7  -8   -0.20    1.49
   5   7  -8    8.00    2.45
   4   7  -8   13.80    3.28
  -4  -7   8   10.75    1.62
  -4  -7   8    9.50    1.29
   3   7  -8   33.30    4.11
  -3  -7   8   25.07    2.83
  -3  -7   8   25.95    2.84
   2   7  -8   64.84    5.74
   1   7  -8   55.14    4.78
  -1  -7   8   38.90    4.70
   0   7  -8   45.88    4.20
   0  -7   8   41.32    4.75
  -1   7  -8   28.44    2.93
   1  -7   8   29.98    3.94
  -2   7  -8   -0.28    0.64
  -2   7  -8    1.17    1.70
   2  -7   8   -1.44    0.75
  -3   7  -8    2.73    1.92
   3  -7   8   -0.58    1.40
  -4   7  -8    5.28    2.30
   4  -7   8    2.72    1.93
   5  -7   8   17.65    3.56
   5  -7   8   23.08    4.88
   6  -7   8   11.72    4.02
   6  -7   8   12.29    3.09
   7  -7   8   20.77    5.20
   7  -7   8   14.49    3.31
   9   6  -8    1.93    2.21
   9   6  -8    4.24    2.58
   8   6  -8    4.98    2.12
   8   6  -8    4.93    2.19
   7   6  -8   -0.02    1.37
   7   6  -8    2.53    2.15
   6   6  -8    2.93    1.68
   6   6  -8    3.88    1.84
   5   6  -8    8.10    2.37
   5   6  -8   10.30    2.87
   4   6  -8   29.38    4.06
   4   6  -8   51.80    5.26
  -4  -6   8   33.25    2.46
  -4  -6   8   33.10    2.55
   3   6  -8   53.31    5.29
  -3  -6   8   43.25    3.56
   2   6  -8   72.37    5.86
  -2  -6   8   63.29    4.84
  -2  -6   8   67.53    5.89
   1   6  -8   27.60    3.28
  -1  -6   8   23.02    3.90
   0   6  -8   20.77    2.57
   0  -6   8   20.84    3.88
  -1   6  -8    2.11    0.81
  -1   6  -8   -0.08    1.21
   1  -6   8    2.90    1.41
  -2   6  -8    5.15    2.25
  -2   6  -8    4.62    1.04
   2  -6   8    0.21    1.16
  -3   6  -8   17.63    2.89
   3  -6   8   19.35    3.63
  -4   6  -8   29.97    3.00
   4  -6   8   36.64    4.23
   5  -6   8   25.93    3.41
   6  -6   8   41.09    4.84
   7  -6   8    9.19    2.78
   7  -6   8    5.60    3.42
   8  -6   8    3.27    1.97
   8  -6   8    6.00    2.63
   9   5  -8    1.67    2.12
   9   5  -8    9.63    3.76
   8   5  -8    1.09    1.66
   8   5  -8   -0.01    1.38
   7   5  -8    8.72    2.54
   7   5  -8   10.04    3.13
   6   5  -8   38.01    4.29
   6   5  -8   34.51    4.62
   5   5  -8   51.17    5.38
   5   5  -8   67.26    6.30
   4   5  -8   59.14    5.61
   4   5  -8   57.90    5.55
  -4  -5   8   49.45    3.35
   3   5  -8   89.29    7.11
   3   5  -8   99.11    7.21
  -3  -5   8   84.75    5.22
   2   5  -8   10.03    2.37
  -2  -5   8   10.67    2.22
  -2  -5   8   15.12    3.02
   1   5  -8    2.78    1.75
  -1  -5   8    0.16    0.84
   0   5  -8    9.91    2.17
   0   5  -8   15.18    2.49
   0  -5   8    6.47    1.85
  -1   5  -8   29.70    3.67
  -1   5  -8   30.30    2.64
   1  -5   8   27.34    3.36
  -2   5  -8   87.50    5.56
  -2   5  -8   88.18    4.53
   2  -5   8   88.94    6.53
  -3   5  -8   57.66    4.31
   3  -5   8   53.92    4.89
  -4   5  -8   59.18    4.21
   4  -5   8   64.62    5.50
  -5   5  -8   29.22    2.95
   5  -5   8   34.71    3.81
   6  -5   8   10.68    2.63
   8  -5   8    0.73    1.79
   8  -5   8    0.93    1.49
  10   4  -8    0.14    1.95
   9   4  -8    5.18    2.54
   9   4  -8    1.58    1.74
   8   4  -8   18.91    3.89
   8   4  -8   20.03    4.13
   7   4  -8   37.15    4.97
   7   4  -8   36.05    4.34
   6   4  -8   43.00    5.04
   6   4  -8   38.70    4.47
   5   4  -8  160.41    9.78
   5   4  -8  145.54   10.08
  -5  -4   8  140.62    6.21
   4   4  -8   64.92    5.94
   4   4  -8   67.86    5.84
  -4  -4   8   73.35    4.26
   3   4  -8   36.38    3.92
   3   4  -8   31.13    3.70
   3   4  -8   38.81    4.03
  -3  -4   8   28.68    2.67
  -3  -4   8   35.08    3.60
   2   4  -8    1.43    1.35
   2   4  -8    0.57    0.94
   2   4  -8   -0.12    0.52
   2   4  -8   -0.22    0.70
  -2  -4   8    0.51    0.67
  -2  -4   8   -0.86    0.61
  -2  -4   8    0.76    1.02
   1   4  -8    8.98    2.27
   1   4  -8   14.38    2.38
   1   4  -8   12.18    2.23
   1   4  -8   10.76    2.02
  -1  -4   8   12.43    2.55
  -1  -4   8   12.83    2.51
   0   4  -8   31.29    3.04
   0   4  -8   30.88    2.87
   0   4  -8   30.67    2.84
   0  -4   8   31.43    3.32
   0  -4   8   31.91    3.51
  -1   4  -8   60.38    4.38
  -1   4  -8   64.91    4.02
   1  -4   8   65.42    5.08
  -2   4  -8  155.08    7.05
  -2   4  -8  180.23    8.61
   2  -4   8  156.45    9.17
  -3   4  -8   45.53    3.62
   3  -4   8   45.31    4.20
  -4   4  -8   13.97    2.26
   4  -4   8   13.84    2.75
  -5   4  -8    8.27    1.69
   5  -4   8   11.19    2.56
   6  -4   8    4.60    1.79
   7  -4   8    1.80    1.32
   9  -4   8    4.90    3.03
   9  -4   8    9.88    2.68
  10   3  -8    8.05    2.91
  10   3  -8   14.02    3.65
   9   3  -8   10.13    2.56
   9   3  -8    9.05    2.81
   8   3  -8    8.69    3.12
   8   3  -8   13.65    3.20
   7   3  -8   42.39    4.47
   6   3  -8   39.15    4.24
   6   3  -8   42.15    3.48
   5   3  -8   12.66    2.72
   5   3  -8   13.57    2.29
  -5  -3   8   15.25    1.61
   4   3  -8    0.25    0.60
   4   3  -8    1.63    1.17
  -4  -3   8   -2.30    0.91
   3   3  -8   19.98    2.48
   3   3  -8   21.14    2.28
   3   3  -8   19.69    3.42
  -3  -3   8   17.94    3.07
  -3  -3   8   14.67    4.18
  -3  -3   8   19.24    2.11
   2   3  -8    6.13    1.77
   2   3  -8    6.09    1.87
   2   3  -8    8.25    1.64
  -2  -3   8    8.17    1.79
  -2  -3   8    9.92    2.21
  -2  -3   8    7.34    1.83
   1   3  -8   91.15    6.89
   1   3  -8   96.08    5.73
   1   3  -8  102.98    6.02
  -1  -3   8   84.66    5.57
  -1  -3   8   98.64    6.36
   0   3  -8  138.53    8.05
   0   3  -8  118.06    8.06
   0   3  -8  120.91    6.84
   0  -3   8  117.13    8.45
  -1   3  -8  171.00    7.98
  -1   3  -8  164.23    8.89
  -1   3  -8  175.35    8.64
   1  -3   8  172.76    9.13
   1  -3   8  165.41    9.40
  -2   3  -8  102.13    4.72
  -2   3  -8  110.70    6.15
  -2   3  -8   90.76    6.24
   2  -3   8  100.86    6.72
   2  -3   8  113.10    6.66
  -3   3  -8    6.90    1.61
  -3   3  -8    6.91    1.79
   3  -3   8    7.98    2.12
   3  -3   8    6.33    1.68
  -4   3  -8    5.64    1.43
   4  -3   8    4.11    1.47
   4  -3   8    4.77    1.25
  -5   3  -8    4.82    1.35
   5  -3   8    6.25    1.88
   5  -3   8    6.85    1.41
   6  -3   8   12.20    2.49
   6  -3   8   12.65    1.68
   7  -3   8    9.23    2.33
   7  -3   8    7.04    1.40
   8  -3   8   20.30    3.62
   9  -3   8    7.48    2.35
  10  -3   8    1.98    2.30
  10  -3   8    0.35    2.01
  10   2  -8   10.37    2.97
  10   2  -8   12.28    3.51
   9   2  -8   45.87    5.09
   8   2  -8   19.46    3.53
   8   2  -8   29.10    3.38
   7   2  -8   47.97    4.81
   7   2  -8   47.31    3.72
   6   2  -8   40.06    3.22
   6   2  -8   34.54    3.86
   5   2  -8    7.13    1.43
   5   2  -8    5.88    1.95
  -5  -2   8    5.56    1.35
   4   2  -8    0.74    0.79
   4   2  -8    2.42    0.92
   4   2  -8   -0.37    0.66
  -4  -2   8    0.58    0.73
  -4  -2   8    3.86    1.29
   3   2  -8   37.96    3.00
   3   2  -8   35.41    3.44
  -3  -2   8   37.57    4.23
  -3  -2   8   40.11    3.30
  -3  -2   8   39.85    3.07
   2   2  -8   34.81    3.16
   2   2  -8   34.90    2.86
   2   2  -8   34.97    3.52
  -2  -2   8   30.78    2.84
  -2  -2   8   38.32    3.50
  -2  -2   8   38.54    3.04
   1   2  -8  297.39   13.93
   1   2  -8  318.68   15.00
   1   2  -8  320.62   13.80
  -1  -2   8  306.14   13.92
  -1  -2   8  310.66   14.46
  -1  -2   8  327.31   14.11
   0   2  -8  124.56    7.58
   0   2  -8  116.33    6.52
   0   2  -8  119.31    6.55
   0  -2   8  115.75    6.91
   0  -2   8  121.95    6.72
  -1   2  -8   17.99    2.19
  -1   2  -8   23.51    2.26
  -1   2  -8   18.96    2.50
   1  -2   8   20.15    2.24
   1  -2   8   21.02    2.44
   1  -2   8   18.94    2.19
  -2   2  -8   51.29    3.95
  -2   2  -8   48.00    2.44
  -2   2  -8   43.93    3.37
  -2   2  -8   39.55    2.42
   2  -2   8   44.37    3.64
   2  -2   8   45.23    3.88
   2  -2   8   48.59    3.55
  -3   2  -8    0.88    0.83
  -3   2  -8    0.60    0.64
   3  -2   8    0.89    0.84
   3  -2   8    2.06    0.85
  -4   2  -8    4.24    1.38
  -4   2  -8    4.93    1.31
   4  -2   8    4.69    1.24
   4  -2   8    3.67    1.30
   4  -2   8    4.23    1.51
  -5   2  -8   45.01    3.54
   5  -2   8   40.18    3.19
   5  -2   8   39.09    4.74
   5  -2   8   47.84    4.17
   6  -2   8   93.88    6.60
   6  -2   8   91.65    5.47
   7  -2   8   61.88    4.29
   7  -2   8   66.93    5.48
   8  -2   8    9.60    2.50
   8  -2   8    8.46    1.68
   9  -2   8   10.32    1.87
  10  -2   8    4.23    2.04
  10  -2   8    4.64    2.52
  10   1  -8   16.52    3.35
  10   1  -8   17.86    2.62
   9   1  -8   20.29    2.40
   9   1  -8   20.17    3.65
   8   1  -8   23.88    4.22
   8   1  -8   17.18    2.14
   8   1  -8   18.86    1.98
   7   1  -8   13.03    1.65
   7   1  -8   12.55    2.88
   7   1  -8   12.67    1.74
   6   1  -8    2.68    1.05
   6   1  -8    2.13    1.03
   6   1  -8    1.44    1.42
  -6  -1   8    0.68    0.86
   5   1  -8   20.88    3.43
   5   1  -8   17.53    1.80
   5   1  -8   20.58    3.46
   5   1  -8   15.31    1.96
  -5  -1   8   21.79    3.58
  -5  -1   8   18.84    2.17
   4   1  -8   78.33    5.62
   4   1  -8   86.49    4.59
   4   1  -8   84.60    5.62
   4   1  -8   73.92    4.74
  -4  -1   8   76.33    5.76
  -4  -1   8   77.71    4.95
   3   1  -8  184.66    8.40
   3   1  -8  187.62    9.44
   3   1  -8  176.57    9.60
  -3  -1   8  188.79    8.74
  -3  -1   8  164.43    9.54
  -3  -1   8  182.89    8.91
   2   1  -8  209.25   10.27
   2   1  -8  212.80   10.76
   2   1  -8  215.81    9.62
  -2  -1   8  211.45   10.01
  -2  -1   8  217.96    9.85
  -2  -1   8  206.80   10.62
   1   1  -8  354.85   15.97
   1   1  -8  359.09   15.34
   1   1  -8  349.40   14.86
  -1  -1   8  349.22   15.66
  -1  -1   8  354.63   14.99
  -1  -1   8  343.54   15.25
   0   1  -8  103.14    5.69
   0   1  -8  103.04    6.38
   0   1  -8  100.11    5.78
   0  -1   8  102.45    5.93
   0  -1   8  100.10    5.63
   0  -1   8   98.53    5.93
   0  -1   8  104.22    6.08
  -1   1  -8   11.26    2.32
  -1   1  -8   11.58    2.00
  -1   1  -8    9.49    1.78
   1  -1   8   10.36    1.88
   1  -1   8    9.50    1.89
   1  -1   8   12.48    2.01
  -2   1  -8   37.52    3.32
  -2   1  -8   40.94    2.34
  -2   1  -8   45.63    3.34
   2  -1   8   39.25    3.26
   2  -1   8   40.73    3.17
   2  -1   8   42.67    3.47
  -3   1  -8   10.80    1.89
  -3   1  -8    8.92    1.86
  -3   1  -8    7.68    0.53
   3  -1   8   10.10    1.81
   3  -1   8    8.74    1.74
   3  -1   8    9.24    1.85
  -4   1  -8   99.09    5.96
   4  -1   8  101.88    6.32
   4  -1   8  102.16    5.76
   4  -1   8   95.75    6.19
  -5   1  -8   39.83    3.44
   5  -1   8   42.73    3.34
   5  -1   8   38.28    4.27
   5  -1   8   36.01    3.63
   6  -1   8   44.99    3.54
   6  -1   8   42.31    4.04
   6  -1   8   36.40    3.95
   7  -1   8   22.84    3.04
   7  -1   8   21.52    4.75
   8  -1   8   12.26    2.09
   8  -1   8    9.95    2.48
   9  -1   8    1.51    1.21
   9  -1   8    0.99    1.28
  10  -1   8    0.45    1.19
  10  -1   8    0.23    1.26
  10   0  -8   32.18    3.40
  10   0  -8   36.20    4.70
   9   0  -8    0.66    0.93
   9   0  -8    0.42    1.13
   8   0  -8    3.03    0.57
   8   0  -8    1.90    1.17
   8   0  -8    5.09    1.85
   7   0  -8    0.24    0.74
   7   0  -8   -1.10    0.53
   7   0  -8    0.78    0.45
   6   0  -8   59.98    3.26
   6   0  -8   64.81    5.25
   6   0  -8   58.77    4.30
  -6   0   8   47.43    4.42
   5   0  -8   30.95    2.15
   5   0  -8   31.67    3.15
   5   0  -8   31.61    2.86
   5   0  -8   30.52    3.38
  -5   0   8   31.22    3.44
  -5   0   8   29.25    3.08
   4   0  -8  122.22    6.65
   4   0  -8  125.77    5.70
   4   0  -8  117.72    7.26
   4   0  -8  120.05    6.92
  -4   0   8  113.08    7.61
  -4   0   8  113.10    6.74
   3   0  -8  129.10    6.29
   3   0  -8  140.91    7.49
   3   0  -8  141.78    7.85
   3   0  -8  139.30    7.26
  -3   0   8  139.57    6.55
  -3   0   8  135.80    7.30
  -3   0   8  130.05    7.90
   2   0  -8  125.67    7.09
   2   0  -8  126.59    6.79
   2   0  -8  128.39    6.82
   2   0  -8  106.50    6.50
  -2   0   8  130.10    6.13
  -2   0   8  119.76    7.09
  -2   0   8  126.63    6.72
   1   0  -8   77.34    4.31
   1   0  -8   77.59    4.78
   1   0  -8   79.67    5.08
  -1   0   8   72.06    4.72
  -1   0   8   77.25    4.98
  -1   0   8   80.63    4.36
  -1   0   8   69.82    4.75
   0   0  -8    0.83    0.57
   0   0  -8    4.15    1.32
   0   0  -8    4.42    1.11
   0   0   8    2.26    0.72
   0   0   8    2.07    0.92
   0   0   8    2.10    0.84
   0   0   8    2.53    0.97
  -1   0  -8   26.96    2.68
  -1   0  -8   23.06    2.27
  -1   0  -8   24.82    1.96
  -1   0  -8   26.76    2.46
   1   0   8   23.73    2.32
   1   0   8   26.29    2.36
   1   0   8   28.40    2.63
   1   0   8   24.74    2.37
  -2   0  -8  133.18    7.33
  -2   0  -8  147.29    6.31
  -2   0  -8  141.44    7.30
  -2   0  -8  131.26    7.48
   2   0   8  137.64    7.14
   2   0   8  139.60    7.30
   2   0   8  139.57    7.21
  -3   0  -8  106.56    4.95
  -3   0  -8  105.28    6.20
   3   0   8  108.99    6.13
   3   0   8  116.55    6.16
   3   0   8  107.29    6.33
  -4   0  -8  267.48   13.36
   4   0   8  287.57   14.17
   4   0   8  321.35   13.41
   4   0   8  301.76   13.46
  -5   0  -8   28.95    3.10
   5   0   8   35.29    3.11
   5   0   8   36.25    3.48
   5   0   8   34.94    3.17
   6   0   8   19.71    2.45
   6   0   8   20.38    3.32
   6   0   8   18.23    2.47
   6   0   8   19.90    1.22
   7   0   8   -0.95    1.24
   7   0   8   -0.21    0.85
   7   0   8   -0.30    0.73
   8   0   8    0.86    0.97
   8   0   8   -1.31    0.67
   9   0   8    5.33    1.64
   9   0   8    1.35    1.51
  10   0   8    8.80    2.24
  10   0   8   16.65    3.25
  11   0   8    2.70    1.91
  11   0   8   -1.23    1.43
  11   0   8    3.04    2.00
  11   0   8   -1.95    1.74
  10  -1  -8    4.27    2.20
  10  -1  -8    4.52    1.71
   9  -1  -8    3.71    1.76
   9  -1  -8    1.00    1.41
   8  -1  -8   15.83    3.02
   8  -1  -8   20.48    4.01
   7  -1  -8   15.03    3.11
   7  -1  -8   17.29    2.99
   6  -1  -8  113.97    8.50
   6  -1  -8  128.16    8.20
   6  -1  -8  120.39    7.24
   5  -1  -8  151.65    8.06
   5  -1  -8  156.30    8.26
   5  -1  -8  144.19    5.86
   5  -1  -8  159.43    9.01
  -5   1   8  117.16    7.99
   4  -1  -8   70.10    5.17
   4  -1  -8   66.22    3.25
   4  -1  -8   72.94    4.69
   4  -1  -8   74.43    4.85
  -4   1   8   62.40    5.18
  -4   1   8   59.94    4.68
   3  -1  -8   99.50    5.84
   3  -1  -8   93.19    4.50
   3  -1  -8   99.49    5.71
   3  -1  -8  100.98    6.18
  -3   1   8   97.81    5.91
  -3   1   8   95.44    6.30
  -3   1   8   90.02    4.50
   2  -1  -8    3.94    1.20
   2  -1  -8    4.83    0.92
   2  -1  -8    5.17    1.17
   2  -1  -8    5.60    1.33
  -2   1   8    3.29    0.99
  -2   1   8    4.27    1.30
  -2   1   8    4.69    0.86
  -2   1   8    4.45    1.38
   1  -1  -8   17.37    2.09
   1  -1  -8   23.62    2.25
   1  -1  -8   17.19    1.65
   1  -1  -8   20.75    2.25
  -1   1   8   21.41    2.22
  -1   1   8   21.69    1.77
  -1   1   8   19.33    2.19
  -1   1   8   21.28    2.20
   0  -1  -8   19.13    2.06
   0  -1  -8   18.27    1.97
   0  -1  -8   15.97    1.66
   0  -1  -8   19.42    1.87
   0  -1  -8   19.37    2.20
   0   1   8   18.07    1.74
   0   1   8   21.60    2.24
   0   1   8   19.16    2.02
   0   1   8   17.39    1.94
  -1  -1  -8   62.42    4.16
  -1  -1  -8   64.20    4.22
   1   1   8   65.12    4.05
   1   1   8   69.03    4.18
   1   1   8   65.54    4.23
   1   1   8   67.43    4.55
  -2  -1  -8  135.37    7.09
  -2  -1  -8  126.66    6.86
  -2  -1  -8  133.91    6.29
   2   1   8  121.75    7.14
   2   1   8  138.97    6.99
   2   1   8  134.04    6.97
   2   1   8  129.21    6.58
  -3  -1  -8  170.45    7.67
  -3  -1  -8  157.48    8.55
   3   1   8  170.64    8.69
   3   1   8  168.59    8.04
   3   1   8  173.91    7.53
   3   1   8  158.67    8.82
   3   1   8  179.70    8.58
  -4  -1  -8   76.13    4.29
  -4  -1  -8   74.54    5.23
   4   1   8   79.73    4.69
   4   1   8   87.70    5.30
   4   1   8   85.57    5.82
   4   1   8   79.60    4.13
  -5  -1  -8   47.62    4.27
   5   1   8   57.77    3.94
   5   1   8   60.35    4.41
   5   1   8   65.24    4.88
   5   1   8   59.55    3.35
   6   1   8   18.95    2.08
   6   1   8   17.87    2.26
   6   1   8   15.83    2.92
   6   1   8   15.65    1.59
   7   1   8    4.60    1.37
   7   1   8    4.50    1.48
   7   1   8    2.48    0.75
   7   1   8    3.07    1.41
   8   1   8   10.74    2.47
   8   1   8    9.76    1.32
   8   1   8   10.40    2.24
   8   1   8   10.35    1.96
   9   1   8    4.84    1.85
   9   1   8    4.39    1.02
   9   1   8    5.84    2.04
   9   1   8    3.58    1.57
  10   1   8   21.75    3.04
  10   1   8   23.40    4.22
  10   1   8   22.27    2.08
  10   1   8   20.58    3.52
  11   1   8    3.96    1.74
  11   1   8    0.65    2.00
  11   1   8    0.40    1.66
  11   1   8    9.71    3.64
  10  -2  -8    4.40    2.09
  10  -2  -8    4.70    2.22
   9  -2  -8    1.39    1.40
   9  -2  -8    3.08    1.47
   8  -2  -8   24.43    4.15
   8  -2  -8   26.68    4.94
   7  -2  -8   16.32    3.56
   7  -2  -8   15.36    3.03
   7  -2  -8   12.99    2.35
   6  -2  -8   96.14    6.85
   6  -2  -8   79.69    5.32
   6  -2  -8   81.36    5.92
  -6   2   8   64.93    5.96
   5  -2  -8  134.65    8.39
   5  -2  -8  146.18    8.14
   5  -2  -8  121.48    7.06
  -5   2   8  122.94    8.95
   4  -2  -8    3.57    1.07
   4  -2  -8    2.96    1.20
   4  -2  -8    0.93    0.84
  -4   2   8    3.57    1.35
   3  -2  -8   50.76    4.10
   3  -2  -8   44.42    3.76
   3  -2  -8   50.44    3.49
  -3   2   8   49.53    3.97
  -3   2   8   43.71    2.40
   2  -2  -8    0.20    0.39
   2  -2  -8    0.17    0.40
   2  -2  -8    0.19    0.53
   2  -2  -8    0.44    0.42
  -2   2   8    0.33    0.30
  -2   2   8    0.22    0.22
  -2   2   8    0.38    0.50
   1  -2  -8   55.95    3.88
   1  -2  -8   52.59    3.73
   1  -2  -8   57.35    4.06
   1  -2  -8   52.54    3.66
  -1   2   8   48.59    2.97
  -1   2   8   47.93    3.75
  -1   2   8   53.97    3.97
  -1   2   8   53.15    3.71
   0  -2  -8   31.66    2.71
   0  -2  -8   29.44    2.79
   0  -2  -8   29.68    2.53
   0  -2  -8   30.25    2.56
   0   2   8   30.73    2.62
   0   2   8   29.26    2.57
   0   2   8   28.42    2.67
   0   2   8   29.02    2.25
  -1  -2  -8  487.83   19.27
  -1  -2  -8  480.22   19.26
  -1  -2  -8  476.45   19.73
  -1  -2  -8  456.26   20.03
   1   2   8  521.99   19.81
   1   2   8  402.15   20.13
   1   2   8  460.91   19.15
   1   2   8  473.87   19.27
   1   2   8  491.61   20.07
  -2  -2  -8   61.41    3.83
  -2  -2  -8   59.14    4.29
  -2  -2  -8   58.55    3.77
   2   2   8   67.55    4.31
   2   2   8   64.33    3.82
   2   2   8   61.41    4.33
   2   2   8   62.57    3.72
   2   2   8   60.34    4.11
  -3  -2  -8   67.14    4.84
  -3  -2  -8   67.00    4.20
   3   2   8   69.02    3.96
   3   2   8   75.60    5.02
   3   2   8   71.81    4.76
   3   2   8   77.10    4.93
   3   2   8   77.31    4.22
  -4  -2  -8    4.15    1.04
  -4  -2  -8    3.48    1.15
   4   2   8    3.53    1.45
   4   2   8    4.03    0.87
   4   2   8    4.57    1.43
   4   2   8    3.54    0.95
   4   2   8    3.27    1.17
  -5  -2  -8    1.70    0.71
   5   2   8    1.65    0.86
   5   2   8    1.38    0.84
   5   2   8    1.57    0.65
   5   2   8    1.00    0.83
   5   2   8    1.93    0.68
   6   2   8    0.09    0.71
   6   2   8   -2.12    0.84
   6   2   8    1.08    0.54
   7   2   8   12.53    1.61
   7   2   8   14.67    2.94
   7   2   8   14.24    2.71
   7   2   8   13.18    2.12
   8   2   8   23.54    2.54
   8   2   8   23.35    2.39
   8   2   8   25.48    3.98
   8   2   8   30.83    3.59
   9   2   8   14.49    2.39
   9   2   8   12.40    2.08
   9   2   8   10.31    2.76
   9   2   8   16.46    3.18
   9   2   8   10.78    2.08
  10   2   8    6.44    2.29
  10   2   8    2.53    1.32
  10   2   8    4.65    2.19
  10   2   8    4.96    1.40
  11   2   8    6.96    2.10
  11   2   8   11.62    2.75
  11   2   8    9.85    3.27
  11   2   8   13.70    3.42
  10  -3  -8   11.75    3.44
  10  -3  -8    1.54    2.30
   9  -3  -8   10.94    2.55
   9  -3  -8   15.27    3.55
   8  -3  -8   45.02    4.88
   8  -3  -8   49.14    5.44
   8  -3  -8   43.77    4.05
   7  -3  -8   31.16    4.14
   7  -3  -8   28.61    3.11
   7  -3  -8   34.46    3.93
   6  -3  -8   51.15    3.84
   6  -3  -8   47.69    4.68
   6  -3  -8   41.73    4.59
   5  -3  -8   17.86    3.14
   5  -3  -8   26.30    4.22
   5  -3  -8   20.43    2.18
  -5   3   8   19.15    3.28
   4  -3  -8    7.25    1.52
   4  -3  -8    8.60    2.01
   4  -3  -8    8.07    1.97
   4  -3  -8    7.75    2.05
  -4   3   8    6.68    1.90
   3  -3  -8    0.41    0.61
   3  -3  -8    1.86    0.92
   3  -3  -8    0.15    0.53
   3  -3  -8    0.85    0.84
  -3   3   8    0.55    0.55
  -3   3   8    1.42    0.69
   2  -3  -8   82.82    5.37
   2  -3  -8   76.52    4.62
   2  -3  -8   75.37    5.16
   2  -3  -8   70.83    4.85
  -2   3   8   73.32    3.52
  -2   3   8   80.37    4.80
  -2   3   8   68.23    5.11
   1  -3  -8  161.81    8.20
   1  -3  -8  157.37    8.42
   1  -3  -8  158.55    8.10
   1  -3  -8  156.59    7.87
  -1   3   8  160.56    7.89
  -1   3   8  154.22    8.47
  -1   3   8  157.55    7.04
   0  -3  -8  172.11    8.72
   0  -3  -8  164.56    8.05
   0  -3  -8  162.94    8.19
   0  -3  -8  170.04    8.32
   0   3   8  178.96    8.27
   0   3   8  163.17    8.62
   0   3   8  144.98    7.92
   0   3   8  162.26    7.61
   0   3   8  161.45    8.22
  -1  -3  -8  243.51   11.91
  -1  -3  -8  259.82   11.76
  -1  -3  -8  264.76   11.37
  -1  -3  -8  261.46   12.32
   1   3   8  272.55   11.84
   1   3   8  279.27   12.11
   1   3   8  269.87   12.33
   1   3   8  242.28   11.35
  -2  -3  -8   36.63    2.90
  -2  -3  -8   32.45    3.11
  -2  -3  -8   32.08    3.00
  -2  -3  -8   38.83    2.57
   2   3   8   33.49    3.06
   2   3   8   39.23    3.21
   2   3   8   33.00    2.41
   2   3   8   32.07    2.75
  -3  -3  -8   25.33    1.94
  -3  -3  -8   23.45    2.39
  -3  -3  -8   26.27    2.79
   3   3   8   25.17    1.84
   3   3   8   24.09    2.26
   3   3   8   25.18    2.60
   3   3   8   23.80    2.63
  -4  -3  -8   16.70    2.05
  -4  -3  -8   10.73    2.33
   4   3   8   17.39    1.34
   4   3   8   16.08    1.90
   4   3   8   14.91    2.08
  -5  -3  -8    6.23    1.61
   5   3   8    6.95    1.81
   5   3   8    4.88    0.69
   5   3   8    3.94    1.42
   5   3   8    5.24    1.38
   6   3   8   76.74    5.98
   6   3   8   67.73    5.68
   6   3   8   81.24    6.01
   6   3   8   76.21    3.58
   6   3   8   78.28    5.16
   7   3   8   55.75    4.98
   7   3   8   53.11    2.81
   7   3   8   55.82    2.79
   7   3   8   56.90    5.14
   7   3   8   60.66    5.27
   7   3   8   57.91    5.49
   8   3   8   23.65    1.68
   8   3   8   15.84    3.33
   8   3   8   19.87    3.66
   8   3   8   19.89    1.34
   8   3   8   22.42    2.70
   9   3   8   14.56    2.68
   9   3   8   10.36    2.51
   9   3   8   12.20    2.95
  10   3   8    1.56    1.67
  10   3   8    1.53    1.28
  10   3   8    3.39    1.42
  11   3   8    0.30    1.96
  11   3   8   -3.14    1.55
  11   3   8    1.38    1.51
  11   3   8   -0.33    1.40
  10  -4  -8    2.97    2.24
  10  -4  -8    3.44    2.45
   9  -4  -8   32.90    5.73
   9  -4  -8   35.56    6.01
   8  -4  -8   24.93    2.60
   8  -4  -8   27.14    4.98
   8  -4  -8   26.79    5.15
   7  -4  -8    3.55    1.27
   7  -4  -8    8.22    2.73
   7  -4  -8    5.15    1.91
   6  -4  -8    2.65    1.50
   6  -4  -8    0.88    0.91
   6  -4  -8   -0.45    0.87
   5  -4  -8   -0.28    0.57
   5  -4  -8   -0.98    0.51
   5  -4  -8    0.36    0.53
   4  -4  -8    6.66    1.84
   4  -4  -8    9.22    1.67
   4  -4  -8   12.10    2.79
   4  -4  -8    9.82    2.27
  -4   4   8    5.79    2.36
   3  -4  -8  174.32    9.85
   3  -4  -8  173.85    9.32
   3  -4  -8  181.21    8.52
   3  -4  -8  189.71   10.02
  -3   4   8  167.78    8.55
  -3   4   8  161.04    9.92
   2  -4  -8  125.84    7.55
   2  -4  -8  114.88    6.97
   2  -4  -8  126.08    7.42
   2  -4  -8  124.18    6.57
  -2   4   8  125.43    5.47
  -2   4   8  130.33    6.67
  -2   4   8  116.02    7.51
   1  -4  -8  216.19   10.30
   1  -4  -8  210.54   10.59
   1  -4  -8  229.77   11.19
   1  -4  -8  213.89   10.69
  -1   4   8  233.14   10.32
  -1   4   8  219.32   11.26
   0  -4  -8  125.90    7.23
   0  -4  -8  137.04    7.46
   0  -4  -8  140.63    7.81
   0  -4  -8  141.39    7.24
   0   4   8  134.59    7.47
   0   4   8  151.80    7.39
   0   4   8  139.60    7.86
  -1  -4  -8   72.98    4.28
  -1  -4  -8   70.82    4.77
  -1  -4  -8   75.62    5.09
  -1  -4  -8   68.76    4.87
   1   4   8   76.08    4.85
   1   4   8   73.21    5.03
   1   4   8   78.55    4.92
  -2  -4  -8   19.71    1.70
  -2  -4  -8   20.55    2.24
  -2  -4  -8   17.18    2.29
  -2  -4  -8   19.89    2.40
   2   4   8   20.07    2.33
   2   4   8   19.26    2.27
   2   4   8   23.54    2.37
  -3  -4  -8    4.43    1.55
  -3  -4  -8    7.75    1.67
  -3  -4  -8    5.83    0.95
   3   4   8    4.15    1.17
   3   4   8    5.06    1.52
   3   4   8    7.99    1.69
  -4  -4  -8   17.30    2.24
   4   4   8   18.17    3.00
   4   4   8   17.99    2.21
   4   4   8   18.78    2.33
  -5  -4  -8   61.66    4.96
   5   4   8   74.63    5.76
   5   4   8   69.30    5.27
   5   4   8   64.63    4.73
  -6  -4  -8   58.14    5.03
   6   4   8   63.87    4.90
   6   4   8   69.22    5.07
   6   4   8   61.03    5.43
   7   4   8   27.89    3.74
   7   4   8   30.64    3.97
   7   4   8   28.03    3.35
   8   4   8    4.10    1.51
   8   4   8    4.26    1.94
   8   4   8    6.64    2.03
   8   4   8    3.76    2.02
   9   4   8   13.34    3.30
   9   4   8   13.28    2.82
   9   4   8   16.50    3.94
  10   4   8    1.65    1.35
  10   4   8   -0.05    1.45
  10   4   8    2.63    1.88
  11   4   8    3.90    3.24
  11   4   8   -1.13    1.85
  11   4   8   -0.02    1.95
  11   4   8   -0.99    1.71
   9  -5  -8   14.15    3.89
   9  -5  -8   12.12    3.86
   8  -5  -8   27.33    5.22
   8  -5  -8   19.20    1.22
   8  -5  -8   18.59    4.26
   7  -5  -8   -1.23    1.64
   7  -5  -8   -0.58    1.37
   6  -5  -8    8.60    2.61
   6  -5  -8    4.91    2.10
   6  -5  -8    5.67    1.14
   5  -5  -8   20.14    4.13
   5  -5  -8   19.79    3.67
   5  -5  -8   17.36    1.91
   4  -5  -8   62.67    4.05
   4  -5  -8   71.47    5.93
   4  -5  -8   65.68    5.72
   3  -5  -8  121.25    7.40
   3  -5  -8  137.33    8.39
   3  -5  -8  132.48    8.27
   3  -5  -8  113.02    6.43
  -3   5   8  121.27    4.97
  -3   5   8  130.95    6.74
   2  -5  -8   18.08    3.49
   2  -5  -8   15.67    1.77
   2  -5  -8   16.21    3.04
   2  -5  -8   17.42    2.79
  -2   5   8   18.68    3.33
  -2   5   8   14.47    1.35
  -2   5   8   15.26    1.82
   1  -5  -8    8.92    2.87
   1  -5  -8   10.08    3.14
   1  -5  -8    5.07    1.29
   1  -5  -8    5.65    1.28
  -1   5   8    7.25    2.67
  -1   5   8    5.75    1.63
  -1   5   8    5.32    1.29
   0  -5  -8   54.82    4.19
   0  -5  -8   57.22    4.40
   0  -5  -8   64.17    4.30
   0  -5  -8   72.12    5.01
   0   5   8   56.41    4.44
   0   5   8   57.90    4.11
   0   5   8   60.57    4.80
  -1  -5  -8    0.53    0.57
  -1  -5  -8    0.26    0.44
  -1  -5  -8    1.00    0.73
  -1  -5  -8    1.32    0.77
   1   5   8   -0.06    0.53
   1   5   8    1.35    0.70
   1   5   8    0.24    0.51
  -2  -5  -8    0.41    0.83
  -2  -5  -8    3.31    1.18
  -2  -5  -8    3.15    1.15
  -2  -5  -8    2.52    0.68
   2   5   8    3.39    1.18
   2   5   8    3.62    1.19
   2   5   8    2.69    1.03
  -3  -5  -8  111.76    6.72
  -3  -5  -8   80.41    9.06
  -3  -5  -8  102.83    4.64
   3   5   8  106.69    6.42
   3   5   8  106.37    6.83
   3   5   8  112.26    6.95
  -4  -5  -8    9.33    2.12
   4   5   8   11.78    2.22
   4   5   8    9.59    2.28
   4   5   8    9.19    1.86
  -5  -5  -8   86.99    6.39
   5   5   8   93.53    6.31
   5   5   8   90.79    6.81
   5   5   8   88.77    5.77
   6   5   8   19.63    3.28
   6   5   8   21.67    3.90
   6   5   8   18.83    2.45
   7   5   8   16.45    3.65
   7   5   8   17.73    2.89
   7   5   8   22.94    3.67
   8   5   8   -0.81    1.21
   8   5   8    2.74    1.22
   9   5   8    1.09    1.03
   9   5   8    0.76    1.24
  10   5   8    1.71    1.92
  10   5   8    6.85    2.95
   9  -6  -8    0.21    1.96
   8  -6  -8    3.42    1.87
   8  -6  -8   -0.54    1.70
   7  -6  -8   17.40    4.30
   7  -6  -8   18.61    4.20
   6  -6  -8   34.77    4.66
   6  -6  -8   39.78    5.06
   5  -6  -8   12.18    1.45
   5  -6  -8   12.46    3.15
   5  -6  -8   14.81    3.41
   4  -6  -8  201.59   10.14
   4  -6  -8  253.28   13.65
   4  -6  -8  251.21   13.71
   3  -6  -8   25.57    3.36
   3  -6  -8   18.86    2.14
   3  -6  -8   23.24    4.01
  -3   6   8   23.63    2.35
  -3   6   8   27.74    1.79
   2  -6  -8   54.84    4.73
   2  -6  -8   52.14    4.73
   2  -6  -8   42.59    3.49
  -2   6   8   47.45    3.51
  -2   6   8   54.31    3.42
   1  -6  -8    5.24    1.59
   1  -6  -8    4.26    1.24
   1  -6  -8    6.25    1.70
   1  -6  -8    4.64    1.60
  -1   6   8    6.71    1.73
  -1   6   8    5.16    1.27
  -1   6   8    3.94    1.85
   0  -6  -8    0.95    0.64
   0  -6  -8   -0.26    0.46
   0  -6  -8    0.92    0.85
   0   6   8   -0.68    0.64
   0   6   8    0.43    0.65
   0   6   8    0.56    0.71
  -1  -6  -8   36.41    2.96
  -1  -6  -8   37.78    4.16
  -1  -6  -8   28.96    3.27
   1   6   8   37.37    3.53
   1   6   8   41.15    3.55
   1   6   8   30.73    3.29
  -2  -6  -8  109.42    5.62
  -2  -6  -8  112.56    6.95
  -2  -6  -8  106.33    7.19
   2   6   8  107.56    6.86
   2   6   8  114.64    7.05
   2   6   8  115.81    7.09
  -3  -6  -8   21.07    4.00
  -3  -6  -8   26.14    2.93
  -3  -6  -8   25.37    1.63
   3   6   8   25.87    3.11
   3   6   8   22.05    2.82
   3   6   8   26.26    2.87
   4   6   8   37.05    3.79
   4   6   8   44.97    3.72
   4   6   8   37.31    4.04
   5   6   8   26.10    2.82
   5   6   8   31.62    3.87
   5   6   8   31.44    3.47
   6   6   8   17.36    3.17
   6   6   8   18.95    3.69
   6   6   8   21.42    2.53
   7   6   8    4.32    1.34
   7   6   8    0.50    1.21
   7   6   8    0.24    1.15
   8   6   8   -2.87    1.12
   8   6   8   -1.58    0.95
   9   6   8    7.68    2.62
   9   6   8    6.68    2.98
  10   6   8    3.78    1.92
  10   6   8    3.37    2.10
   8  -7  -8   23.14    5.39
   8  -7  -8   22.23    4.91
   7  -7  -8   22.65    4.87
   7  -7  -8   29.26    5.75
   6  -7  -8   14.75    3.67
   6  -7  -8   18.49    4.61
   5  -7  -8   11.91    3.31
   5  -7  -8   14.45    3.52
   4  -7  -8   51.76    5.61
   4  -7  -8   54.99    5.64
   3  -7  -8    2.95    1.54
   3  -7  -8    5.03    2.03
  -3   7   8    4.76    1.24
   2  -7  -8    2.43    1.36
   2  -7  -8    3.92    1.71
  -2   7   8    1.84    1.10
  -2   7   8    3.92    1.23
  -2   7   8    5.34    1.26
   1  -7  -8   21.13    3.54
   1  -7  -8   16.93    3.32
  -1   7   8   16.04    2.10
  -1   7   8   18.59    3.22
  -1   7   8   19.85    2.23
   0  -7  -8   22.78    2.88
   0  -7  -8   20.38    2.59
   0   7   8   20.08    2.29
   0   7   8   18.45    3.13
  -1  -7  -8   54.46    4.58
  -1  -7  -8   49.89    3.92
   1   7   8   57.27    4.78
   1   7   8   48.59    4.53
   1   7   8   58.94    4.56
  -2  -7  -8  142.40    7.00
  -2  -7  -8  134.07    8.17
   2   7   8  128.22    8.11
   2   7   8  132.17    8.32
   2   7   8  147.32    8.49
  -3  -7  -8    5.12    1.59
  -3  -7  -8    5.47    0.90
   3   7   8    5.10    1.70
   3   7   8    3.71    1.37
   3   7   8    6.93    1.98
   4   7   8  100.98    7.34
   4   7   8   79.08    5.75
   4   7   8   92.75    6.72
   5   7   8    9.28    2.09
   5   7   8   18.56    3.70
   5   7   8   10.41    2.53
   6   7   8   -0.01    1.14
   6   7   8   -0.02    0.94
   7   7   8    2.11    1.67
   7   7   8    1.31    1.62
   7   7   8    2.57    1.22
   8   7   8   14.57    3.73
   8   7   8   11.43    1.95
   9   7   8    4.94    2.31
   9   7   8    4.26    2.14
  10   7   8    4.19    2.35
  10   7   8    2.32    2.46
   7  -8  -8   44.23    7.63
   7  -8  -8   38.47    7.02
   6  -8  -8   10.62    3.22
   6  -8  -8   20.07    4.43
   5  -8  -8   31.27    5.59
   5  -8  -8   22.04    4.62
   4  -8  -8   -0.37    0.78
   4  -8  -8   -0.95    0.92
  -4   8   8   -0.28    0.58
   3  -8  -8   -0.15    1.32
   3  -8  -8   -1.84    0.88
  -3   8   8    0.73    0.88
  -3   8   8    1.38    0.76
   2  -8  -8   47.76    5.02
   2  -8  -8   45.18    4.81
  -2   8   8   47.23    3.56
  -2   8   8   45.91    4.53
  -2   8   8   42.19    3.54
   1  -8  -8   28.09    3.61
   1  -8  -8   26.84    3.41
  -1   8   8   29.41    3.51
  -1   8   8   21.48    3.73
  -1   8   8   31.29    2.81
   0  -8  -8   37.89    3.81
   0  -8  -8   33.41    3.88
   0   8   8   34.91    3.90
   0   8   8   44.23    3.74
   0   8   8   29.83    3.30
  -1  -8  -8   88.51    5.94
  -1  -8  -8   98.67    6.86
   1   8   8   92.79    6.33
   1   8   8   88.70    6.63
  -2  -8  -8   14.39    2.92
  -2  -8  -8   12.79    2.13
   2   8   8   10.93    2.50
   2   8   8   11.61    2.45
   2   8   8    7.08    2.06
  -3  -8  -8    8.95    2.17
  -3  -8  -8    6.09    1.14
   3   8   8    3.85    1.56
   3   8   8    7.43    2.20
   3   8   8    6.36    1.94
  -4  -8  -8    6.01    1.90
   4   8   8    9.88    2.50
   4   8   8    7.75    2.63
   4   8   8    8.91    2.35
   5   8   8    2.59    1.36
   5   8   8    1.78    1.03
   5   8   8    0.88    1.26
   6   8   8    9.31    2.81
   6   8   8   11.54    2.85
   6   8   8   10.35    2.08
   7   8   8   12.32    3.14
   7   8   8   13.50    2.23
   7   8   8   18.70    3.56
   8   8   8    6.90    2.37
   8   8   8    5.14    2.36
   9   8   8    7.81    2.57
   9   8   8    9.25    3.58
   7  -9  -8    4.88    3.85
   7  -9  -8    6.52    3.81
   6  -9  -8    0.80    2.02
   6  -9  -8    2.58    2.71
   5  -9  -8   -2.73    1.24
   5  -9  -8    2.18    1.38
   4  -9  -8    4.57    1.86
   4  -9  -8    4.21    2.08
  -4   9   8    1.91    1.47
   3  -9  -8   21.86    4.45
   3  -9  -8   19.01    3.96
  -3   9   8   17.33    2.63
  -3   9   8   17.87    2.01
   2  -9  -8   23.60    4.50
   2  -9  -8   28.61    5.01
  -2   9   8   22.95    4.08
  -2   9   8   21.64    2.44
  -2   9   8   27.20    3.20
   1  -9  -8   66.63    6.06
   1  -9  -8   56.98    5.61
  -1   9   8   64.02    4.59
  -1   9   8   57.60    5.50
   0  -9  -8   31.67    3.69
   0  -9  -8   33.43    4.05
   0   9   8   33.25    3.90
   0   9   8   28.56    3.25
  -1  -9  -8   11.57    2.70
  -1  -9  -8    8.01    2.01
   1   9   8   15.39    2.97
   1   9   8   13.39    2.81
  -2  -9  -8    5.35    1.37
  -2  -9  -8    4.15    1.66
   2   9   8    5.22    1.95
   2   9   8    6.72    2.08
  -3  -9  -8    0.01    0.91
  -3  -9  -8   -0.98    0.93
  -3  -9  -8    0.54    0.59
   3   9   8    1.50    1.06
   3   9   8    0.92    0.92
  -4  -9  -8    8.08    2.29
   4   9   8    7.53    2.34
   4   9   8   12.83    3.10
   4   9   8    7.88    2.36
   5   9   8   13.53    4.14
   5   9   8   13.92    3.37
   6   9   8    9.43    2.81
   6   9   8    6.45    1.79
   6   9   8    9.09    2.48
   7   9   8   13.17    3.24
   7   9   8   16.65    3.71
   8   9   8    8.84    2.33
   9   9   8    6.06    4.06
   9   9   8    7.89    2.88
   6 -10  -8   -1.76    2.79
   5 -10  -8    7.82    3.04
   5 -10  -8    3.89    2.85
   4 -10  -8   14.17    3.92
   4 -10  -8   15.35    3.78
   3 -10  -8   47.72    5.78
   3 -10  -8   40.31    5.52
   2 -10  -8   11.10    2.90
   2 -10  -8   15.95    3.83
  -2  10   8   20.97    4.12
  -2  10   8   15.54    2.41
   1 -10  -8   13.12    3.42
   1 -10  -8   16.26    3.62
  -1  10   8   19.23    3.63
  -1  10   8   21.32    2.66
   0 -10  -8   19.98    3.49
   0  10   8   24.20    4.38
   0  10   8   27.60    3.31
  -1 -10  -8   -1.04    0.87
  -1 -10  -8    0.85    1.01
   1  10   8    0.95    1.29
   1  10   8    0.18    0.84
  -2 -10  -8    3.89    2.05
  -2 -10  -8    5.19    1.73
   2  10   8    0.68    1.55
   2  10   8    3.01    1.49
  -3 -10  -8    2.29    0.99
  -3 -10  -8    3.02    1.62
  -3 -10  -8    1.96    1.29
   3  10   8    2.29    1.22
   3  10   8    2.59    1.66
  -4 -10  -8    7.61    2.42
   4  10   8   17.60    4.85
   4  10   8   11.75    2.95
   5  10   8    3.66    1.58
   5  10   8    0.76    1.21
   6  10   8    5.03    2.47
   6  10   8    4.14    1.78
   7  10   8   -3.21    1.33
   7  10   8    2.35    2.03
   8  10   8    4.11    2.46
   8  10   8    2.59    1.59
   4 -11  -8    5.10    2.54
   4 -11  -8    6.16    3.03
   3 -11  -8   11.66    3.73
   3 -11  -8   14.62    4.08
   2 -11  -8    5.86    2.28
   2 -11  -8    2.30    1.54
  -2  11   8    1.77    1.51
   1 -11  -8    4.15    1.80
   1 -11  -8    6.48    3.03
  -1  11   8    5.33    2.32
  -1  11   8    7.42    1.95
   0 -11  -8    0.92    1.48
   0  11   8   -0.75    1.15
   0  11   8    2.74    1.44
  -1 -11  -8    4.43    2.14
  -1 -11  -8    6.17    2.02
   1  11   8    3.60    1.71
   1  11   8    2.15    1.61
  -2 -11  -8   10.42    2.72
  -2 -11  -8    8.01    1.97
   2  11   8    8.12    2.74
   2  11   8   10.11    2.69
  -3 -11  -8   15.32    3.43
  -3 -11  -8   12.96    2.19
   3  11   8   16.86    3.67
   3  11   8   17.15    3.25
  -4 -11  -8   20.71    3.84
   4  11   8   11.33    3.46
   4  11   8   18.23    3.93
   5  11   8    9.99    3.29
   5  11   8    8.73    2.95
   6  11   8   19.87    4.40
   6  11   8   17.51    4.23
   2 -12  -8   -3.29    1.68
   2 -12  -8   -0.11    2.41
   1 -12  -8    3.92    2.18
   1 -12  -8    1.27    2.01
  -1  12   8   -1.22    1.73
  -1  12   8    1.34    1.90
   0 -12  -8    2.36    3.13
   0 -12  -8    1.59    1.87
   0  12   8    3.59    2.12
   0  12   8    0.17    1.82
  -1 -12  -8    4.22    2.21
  -1 -12  -8    9.52    2.83
   1  12   8    5.34    2.33
   1  12   8    5.81    2.08
  -2 -12  -8    2.88    1.75
   2  12   8   12.61    3.21
   2  12   8    4.69    2.63
  -3 -12  -8    5.45    2.14
   3  12   8    6.39    2.35
   3  12   8    6.25    2.65
  -4 -12  -8    5.83    2.94
   4  12   8    9.62    3.08
   4  12   8    9.25    3.18
   5  12   8    1.15    2.12
   1  10  -9   12.86    3.38
  -1 -10   9   14.86    6.37
   5   9  -9   19.85    4.45
   4   9  -9   55.58    6.25
   3   9  -9   31.76    5.50
  -3  -9   9   23.40    5.09
   2   9  -9   29.51    5.16
  -2  -9   9   19.70    3.82
   1   9  -9   11.48    3.01
  -1  -9   9    6.22    2.29
   0   9  -9   -2.80    1.30
   0  -9   9    1.22    1.87
  -1   9  -9    0.98    1.60
   1  -9   9   -0.91    1.79
   1  -9   9    1.14    1.86
   2  -9   9   12.51    4.46
   2  -9   9    9.71    3.23
   3  -9   9   12.08    3.82
   3  -9   9   16.91    4.84
   6   8  -9   20.97    4.67
   5   8  -9   28.82    5.33
   4   8  -9   29.39    5.04
  -3  -8   9   -1.65    1.16
   2   8  -9    0.87    1.62
  -2  -8   9    0.85    1.23
   1   8  -9   -2.77    1.20
  -1  -8   9    0.31    1.44
   0   8  -9   15.96    3.15
   0  -8   9   22.15    4.49
   0  -8   9   19.53    4.08
  -1   8  -9   27.81    3.12
   1  -8   9   35.14    5.59
  -2   8  -9   15.82    2.03
   2  -8   9   18.04    4.16
   2  -8   9   18.51    4.06
   3  -8   9   41.28    5.28
   3  -8   9   43.52    6.21
   4  -8   9   20.98    4.64
   4  -8   9    9.11    3.31
   5  -8   9    0.50    2.40
   5  -8   9    4.90    3.00
   7   7  -9   24.62    5.07
   6   7  -9   23.84    5.09
   5   7  -9   24.21    4.41
   4   7  -9    8.64    2.57
  -4  -7   9    5.78    1.64
  -4  -7   9    5.37    1.17
   3   7  -9    1.03    1.24
  -3  -7   9    0.79    1.59
  -3  -7   9    1.72    1.27
   2   7  -9    9.87    2.64
  -2  -7   9    4.72    2.59
   1   7  -9   12.19    2.52
  -1  -7   9   17.83    3.70
   0   7  -9   60.55    5.00
   0  -7   9   67.94    6.29
  -1   7  -9   66.78    4.71
   1  -7   9   65.68    6.08
  -2   7  -9   22.73    2.23
  -3   7  -9   11.48    3.28
   3  -7   9   16.50    3.72
   4  -7   9    2.82    1.64
   5  -7   9   -0.59    1.32
   6  -7   9    4.77    2.33
   6  -7   9    1.98    1.73
   8   6  -9   13.79    3.24
   8   6  -9   15.60    4.22
   7   6  -9   22.51    5.23
   7   6  -9   18.71    3.75
   6   6  -9    0.19    1.10
   6   6  -9    2.36    1.80
   5   6  -9   11.42    3.10
   5   6  -9    9.09    2.40
   4   6  -9   -0.78    1.19
   4   6  -9    2.42    1.32
  -4  -6   9    2.45    1.34
   3   6  -9   11.26    2.94
  -3  -6   9    5.87    1.59
   2   6  -9   33.07    3.95
  -2  -6   9   39.83    4.43
   1   6  -9   49.77    4.62
  -1  -6   9   55.06    5.34
   0   6  -9   57.18    5.54
   0  -6   9   56.71    5.44
  -1   6  -9   47.18    3.74
   1  -6   9   47.77    4.94
  -2   6  -9   54.63    3.40
  -2   6  -9   48.97    4.43
   2  -6   9   65.62    5.63
   3  -6   9    6.96    2.16
  -4   6  -9    1.27    1.95
   4  -6   9   -0.24    0.81
  -5   6  -9    4.89    2.35
   5  -6   9    0.14    1.48
   6  -6   9   22.68    4.03
   7  -6   9   15.61    4.37
   7  -6   9   26.07    4.48
   9   5  -9   11.33    3.81
   9   5  -9    8.40    3.06
   8   5  -9    4.45    2.17
   8   5  -9    3.69    3.74
   7   5  -9    8.05    2.94
   7   5  -9    5.83    2.62
   6   5  -9    3.75    2.13
   6   5  -9   -0.70    1.23
   5   5  -9    6.02    2.33
   5   5  -9    3.22    1.69
   4   5  -9   10.57    2.88
   4   5  -9   10.24    2.78
  -4  -5   9   11.30    2.02
   3   5  -9   51.52    5.55
   3   5  -9   56.90    5.54
  -3  -5   9   61.58    4.32
  -3  -5   9   61.72    5.37
   2   5  -9   81.96    7.12
   2   5  -9   95.55    6.77
  -2  -5   9   80.49    5.63
  -2  -5   9   87.60    6.70
   1   5  -9   72.92    5.48
  -1  -5   9   68.37    5.86
   0   5  -9   50.73    4.11
   0  -5   9   49.94    4.82
  -1   5  -9   14.73    1.90
  -1   5  -9   20.11    2.99
   1  -5   9   16.20    3.14
  -2   5  -9    4.27    0.91
  -2   5  -9    2.92    1.46
   2  -5   9    6.03    1.97
  -3   5  -9   28.65    3.19
   3  -5   9   24.40    3.15
  -4   5  -9   14.49    2.81
   4  -5   9   19.39    3.51
  -5   5  -9    8.11    1.89
   5  -5   9   13.75    3.01
   6  -5   9   39.80    5.26
   7  -5   9   19.01    3.62
   8  -5   9   10.00    3.04
   9   4  -9   12.90    3.86
   9   4  -9   19.53    4.01
   8   4  -9    2.13    1.71
   8   4  -9    3.35    2.34
   7   4  -9    2.77    1.70
   7   4  -9    0.33    1.21
   6   4  -9    4.97    1.95
   6   4  -9    5.80    2.21
   5   4  -9   84.75    7.27
   5   4  -9   73.23    6.33
  -5  -4   9   67.34    3.93
   4   4  -9   60.58    5.83
   4   4  -9   71.64    6.03
  -4  -4   9   59.66    4.19
   3   4  -9   84.93    6.68
   3   4  -9   87.71    6.72
  -3  -4   9   82.15    5.14
  -3  -4   9   72.11    5.84
   2   4  -9  105.64    7.23
   2   4  -9  101.73    7.73
  -2  -4   9  112.74    7.25
  -2  -4   9  102.43    6.32
   1   4  -9   23.85    2.75
   1   4  -9   21.12    3.39
   1   4  -9   24.90    4.35
  -1  -4   9   21.80    2.82
  -1  -4   9   18.28    2.59
   0   4  -9    2.19    1.20
   0   4  -9    1.49    0.86
   0  -4   9    3.31    1.29
  -1   4  -9   -0.19    1.19
  -1   4  -9    0.62    0.53
   1  -4   9    0.06    0.59
  -2   4  -9   14.34    1.36
  -2   4  -9   15.51    2.51
   2  -4   9   15.67    3.05
  -3   4  -9   71.01    5.00
   3  -4   9   69.54    5.53
  -4   4  -9   73.23    5.32
   4  -4   9   86.12    6.29
  -5   4  -9   46.09    3.83
   5  -4   9   46.60    4.68
   6  -4   9   57.79    5.38
   7  -4   9   18.30    3.45
   8  -4   9    1.66    1.55
   9  -4   9    0.06    2.07
   9  -4   9   -2.03    1.80
  10   3  -9    1.78    1.83
  10   3  -9    1.04    2.07
   9   3  -9    3.54    1.84
   9   3  -9   -2.56    1.18
   8   3  -9    0.96    1.40
   8   3  -9   -0.19    0.91
   7   3  -9    4.32    1.79
   6   3  -9   32.95    3.98
   5   3  -9   49.28    4.08
   5   3  -9   52.47    4.98
   4   3  -9  111.82    7.85
   4   3  -9  115.48    6.65
  -4  -3   9  116.39    6.45
   3   3  -9   68.04    5.83
   3   3  -9   77.57    5.03
  -3  -3   9   70.06    5.27
  -3  -3   9   76.49    4.87
   2   3  -9   26.96    3.41
   2   3  -9   28.21    2.89
   2   3  -9   27.69    2.73
  -2  -3   9   27.80    2.88
  -2  -3   9   26.85    2.72
  -2  -3   9   24.24    2.93
   1   3  -9    7.71    2.26
   1   3  -9    7.83    1.72
   1   3  -9    7.36    1.63
  -1  -3   9    5.73    1.68
  -1  -3   9    5.00    1.45
  -1  -3   9    5.87    1.70
   0   3  -9   13.12    2.28
   0   3  -9   20.24    3.72
   0   3  -9   15.05    2.05
   0  -3   9   15.29    2.85
   0  -3   9   13.24    2.46
  -1   3  -9   31.69    3.16
  -1   3  -9   29.60    2.92
  -1   3  -9   30.44    2.52
   1  -3   9   28.93    3.32
   1  -3   9   29.01    3.09
  -2   3  -9   71.81    3.76
  -2   3  -9   79.12    5.16
   2  -3   9   77.36    5.48
   2  -3   9   68.36    7.30
  -3   3  -9   65.78    4.84
   3  -3   9   74.96    5.42
  -4   3  -9   29.20    3.24
   4  -3   9   38.89    3.81
   4  -3   9   35.50    3.10
  -5   3  -9    3.85    1.48
   5  -3   9    3.03    1.07
   5  -3   9    2.56    1.21
   6  -3   9    6.79    2.08
   6  -3   9    4.30    1.16
   7  -3   9   -0.55    0.87
   7  -3   9    0.47    0.78
   9  -3   9    1.11    1.64
  10   2  -9    3.40    1.95
  10   2  -9    0.70    1.79
   9   2  -9   11.11    3.57
   8   2  -9   13.92    2.21
   8   2  -9   13.58    2.89
   7   2  -9   53.15    5.22
   6   2  -9   64.69    4.34
   6   2  -9   61.66    5.46
  -6  -2   9   61.17    4.22
   5   2  -9    9.22    2.38
   5   2  -9   11.97    2.03
  -5  -2   9   11.17    2.09
   4   2  -9   17.60    3.35
   4   2  -9   13.05    2.11
  -4  -2   9   14.18    1.93
   3   2  -9   28.44    2.60
   3   2  -9   33.52    3.54
   3   2  -9   32.07    3.09
  -3  -2   9   29.79    2.80
  -3  -2   9   25.93    3.09
  -3  -2   9   30.33    2.98
   2   2  -9    2.15    1.17
   2   2  -9    1.01    1.05
   2   2  -9    1.46    0.71
  -2  -2   9    2.83    1.16
  -2  -2   9    2.34    0.93
  -2  -2   9    2.54    1.01
   1   2  -9    5.31    1.50
   1   2  -9    3.89    1.18
   1   2  -9    6.32    2.56
  -1  -2   9    4.66    1.34
  -1  -2   9    5.40    1.38
   0   2  -9   37.83    3.24
   0   2  -9   38.14    3.27
   0   2  -9   43.62    6.75
   0  -2   9   38.16    3.29
   0  -2   9   33.96    3.27
   0  -2   9   32.92    3.34
  -1   2  -9  110.16    6.25
  -1   2  -9   94.67    6.98
   1  -2   9   96.96    6.15
   1  -2   9  108.66    6.96
   1  -2   9  111.68    7.51
  -2   2  -9  163.93    7.08
  -2   2  -9  166.43    9.05
  -2   2  -9  166.03    8.63
   2  -2   9  168.56    9.61
   2  -2   9  163.79    8.86
   2  -2   9  167.12    8.62
  -3   2  -9   79.15    5.39
  -3   2  -9   86.16    5.92
   3  -2   9   81.34    5.81
   3  -2   9   86.80    5.33
   3  -2   9   82.29    5.65
  -4   2  -9   52.42    4.23
   4  -2   9   51.74    4.47
   4  -2   9   51.56    4.39
   4  -2   9   50.71    3.85
  -5   2  -9    6.02    1.76
   5  -2   9    7.49    1.62
   5  -2   9    7.36    1.99
   6  -2   9    1.89    0.94
   6  -2   9    2.05    1.17
   7  -2   9   25.17    3.25
   7  -2   9   21.91    2.82
   8  -2   9    9.89    2.58
   8  -2   9   13.25    2.66
   9  -2   9   17.50    3.35
   9  -2   9   15.67    2.91
  10  -2   9    7.71    2.79
  10   1  -9   -0.60    1.67
   9   1  -9   20.33    2.58
   9   1  -9   28.95    5.01
   8   1  -9   30.75    3.91
   8   1  -9   34.09    2.58
   8   1  -9   29.17    2.96
   7   1  -9   39.41    3.44
   7   1  -9   44.46    3.10
   7   1  -9   41.87    4.47
   6   1  -9   26.38    3.39
   6   1  -9   24.41    2.62
   6   1  -9   26.94    2.35
  -6  -1   9   22.58    2.75
   5   1  -9   61.65    5.21
   5   1  -9   67.85    4.01
   5   1  -9   60.55    4.28
  -5  -1   9   54.86    4.37
   4   1  -9    0.53    0.62
   4   1  -9    1.14    0.60
   4   1  -9    0.31    0.62
   4   1  -9    0.54    0.68
  -4  -1   9    1.27    1.11
  -4  -1   9    0.67    0.67
   3   1  -9    1.07    0.60
   3   1  -9    3.03    1.06
   3   1  -9   -0.16    0.61
  -3  -1   9    0.69    0.62
  -3  -1   9   -1.01    0.69
  -3  -1   9    1.77    0.88
   2   1  -9   81.23    4.77
   2   1  -9   79.15    5.67
   2   1  -9   75.57    5.19
  -2  -1   9   84.17    5.21
  -2  -1   9   74.94    5.44
  -2  -1   9   86.54    5.06
   1   1  -9  208.28   10.47
   1   1  -9  220.70   11.22
   1   1  -9  211.64   10.04
  -1  -1   9  230.93   10.69
  -1  -1   9  211.08   10.82
  -1  -1   9  211.61   10.13
   0   1  -9   74.01    5.36
   0   1  -9   70.60    4.63
   0   1  -9   72.35    4.75
   0  -1   9   70.52    4.89
   0  -1   9   80.18    4.79
   0  -1   9   67.82    4.78
   0  -1   9   67.60    4.80
  -1   1  -9  161.97    8.06
  -1   1  -9  148.30    7.99
  -1   1  -9  147.59    8.67
   1  -1   9  160.32    8.04
   1  -1   9  154.22    8.05
   1  -1   9  137.62    8.19
   1  -1   9  149.53    8.20
  -2   1  -9   56.24    3.22
  -2   1  -9   59.44    4.50
  -2   1  -9   58.39    4.25
   2  -1   9   71.43    4.66
   2  -1   9   62.92    4.35
   2  -1   9   64.05    4.62
  -3   1  -9   46.60    3.96
  -3   1  -9   45.18    2.26
  -3   1  -9   46.38    3.77
   3  -1   9   49.89    3.69
   3  -1   9   45.21    3.82
   3  -1   9   48.31    3.90
  -4   1  -9    5.51    1.67
   4  -1   9    7.34    1.80
   4  -1   9    5.21    1.48
   4  -1   9    8.51    1.74
  -5   1  -9   -1.50    0.96
   5  -1   9   -0.01    1.21
   5  -1   9    0.41    0.81
   5  -1   9    0.20    0.62
   6  -1   9    2.76    1.35
   7  -1   9   34.40    3.86
   7  -1   9   40.12    3.55
   8  -1   9   31.15    3.33
   8  -1   9   30.07    3.86
   9  -1   9    7.07    1.81
   9  -1   9   16.77    3.28
  10  -1   9   10.83    3.01
  10  -1   9    8.08    1.98
  10   0  -9   24.92    4.80
  10   0  -9   28.23    3.41
   9   0  -9   23.30    4.31
   9   0  -9   26.97    3.13
   8   0  -9   25.39    1.26
   8   0  -9   22.52    2.84
   8   0  -9   26.97    3.70
   7   0  -9   12.94    2.94
   7   0  -9    7.84    1.14
   7   0  -9   12.91    2.40
   6   0  -9   20.39    1.77
   6   0  -9   22.27    2.55
   6   0  -9   26.34    3.35
  -6   0   9   19.97    2.84
   5   0  -9   13.97    2.42
   5   0  -9   14.30    3.01
   5   0  -9   15.61    2.66
  -5   0   9   18.17    3.14
   4   0  -9   23.29    2.83
   4   0  -9   20.99    1.86
   4   0  -9   24.14    2.80
   4   0  -9   19.86    2.33
  -4   0   9   19.08    2.41
  -4   0   9   24.22    2.96
   3   0  -9   53.09    4.25
   3   0  -9   63.05    4.39
   3   0  -9   55.61    4.92
   3   0  -9   57.90    3.52
  -3   0   9   60.34    4.37
  -3   0   9   58.87    3.68
   2   0  -9   43.78    3.64
   2   0  -9   47.44    3.96
   2   0  -9   49.18    3.17
   2   0  -9   41.92    3.56
  -2   0   9   46.69    3.18
  -2   0   9   48.87    4.11
  -2   0   9   48.52    3.72
   1   0  -9  168.58    8.58
   1   0  -9  166.14    8.03
   1   0  -9  160.88    8.87
  -1   0   9  169.18    8.90
  -1   0   9  176.68    8.82
  -1   0   9  170.13    8.03
  -1   0   9  162.03    8.70
   0   0  -9   86.73    5.31
   0   0  -9   92.32    5.75
   0   0  -9   83.77    5.00
   0   0   9   83.48    4.91
   0   0   9   79.77    5.24
   0   0   9   83.39    5.41
   0   0   9   82.14    5.33
  -1   0  -9  205.18   10.07
  -1   0  -9  209.38    9.61
  -1   0  -9  229.56   10.51
  -1   0  -9  200.85   10.51
   1   0   9  199.69   10.48
   1   0   9  223.50   10.13
   1   0   9  213.58   10.21
   1   0   9  209.78   10.23
  -2   0  -9   -0.63    0.34
  -2   0  -9   -0.45    0.43
  -2   0  -9    0.65    0.61
  -2   0  -9   -0.56    0.23
   2   0   9    0.33    0.42
   2   0   9    0.07    0.49
   2   0   9    0.58    0.53
   2   0   9   -0.17    0.81
  -3   0  -9    2.87    1.12
  -3   0  -9    4.20    0.79
   3   0   9    2.74    0.94
   3   0   9    4.18    1.27
   3   0   9    4.81    1.63
  -4   0  -9    6.14    0.76
  -4   0  -9    8.76    1.96
   4   0   9    4.76    1.34
   4   0   9    7.12    1.77
   4   0   9    9.40    1.93
  -5   0  -9   73.38    5.43
   5   0   9   87.79    5.55
   5   0   9   80.67    5.49
   5   0   9   85.49    5.96
   6   0   9   25.36    2.86
   6   0   9   29.55    3.13
   6   0   9   26.00    3.22
   7   0   9   17.64    3.38
   7   0   9   26.75    2.92
   7   0   9   16.66    2.83
   8   0   9   22.93    3.87
   8   0   9   26.29    3.14
   9   0   9    1.32    1.23
  10   0   9   -1.55    1.13
  10   0   9    1.22    1.52
  10  -1  -9   19.68    4.30
  10  -1  -9   10.78    2.23
   9  -1  -9   10.94    3.21
   9  -1  -9   12.95    2.85
   8  -1  -9    4.29    1.67
   8  -1  -9    8.84    2.84
   7  -1  -9    1.42    0.95
   7  -1  -9    2.27    1.24
   6  -1  -9    1.43    1.01
   6  -1  -9   -1.18    0.64
  -6   1   9   -0.84    1.13
   5  -1  -9   76.40    5.36
   5  -1  -9   73.14    3.50
   5  -1  -9   81.87    5.61
   5  -1  -9   81.04    6.10
  -5   1   9   76.16    5.72
   4  -1  -9  140.91    7.72
   4  -1  -9  137.54    5.97
   4  -1  -9  138.65    8.22
   4  -1  -9  128.70    7.40
  -4   1   9  124.36    8.31
  -4   1   9  127.59    7.80
   3  -1  -9   57.44    3.35
   3  -1  -9   62.42    4.51
   3  -1  -9   61.42    4.31
  -3   1   9   63.53    5.63
  -3   1   9   61.25    3.45
  -3   1   9   66.25    4.73
   2  -1  -9  144.11    6.78
   2  -1  -9  147.62    7.72
   2  -1  -9  149.63    7.98
   2  -1  -9  150.36    8.16
  -2   1   9  149.40    8.00
  -2   1   9  145.91    6.74
  -2   1   9  135.01    7.77
  -2   1   9  136.27    8.16
   1  -1  -9   53.38    4.17
   1  -1  -9   53.43    4.12
   1  -1  -9   58.52    4.05
   1  -1  -9   59.28    4.02
   1  -1  -9   54.30    3.49
  -1   1   9   56.21    4.22
  -1   1   9   59.77    4.27
  -1   1   9   57.87    3.50
  -1   1   9   56.49    4.08
   0  -1  -9   75.79    4.89
   0  -1  -9   77.39    4.61
   0  -1  -9   74.75    4.92
   0  -1  -9   69.58    4.39
   0   1   9   76.66    4.43
   0   1   9   75.16    4.88
   0   1   9   76.67    4.93
   0   1   9   78.92    5.16
  -1  -1  -9    0.36    0.55
  -1  -1  -9   -0.67    0.31
  -1  -1  -9    0.17    0.30
   1   1   9   -0.02    0.36
   1   1   9   -0.14    0.57
   1   1   9    0.65    0.66
   1   1   9    0.24    0.51
  -2  -1  -9   13.80    2.58
  -2  -1  -9    8.96    1.89
  -2  -1  -9   12.88    2.25
   2   1   9   13.11    2.36
   2   1   9    9.21    1.78
   2   1   9   13.35    2.11
   2   1   9   13.52    1.81
  -3  -1  -9   45.70    3.01
  -3  -1  -9   41.09    3.71
   3   1   9   45.34    3.32
   3   1   9   50.73    3.76
   3   1   9   42.85    3.85
   3   1   9   47.44    3.78
  -4  -1  -9   21.37    1.94
  -4  -1  -9   22.92    2.66
   4   1   9   24.21    2.73
   4   1   9   26.31    2.34
   4   1   9   22.22    1.83
   4   1   9   15.78    4.31
   4   1   9   25.93    2.64
  -5  -1  -9   72.73    5.84
   5   1   9  106.08    6.21
   5   1   9   90.49    4.53
   5   1   9   86.64    6.11
   5   1   9   86.01    5.30
   6   1   9  110.25    6.71
   6   1   9  101.06    6.98
   6   1   9   96.97    5.92
   6   1   9   93.66    4.89
   7   1   9    1.73    1.04
   7   1   9    2.77    0.71
   7   1   9    2.40    1.27
   7   1   9    1.20    1.00
   8   1   9   13.64    3.07
   8   1   9   14.84    3.98
   8   1   9   17.28    3.01
   8   1   9   15.61    1.55
   9   1   9   -0.04    0.45
   9   1   9   -1.10    0.97
   9   1   9    0.06    1.35
   9   1   9   -2.85    2.58
  10   1   9   -0.31    1.37
  10   1   9    1.97    1.25
  10   1   9   -0.78    1.10
  10  -2  -9    6.17    2.16
   9  -2  -9    0.07    1.37
   9  -2  -9    2.30    1.76
   8  -2  -9    2.86    1.58
   8  -2  -9    2.42    1.41
   7  -2  -9    7.25    2.02
   7  -2  -9   13.79    3.39
   6  -2  -9   24.56    3.01
   6  -2  -9   29.36    3.73
   6  -2  -9   32.09    3.51
   5  -2  -9   63.91    5.07
   5  -2  -9   58.11    5.10
   5  -2  -9   69.33    5.62
  -5   2   9   61.80    5.37
   4  -2  -9  119.20    7.46
   4  -2  -9  107.00    6.41
  -4   2   9  105.16    7.13
   3  -2  -9   41.10    3.36
   3  -2  -9   44.28    4.00
   3  -2  -9   50.66    4.02
  -3   2   9   44.36    3.90
  -3   2   9   43.68    2.40
   2  -2  -9   72.04    4.62
   2  -2  -9   61.54    4.57
   2  -2  -9   73.55    5.02
   2  -2  -9   76.98    5.11
  -2   2   9   68.57    4.68
  -2   2   9   70.66    3.62
  -2   2   9   61.95    4.77
  -2   2   9   69.90    5.06
   1  -2  -9  109.55    6.20
   1  -2  -9   92.24    5.73
   1  -2  -9   99.20    5.91
   1  -2  -9  105.34    6.34
  -1   2   9  109.30    6.10
  -1   2   9   98.43    6.21
  -1   2   9   93.42    6.04
  -1   2   9  102.48    5.12
   0  -2  -9    1.47    0.75
   0  -2  -9    1.29    0.61
   0  -2  -9    0.72    0.50
   0  -2  -9    0.71    0.68
   0   2   9    1.48    0.63
   0   2   9    1.67    0.83
   0   2   9    0.01    0.60
   0   2   9    1.41    0.71
  -1  -2  -9    0.84    0.48
  -1  -2  -9   -0.14    0.35
  -1  -2  -9    0.34    0.70
   1   2   9    0.10    0.47
   1   2   9   -0.19    0.31
   1   2   9    0.12    0.69
   1   2   9   -0.13    0.43
  -2  -2  -9   27.17    2.51
  -2  -2  -9   29.55    2.85
  -2  -2  -9   27.92    2.40
   2   2   9   30.26    2.79
   2   2   9   26.08    2.85
   2   2   9   27.44    2.38
   2   2   9   26.49    2.59
   2   2   9   27.84    2.34
  -3  -2  -9   33.22    2.66
  -3  -2  -9   24.58    2.86
  -3  -2  -9   26.98    2.51
   3   2   9   31.36    2.98
   3   2   9   32.27    2.53
   3   2   9   30.26    3.00
   3   2   9   33.06    3.22
   3   2   9   26.60    2.37
  -4  -2  -9   92.58    5.46
  -4  -2  -9   82.81    6.19
   4   2   9   97.28    5.23
   4   2   9  101.42    5.89
   4   2   9  100.41    6.35
   4   2   9   97.65    6.32
  -5  -2  -9   15.74    2.75
  -5  -2  -9   20.92    2.22
   5   2   9   22.25    2.67
   5   2   9   20.44    2.72
   5   2   9   22.06    2.82
   5   2   9   22.92    2.09
   5   2   9   21.68    2.02
   6   2   9   38.20    4.26
   6   2   9   43.93    3.12
   6   2   9   47.67    4.15
   6   2   9   47.11    4.40
   6   2   9   42.91    3.22
   7   2   9    4.32    1.11
   7   2   9    0.90    0.94
   7   2   9    0.84    0.88
   7   2   9    1.61    0.93
   8   2   9    0.37    1.14
   8   2   9    1.89    0.91
   8   2   9    0.56    0.76
   8   2   9   -0.08    0.77
   9   2   9    0.96    0.85
   9   2   9   -0.85    0.73
   9   2   9    0.15    1.17
   9   2   9    0.65    1.10
   9   2   9   -0.33    1.26
  10   2   9   11.01    3.30
  10   2   9   10.29    2.73
  11   2   9    7.33    2.41
  11   2   9    3.89    2.13
  10  -3  -9    7.63    3.00
   9  -3  -9   -0.68    1.22
   9  -3  -9    1.31    1.69
   8  -3  -9    2.88    1.82
   8  -3  -9    4.22    1.96
   7  -3  -9   23.43    3.91
   7  -3  -9   21.28    4.07
   7  -3  -9   24.58    2.90
   6  -3  -9   59.87    5.26
   6  -3  -9   66.32    5.97
   6  -3  -9   69.68    5.74
   5  -3  -9   48.88    4.79
   5  -3  -9   46.83    3.78
   5  -3  -9   51.60    4.61
   4  -3  -9   31.20    2.97
   4  -3  -9   39.85    3.93
   4  -3  -9   38.78    3.79
  -4   3   9   36.16    4.03
   3  -3  -9   26.25    2.88
   3  -3  -9   30.27    3.21
   3  -3  -9   29.68    3.32
   3  -3  -9   25.20    2.53
  -3   3   9   25.89    1.21
  -3   3   9   22.52    2.56
   2  -3  -9    6.03    1.71
   2  -3  -9    6.48    1.47
   2  -3  -9    6.34    1.56
   2  -3  -9    7.08    1.89
  -2   3   9    6.84    1.59
  -2   3   9    6.01    0.80
  -2   3   9    6.20    1.68
   1  -3  -9    8.76    1.88
   1  -3  -9    7.65    1.64
   1  -3  -9    9.22    1.83
   1  -3  -9   11.76    2.03
  -1   3   9    9.00    1.11
  -1   3   9   10.28    1.80
  -1   3   9    9.50    1.84
  -1   3   9   12.73    2.37
   0  -3  -9  199.34    9.98
   0  -3  -9  204.81   10.19
   0  -3  -9  208.03   10.58
   0  -3  -9  214.38   10.01
   0   3   9  191.76    9.90
   0   3   9  225.71   10.21
   0   3   9  211.02    9.47
   0   3   9  213.54   10.66
  -1  -3  -9   37.02    3.29
  -1  -3  -9   38.26    3.11
  -1  -3  -9   37.57    3.50
  -1  -3  -9   36.72    2.90
   1   3   9   38.02    2.98
   1   3   9   43.51    3.40
   1   3   9   38.91    3.16
   1   3   9   39.64    3.50
   1   3   9   37.50    2.97
  -2  -3  -9   77.16    4.36
  -2  -3  -9   70.52    4.64
  -2  -3  -9   71.88    5.06
   2   3   9   71.57    4.90
   2   3   9   73.31    4.32
   2   3   9   70.70    5.05
   2   3   9   73.56    4.80
   2   3   9   74.65    4.64
  -3  -3  -9  159.91    9.28
  -3  -3  -9  165.85    8.62
  -3  -3  -9  171.29    8.03
   3   3   9  166.06    7.77
   3   3   9  181.74    9.26
   3   3   9  178.57    9.24
   3   3   9  172.57    8.45
   3   3   9  175.62    9.13
  -4  -3  -9    9.10    2.07
  -4  -3  -9   10.33    2.06
   4   3   9   10.27    2.14
   4   3   9   14.47    2.53
   4   3   9   10.78    1.21
   4   3   9   12.50    2.03
   4   3   9   12.93    2.49
  -5  -3  -9   60.82    4.59
   5   3   9   65.15    4.44
   5   3   9   67.06    5.24
   5   3   9   65.78    3.49
   5   3   9   68.71    5.31
   6   3   9    0.64    0.89
   6   3   9   -0.94    0.48
   6   3   9    1.65    1.42
   6   3   9    0.82    0.78
   6   3   9    0.90    0.45
   7   3   9    6.83    2.05
   7   3   9    7.57    2.03
   7   3   9    6.57    0.91
   8   3   9   12.06    1.18
   8   3   9   18.42    3.74
   8   3   9   15.87    3.24
   8   3   9   15.32    2.51
   8   3   9   13.91    1.09
   9   3   9    7.14    2.79
   9   3   9    2.89    1.91
   9   3   9    5.17    1.50
  10   3   9   10.68    2.19
  10   3   9   11.01    3.05
  10   3   9   12.70    3.18
  11   3   9    3.58    1.83
  11   3   9   -0.44    2.25
  11   3   9    3.09    1.85
   9  -4  -9   19.05    4.17
   9  -4  -9   25.68    4.75
   8  -4  -9   37.57    5.12
   8  -4  -9   38.49    4.68
   7  -4  -9   44.57    5.31
   7  -4  -9   50.07    5.17
   6  -4  -9   36.35    4.34
   6  -4  -9   39.36    4.40
   6  -4  -9   37.11    3.17
   5  -4  -9   20.74    3.81
   5  -4  -9   17.65    3.50
   5  -4  -9   21.52    2.26
   4  -4  -9  110.14    6.27
   4  -4  -9  113.15    7.62
   4  -4  -9  111.83    7.71
   3  -4  -9    1.56    0.83
   3  -4  -9   -1.65    0.82
   3  -4  -9    0.43    0.69
   3  -4  -9    1.14    0.77
  -3   4   9    2.33    1.22
  -3   4   9   -0.42    0.33
   2  -4  -9    0.92    0.80
   2  -4  -9    3.15    1.09
   2  -4  -9    1.71    0.98
   2  -4  -9    2.10    1.05
  -2   4   9   -0.56    0.93
  -2   4   9    2.75    0.98
  -2   4   9    1.29    0.44
   1  -4  -9   59.19    4.32
   1  -4  -9   53.90    3.97
   1  -4  -9   60.40    4.66
   1  -4  -9   47.66    3.97
  -1   4   9   61.70    4.82
  -1   4   9   54.60    3.94
  -1   4   9   54.29    3.32
   0  -4  -9  112.31    6.26
   0  -4  -9  115.83    6.93
   0  -4  -9   97.15    6.20
   0  -4  -9  105.64    6.41
   0   4   9  112.76    6.95
   0   4   9   99.70    6.33
   0   4   9  121.60    6.46
  -1  -4  -9  116.92    5.95
  -1  -4  -9  107.97    6.38
  -1  -4  -9  106.49    6.72
  -1  -4  -9   97.81    6.43
   1   4   9  107.67    6.38
   1   4   9  110.57    6.39
   1   4   9  106.73    6.74
  -2  -4  -9   35.84    3.47
  -2  -4  -9   33.71    3.16
  -2  -4  -9   34.75    3.49
  -2  -4  -9   37.35    2.61
   2   4   9   42.69    3.57
   2   4   9   31.72    3.03
   2   4   9   33.32    3.28
  -3  -4  -9  107.76    7.15
  -3  -4  -9  117.55    5.71
  -3  -4  -9  115.51    6.93
   3   4   9  122.36    7.30
   3   4   9  121.90    6.79
   3   4   9  118.78    7.06
  -4  -4  -9    0.15    0.89
   4   4   9    1.73    0.86
   4   4   9    1.23    0.86
   4   4   9   -0.25    0.89
  -5  -4  -9    0.34    1.18
   5   4   9    1.28    0.95
   5   4   9    0.18    0.58
   5   4   9    0.43    0.87
  -6  -4  -9   15.71    2.83
   6   4   9   22.77    3.56
   6   4   9   19.80    2.51
   6   4   9   16.67    3.28
   7   4   9   21.97    3.74
   7   4   9   21.96    3.91
   7   4   9   24.48    4.12
   7   4   9   21.31    2.74
   8   4   9   23.07    4.02
   8   4   9   28.51    3.34
   8   4   9   26.43    3.55
   9   4   9   29.65    4.90
   9   4   9   25.82    3.36
  10   4   9    2.93    1.99
  10   4   9    3.05    1.74
  10   4   9    0.96    1.65
   9  -5  -9   18.80    4.07
   9  -5  -9   21.79    4.63
   8  -5  -9   33.39    5.93
   8  -5  -9   41.05    5.03
   7  -5  -9   33.76    5.75
   7  -5  -9   25.49    2.51
   7  -5  -9   37.84    4.74
   6  -5  -9   10.08    1.69
   6  -5  -9    5.49    2.21
   6  -5  -9    7.24    2.30
   5  -5  -9    0.99    1.29
   5  -5  -9    3.32    1.73
   5  -5  -9    2.12    1.08
   4  -5  -9    0.49    1.00
   4  -5  -9   -0.15    0.59
   4  -5  -9   -0.06    0.61
   3  -5  -9  105.27    7.28
   3  -5  -9  102.46    7.21
   3  -5  -9   95.61    5.79
  -3   5   9  105.36    6.09
   2  -5  -9  128.80    7.89
   2  -5  -9  102.53    6.91
   2  -5  -9  112.65    6.55
   2  -5  -9  123.96    7.60
  -2   5   9  120.14    5.53
  -2   5   9  123.26    6.66
  -2   5   9  110.32    7.74
   1  -5  -9   38.24    3.83
   1  -5  -9   35.66    3.25
   1  -5  -9   40.75    3.59
   1  -5  -9   35.77    3.42
  -1   5   9   44.26    3.35
  -1   5   9   34.72    3.78
  -1   5   9   40.81    3.69
   0  -5  -9   28.93    3.04
   0  -5  -9   29.67    3.15
   0  -5  -9   38.66    3.24
   0  -5  -9   37.22    3.95
   0   5   9   37.43    3.46
   0   5   9   35.12    3.12
  -1  -5  -9  110.56    8.25
  -1  -5  -9  135.17    6.80
  -1  -5  -9  115.87    7.37
  -1  -5  -9  135.88    7.83
   1   5   9  123.86    7.37
   1   5   9  139.43    7.48
   1   5   9  126.26    7.66
  -2  -5  -9   40.03    2.80
  -2  -5  -9   45.47    3.99
  -2  -5  -9   43.33    3.97
  -2  -5  -9   38.95    3.82
   2   5   9   40.80    3.64
   2   5   9   46.75    3.91
   2   5   9   40.20    3.77
  -3  -5  -9    0.44    0.40
  -3  -5  -9    0.14    1.11
  -3  -5  -9   -0.35    0.86
   3   5   9    1.15    0.79
   3   5   9    1.52    0.94
   3   5   9    1.16    1.02
  -4  -5  -9    3.78    1.39
   4   5   9    3.62    1.24
   4   5   9    2.13    1.03
   4   5   9    1.15    1.01
  -5  -5  -9   23.40    4.63
   5   5   9   22.28    2.82
   5   5   9   26.40    3.00
   5   5   9   25.26    4.07
   6   5   9    0.90    0.84
   6   5   9   -0.19    0.81
   6   5   9    0.15    1.26
   7   5   9   24.77    3.24
   7   5   9   21.04    2.97
   7   5   9   20.52    3.93
   8   5   9    5.88    2.09
   8   5   9    5.41    1.78
   8   5   9    6.35    2.11
   9   5   9    5.25    1.95
   9   5   9    5.19    1.92
   9   5   9    8.21    1.89
  10   5   9   -2.42    1.37
  10   5   9   -2.11    1.46
  10   5   9    2.07    1.72
   9  -6  -9    8.90    3.11
   9  -6  -9   13.33    4.14
   8  -6  -9   12.28    3.69
   8  -6  -9    4.59    2.09
   7  -6  -9   17.83    4.29
   7  -6  -9   17.05    4.50
   6  -6  -9    1.11    0.96
   6  -6  -9    0.25    1.17
   5  -6  -9   19.07    4.21
   5  -6  -9   17.79    1.96
   5  -6  -9   26.62    3.64
   4  -6  -9   33.49    4.20
   4  -6  -9   33.18    2.84
   4  -6  -9   37.25    4.36
   3  -6  -9   31.79    3.74
   3  -6  -9   28.82    2.77
   3  -6  -9   28.06    3.63
  -3   6   9   29.93    1.78
  -3   6   9   31.25    1.85
  -3   6   9   32.41    2.92
   2  -6  -9  107.76    6.77
   2  -6  -9  133.06    8.48
   2  -6  -9  131.80    8.22
  -2   6   9  125.27    6.90
  -2   6   9  130.33    7.27
   1  -6  -9   13.74    2.95
   1  -6  -9   10.97    2.01
   1  -6  -9   13.43    2.86
  -1   6   9   11.01    2.00
  -1   6   9   14.40    2.58
   0  -6  -9    6.98    2.46
   0  -6  -9    7.46    1.71
   0  -6  -9    7.22    1.96
   0  -6  -9   10.05    2.03
   0   6   9    9.61    1.95
   0   6   9    9.96    2.22
   0   6   9    5.47    1.93
  -1  -6  -9   26.44    2.47
  -1  -6  -9   21.06    2.74
  -1  -6  -9   21.52    3.44
  -1  -6  -9   24.02    2.83
   1   6   9   21.59    2.84
   1   6   9   26.16    2.99
   1   6   9   25.32    2.74
  -2  -6  -9    9.74    1.32
  -2  -6  -9   11.80    2.62
   2   6   9   11.31    2.29
   2   6   9   10.30    2.27
   2   6   9    8.45    3.05
  -3  -6  -9   35.92    2.23
  -3  -6  -9   36.85    6.55
   3   6   9   34.59    3.56
   3   6   9   38.20    3.92
   3   6   9   33.78    3.45
   4   6   9    9.22    2.15
   4   6   9   11.33    2.31
   4   6   9    9.20    2.31
   5   6   9   21.18    3.92
   5   6   9   20.48    3.27
   5   6   9   18.54    3.22
   6   6   9   30.31    3.83
   6   6   9   18.04    4.15
   6   6   9   24.44    3.21
   7   6   9   42.50    4.84
   7   6   9   35.47    4.13
   7   6   9   37.40    4.07
   8   6   9    3.98    2.00
   8   6   9    4.64    1.74
   8   6   9    8.58    1.94
   9   6   9    1.89    1.75
   9   6   9    2.33    1.99
  10   6   9    0.76    2.24
  10   6   9   -1.12    1.35
  10   6   9    1.04    1.62
   8  -7  -9    1.89    2.41
   8  -7  -9    6.29    2.69
   7  -7  -9   12.72    3.79
   7  -7  -9   11.69    3.23
   6  -7  -9   18.63    4.52
   6  -7  -9   12.38    3.14
   5  -7  -9   39.67    4.95
   5  -7  -9   37.72    4.91
   4  -7  -9   21.68    4.16
   4  -7  -9   27.19    3.78
   3  -7  -9   61.47    5.78
   3  -7  -9   58.47    5.73
  -3   7   9   65.01    4.40
  -3   7   9   59.60    3.43
   2  -7  -9  103.35    7.57
   2  -7  -9   93.54    7.08
  -2   7   9  101.51    5.90
  -2   7   9   90.75    5.21
   1  -7  -9    7.83    2.32
   1  -7  -9    7.34    1.96
  -1   7   9    7.53    1.68
  -1   7   9    4.92    1.68
  -1   7   9    7.51    1.52
   0  -7  -9   20.66    2.84
   0  -7  -9   17.75    2.37
   0   7   9   16.91    2.26
   0   7   9   19.27    3.27
  -1  -7  -9    4.01    1.46
  -1  -7  -9    2.84    1.04
   1   7   9    4.11    2.34
   1   7   9    2.23    1.24
   1   7   9    3.96    1.40
  -2  -7  -9   11.06    1.88
  -2  -7  -9    8.94    2.23
   2   7   9   11.38    2.46
   2   7   9    8.20    2.28
   2   7   9   11.30    2.63
  -3  -7  -9   26.77    1.87
  -3  -7  -9   24.47    3.11
   3   7   9   24.78    3.09
   3   7   9   22.94    3.10
   3   7   9   27.46    3.39
   4   7   9   23.82    3.24
   4   7   9   28.20    3.44
   4   7   9   30.50    3.74
   5   7   9   12.63    2.72
   5   7   9   11.12    2.86
   5   7   9   13.43    3.65
   6   7   9   13.16    2.96
   6   7   9   16.11    3.60
   7   7   9    5.78    2.37
   7   7   9    9.55    2.56
   8   7   9    0.59    1.33
   9   7   9    1.33    1.71
   9   7   9    2.21    1.46
  10   7   9    5.27    2.67
  10   7   9    3.98    1.91
   7  -8  -9   19.51    5.20
   7  -8  -9   16.79    4.59
   6  -8  -9   25.37    5.25
   6  -8  -9   28.60    5.31
   5  -8  -9   22.94    4.97
   5  -8  -9   14.59    3.56
   4  -8  -9   27.94    4.98
   4  -8  -9   36.12    4.88
   3  -8  -9   39.65    4.69
   3  -8  -9   36.50    4.45
  -3   8   9   29.33    2.62
  -3   8   9   30.93    2.90
   2  -8  -9   13.84    3.13
   2  -8  -9   16.29    3.56
  -2   8   9   13.68    2.21
  -2   8   9   18.60    2.24
   1  -8  -9   10.53    2.54
   1  -8  -9   10.05    2.52
  -1   8   9   11.41    2.15
  -1   8   9    7.94    1.94
  -1   8   9    9.86    2.55
   0  -8  -9    1.10    1.00
   0  -8  -9   -0.89    0.75
   0   8   9    2.08    1.22
   0   8   9    0.81    0.82
   0   8   9    1.31    0.98
  -1  -8  -9   13.43    2.98
  -1  -8  -9   14.89    2.55
   1   8   9   15.22    2.91
   1   8   9   15.51    3.03
  -2  -8  -9   46.96    4.47
  -2  -8  -9   34.70    3.03
   2   8   9   38.38    4.09
   2   8   9   35.55    3.89
  -3  -8  -9   30.94    2.24
  -3  -8  -9   31.46    3.73
   3   8   9   38.87    4.20
   3   8   9   28.96    3.59
   3   8   9   23.27    6.01
  -4  -8  -9   22.43    3.80
   4   8   9   31.79    3.87
   4   8   9   18.22    3.15
   4   8   9   32.44    3.94
   5   8   9    9.19    2.68
   5   8   9    3.40    1.53
   5   8   9    7.38    2.18
   6   8   9    4.96    1.99
   6   8   9    5.81    2.32
   7   8   9    7.11    2.17
   7   8   9    4.22    1.93
   7   8   9    1.49    1.27
   8   8   9   -2.05    1.39
   8   8   9    3.56    1.60
   9   8   9    9.49    2.99
   9   8   9    8.07    2.58
   6  -9  -9   23.48    5.54
   6  -9  -9   19.35    5.06
   5  -9  -9   17.38    4.38
   5  -9  -9   13.40    3.31
   4  -9  -9   23.47    4.83
   4  -9  -9   22.09    4.37
  -4   9   9   13.47    1.51
   3  -9  -9    7.40    2.42
   3  -9  -9    4.57    2.95
  -3   9   9    2.84    1.51
   2  -9  -9   12.37    2.88
   2  -9  -9   14.91    3.58
  -2   9   9   13.57    2.31
  -2   9   9   11.94    2.48
   1  -9  -9   18.43    3.51
   1  -9  -9   18.74    3.76
  -1   9   9   26.29    4.31
  -1   9   9   25.34    2.83
   0  -9  -9   49.10    5.18
   0  -9  -9   57.11    4.98
   0   9   9   49.30    4.94
   0   9   9   51.69    4.42
  -1  -9  -9   18.81    2.54
  -1  -9  -9   15.51    3.28
   1   9   9   13.86    3.20
   1   9   9   21.73    2.78
  -2  -9  -9   49.02    3.94
  -2  -9  -9   43.49    4.66
   2   9   9   55.56    5.28
   2   9   9   63.62    5.30
  -3  -9  -9   11.81    1.49
  -3  -9  -9   14.40    3.08
  -3  -9  -9    7.66    2.46
   3   9   9   18.50    3.52
   3   9   9   10.02    2.68
  -4  -9  -9    3.42    1.53
   4   9   9   -0.12    1.32
   4   9   9    2.26    1.31
   5   9   9    0.75    1.93
   5   9   9    4.27    2.79
   6   9   9    0.99    1.20
   7   9   9    2.53    1.87
   7   9   9    2.07    1.62
   8   9   9    3.27    1.89
   8   9   9    7.37    2.63
   5 -10  -9   11.97    4.03
   5 -10  -9    7.70    3.13
   4 -10  -9    2.00    1.71
   4 -10  -9   -0.17    1.71
   3 -10  -9    5.95    2.74
   3 -10  -9    1.81    1.74
  -3  10   9    3.14    1.15
   2 -10  -9   36.91    6.26
   2 -10  -9   36.92    4.85
   1 -10  -9   23.02    4.51
   1 -10  -9   19.75    3.68
  -1  10   9   20.03    2.63
  -1  10   9   24.17    6.46
   0 -10  -9   24.92    4.60
   0 -10  -9   27.35    3.60
   0  10   9   30.29    4.85
   0  10   9   29.59    3.39
  -1 -10  -9   19.29    3.67
  -1 -10  -9   16.65    3.15
   1  10   9   23.56    3.78
   1  10   9   18.73    5.75
  -2 -10  -9   15.66    3.34
   2  10   9   15.60    3.22
   2  10   9   16.74    4.42
  -3 -10  -9    5.60    2.32
  -3 -10  -9    4.05    1.77
  -3 -10  -9    3.24    1.03
   3  10   9    6.59    1.97
   3  10   9    2.77    1.46
  -4 -10  -9    1.73    1.62
   4  10   9    2.00    1.72
   4  10   9    0.55    1.46
   5  10   9    3.26    1.58
   5  10   9   -0.20    1.07
   6  10   9    8.28    2.75
   6  10   9    7.25    2.12
   7  10   9    0.13    1.53
   7  10   9    1.53    1.51
   4 -11  -9    8.70    3.33
   4 -11  -9    6.90    3.26
   3 -11  -9   16.37    3.98
   3 -11  -9   21.52    4.70
   2 -11  -9   15.66    4.12
   2 -11  -9    7.43    2.32
   1 -11  -9   18.59    3.92
   1 -11  -9   11.76    3.21
  -1  11   9   10.02    3.16
  -1  11   9   12.69    2.59
   0 -11  -9    6.84    2.45
   0 -11  -9   12.57    3.19
   0  11   9    6.03    2.42
   0  11   9    8.83    2.29
  -1 -11  -9    8.38    2.46
  -1 -11  -9    4.64    2.32
   1  11   9    7.29    2.41
   1  11   9   12.95    3.16
  -2 -11  -9   -0.23    1.11
  -2 -11  -9    0.21    1.07
   2  11   9    0.39    1.45
   2  11   9   -2.28    1.10
  -3 -11  -9    2.01    1.65
  -3 -11  -9    2.24    1.22
   3  11   9    2.49    1.66
   3  11   9    1.67    1.46
  -4 -11  -9   -0.43    1.83
   4  11   9   -2.13    1.21
   4  11   9    7.08    2.04
   5  11   9    4.22    2.40
   5  11   9    4.95    2.16
   6  11   9    0.54    2.18
   6  11   9   -0.48    1.29
   2 -12  -9   27.58    5.97
   2 -12  -9   16.00    4.14
   1 -12  -9   10.06    3.09
   1 -12  -9   15.14    3.72
  -1  12   9   21.44    4.73
  -1  12   9   17.22    3.20
   0 -12  -9   12.91    5.16
   0 -12  -9    5.76    2.69
   0  12   9    7.29    2.21
   0  12   9   10.45    2.99
  -1 -12  -9    1.05    1.80
  -1 -12  -9   -0.29    1.45
   1  12   9   -3.17    1.53
   1  12   9    3.79    2.10
  -2 -12  -9    2.42    1.78
  -2 -12  -9    0.86    1.94
   2  12   9    1.00    1.79
   2  12   9    4.96    2.28
  -3 -12  -9    2.57    2.15
   3  12   9   -0.36    2.02
   3  12   9    2.86    2.11
  -4 -12  -9    6.99    2.92
   4  12   9    7.24    2.83
   4  12   9   12.16    3.54
   4   9 -10   -3.96    1.63
   3   9 -10   14.17    3.68
  -2  -9  10   18.80    3.60
   1   9 -10   19.11    3.97
  -1  -9  10   17.74    3.71
   0   9 -10   30.35    3.93
  -1   9 -10   10.18    2.72
   1  -9  10   10.60    3.16
   1  -9  10   11.31    3.32
   2  -9  10    0.59    1.96
   2  -9  10    0.83    1.81
   6   8 -10    0.09    2.18
   5   8 -10    5.25    2.51
   4   8 -10   27.98    5.21
   3   8 -10   46.66    5.19
  -3  -8  10   46.50    5.16
   2   8 -10   31.62    4.89
  -2  -8  10   28.76    4.04
   1   8 -10    3.22    1.79
  -1  -8  10    5.33    2.32
   0   8 -10    8.73    2.49
   0  -8  10    7.63    2.60
  -1   8 -10    0.70    1.23
   1  -8  10    0.02    1.46
  -2   8 -10   -0.27    0.95
   2  -8  10    0.82    1.28
   3  -8  10    9.96    3.16
   4  -8  10   18.20    4.95
   4  -8  10   15.04    3.72
   7   7 -10    3.51    2.58
   6   7 -10   13.63    3.90
   5   7 -10   19.97    4.07
   4   7 -10   38.93    5.15
  -4  -7  10   23.05    2.55
   3   7 -10   27.88    4.75
   2   7 -10    2.29    1.34
   1   7 -10    0.75    1.24
  -1  -7  10    1.67    1.37
   0   7 -10    1.63    1.09
   0  -7  10    1.82    1.35
  -1   7 -10   11.58    2.25
   1  -7  10   20.16    4.06
  -2   7 -10   38.51    2.75
   2  -7  10   36.03    4.63
   3  -7  10   32.75    5.41
   4  -7  10   18.69    3.85
   5  -7  10    9.94    2.69
   6  -7  10    6.37    2.27
   6  -7  10    3.55    2.90
   8   6 -10    8.89    3.17
   8   6 -10    7.01    3.63
   7   6 -10   23.71    4.75
   7   6 -10   17.31    4.34
   6   6 -10   17.52    4.08
   5   6 -10   48.40    5.62
   5   6 -10   41.98    5.46
   4   6 -10   16.14    3.76
   4   6 -10   24.16    4.62
  -4  -6  10   16.76    2.66
   3   6 -10    7.23    2.43
  -3  -6  10    6.73    1.87
   2   6 -10    0.67    1.18
  -2  -6  10   -0.36    1.82
  -2  -6  10   -0.09    1.02
   1   6 -10    7.47    2.11
  -1  -6  10    8.88    2.54
   0   6 -10   24.85    3.00
   0  -6  10   25.78    4.28
  -1   6 -10   33.09    3.07
   1  -6  10   31.68    4.17
  -2   6 -10   47.71    3.00
   2  -6  10   41.69    4.89
  -3   6 -10   23.66    3.70
   3  -6  10   23.78    4.32
   4  -6  10   20.69    3.91
   5  -6  10    8.44    2.42
   6  -6  10   -1.80    1.17
   7  -6  10    2.74    1.97
   8   5 -10    8.22    3.10
   8   5 -10    8.59    3.18
   7   5 -10   22.98    6.89
   7   5 -10   18.19    4.73
   6   5 -10   12.73    3.16
   6   5 -10   10.03    2.80
   5   5 -10   17.76    3.69
   5   5 -10   16.51    3.91
  -5  -5  10   14.99    1.66
   4   5 -10   17.62    3.72
   4   5 -10   13.66    3.49
  -4  -5  10   14.06    2.42
   3   5 -10    1.21    1.30
   3   5 -10   -0.58    0.96
  -3  -5  10    2.15    1.44
   2   5 -10    2.97    1.73
   2   5 -10    2.11    1.23
  -2  -5  10   -0.42    0.81
   1   5 -10   37.73    3.84
  -1  -5  10   47.12    4.50
  -1  -5  10   29.06    3.78
   0   5 -10   71.50    5.13
   0  -5  10   63.96    5.72
  -1   5 -10   65.69    4.43
   1  -5  10   61.96    5.62
  -2   5 -10   48.43    2.94
  -2   5 -10   43.75    4.42
   2  -5  10   46.54    4.69
  -3   5 -10   34.05    3.65
   3  -5  10   26.65    4.38
   4  -5  10    3.92    1.94
  -5   5 -10   -0.49    1.90
   5  -5  10    4.62    1.95
   6  -5  10    4.28    1.82
   7  -5  10    7.81    2.26
   8  -5  10   19.14    3.97
   9   4 -10   21.43    4.72
   9   4 -10   23.13    5.16
   8   4 -10   22.14    3.95
   8   4 -10   12.06    3.13
   7   4 -10   29.46    5.52
   7   4 -10   34.78    4.60
   6   4 -10    7.79    2.80
   6   4 -10    7.42    2.14
   5   4 -10    2.92    1.47
   5   4 -10    1.42    1.47
  -5  -4  10    3.20    1.69
   4   4 -10    8.40    2.42
  -4  -4  10    4.64    1.53
   3   4 -10   21.95    4.09
  -3  -4  10   24.05    2.81
  -3  -4  10   23.36    3.87
   2   4 -10   47.00    4.55
   2   4 -10   49.17    5.17
  -2  -4  10   46.35    4.38
  -2  -4  10   47.70    4.11
   1   4 -10  103.66    8.11
   1   4 -10  106.98    7.36
  -1  -4  10  115.55    7.55
  -1  -4  10  101.12    6.87
   0   4 -10   51.93    4.11
   0  -4  10   44.06    4.40
  -1   4 -10   12.23    1.98
  -1   4 -10   14.94    2.70
   1  -4  10   10.48    2.38
  -2   4 -10   36.01    3.46
  -2   4 -10   33.16    2.30
   2  -4  10   36.98    3.93
  -3   4 -10    0.38    1.33
   3  -4  10    2.76    1.42
  -4   4 -10    3.80    1.99
   4  -4  10    6.73    2.12
  -5   4 -10   30.16    3.74
   5  -4  10   31.66    3.78
   6  -4  10   16.24    3.27
   7  -4  10   50.12    5.16
   8  -4  10   10.18    2.91
   9   3 -10   12.81    4.13
   9   3 -10    9.39    3.13
   8   3 -10    5.88    3.33
   7   3 -10    2.12    1.42
   6   3 -10   -1.72    0.93
   5   3 -10    3.38    1.45
  -5  -3  10    3.07    1.28
   4   3 -10   84.17    6.54
  -4  -3  10   66.04    4.89
   3   3 -10   92.89    7.36
   3   3 -10   98.42    6.29
  -3  -3  10  109.99    6.38
  -3  -3  10   98.97    6.72
   2   3 -10  143.05    8.13
   2   3 -10  144.32    9.48
  -2  -3  10  146.41    8.60
  -2  -3  10  150.56    8.17
   1   3 -10  127.33    7.59
   1   3 -10  113.33    8.60
   1   3 -10  124.35    8.64
  -1  -3  10  135.65    7.94
  -1  -3  10  127.33    7.60
   0   3 -10   16.57    2.27
   0   3 -10   21.02    3.81
   0  -3  10   18.91    3.25
   0  -3  10   23.19    2.74
  -1   3 -10    0.65    0.55
  -1   3 -10    1.08    0.92
   1  -3  10   -0.74    0.43
  -2   3 -10   13.67    1.31
  -2   3 -10   13.34    1.32
  -2   3 -10   16.61    4.10
   2  -3  10   13.71    2.62
  -3   3 -10    5.90    1.63
   3  -3  10    7.20    2.00
  -4   3 -10   61.45    4.92
   4  -3  10   63.62    5.17
   4  -3  10   47.72    4.77
  -5   3 -10   16.86    2.96
   5  -3  10   23.03    3.75
   5  -3  10   20.79    3.26
  -6   3 -10    1.47    1.80
   6  -3  10    1.55    1.26
   6  -3  10    1.89    1.30
   7  -3  10   28.27    3.47
   7  -3  10   16.98    3.13
   8  -3  10   11.53    2.80
  10   2 -10   14.55    4.32
  10   2 -10   21.82    4.74
   9   2 -10   -2.12    1.12
   8   2 -10    3.50    1.46
   7   2 -10    2.91    1.53
   7   2 -10    0.29    0.77
   6   2 -10   20.62    2.33
   6   2 -10   21.71    3.76
  -6  -2  10   17.06    2.29
   5   2 -10   24.15    4.69
   5   2 -10   17.57    3.31
  -5  -2  10   22.28    2.72
   4   2 -10   57.29    4.17
   4   2 -10   60.36    5.31
  -4  -2  10   57.12    4.41
   3   2 -10   27.78    2.68
   3   2 -10   32.53    3.58
  -3  -2  10   22.17    2.67
  -3  -2  10   29.91    3.14
   2   2 -10   15.78    3.14
   2   2 -10   16.99    2.11
   2   2 -10   19.02    2.46
  -2  -2  10   21.73    2.48
  -2  -2  10   19.19    3.46
  -2  -2  10   13.28    2.54
   1   2 -10   13.62    1.82
   1   2 -10   19.61    3.63
  -1  -2  10   12.66    2.27
  -1  -2  10   16.26    2.96
  -1  -2  10   16.30    2.66
   0   2 -10   -1.20    0.45
   0   2 -10    1.74    1.01
   0  -2  10    0.05    0.49
   0  -2  10   -0.35    0.77
   0  -2  10   -0.82    0.65
  -1   2 -10    3.15    1.03
  -1   2 -10    0.78    0.93
  -1   2 -10    1.80    0.92
   1  -2  10    1.86    1.01
   1  -2  10    1.59    1.11
  -2   2 -10   51.72    4.53
  -2   2 -10   59.67    4.30
  -2   2 -10   51.91    2.99
   2  -2  10   47.70    4.28
   2  -2  10   49.27    4.13
   2  -2  10   56.81    4.42
  -3   2 -10   65.50    5.10
   3  -2  10   87.55    5.83
   3  -2  10   79.11    5.26
   3  -2  10   73.03    6.99
  -4   2 -10   76.04    5.39
   4  -2  10   66.79    5.37
   4  -2  10   73.29    5.30
  -5   2 -10   22.29    4.47
   5  -2  10   24.70    3.10
  -6   2 -10    6.44    1.96
   6  -2  10    8.25    2.08
   6  -2  10    9.46    1.91
   7  -2  10   15.91    3.17
   7  -2  10   10.29    2.01
   8  -2  10    6.30    2.29
   8  -2  10    5.20    1.49
   9  -2  10    4.07    1.52
   9  -2  10    3.93    2.27
  10   1 -10   -1.34    1.83
   9   1 -10    1.96    1.34
   8   1 -10    8.42    2.11
   8   1 -10   11.55    1.67
   8   1 -10   11.21    2.72
   7   1 -10   19.27    2.10
   7   1 -10   22.42    4.01
   7   1 -10   22.03    2.41
   6   1 -10   62.88    4.63
   6   1 -10   68.11    4.17
   6   1 -10   65.27    5.79
  -6  -1  10   63.35    5.04
   5   1 -10  126.13    6.58
   5   1 -10  129.24    8.38
  -5  -1  10  120.66    7.41
   4   1 -10   24.89    2.32
   4   1 -10   28.57    3.36
  -4  -1  10   22.39    2.75
   3   1 -10   60.92    3.99
   3   1 -10   64.56    5.17
   3   1 -10   59.56    4.76
  -3  -1  10   57.10    4.47
  -3  -1  10   57.78    5.07
  -3  -1  10   56.60    4.15
   2   1 -10   49.77    4.11
   2   1 -10   49.78    3.65
   2   1 -10   51.58    4.52
  -2  -1  10   50.16    4.34
  -2  -1  10   47.70    3.71
  -2  -1  10   51.79    4.01
   1   1 -10    1.85    1.12
   1   1 -10    0.83    0.75
  -1  -1  10    0.64    0.97
  -1  -1  10    0.39    0.86
  -1  -1  10    1.60    0.77
   0   1 -10   14.83    1.97
   0   1 -10   14.09    3.26
   0   1 -10   14.70    1.96
   0  -1  10   16.34    2.82
   0  -1  10   16.75    2.03
   0  -1  10   14.93    2.58
   0  -1  10   14.45    2.55
  -1   1 -10   33.71    2.59
  -1   1 -10   38.01    3.37
  -1   1 -10   36.26    3.72
  -1   1 -10   33.62    3.16
   1  -1  10   36.61    3.54
   1  -1  10   34.99    3.40
   1  -1  10   36.91    3.33
   1  -1  10   34.32    3.86
  -2   1 -10   48.92    3.92
  -2   1 -10   48.47    2.94
  -2   1 -10   45.47    3.92
   2  -1  10   46.12    4.01
   2  -1  10   54.28    4.05
   2  -1  10   48.69    3.97
  -3   1 -10  105.92    4.74
  -3   1 -10  100.99    6.63
  -3   1 -10  104.04    6.83
   3  -1  10  112.97    6.85
   3  -1  10  110.75    6.49
   3  -1  10  106.21    9.15
  -4   1 -10   23.99    2.89
   4  -1  10   16.40    3.19
   4  -1  10   18.32    2.58
   4  -1  10   21.34    2.58
  -5   1 -10   37.13    3.87
   5  -1  10   36.89    3.84
   5  -1  10   35.55    3.73
   5  -1  10   38.39    3.44
  -6   1 -10   12.42    2.62
   6  -1  10   18.35    2.33
   6  -1  10   19.53    3.48
   7  -1  10    3.79    1.58
   8  -1  10    6.46    2.21
   8  -1  10    5.84    1.85
   9  -1  10   16.23    2.74
   9  -1  10   13.39    3.07
  10  -1  10    0.66    1.67
  10  -1  10    4.10    2.18
  10   0 -10    0.77    2.05
  10   0 -10    1.19    1.62
   9   0 -10    3.60    1.96
   9   0 -10    2.38    1.34
   8   0 -10   48.51    5.10
   8   0 -10   34.85    3.62
   7   0 -10   29.28    2.02
   7   0 -10   29.45    3.19
   7   0 -10   31.11    3.98
   6   0 -10   52.83    5.20
   6   0 -10   53.35    4.68
   5   0 -10   51.51    4.92
   5   0 -10   54.86    4.34
   5   0 -10   53.65    3.33
  -5   0  10   55.36    4.71
   4   0 -10    4.32    1.48
   4   0 -10    2.10    0.74
   4   0 -10    4.75    1.71
   4   0 -10    2.28    1.27
  -4   0  10    6.69    1.67
   3   0 -10   12.32    2.35
   3   0 -10   10.59    1.40
   3   0 -10    9.73    2.04
   3   0 -10   11.93    2.55
  -3   0  10   12.40    1.56
  -3   0  10   14.11    2.91
  -3   0  10   12.83    2.61
   2   0 -10   10.77    2.29
   2   0 -10    8.46    1.53
   2   0 -10    6.57    2.40
  -2   0  10    9.25    1.67
  -2   0  10    8.70    3.11
  -2   0  10    9.45    1.79
   1   0 -10   81.41    5.60
   1   0 -10   74.72    5.11
   1   0 -10   71.32    4.58
  -1   0  10   76.23    5.34
  -1   0  10   75.45    5.32
  -1   0  10   79.43    5.32
  -1   0  10   78.30    4.72
   0   0 -10  145.93    8.31
   0   0 -10  141.02    7.48
   0   0 -10  139.98    7.29
   0   0 -10  143.43    7.81
   0   0  10  147.30    7.46
   0   0  10  137.09    7.91
   0   0  10  140.40    8.04
   0   0  10  147.22    7.99
  -1   0 -10   70.47    5.28
  -1   0 -10   79.02    4.44
  -1   0 -10   76.47    5.02
  -1   0 -10   70.19    4.95
   1   0  10   83.62    5.25
   1   0  10   76.06    5.37
   1   0  10   71.59    4.95
   1   0  10   70.87    4.76
  -2   0 -10   62.93    3.74
  -2   0 -10   60.52    4.61
  -2   0 -10   68.12    5.05
  -2   0 -10   58.31    4.48
   2   0  10   64.11    5.21
   2   0  10   67.74    4.67
   2   0  10   58.93    5.43
   2   0  10   61.15    4.46
  -3   0 -10   72.06    3.94
  -3   0 -10   68.43    5.16
   3   0  10   72.18    4.96
   3   0  10   74.07    5.23
   3   0  10   80.02    5.15
  -4   0 -10   29.02    3.89
  -4   0 -10   24.91    1.78
   4   0  10   26.87    3.02
   4   0  10   33.70    3.13
   4   0  10   25.63    5.24
  -5   0 -10    2.28    1.36
   5   0  10    0.48    0.99
   5   0  10   -0.41    0.50
   6   0  10    5.79    1.72
   6   0  10    6.82    1.96
   6   0  10    2.60    1.29
   7   0  10   19.99    3.49
   7   0  10    9.68    2.94
   7   0  10   21.04    2.68
   8   0  10    3.81    1.58
   8   0  10    4.66    1.55
   9   0  10   13.59    2.98
   9   0  10   11.87    2.64
  10   0  10    8.72    2.65
  10   0  10    5.68    1.92
  10  -1 -10    2.07    1.97
  10  -1 -10    0.99    1.78
   9  -1 -10   30.26    3.42
   9  -1 -10   22.78    4.11
   8  -1 -10   28.01    6.77
   8  -1 -10   33.94    3.65
   7  -1 -10   36.03    3.85
   7  -1 -10   38.46    4.46
   6  -1 -10   32.87    4.00
   6  -1 -10   33.54    3.56
  -6   1  10   35.01    5.05
   5  -1 -10    8.51    1.98
   5  -1 -10   12.47    2.80
   5  -1 -10    9.83    1.00
  -5   1  10    6.61    2.26
   4  -1 -10    1.62    1.00
   4  -1 -10    1.65    0.57
   4  -1 -10    1.66    0.94
   4  -1 -10    0.73    1.04
  -4   1  10    0.74    1.14
   3  -1 -10   14.43    2.68
   3  -1 -10    9.94    2.08
   3  -1 -10   14.79    1.52
  -3   1  10   13.33    2.67
  -3   1  10   12.73    2.50
  -3   1  10   13.28    1.49
   2  -1 -10  130.77    7.63
   2  -1 -10  128.39    6.45
   2  -1 -10  134.54    7.50
   2  -1 -10  124.24    9.43
  -2   1  10  122.88    6.32
  -2   1  10  139.66    7.80
  -2   1  10  131.80    7.99
  -2   1  10  133.13    7.66
   1  -1 -10   75.87    4.52
   1  -1 -10   77.81    5.35
   1  -1 -10   78.91    5.13
   1  -1 -10   70.50    5.21
   1  -1 -10   72.41    4.84
  -1   1  10   77.12    5.26
  -1   1  10   80.54    4.51
  -1   1  10   77.46    5.39
  -1   1  10   79.53    5.30
   0  -1 -10  214.31   10.54
   0  -1 -10  232.33   11.33
   0  -1 -10  231.12   11.15
   0  -1 -10  235.22   10.79
   0   1  10  242.55   10.64
   0   1  10  220.07   11.15
   0   1  10  226.78   11.43
   0   1  10  240.07   11.28
  -1  -1 -10   20.66    2.49
  -1  -1 -10   22.09    2.13
  -1  -1 -10   22.27    2.57
   1   1  10   23.27    2.56
   1   1  10   25.97    2.47
   1   1  10   25.36    2.50
   1   1  10   25.24    2.75
  -2  -1 -10   57.39    4.48
  -2  -1 -10   66.73    4.79
  -2  -1 -10   60.43    3.81
   2   1  10   63.49    4.26
   2   1  10   54.04    4.59
   2   1  10   64.54    4.52
   2   1  10   66.06    4.50
  -3  -1 -10    4.37    1.09
  -3  -1 -10    4.73    1.53
   3   1  10    3.47    1.10
   3   1  10    3.31    1.26
   3   1  10    1.92    1.33
   3   1  10    3.62    1.17
  -4  -1 -10   12.34    2.39
  -4  -1 -10   13.04    1.51
   4   1  10    9.01    2.32
   4   1  10   13.56    1.80
   4   1  10   18.29    2.27
   4   1  10   16.06    2.73
  -5  -1 -10   15.55    1.61
  -5  -1 -10   11.01    2.50
   5   1  10   16.32    2.10
   5   1  10   17.61    2.35
   5   1  10   14.83    2.82
   6   1  10   47.95    2.91
   6   1  10   53.35    4.79
   6   1  10   46.37    3.85
   6   1  10   52.24    4.46
   7   1  10   14.12    2.51
   7   1  10   14.53    1.37
   7   1  10   11.30    2.72
   7   1  10   12.92    2.61
   8   1  10   16.38    2.97
   8   1  10   14.29    2.47
   8   1  10   13.12    1.21
   8   1  10   19.69    3.63
   9   1  10    5.39    1.51
   9   1  10    2.80    1.64
  10   1  10    4.41    1.88
  10   1  10    0.91    1.52
  10  -2 -10    4.62    2.20
  10  -2 -10    8.51    3.06
   9  -2 -10   44.44    5.59
   9  -2 -10   41.42    4.63
   8  -2 -10   23.61    3.27
   8  -2 -10   19.47    4.00
   7  -2 -10    3.92    1.73
   7  -2 -10    3.97    1.81
   6  -2 -10    0.61    0.92
   6  -2 -10    2.91    1.22
   5  -2 -10   11.59    2.87
   5  -2 -10   10.88    2.31
   5  -2 -10   10.28    2.47
  -5   2  10   12.86    3.01
   4  -2 -10   10.74    2.37
   4  -2 -10    7.77    1.77
   4  -2 -10    9.95    2.34
  -4   2  10    7.84    2.22
   3  -2 -10  191.74    9.57
   3  -2 -10  200.26   10.47
   3  -2 -10  168.09    9.70
  -3   2  10  190.26   10.57
  -3   2  10  192.46    8.04
  -3   2  10  180.26   10.51
   2  -2 -10   77.97    5.60
   2  -2 -10   88.96    5.51
   2  -2 -10   77.02    6.34
   2  -2 -10   80.51    5.51
  -2   2  10   80.42    5.72
  -2   2  10   82.94    5.54
  -2   2  10   88.48    4.39
  -2   2  10   85.46    5.97
   1  -2 -10   83.55    5.72
   1  -2 -10   77.40    5.24
   1  -2 -10   87.22    5.63
   1  -2 -10   87.24    5.40
  -1   2  10   81.10    5.36
  -1   2  10   88.90    4.66
  -1   2  10   83.50    5.74
  -1   2  10   76.10    5.54
   0  -2 -10   56.13    4.61
   0  -2 -10   60.98    4.25
   0  -2 -10   57.34    4.29
   0  -2 -10   59.46    4.32
   0   2  10   59.65    4.37
   0   2  10   66.80    4.84
   0   2  10   59.96    3.88
   0   2  10   62.20    4.43
  -1  -2 -10   22.59    2.52
  -1  -2 -10   21.38    2.33
  -1  -2 -10   19.02    2.05
   1   2  10   21.16    2.24
   1   2  10   19.74    2.32
   1   2  10   19.66    2.49
   1   2  10   19.79    2.10
  -2  -2 -10    2.67    0.84
  -2  -2 -10    1.70    0.87
  -2  -2 -10    1.31    0.87
   2   2  10    2.66    0.84
   2   2  10    1.35    0.74
   2   2  10    2.62    1.02
   2   2  10    1.90    0.96
  -3  -2 -10    0.01    0.46
  -3  -2 -10   -0.50    0.55
   3   2  10    0.58    0.72
   3   2  10    0.24    0.46
   3   2  10    0.07    0.56
  -4  -2 -10   48.82    4.53
  -4  -2 -10   50.93    3.72
   4   2  10   53.73    4.61
   4   2  10   51.42    3.55
   4   2  10   56.17    3.61
   4   2  10   57.02    4.45
   4   2  10   54.56    4.52
  -5  -2 -10   12.96    1.73
  -5  -2 -10    6.53    2.26
   5   2  10   10.11    2.24
   5   2  10   10.03    1.64
   5   2  10    8.17    1.58
   5   2  10   14.31    2.60
   5   2  10   14.03    2.81
   6   2  10   52.98    4.66
   6   2  10   51.52    3.66
   6   2  10   57.71    5.07
   6   2  10   53.07    3.61
   7   2  10   18.90    2.04
   7   2  10   23.89    3.97
   7   2  10   14.50    1.96
   7   2  10   23.56    3.73
   8   2  10   16.57    1.98
   8   2  10   16.11    3.07
   8   2  10   17.58    3.47
   8   2  10   12.42    2.04
   9   2  10   14.21    3.30
   9   2  10    7.59    1.43
   9   2  10   15.54    3.20
  10   2  10    1.18    1.07
  10   2  10   -0.95    1.44
  10   2  10   -1.64    0.96
  10   2  10   -1.07    1.23
  10  -3 -10   22.09    4.42
  10  -3 -10   24.79    4.72
   9  -3 -10    7.73    3.02
   9  -3 -10    3.86    2.27
   8  -3 -10   15.48    3.39
   8  -3 -10   17.62    4.31
   7  -3 -10    1.69    1.14
   7  -3 -10   -0.39    0.72
   6  -3 -10    5.56    1.63
   6  -3 -10    5.65    1.86
   6  -3 -10    4.70    1.95
   5  -3 -10   48.35    4.87
   5  -3 -10   50.58    4.73
   5  -3 -10   46.72    3.93
   4  -3 -10   70.98    5.52
   4  -3 -10   77.48    5.93
   4  -3 -10   72.09    4.84
  -4   3  10   55.71    6.41
   3  -3 -10  146.36    8.83
   3  -3 -10  153.08    8.09
   3  -3 -10  160.89    9.00
   3  -3 -10  146.89    8.58
  -3   3  10  136.89    8.82
  -3   3  10  139.20    8.14
  -3   3  10  157.11    6.17
   2  -3 -10   50.79    4.39
   2  -3 -10   52.26    4.14
   2  -3 -10   40.68    4.78
   2  -3 -10   50.86    3.90
  -2   3  10   47.30    7.95
  -2   3  10   49.89    2.88
  -2   3  10   52.97    4.04
   1  -3 -10   16.41    2.32
   1  -3 -10   14.45    1.95
   1  -3 -10   14.78    1.92
   1  -3 -10   13.76    2.37
  -1   3  10   18.55    2.47
  -1   3  10   14.13    1.92
  -1   3  10   13.54    1.46
  -1   3  10   12.48    2.28
   0  -3 -10   32.01    3.02
   0  -3 -10   38.93    3.21
   0  -3 -10   37.07    3.56
   0  -3 -10   29.29    3.07
   0   3  10   33.79    3.09
   0   3  10   33.17    2.70
   0   3  10   34.12    3.11
   0   3  10   36.15    3.51
  -1  -3 -10   11.93    2.42
  -1  -3 -10   18.65    2.21
  -1  -3 -10   15.67    1.96
  -1  -3 -10   17.13    1.99
   1   3  10   16.04    2.23
   1   3  10   14.11    1.90
   1   3  10   12.75    1.75
   1   3  10   16.93    1.99
   1   3  10   12.61    2.26
  -2  -3 -10   49.52    3.57
  -2  -3 -10   48.19    4.09
  -2  -3 -10   51.69    3.87
   2   3  10   49.47    3.71
   2   3  10   54.07    4.97
   2   3  10   53.72    3.64
   2   3  10   48.04    3.87
   2   3  10   54.67    4.39
  -3  -3 -10   27.87    2.54
  -3  -3 -10   21.12    3.36
  -3  -3 -10   28.52    2.80
   3   3  10   29.47    2.68
   3   3  10   30.27    2.86
   3   3  10   32.16    3.19
   3   3  10   27.14    2.98
   3   3  10   27.46    3.11
  -4  -3 -10   28.50    2.91
  -4  -3 -10   25.66    3.03
   4   3  10   33.62    3.40
   4   3  10   33.10    2.89
   4   3  10   33.32    3.34
   4   3  10   28.95    3.32
   4   3  10   30.05    2.36
  -5  -3 -10   27.51    3.07
   5   3  10   34.56    3.62
   5   3  10   30.68    2.84
   5   3  10   29.06    2.19
   5   3  10   27.10    3.30
   5   3  10   31.42    3.56
  -6  -3 -10    4.86    1.58
   6   3  10    4.09    1.36
   6   3  10    6.60    2.15
   6   3  10    4.92    0.97
   6   3  10    2.58    1.37
   7   3  10   14.25    2.92
   7   3  10   12.56    1.34
   7   3  10   13.37    2.88
   8   3  10   -0.55    1.10
   8   3  10   -0.13    0.78
   8   3  10    1.91    1.32
   8   3  10   -0.75    0.48
   8   3  10    0.29    0.43
   9   3  10    0.57    1.09
   9   3  10    1.11    1.17
   9   3  10    0.98    1.34
  10   3  10    1.31    1.52
  10   3  10    2.75    1.80
  10   3  10    2.60    1.42
   9  -4 -10    1.20    1.92
   9  -4 -10    0.82    1.54
   8  -4 -10    0.93    1.28
   7  -4 -10    8.39    3.77
   7  -4 -10   12.21    2.90
   7  -4 -10    6.34    2.00
   6  -4 -10   54.06    5.58
   6  -4 -10   50.28    5.11
   6  -4 -10   53.55    5.55
   5  -4 -10   72.31    6.32
   5  -4 -10   73.08    5.05
   5  -4 -10   74.73    6.22
   4  -4 -10  131.29    8.27
   4  -4 -10  122.19    8.19
   4  -4 -10  104.33    6.58
   3  -4 -10   18.11    3.20
   3  -4 -10   22.95    2.89
   3  -4 -10   21.55    2.44
  -3   4  10   17.83    2.31
   2  -4 -10   60.49    4.89
   2  -4 -10   53.07    4.04
   2  -4 -10   53.05    4.40
   2  -4 -10   52.77    4.53
  -2   4  10   53.30    3.03
  -2   4  10   55.91    4.24
  -2   4  10   49.89    4.57
   1  -4 -10   -0.07    0.77
   1  -4 -10    2.38    0.99
   1  -4 -10    0.90    0.85
   1  -4 -10    0.79    0.71
  -1   4  10    2.02    0.86
  -1   4  10    0.65    0.49
  -1   4  10   -1.88    0.92
   0  -4 -10   25.01    3.51
   0  -4 -10   24.92    2.61
   0  -4 -10   22.05    2.44
   0  -4 -10   21.08    2.53
   0   4  10   25.21    2.33
   0   4  10   26.15    2.66
   0   4  10   31.57    5.63
  -1  -4 -10   30.75    3.67
  -1  -4 -10   33.63    2.85
  -1  -4 -10   30.23    3.20
  -1  -4 -10   31.02    3.07
   1   4  10   35.09    3.61
   1   4  10   30.97    3.08
   1   4  10   34.28    2.92
   1   4  10   32.14    3.07
  -2  -4 -10  218.80    9.78
  -2  -4 -10  210.71   10.64
  -2  -4 -10  194.98   10.84
  -2  -4 -10  201.95   11.39
   2   4  10  217.99   10.54
   2   4  10  198.37    9.67
   2   4  10  225.18   10.93
   2   4  10  221.82   11.14
  -3  -4 -10   14.34    1.88
  -3  -4 -10   11.09    1.49
  -3  -4 -10   11.92    2.62
   3   4  10   12.62    2.39
   3   4  10   11.67    2.12
   3   4  10   12.43    2.50
   3   4  10   12.24    1.37
  -4  -4 -10   48.40    4.33
   4   4  10   57.45    4.83
   4   4  10   55.91    4.50
   4   4  10   65.41    4.99
  -5  -4 -10   53.31    4.53
   5   4  10   55.44    4.34
   5   4  10   52.30    4.52
   5   4  10   54.98    4.93
  -6  -4 -10   17.65    3.17
   6   4  10   19.50    2.45
   6   4  10    9.93    2.69
   6   4  10   12.12    2.83
   6   4  10   14.74    3.15
   7   4  10    9.44    2.47
   7   4  10    7.52    2.14
   7   4  10    6.77    1.93
   8   4  10    5.38    2.01
   8   4  10    3.70    1.44
   8   4  10    4.23    2.02
   9   4  10    5.03    2.22
   9   4  10    3.81    1.42
   9   4  10    5.73    2.11
  10   4  10    0.59    1.52
  10   4  10   -0.06    1.83
  10   4  10   -0.07    1.34
   9  -5 -10   -0.57    1.99
   9  -5 -10    0.52    1.99
   8  -5 -10   15.29    3.41
   8  -5 -10   22.00    4.79
   7  -5 -10   52.93    6.45
   7  -5 -10   48.06    4.09
   7  -5 -10   56.94    6.09
   6  -5 -10   20.61    2.88
   6  -5 -10   35.32    4.54
   6  -5 -10   28.48    4.05
   5  -5 -10   72.63    4.87
   5  -5 -10   69.94    6.43
   5  -5 -10   63.63    6.03
   4  -5 -10   20.83    3.80
   4  -5 -10   28.42    3.58
   4  -5 -10   21.38    2.61
   3  -5 -10   42.34    4.28
   3  -5 -10   39.99    3.53
   3  -5 -10   44.85    4.47
  -3   5  10   42.95    3.67
   2  -5 -10    0.69    0.82
   2  -5 -10   -0.93    0.76
   2  -5 -10    0.65    0.96
  -2   5  10    0.90    0.50
  -2   5  10    0.74    0.74
   1  -5 -10   19.23    2.57
   1  -5 -10   27.50    3.23
   1  -5 -10   19.48    2.66
   1  -5 -10   20.89    2.60
  -1   5  10   22.00    2.48
  -1   5  10   23.43    2.04
  -1   5  10   21.49    3.01
   0  -5 -10   56.55    4.81
   0  -5 -10   52.11    4.31
   0  -5 -10   52.56    4.53
   0  -5 -10   55.92    4.22
   0   5  10   61.92    4.71
   0   5  10   58.01    4.37
   0   5  10   53.59    4.74
  -1  -5 -10  153.71    8.81
  -1  -5 -10  146.03    8.31
  -1  -5 -10  123.97    8.08
  -1  -5 -10  156.80    7.71
   1   5  10  143.28    8.71
   1   5  10  155.73    8.37
   1   5  10  141.47    8.27
  -2  -5 -10   72.97    4.20
  -2  -5 -10   58.42    5.00
  -2  -5 -10   59.73    5.07
  -2  -5 -10   59.80    4.95
   2   5  10   69.07    5.00
   2   5  10   67.13    5.42
   2   5  10   76.39    5.31
  -3  -5 -10   34.70    2.53
  -3  -5 -10   34.35    3.51
   3   5  10   40.14    3.86
   3   5  10   37.43    3.50
   3   5  10   35.60    3.74
  -4  -5 -10   34.52    3.84
   4   5  10   41.63    4.21
   4   5  10   46.34    3.95
   4   5  10   40.31    3.73
   5   5  10    1.46    1.34
   5   5  10    6.58    2.04
   5   5  10    5.33    1.67
   6   5  10   24.19    3.22
   6   5  10   23.61    4.11
   6   5  10   25.82    3.11
   7   5  10    3.90    1.42
   7   5  10    4.99    2.09
   8   5  10    9.34    3.32
   8   5  10    5.81    2.71
   8   5  10    4.47    1.61
   9   5  10    0.51    1.45
   9   5  10    0.46    1.24
   9   5  10    1.74    1.14
  10   5  10    6.27    2.00
  10   5  10    3.36    1.78
  10   5  10    2.68    1.72
   8  -6 -10   26.02    5.44
   8  -6 -10   21.52    4.51
   7  -6 -10   66.81    7.03
   7  -6 -10   54.68    6.38
   6  -6 -10   28.09    2.73
   6  -6 -10   31.83    5.66
   6  -6 -10   41.44    5.66
   5  -6 -10   20.21    2.28
   5  -6 -10   16.20    3.63
   5  -6 -10   28.57    5.03
   4  -6 -10   -1.74    0.81
   4  -6 -10    0.45    0.82
   4  -6 -10    0.03    0.87
   3  -6 -10    5.17    1.95
   3  -6 -10    4.43    1.35
   3  -6 -10    1.19    1.20
  -3   6  10    5.08    0.65
  -3   6  10    3.64    0.57
  -3   6  10    6.40    1.55
   2  -6 -10   14.34    2.53
   2  -6 -10   20.79    3.54
   2  -6 -10   22.56    3.98
  -2   6  10   15.26    2.10
  -2   6  10   17.48    2.14
   1  -6 -10  149.54    9.15
   1  -6 -10  155.55    8.73
   1  -6 -10  131.48    7.97
  -1   6  10  134.72    8.55
  -1   6  10  146.06    8.12
   0  -6 -10    2.55    1.19
   0  -6 -10    4.12    1.41
   0  -6 -10    3.26    1.47
   0   6  10    5.20    1.44
   0   6  10    1.34    1.05
  -1  -6 -10   53.26    4.96
  -1  -6 -10   72.05    5.59
  -1  -6 -10   75.45    4.76
   1   6  10   68.74    5.30
   1   6  10   69.21    5.57
   1   6  10   74.01    5.24
  -2  -6 -10   21.37    3.73
  -2  -6 -10   17.86    1.87
   2   6  10   20.14    2.63
   2   6  10   17.05    2.94
   2   6  10   20.87    3.34
  -3  -6 -10   29.82    3.50
  -3  -6 -10   32.90    2.28
   3   6  10   35.77    3.77
   3   6  10   34.67    3.59
   3   6  10   29.22    3.38
   4   6  10    0.42    1.02
   4   6  10   -0.58    0.56
   4   6  10   -0.07    0.68
   5   6  10    0.14    0.87
   5   6  10    0.58    1.46
   5   6  10    0.42    0.89
   6   6  10    9.28    2.57
   6   6  10    6.79    2.01
   6   6  10   13.86    2.78
   7   6  10   22.57    3.70
   7   6  10   19.20    3.89
   7   6  10    8.90    3.91
   8   6  10    0.32    1.23
   8   6  10    0.74    1.27
   9   6  10   22.99    4.44
   9   6  10   17.83    4.08
  10   6  10    7.80    3.13
  10   6  10    4.03    2.71
  10   6  10    5.97    2.17
   8  -7 -10   21.58    4.93
   8  -7 -10   19.42    4.78
   7  -7 -10   17.74    4.24
   7  -7 -10   13.70    4.04
   6  -7 -10    3.02    1.88
   6  -7 -10    5.94    2.39
   5  -7 -10    3.35    1.77
   5  -7 -10    5.76    3.01
   4  -7 -10    2.58    1.85
   4  -7 -10    3.03    1.07
   4  -7 -10    2.81    1.54
   3  -7 -10   57.51    5.57
   3  -7 -10   57.57    5.61
   3  -7 -10   49.76    4.01
  -3   7  10   53.64    2.92
  -3   7  10   52.72    2.98
  -3   7  10   56.44    4.27
   2  -7 -10   41.86    4.50
   2  -7 -10   43.98    4.72
   2  -7 -10   34.35    3.45
  -2   7  10   45.40    3.79
  -2   7  10   42.47    3.04
   1  -7 -10  157.63    9.26
   1  -7 -10  147.14    9.60
   1  -7 -10  136.14    8.32
  -1   7  10  146.11    7.81
  -1   7  10  151.04    9.35
  -1   7  10  173.24    8.63
   0  -7 -10   66.74    5.39
   0  -7 -10   71.13    5.88
   0   7  10   68.09    5.61
   0   7  10   79.34    5.30
  -1  -7 -10    3.09    1.14
  -1  -7 -10    4.46    1.72
   1   7  10    3.79    1.34
   1   7  10    1.44    1.18
  -2  -7 -10   36.35    2.91
  -2  -7 -10   33.03    3.80
   2   7  10   37.11    3.86
   2   7  10   42.91    4.09
  -3  -7 -10    6.50    1.20
  -3  -7 -10    4.90    1.89
   3   7  10    8.57    2.28
   3   7  10    7.24    1.97
   3   7  10    5.74    1.65
   4   7  10   15.54    2.95
   4   7  10   18.45    3.53
   4   7  10   16.97    3.18
   5   7  10    9.41    2.35
   5   7  10   10.18    2.87
   5   7  10    6.98    2.45
   6   7  10    7.52    2.36
   6   7  10    6.81    2.10
   6   7  10    2.67    1.99
   7   7  10   15.63    3.11
   7   7  10   12.56    3.06
   7   7  10    6.00    2.25
   8   7  10    7.87    2.53
   8   7  10    6.13    2.52
   9   7  10    9.91    3.31
   9   7  10    6.61    2.32
   7  -8 -10   10.89    3.66
   7  -8 -10   13.55    3.91
   6  -8 -10    1.18    1.82
   6  -8 -10    0.57    1.73
   5  -8 -10    1.52    1.43
   5  -8 -10    3.88    2.32
   4  -8 -10   15.70    6.13
   4  -8 -10   15.64    3.91
   3  -8 -10   29.98    5.21
   3  -8 -10   37.90    4.78
  -3   8  10   31.97    3.14
   2  -8 -10   56.23    5.32
   2  -8 -10   60.32    5.67
  -2   8  10   44.29    5.75
  -2   8  10   53.65    3.80
   1  -8 -10   31.70    3.72
   1  -8 -10   29.24    3.82
  -1   8  10   31.19    3.14
  -1   8  10   24.29    3.11
  -1   8  10   28.69    4.48
   0  -8 -10   39.80    3.96
   0  -8 -10   43.04    4.64
   0   8  10   50.31    4.15
   0   8  10   41.29    4.36
   0   8  10   34.41    3.73
  -1  -8 -10    0.28    0.69
  -1  -8 -10   -0.93    0.50
   1   8  10    0.49    0.70
   1   8  10    1.09    0.92
  -2  -8 -10   13.27    2.21
  -2  -8 -10   11.32    2.71
   2   8  10   10.31    2.55
   2   8  10   11.16    2.60
  -3  -8 -10   14.09    3.00
  -3  -8 -10   15.54    1.56
   3   8  10   21.69    3.89
   3   8  10   14.85    3.00
   4   8  10   25.32    4.33
   4   8  10   35.39    4.03
   5   8  10   14.78    3.46
   5   8  10   21.85    3.99
   6   8  10   28.41    5.06
   6   8  10   19.10    3.99
   6   8  10   25.91    4.39
   7   8  10    1.61    1.11
   7   8  10    3.75    2.17
   8   8  10    4.67    1.91
   8   8  10    7.53    2.95
   9   8  10   -0.85    1.66
   9   8  10    1.69    2.15
   6  -9 -10   23.85    5.30
   6  -9 -10   17.21    4.54
   5  -9 -10   24.02    5.24
   5  -9 -10   23.97    5.16
   4  -9 -10   26.81    5.12
   4  -9 -10   24.22    4.91
   3  -9 -10   33.68    4.63
   3  -9 -10   39.30    5.06
  -3   9  10   33.57    3.15
  -3   9  10   29.04    3.03
   2  -9 -10   30.94    4.31
   2  -9 -10   33.55    4.45
  -2   9  10   31.96    3.27
   1  -9 -10    3.65    1.74
   1  -9 -10    8.31    2.50
  -1   9  10    2.71    2.65
  -1   9  10    5.32    1.61
  -1   9  10    5.71    1.86
   0  -9 -10    0.83    1.11
   0  -9 -10   -0.52    0.77
   0   9  10   -1.02    0.73
   0   9  10   -1.08    0.99
  -1  -9 -10   14.56    3.27
  -1  -9 -10   11.67    2.29
   1   9  10    9.01    2.42
   1   9  10   10.39    2.44
  -2  -9 -10   27.02    3.75
  -2  -9 -10   27.38    2.78
   2   9  10   24.80    4.26
   2   9  10   29.70    3.55
  -3  -9 -10   24.40    2.08
  -3  -9 -10   19.96    3.55
   3   9  10   24.37    4.15
   3   9  10   31.19    4.01
  -4  -9 -10   24.32    4.29
   4   9  10   26.71    4.51
   4   9  10   22.04    4.06
   5   9  10   16.73    3.58
   5   9  10    8.38    2.71
   6   9  10    5.97    2.60
   6   9  10    5.79    2.29
   7   9  10   -0.19    1.50
   7   9  10    2.65    1.79
   8   9  10   -2.16    1.20
   8   9  10    1.51    2.36
   5 -10 -10   17.68    4.71
   5 -10 -10   15.50    4.14
   4 -10 -10   23.44    4.91
   4 -10 -10   17.19    4.41
   3 -10 -10   24.37    4.79
   3 -10 -10   22.43    4.58
  -3  10  10   20.29    2.53
   2 -10 -10    4.04    2.24
   2 -10 -10    2.11    1.58
  -2  10  10    0.68    1.22
   1 -10 -10    3.97    2.40
   1 -10 -10    0.38    1.43
  -1  10  10    2.35    1.28
  -1  10  10    1.71    1.30
   0 -10 -10    4.27    1.90
   0 -10 -10   13.54    3.46
   0  10  10   13.78    2.97
   0  10  10    6.56    1.92
  -1 -10 -10   13.42    3.42
  -1 -10 -10    9.49    2.16
   1  10  10   12.90    3.27
   1  10  10   18.08    3.20
  -2 -10 -10   17.00    3.25
   2  10  10   16.83    3.57
   2  10  10   18.64    3.42
  -3 -10 -10    8.05    2.13
  -3 -10 -10   12.55    1.64
  -3 -10 -10   11.05    3.06
   3  10  10    8.46    2.59
   3  10  10   18.27    3.78
  -4 -10 -10   13.93    2.91
   4  10  10   23.26    4.33
   4  10  10   23.66    4.32
   5  10  10   14.67    3.19
   5  10  10    9.06    2.89
   6  10  10    0.24    1.60
   6  10  10    1.39    1.46
   7  10  10    0.91    1.60
   7  10  10   -0.42    1.80
   4 -11 -10    3.82    2.58
   4 -11 -10    2.19    2.25
   3 -11 -10    0.73    2.27
   3 -11 -10    5.18    2.79
   2 -11 -10   10.14    2.77
   2 -11 -10    4.44    2.25
  -2  11  10    3.38    1.56
   1 -11 -10   16.55    3.93
   1 -11 -10   19.26    4.33
  -1  11  10   19.04    3.04
  -1  11  10   32.34    5.30
   0 -11 -10   13.02    3.49
   0 -11 -10   14.02    3.16
   0  11  10   23.73    3.76
   0  11  10   17.55    3.85
  -1 -11 -10   12.77    2.51
   1  11  10   16.14    3.13
   1  11  10   13.13    3.10
  -2 -11 -10   14.91    3.17
  -2 -11 -10   19.70    3.21
   2  11  10    7.18    2.48
   2  11  10   11.44    3.19
  -3 -11 -10    9.52    3.05
  -3 -11 -10    6.63    1.44
   3  11  10    9.49    2.61
   3  11  10    7.72    2.60
  -4 -11 -10    0.84    1.89
   4  11  10   -1.58    1.51
   4  11  10    1.31    1.57
   5  11  10    0.14    1.70
   5  11  10   -0.14    1.48
   6  11  10   -0.60    2.11
   6  11  10    1.46    1.71
   1 -12 -10    3.99    2.65
   1 -12 -10    5.94    2.99
  -1  12  10    6.40    2.85
  -1  12  10    5.59    2.38
   0 -12 -10   10.37    3.15
   0 -12 -10   19.26    4.30
   0  12  10   15.39    4.01
   0  12  10   12.73    2.91
  -1 -12 -10   20.75    4.56
  -1 -12 -10   13.34    3.08
   1  12  10   13.24    3.67
   1  12  10   18.27    3.67
  -2 -12 -10    4.76    2.17
  -2 -12 -10    1.87    1.80
   2  12  10    5.91    2.38
   2  12  10    1.29    2.17
  -3 -12 -10   -0.94    1.93
   3  12  10    1.03    1.89
   3  12  10    0.82    1.66
  -4 -12 -10    2.01    2.63
   4  12  10   -1.37    1.74
   4  12  10    2.65    1.88
   2   9 -11    2.99    2.50
  -2  -9  11    2.78    2.49
   1   9 -11    2.39    3.69
   0   9 -11    7.77    2.90
   0  -9  11    9.57    3.37
   1  -9  11   16.04    4.84
   1  -9  11   30.40    5.68
   5   8 -11    2.24    2.18
   4   8 -11    2.31    1.96
   3   8 -11   11.08    2.87
  -3  -8  11    3.90    2.21
   2   8 -11   29.47    4.92
  -2  -8  11   22.75    4.23
   1   8 -11   53.24    5.22
  -1  -8  11   46.91    6.01
   0   8 -11   22.00    3.73
   0  -8  11   20.96    4.62
  -1   8 -11   22.75    2.90
   1  -8  11   24.25    4.76
   2  -8  11   22.96    4.82
   3  -8  11    3.35    2.25
   4  -8  11   -1.05    2.30
   4  -8  11   -0.48    2.01
   6   7 -11    0.07    1.81
   5   7 -11    1.64    1.90
   4   7 -11    3.73    1.56
  -4  -7  11    1.16    1.23
   3   7 -11   30.70    5.26
   2   7 -11   21.11    4.13
  -2  -7  11   24.04    4.39
   1   7 -11   13.22    2.91
  -1  -7  11   19.93    4.21
   0   7 -11    8.67    2.37
   0  -7  11    8.17    2.52
  -1   7 -11    7.35    2.35
  -2   7 -11   -0.87    0.70
   2  -7  11    2.63    1.55
   3  -7  11    6.80    2.80
   4  -7  11   20.28    4.20
   5  -7  11   11.53    3.29
   7   6 -11   -0.86    1.83
   7   6 -11   -1.10    1.50
   6   6 -11   18.23    4.30
   6   6 -11   20.20    4.55
   5   6 -11   40.54    5.57
   5   6 -11   53.87    6.18
   4   6 -11   37.59    6.71
   4   6 -11   34.70    5.74
  -4  -6  11   38.08    4.03
   3   6 -11   37.73    4.62
  -3  -6  11   32.52    4.27
   2   6 -11   42.39    4.62
  -2  -6  11   43.08    5.00
   1   6 -11   18.53    3.39
  -1  -6  11   13.63    3.10
   0   6 -11    2.59    1.41
   0  -6  11    3.75    1.46
  -1   6 -11    0.91    0.86
   1  -6  11    0.07    1.29
  -2   6 -11    6.73    1.16
   2  -6  11    6.10    2.84
   3  -6  11   20.06    4.00
   4  -6  11   25.10    4.49
   5  -6  11   12.63    3.52
   6  -6  11    5.43    2.05
   8   5 -11   -1.10    2.10
   8   5 -11   -0.48    2.15
   7   5 -11    7.58    2.77
   7   5 -11    1.50    2.17
   6   5 -11   35.94    6.24
   6   5 -11   20.41    6.29
   5   5 -11    4.61    2.13
   5   5 -11    8.69    2.51
  -5  -5  11    5.51    2.25
   4   5 -11   66.25    6.37
   4   5 -11   51.42    5.77
  -4  -5  11   46.75    4.34
   3   5 -11   32.17    4.49
   3   5 -11   32.36    4.20
  -3  -5  11   36.23    4.29
  -3  -5  11   34.68    4.07
   2   5 -11   12.07    3.24
   2   5 -11   11.38    2.84
  -2  -5  11   12.96    2.94
  -2  -5  11   11.08    2.63
   1   5 -11    5.28    1.72
  -1  -5  11    5.98    1.98
   0  -5  11    3.28    1.54
  -1   5 -11   24.50    2.57
   1  -5  11   21.60    3.88
  -2   5 -11   22.55    1.84
   2  -5  11   16.87    3.26
   3  -5  11   33.28    4.03
  -4   5 -11   37.24    5.25
   4  -5  11   46.71    5.89
   5  -5  11   10.62    3.02
   6  -5  11    5.57    1.97
   7  -5  11    5.70    1.73
   9   4 -11    0.80    2.15
   9   4 -11    8.10    3.08
   8   4 -11    6.52    2.87
   8   4 -11    3.23    2.32
   7   4 -11   15.85    3.87
   7   4 -11   25.97    5.13
   6   4 -11   41.25    5.44
   6   4 -11   55.16    5.47
   5   4 -11   19.75    3.82
  -5  -4  11   16.74    2.54
   4   4 -11   19.38    4.22
  -4  -4  11   12.01    2.36
   3   4 -11   14.49    3.42
  -3  -4  11   13.24    2.57
  -3  -4  11   13.98    3.18
   2   4 -11    8.58    2.52
   2   4 -11    9.86    2.41
  -2  -4  11    4.05    1.88
  -2  -4  11    9.02    2.35
   1   4 -11    4.46    2.04
   1   4 -11    6.40    1.89
  -1  -4  11    9.71    2.60
  -1  -4  11   13.13    2.84
   0   4 -11   38.41    3.65
   0  -4  11   42.32    4.32
  -1   4 -11  101.33    5.85
   1  -4  11   90.81    6.89
  -2   4 -11   62.41    3.61
   2  -4  11   72.09    5.73
  -3   4 -11   35.79    4.16
   3  -4  11   40.56    4.27
  -4   4 -11   15.08    3.33
   4  -4  11   19.68    3.48
  -5   4 -11    8.19    2.72
   5  -4  11    3.44    1.50
   6  -4  11   -0.31    1.60
   7  -4  11    6.18    2.34
   8  -4  11    5.50    2.41
   9   3 -11   12.81    3.90
   9   3 -11   18.43    3.94
   8   3 -11   29.65    5.30
   7   3 -11   35.41    4.39
   6   3 -11   27.21    4.52
  -6  -3  11   19.74    2.57
   5   3 -11   42.02    4.65
  -5  -3  11   38.12    3.70
   4   3 -11    4.89    2.04
  -4  -3  11    6.20    1.88
   3   3 -11    3.02    1.77
  -3  -3  11    3.92    1.72
  -3  -3  11    2.76    1.29
   2   3 -11   22.85    4.15
  -2  -3  11   25.86    3.04
  -2  -3  11   27.43    3.24
   1   3 -11  100.24    7.82
  -1  -3  11  102.50    6.82
  -1  -3  11  103.78    6.93
   0   3 -11   54.50    5.47
   0  -3  11   50.29    4.79
   0  -3  11   60.73    4.96
  -1   3 -11   74.86    6.69
  -1   3 -11   87.77    5.32
   1  -3  11   97.81    6.55
  -2   3 -11    3.00    1.37
  -2   3 -11    4.26    0.90
  -2   3 -11    3.74    0.85
   2  -3  11    2.96    1.17
  -3   3 -11   30.54    3.57
   3  -3  11   33.04    3.61
  -4   3 -11   -4.02    1.59
   4  -3  11    0.04    0.96
  -5   3 -11    1.23    2.02
   5  -3  11    6.12    1.67
   5  -3  11    5.56    1.89
  -6   3 -11   14.39    3.11
   6  -3  11   18.79    3.24
   6  -3  11   18.23    2.43
   7  -3  11   33.18    4.02
   8  -3  11   12.11    2.98
   9  -3  11   10.75    2.94
   9   2 -11   12.11    3.28
   8   2 -11   26.69    4.92
   7   2 -11    6.66    2.32
   7   2 -11    3.95    1.75
   6   2 -11   19.21    2.33
   6   2 -11   24.15    4.23
  -6  -2  11   17.37    3.06
   5   2 -11   -0.65    0.88
   5   2 -11    1.61    1.09
  -5  -2  11    1.67    1.22
   4   2 -11   49.18    4.81
   4   2 -11   43.93    3.56
  -4  -2  11   38.87    3.89
  -4  -2  11   42.26    3.90
   3   2 -11   67.91    4.78
   3   2 -11   68.62    5.82
  -3  -2  11   65.57    5.03
  -3  -2  11   70.29    5.15
   2   2 -11   54.41    5.17
   2   2 -11   50.36    4.11
  -2  -2  11   63.04    4.70
  -2  -2  11   54.30    4.46
   1   2 -11  125.74    7.58
   1   2 -11  152.76    9.35
  -1  -2  11  138.65    7.96
  -1  -2  11  124.38    9.95
   0   2 -11   87.66    5.91
   0   2 -11   89.09    5.93
   0   2 -11   92.80    7.03
   0  -2  11   84.48    5.88
   0  -2  11   85.59    6.18
  -1   2 -11   21.45    3.85
  -1   2 -11   22.64    2.77
   1  -2  11   23.33    3.09
   1  -2  11   27.93    3.00
  -2   2 -11    0.21    0.41
  -2   2 -11    0.45    0.95
   2  -2  11    1.13    0.74
   2  -2  11    1.04    0.73
  -3   2 -11   -0.30    1.26
   3  -2  11   -0.32    0.33
   3  -2  11   -0.71    0.46
  -4   2 -11    3.48    1.63
   4  -2  11    1.81    1.10
   4  -2  11   -0.33    0.75
  -5   2 -11   60.21    5.39
   5  -2  11   72.01    5.74
   5  -2  11   67.90    5.01
  -6   2 -11    1.49    2.11
   6  -2  11   -0.82    0.67
   6  -2  11    0.44    0.97
   7  -2  11    1.91    1.34
   7  -2  11    4.04    1.69
   8  -2  11    6.05    1.64
   8  -2  11    4.08    1.67
   9  -2  11    6.30    2.49
   9  -2  11    4.45    1.66
   9   1 -11    7.12    2.58
   8   1 -11    2.91    1.81
   7   1 -11    0.86    1.22
   7   1 -11    1.99    1.05
   6   1 -11   -0.41    0.78
   6   1 -11    0.53    0.96
  -6  -1  11    1.90    1.66
   5   1 -11   47.03    3.61
   5   1 -11   50.64    4.98
  -5  -1  11   52.43    4.67
   4   1 -11   95.69    6.94
   4   1 -11   85.57    5.33
  -4  -1  11   88.40    6.28
  -4  -1  11   90.85    5.82
   3   1 -11   24.88    4.00
   3   1 -11   21.75    2.35
  -3  -1  11   23.49    2.56
  -3  -1  11   14.52    2.62
   2   1 -11   68.42    4.79
   2   1 -11   79.70    6.07
  -2  -1  11   75.21    5.02
  -2  -1  11   75.76    5.40
   1   1 -11   55.09    4.88
   1   1 -11   47.13    4.31
   1   1 -11   47.38    3.83
  -1  -1  11   53.66    4.37
  -1  -1  11   54.92    4.14
  -1  -1  11   50.63    4.52
   0   1 -11   84.71    6.29
   0   1 -11   72.78    6.22
   0   1 -11   87.67    5.69
   0  -1  11   73.17    5.55
   0  -1  11   84.72    5.43
   0  -1  11   75.91    7.10
   0  -1  11   81.47    5.86
  -1   1 -11   16.99    2.29
  -1   1 -11   20.35    2.59
  -1   1 -11   17.02    2.01
  -1   1 -11   23.39    3.79
   1  -1  11   24.99    2.77
   1  -1  11   21.43    2.71
   1  -1  11   21.63    2.68
   1  -1  11   22.44    2.49
  -2   1 -11    0.78    0.69
  -2   1 -11    0.05    0.79
  -2   1 -11    1.46    0.72
   2  -1  11    0.67    0.80
   2  -1  11   -0.47    0.51
   2  -1  11   -0.85    0.90
  -3   1 -11   35.82    3.85
  -3   1 -11   40.92    2.48
   3  -1  11   45.59    4.00
   3  -1  11   45.09    3.84
   3  -1  11   38.83    4.06
  -4   1 -11   38.80    4.17
   4  -1  11   47.11    3.96
   4  -1  11   45.01    5.15
   4  -1  11   52.75    4.51
  -5   1 -11   82.23    6.42
   5  -1  11   91.81    6.05
   5  -1  11   92.70    6.70
   6  -1  11   42.26    3.90
   6  -1  11   43.71    4.57
   7  -1  11    9.76    2.20
   7  -1  11   10.45    2.61
   8  -1  11   13.57    2.94
   8  -1  11    9.63    2.28
   9  -1  11    2.00    1.43
  10  -1  11    0.89    1.88
  10  -1  11    3.20    1.64
  10   0 -11    4.23    2.65
   9   0 -11   16.90    3.08
   9   0 -11   20.14    4.31
   8   0 -11    0.23    0.94
   8   0 -11   -0.35    0.96
   7   0 -11    7.27    2.27
   7   0 -11    6.65    1.08
   7   0 -11    8.91    2.12
  -7   0  11    8.28    3.89
   6   0 -11   34.64    2.70
   6   0 -11   45.53    4.04
   6   0 -11   44.89    4.81
  -6   0  11   44.22    4.55
   5   0 -11   47.70    4.75
   5   0 -11   46.79    4.20
   5   0 -11   47.54    3.24
  -5   0  11   50.38    4.87
   4   0 -11  117.28    6.09
   4   0 -11   88.70    7.91
   4   0 -11  121.38    7.93
  -4   0  11  122.71    7.63
  -4   0  11  123.21    6.47
   3   0 -11   62.88    4.77
   3   0 -11   57.56    4.96
   3   0 -11   53.97    3.74
  -3   0  11   62.67    4.16
  -3   0  11   53.00    4.62
   2   0 -11   85.31    6.06
   2   0 -11   73.98    5.45
   2   0 -11   80.16    4.87
  -2   0  11   76.86    5.94
  -2   0  11   78.65    4.91
  -2   0  11   76.60    5.43
   1   0 -11   64.66    5.06
   1   0 -11   58.16    4.54
   1   0 -11   53.39    3.92
  -1   0  11   65.78    4.24
  -1   0  11   57.35    4.64
  -1   0  11   60.28    4.71
  -1   0  11   46.79    4.30
   0   0 -11   17.09    2.17
   0   0 -11   16.78    4.62
   0   0 -11   19.13    2.08
   0   0 -11   19.15    2.91
   0   0  11   21.00    4.22
   0   0  11   17.17    2.95
   0   0  11   17.13    2.86
   0   0  11   15.17    1.96
  -1   0 -11   48.75    4.61
  -1   0 -11   46.34    3.88
  -1   0 -11   53.39    3.50
  -1   0 -11   44.90    4.24
   1   0  11   48.99    4.06
   1   0  11   51.60    4.19
   1   0  11   47.50    4.19
  -2   0 -11   14.91    2.77
  -2   0 -11   14.07    1.70
  -2   0 -11   16.42    2.88
  -2   0 -11   16.67    2.78
   2   0  11   20.31    2.43
   2   0  11   18.34    2.31
   2   0  11   19.66    3.25
   2   0  11   22.07    2.44
  -3   0 -11   33.63    2.50
  -3   0 -11   32.90    3.66
   3   0  11   34.49    3.42
   3   0  11   36.11    3.44
   3   0  11   34.83    3.37
  -4   0 -11  101.49    4.94
  -4   0 -11  107.34    7.07
   4   0  11  102.78    9.65
   4   0  11  109.26    7.09
   4   0  11  109.42    6.71
  -5   0 -11   17.16    3.65
   5   0  11   19.45    2.61
   5   0  11   19.47    3.30
   5   0  11   19.64    3.21
   6   0  11   14.18    2.67
   6   0  11   22.19    2.92
   6   0  11   26.78    3.20
   7   0  11    4.96    1.70
   7   0  11    2.43    1.35
   8   0  11   -1.01    0.92
   9   0  11    4.34    1.52
   9   0  11    2.44    1.40
  10   0  11    0.84    1.64
  10   0  11    3.22    1.65
  10  -1 -11    5.33    2.65
  10  -1 -11    4.58    2.07
   9  -1 -11    2.91    1.81
   9  -1 -11    2.44    1.82
   8  -1 -11   13.12    3.22
   8  -1 -11   13.19    2.94
   7  -1 -11   31.95    4.31
   7  -1 -11   38.32    3.92
   6  -1 -11   62.65    5.16
   6  -1 -11   60.73    5.68
   5  -1 -11   77.03    3.82
   5  -1 -11   83.87    6.49
   5  -1 -11   77.37    5.68
  -5   1  11   58.61    5.68
   4  -1 -11   97.97    5.16
   4  -1 -11   92.19    6.45
   4  -1 -11  108.87    7.31
  -4   1  11   92.48    6.90
   3  -1 -11   20.18    1.95
   3  -1 -11   21.44    3.04
   3  -1 -11   25.30    3.05
   3  -1 -11   18.69    2.54
  -3   1  11   22.37    2.12
   2  -1 -11    0.41    0.50
   2  -1 -11   -0.43    0.60
   2  -1 -11   -0.22    0.44
  -2   1  11    0.45    0.57
  -2   1  11   -0.37    0.78
  -2   1  11   -0.44    0.92
  -2   1  11    0.63    0.38
   1  -1 -11    0.06    0.41
   1  -1 -11   -1.16    0.62
   1  -1 -11    1.67    0.87
   1  -1 -11    0.72    0.52
  -1   1  11    0.18    0.56
  -1   1  11   -0.26    0.39
  -1   1  11    0.60    0.72
  -1   1  11    0.23    0.73
   0  -1 -11  136.61   11.18
   0  -1 -11  136.29    7.29
   0  -1 -11  137.54    7.93
   0  -1 -11  125.41    7.10
   0   1  11  130.02    7.01
   0   1  11  134.87    7.96
   0   1  11  142.71    7.89
   0   1  11  121.22    8.87
  -1  -1 -11   30.50    6.25
  -1  -1 -11   29.94    3.13
  -1  -1 -11   30.46    2.68
   1   1  11   36.43    3.07
   1   1  11   26.20    3.51
   1   1  11   26.68    2.83
  -2  -1 -11  107.31    6.86
  -2  -1 -11  107.61    6.97
  -2  -1 -11  111.53    5.99
   2   1  11   99.61    6.23
   2   1  11  117.08    6.87
   2   1  11  107.64    7.11
   2   1  11  105.93    6.54
  -3  -1 -11  100.52    5.54
  -3  -1 -11   91.41    6.42
   3   1  11  101.75    6.45
   3   1  11   94.27    6.68
   3   1  11  101.68    6.03
   3   1  11  101.70    6.37
  -4  -1 -11   39.31    3.35
  -4  -1 -11   43.93    4.12
   4   1  11   38.45    3.84
   4   1  11   44.54    3.95
   4   1  11   43.59    3.64
  -5  -1 -11    7.51    1.32
   5   1  11    9.10    2.11
   5   1  11    7.51    2.08
   5   1  11    6.57    1.64
   6   1  11    8.11    1.90
   6   1  11    8.35    1.91
   6   1  11    5.55    1.66
   7   1  11    2.40    1.34
   7   1  11    2.17    1.32
   7   1  11   -0.18    0.85
   8   1  11   21.32    3.48
   8   1  11   15.87    3.57
   9   1  11   13.68    3.20
   9   1  11   13.00    2.85
  10   1  11    2.88    1.98
  10   1  11   -0.93    1.39
   9  -2 -11   16.41    4.24
   9  -2 -11   26.11    3.62
   8  -2 -11   21.59    4.17
   8  -2 -11   25.46    3.61
   7  -2 -11   45.41    5.15
   7  -2 -11   45.21    4.63
   6  -2 -11   49.55    5.20
   6  -2 -11   54.32    4.97
   5  -2 -11   54.66    5.15
   5  -2 -11   52.54    4.74
   4  -2 -11   25.61    3.30
   4  -2 -11   31.45    3.14
   4  -2 -11   29.94    3.40
  -4   2  11   23.66    3.87
   3  -2 -11   22.95    2.95
   3  -2 -11   19.67    2.42
   3  -2 -11   19.58    2.60
  -3   2  11   18.05    1.66
  -3   2  11   21.57    3.05
   2  -2 -11   17.92    2.26
   2  -2 -11   18.86    2.49
   2  -2 -11   18.21    2.51
   2  -2 -11   19.07    2.57
  -2   2  11   16.91    2.33
  -2   2  11   16.05    1.68
  -2   2  11   18.85    3.31
  -2   2  11   19.30    3.28
   1  -2 -11  108.17    7.29
   1  -2 -11   86.12    5.70
   1  -2 -11   79.08    7.01
   1  -2 -11   96.20    6.24
  -1   2  11   96.35    5.13
  -1   2  11   85.48    6.08
  -1   2  11   80.33    6.99
  -1   2  11   98.20    9.70
   0  -2 -11  206.64   10.76
   0  -2 -11  208.63   10.52
   0  -2 -11  213.03   11.13
   0   2  11  214.11   10.95
   0   2  11  218.47   10.16
   0   2  11  241.67   12.65
  -1  -2 -11   84.61    5.26
  -1  -2 -11   96.73    5.82
   1   2  11   89.43    5.44
   1   2  11   83.32    6.02
   1   2  11   78.92    5.37
  -2  -2 -11  112.81    6.73
  -2  -2 -11  107.64    7.07
  -2  -2 -11  114.05    6.33
   2   2  11  113.90    6.44
   2   2  11  101.04    7.93
   2   2  11  108.22    7.09
   2   2  11  117.56    6.95
  -3  -2 -11    5.05    1.68
  -3  -2 -11   11.00    2.18
  -3  -2 -11    7.98    1.67
   3   2  11    7.68    1.90
   3   2  11    7.57    2.02
   3   2  11    5.90    1.72
   3   2  11   10.65    1.46
  -4  -2 -11    6.84    1.92
  -4  -2 -11    5.82    1.42
   4   2  11    4.71    1.24
   4   2  11    5.72    1.28
   4   2  11    2.69    1.23
   4   2  11    6.61    1.82
   4   2  11   10.80    3.89
  -5  -2 -11    1.50    0.89
   5   2  11    5.89    1.65
   5   2  11    4.31    1.14
   5   2  11    5.11    1.86
   5   2  11    4.88    1.14
   6   2  11    4.70    1.22
   6   2  11    3.60    1.07
   6   2  11    4.12    1.47
   6   2  11    7.34    2.06
   7   2  11   12.25    2.10
   7   2  11   12.42    2.61
   7   2  11    8.38    2.39
   7   2  11   13.80    1.73
   8   2  11   13.09    2.38
   8   2  11   18.16    3.77
   8   2  11   15.01    2.97
   8   2  11   15.62    1.79
   9   2  11   11.12    2.81
   9   2  11   13.86    1.68
   9   2  11   16.69    3.33
  10   2  11    2.85    1.80
  10   2  11    1.58    2.05
   9  -3 -11   17.79    3.98
   9  -3 -11   25.69    5.33
   8  -3 -11   29.08    5.43
   8  -3 -11   28.18    3.93
   7  -3 -11   46.42    8.92
   7  -3 -11   47.73    5.00
   6  -3 -11   10.93    2.91
   6  -3 -11    9.21    2.54
   5  -3 -11    3.30    1.73
   5  -3 -11    4.78    1.49
   5  -3 -11    6.51    2.17
   4  -3 -11   14.34    3.06
   4  -3 -11   11.59    2.64
   4  -3 -11   10.17    2.18
   3  -3 -11    9.78    1.98
   3  -3 -11   11.38    2.66
   3  -3 -11    8.62    2.30
  -3   3  11    9.88    2.49
  -3   3  11   11.90    2.46
  -3   3  11   10.02    0.99
   2  -3 -11  104.69    6.85
   2  -3 -11  101.31    6.60
   2  -3 -11   90.73    6.28
   2  -3 -11   92.89    8.44
  -2   3  11   88.52    6.55
  -2   3  11   91.76    6.63
  -2   3  11   84.12    7.13
  -2   3  11  101.31    4.88
   1  -3 -11   62.65    4.79
   1  -3 -11   59.14    4.61
   1  -3 -11   58.08    4.90
   1  -3 -11   57.75    4.65
  -1   3  11   62.11    5.17
  -1   3  11   60.55    4.87
  -1   3  11   68.30    3.94
   0  -3 -11   99.50    6.15
   0  -3 -11   99.03    6.12
   0  -3 -11   99.58    6.74
   0  -3 -11   93.52    7.18
   0   3  11   84.65    6.85
   0   3  11  105.50    5.70
   0   3  11   98.20    6.70
   0   3  11   97.57    6.24
  -1  -3 -11  119.00    7.91
  -1  -3 -11  128.27    7.36
  -1  -3 -11  140.90    7.41
  -1  -3 -11  115.28    7.68
   1   3  11  136.29    8.13
   1   3  11  129.93    7.37
   1   3  11  139.33    7.76
   1   3  11  143.47    7.38
  -2  -3 -11   45.53    3.82
  -2  -3 -11   54.15    3.92
  -2  -3 -11   45.51    4.23
   2   3  11   48.48    3.81
   2   3  11   49.39    4.18
   2   3  11   48.77    4.83
   2   3  11   54.38    4.55
   2   3  11   53.59    3.78
  -3  -3 -11    1.23    0.94
  -3  -3 -11    1.52    1.32
  -3  -3 -11    1.24    0.90
   3   3  11    1.74    0.92
   3   3  11    0.69    0.84
   3   3  11    3.02    1.11
   3   3  11    1.70    0.84
   3   3  11    0.53    0.56
  -4  -3 -11   -0.32    0.84
   4   3  11    0.33    0.79
   4   3  11    0.19    0.49
   4   3  11    0.98    0.66
   4   3  11    2.08    1.21
   4   3  11    0.59    0.80
  -5  -3 -11   24.55    2.83
   5   3  11   22.55    2.94
   5   3  11   16.95    3.02
   5   3  11   23.01    2.49
   5   3  11   25.70    2.94
  -6  -3 -11   27.64    3.15
   6   3  11   24.46    2.79
   6   3  11   31.08    3.75
   6   3  11   30.78    2.83
   6   3  11   27.42    3.52
   7   3  11   16.91    1.79
   7   3  11   20.83    3.72
   7   3  11   15.87    3.19
   8   3  11    7.75    1.77
   8   3  11    9.27    1.19
   8   3  11    8.89    2.54
   9   3  11    3.27    1.49
   9   3  11    0.77    1.05
   9   3  11   -0.07    1.70
  10   3  11    2.30    2.02
  10   3  11    1.58    1.28
  10   3  11    4.12    2.08
   9  -4 -11   26.21    5.33
   9  -4 -11   27.68    5.37
   8  -4 -11   10.34    3.00
   8  -4 -11    7.60    2.77
   7  -4 -11   33.41    4.58
   7  -4 -11   26.16    4.60
   6  -4 -11    7.43    2.42
   6  -4 -11    9.40    1.76
   5  -4 -11   12.68    2.82
   5  -4 -11   21.22    4.09
   5  -4 -11   13.83    2.50
   4  -4 -11   55.59    4.09
   4  -4 -11   49.16    4.79
   4  -4 -11   42.94    4.61
   3  -4 -11   50.16    4.65
   3  -4 -11   49.81    4.58
  -3   4  11   39.52    4.12
   2  -4 -11  117.39    7.64
   2  -4 -11  101.25    7.48
   2  -4 -11  122.96    7.58
  -2   4  11  112.28    5.43
   1  -4 -11  105.14    6.93
   1  -4 -11   87.22    9.02
   1  -4 -11   93.99    6.25
   1  -4 -11   76.94    8.07
  -1   4  11   98.43    5.12
  -1   4  11   87.77    6.68
  -1   4  11   80.38    6.90
   0  -4 -11    3.03    1.07
   0  -4 -11    0.56    0.60
   0  -4 -11    3.08    1.24
   0  -4 -11    0.74    0.86
   0   4  11    1.11    0.53
   0   4  11    0.59    0.67
   0   4  11    0.62    1.16
  -1  -4 -11   31.68    3.52
  -1  -4 -11   33.30    3.38
  -1  -4 -11   34.13    2.96
  -1  -4 -11   23.52    3.10
   1   4  11   34.46    3.27
   1   4  11   27.09    2.76
   1   4  11   31.04    3.16
   1   4  11   32.01    2.90
   1   4  11   23.00    3.08
  -2  -4 -11    6.56    2.00
  -2  -4 -11    7.52    2.04
  -2  -4 -11    9.46    1.80
  -2  -4 -11   10.62    2.63
   2   4  11    8.30    1.58
   2   4  11    7.78    1.88
   2   4  11    9.20    2.42
   2   4  11    7.03    1.70
   2   4  11    4.70    1.51
  -3  -4 -11   12.61    2.95
  -3  -4 -11   12.97    1.76
   3   4  11   17.31    3.20
   3   4  11   17.97    3.01
   3   4  11   11.90    2.40
   3   4  11   16.17    1.74
   3   4  11   12.90    2.97
  -4  -4 -11   48.52    5.10
   4   4  11   48.60    3.92
   4   4  11   47.69    4.38
   4   4  11   47.31    4.39
   4   4  11   43.74    2.98
   4   4  11   48.58    4.40
  -5  -4 -11    5.92    1.96
   5   4  11    6.83    0.89
   5   4  11    5.80    1.84
   5   4  11    7.06    1.96
   5   4  11    7.96    1.84
  -6  -4 -11   56.88    5.16
   6   4  11   63.74    5.69
   6   4  11   63.95    5.66
   6   4  11   67.07    4.94
   7   4  11   27.15    3.15
   7   4  11   28.64    3.78
   7   4  11   30.19    4.80
   8   4  11    3.25    1.39
   8   4  11    7.27    2.35
   8   4  11    3.44    1.88
   9   4  11    3.83    1.52
   9   4  11    3.47    1.97
   9   4  11    0.94    1.58
  10   4  11    0.34    1.82
  10   4  11   -0.58    1.70
  10   4  11    4.02    1.62
   9  -5 -11   10.87    4.00
   9  -5 -11    7.46    2.95
   8  -5 -11    1.57    1.71
   8  -5 -11    2.03    2.20
   7  -5 -11    6.99    2.43
   7  -5 -11   16.37    3.88
   6  -5 -11    7.57    2.12
   6  -5 -11    8.95    2.76
   6  -5 -11    9.13    2.68
   5  -5 -11   65.89    6.19
   5  -5 -11   59.37    4.86
   5  -5 -11   77.84    6.74
   4  -5 -11   41.15    4.50
   4  -5 -11   33.39    4.11
   3  -5 -11  141.00   11.15
   3  -5 -11  161.53    9.73
   3  -5 -11  169.86   10.01
  -3   5  11  116.72   11.12
  -3   5  11  153.54    5.83
   2  -5 -11  115.32    7.80
   2  -5 -11  115.72    7.50
  -2   5  11  113.60    5.45
  -2   5  11   98.74    7.62
   1  -5 -11  128.82    7.76
   1  -5 -11  130.76    8.32
   1  -5 -11  117.33    7.36
  -1   5  11  118.31    7.23
  -1   5  11  129.89    6.48
   0  -5 -11   14.90    2.07
   0  -5 -11   14.17    2.64
   0  -5 -11   15.09    3.06
   0   5  11   15.87    2.76
   0   5  11   14.27    2.50
   0   5  11   12.56    2.01
  -1  -5 -11   11.51    2.04
  -1  -5 -11   10.58    2.51
  -1  -5 -11    9.62    2.27
  -1  -5 -11    5.55    1.85
   1   5  11    8.02    2.42
   1   5  11    8.78    2.07
   1   5  11    6.81    1.81
  -2  -5 -11   12.62    2.81
  -2  -5 -11    9.36    2.32
  -2  -5 -11    8.81    1.61
   2   5  11   11.27    2.35
   2   5  11   12.32    2.60
   2   5  11    9.37    2.06
  -3  -5 -11   74.49    4.35
  -3  -5 -11   67.48    5.39
   3   5  11   69.51    5.20
   3   5  11   66.41    5.50
   3   5  11   71.86    5.54
   4   5  11   66.71    5.61
   4   5  11   74.50    5.91
   4   5  11   79.38    5.48
   5   5  11   20.50    2.61
   5   5  11   19.03    3.45
   6   5  11   38.05    3.92
   6   5  11   33.49    4.11
   7   5  11    1.71    1.40
   7   5  11    1.92    1.23
   7   5  11   -0.01    1.14
   8   5  11   -0.78    1.11
   8   5  11    0.79    1.36
   8   5  11   -1.22    1.16
   9   5  11    1.83    1.69
   9   5  11    3.55    1.48
   9   5  11    0.12    1.54
  10   5  11    0.68    1.75
  10   5  11    2.21    2.22
  10   5  11    3.87    2.27
   8  -6 -11    6.41    2.54
   8  -6 -11    2.26    2.50
   7  -6 -11   12.16    3.44
   7  -6 -11   14.55    4.10
   6  -6 -11   26.49    4.83
   6  -6 -11   25.59    5.42
   6  -6 -11   17.87    2.69
   5  -6 -11   37.94    4.63
   5  -6 -11   35.83    4.60
   5  -6 -11   21.89    3.00
   4  -6 -11   48.75    4.03
   4  -6 -11   56.00    5.50
   4  -6 -11   47.10    5.04
   3  -6 -11   55.28    5.24
   3  -6 -11   52.73    6.48
   3  -6 -11   57.52    5.43
  -3   6  11   46.32    6.36
  -3   6  11   49.58    2.37
   2  -6 -11    3.65    1.43
   2  -6 -11   -0.17    0.79
   2  -6 -11    1.81    1.20
  -2   6  11    0.54    0.53
  -2   6  11    1.89    0.85
   1  -6 -11    9.55    2.12
   1  -6 -11    6.67    2.27
   1  -6 -11    7.11    1.94
  -1   6  11    6.50    1.66
   0  -6 -11    5.10    1.58
   0  -6 -11    4.66    1.63
   0  -6 -11    0.05    1.24
   0   6  11    6.45    1.80
   0   6  11    2.95    1.20
  -1  -6 -11   45.44    4.42
  -1  -6 -11   48.84    3.79
   1   6  11   42.35    3.94
   1   6  11   48.14    4.40
  -2  -6 -11   30.38    2.69
  -2  -6 -11   34.64    3.87
   2   6  11   32.73    3.57
   2   6  11   34.07    3.59
  -3  -6 -11   81.10    6.57
  -3  -6 -11   97.05    5.02
   3   6  11   97.25    6.61
   3   6  11   93.38    6.79
   4   6  11   45.27    4.57
   4   6  11   38.47    3.99
   5   6  11   25.61    4.30
   5   6  11   22.40    2.99
   6   6  11    9.48    2.32
   6   6  11    7.76    2.36
   7   6  11    2.08    1.96
   7   6  11    5.88    1.86
   8   6  11   -1.38    1.17
   8   6  11    2.31    1.48
   8   6  11   -0.57    1.48
   9   6  11    3.22    3.03
   9   6  11    2.58    1.92
   9   6  11    2.85    2.07
  10   6  11    7.98    2.88
  10   6  11    6.09    2.69
  10   6  11   13.24    3.36
   8  -7 -11   22.81    6.17
   8  -7 -11   13.19    4.15
   7  -7 -11   13.57    3.96
   7  -7 -11   18.29    4.45
   6  -7 -11   42.11    5.66
   6  -7 -11   36.84    5.16
   5  -7 -11   51.71    6.44
   5  -7 -11   33.65    3.20
   5  -7 -11   47.26    5.64
   4  -7 -11   16.14    2.63
   4  -7 -11   23.54    4.46
   4  -7 -11   21.49    4.09
   3  -7 -11    4.08    1.70
   3  -7 -11    2.24    1.20
  -3   7  11    1.86    0.68
  -3   7  11    2.59    0.53
  -3   7  11    2.52    1.59
   2  -7 -11    1.97    1.35
   2  -7 -11    2.93    1.48
   2  -7 -11    2.07    1.36
  -2   7  11    1.94    1.10
  -2   7  11    3.13    0.98
   1  -7 -11    3.68    1.67
   1  -7 -11    6.32    1.98
   1  -7 -11    3.85    1.70
  -1   7  11    7.85    1.91
   0  -7 -11   24.11    2.90
   0  -7 -11   28.41    3.58
   0   7  11   21.89    3.68
   0   7  11   28.09    3.08
  -1  -7 -11   55.37    4.24
  -1  -7 -11   53.84    5.10
   1   7  11   50.07    4.84
   1   7  11   55.27    4.68
  -2  -7 -11   52.48    3.81
  -2  -7 -11   59.43    5.28
   2   7  11   56.18    4.95
   2   7  11   61.77    5.22
  -3  -7 -11   24.65    3.45
  -3  -7 -11   27.78    2.21
   3   7  11   28.20    3.54
   3   7  11   26.24    3.30
   4   7  11    2.03    1.12
   4   7  11    0.68    0.69
   5   7  11    2.59    1.36
   5   7  11    0.83    0.94
   6   7  11    2.31    1.24
   7   7  11    2.05    1.51
   7   7  11    2.39    1.78
   8   7  11   12.77    3.56
   8   7  11   10.57    2.91
   9   7  11    4.10    2.65
   9   7  11    5.34    2.03
   7  -8 -11   12.44    4.17
   7  -8 -11   10.10    3.08
   6  -8 -11   44.02    5.90
   6  -8 -11   41.17    5.64
   5  -8 -11    1.24    1.59
   5  -8 -11    4.04    2.14
   4  -8 -11    0.45    1.43
   4  -8 -11    0.47    1.62
   3  -8 -11    3.81    1.71
   3  -8 -11    4.13    1.98
  -3   8  11    2.36    0.70
  -3   8  11    2.98    1.22
  -3   8  11    5.02    2.29
   2  -8 -11   12.60    2.80
   2  -8 -11   11.74    2.95
  -2   8  11   12.52    1.95
  -2   8  11   10.53    2.29
   1  -8 -11   44.42    4.42
   1  -8 -11   44.90    4.89
  -1   8  11   42.23    4.58
  -1   8  11   38.00    3.71
   0  -8 -11   48.07    4.99
   0  -8 -11   47.00    4.38
   0   8  11   53.72    4.56
   0   8  11   42.90    4.72
  -1  -8 -11   73.47    6.32
   1   8  11   81.01    6.02
   1   8  11   74.94    6.25
  -2  -8 -11   19.32    3.58
  -2  -8 -11   18.08    2.18
   2   8  11   17.20    3.25
   2   8  11   17.21    3.22
  -3  -8 -11   10.61    2.97
  -3  -8 -11    8.66    1.45
   3   8  11    5.27    1.70
   3   8  11    6.63    2.26
   4   8  11    5.96    2.14
   4   8  11    5.55    2.20
   5   8  11   -0.62    1.06
   5   8  11    0.06    1.02
   6   8  11    8.14    2.51
   6   8  11    6.53    2.22
   7   8  11    4.63    2.06
   7   8  11    5.35    1.90
   8   8  11    9.50    2.88
   8   8  11   16.10    4.33
   9   8  11    6.34    2.86
   9   8  11   -2.15    1.55
   6  -9 -11   19.61    4.67
   6  -9 -11   22.15    5.06
   5  -9 -11    0.83    1.88
   5  -9 -11    3.49    1.87
   4  -9 -11    2.71    1.65
   4  -9 -11    5.73    2.69
   3  -9 -11    5.07    2.10
   3  -9 -11    2.35    2.11
  -3   9  11    4.81    1.48
   2  -9 -11   24.54    4.27
   2  -9 -11   30.47    7.75
  -2   9  11   30.06    3.29
  -2   9  11   22.84    3.61
   1  -9 -11   66.04    6.35
   1  -9 -11   69.51    5.99
  -1   9  11   53.75    5.65
  -1   9  11   47.64    5.81
  -1   9  11   62.82    4.91
   0  -9 -11   35.14    4.38
   0  -9 -11   31.99    3.64
   0   9  11   34.50    4.19
   0   9  11   29.89    3.40
  -1  -9 -11   21.27    2.79
  -1  -9 -11   26.63    4.40
   1   9  11   22.17    3.97
   1   9  11   21.94    3.62
  -2  -9 -11    2.65    1.33
  -2  -9 -11    1.18    0.76
   2   9  11   -0.53    1.04
   2   9  11    0.39    1.17
  -3  -9 -11    3.01    1.52
  -3  -9 -11    0.06    0.63
   3   9  11    1.31    1.21
   3   9  11    0.53    0.79
  -4  -9 -11    0.29    1.15
   4   9  11    1.54    1.47
   5   9  11   20.54    4.06
   5   9  11   14.36    3.48
   6   9  11   11.74    3.17
   6   9  11   13.20    3.31
   7   9  11    7.93    2.85
   7   9  11    2.71    2.35
   8   9  11    2.61    2.10
   8   9  11    8.16    2.50
   5 -10 -11   12.90    4.75
   5 -10 -11   15.83    4.38
   4 -10 -11   30.65    5.56
   4 -10 -11   25.14    5.53
   3 -10 -11    6.49    2.82
   3 -10 -11   10.29    3.37
  -3  10  11   12.35    3.72
   2 -10 -11   35.39    4.91
   2 -10 -11   27.16    5.63
  -2  10  11   22.08    3.02
   1 -10 -11   17.32    3.94
   1 -10 -11   24.66    4.64
  -1  10  11   27.65    3.36
  -1  10  11   24.56    4.48
   0 -10 -11    1.17    1.65
   0 -10 -11    3.13    1.48
   0  10  11    5.81    1.90
   0  10  11    5.86    2.14
  -1 -10 -11    0.60    1.05
  -1 -10 -11   -1.93    0.76
   1  10  11    0.01    1.18
   1  10  11    0.94    1.24
   2  10  11    5.65    2.06
   2  10  11    5.79    2.09
  -3 -10 -11    5.13    1.98
  -3 -10 -11    4.38    1.12
  -3 -10 -11    5.87    2.52
   3  10  11    5.45    2.61
   3  10  11    7.74    2.77
   4  10  11   14.55    3.67
   4  10  11   18.38    3.93
   5  10  11   27.82    4.77
   5  10  11   24.81    4.54
   6  10  11    3.09    2.31
   6  10  11    7.97    2.71
   7  10  11    1.83    2.40
   7  10  11   10.75    3.29
   3 -11 -11   17.26    4.78
   3 -11 -11   24.32    5.56
   2 -11 -11   15.72    3.94
   2 -11 -11   15.85    4.36
  -2  11  11    7.71    2.20
   1 -11 -11    4.42    2.13
  -1  11  11   -1.53    1.34
  -1  11  11   -0.43    1.81
   0 -11 -11    0.98    1.68
   0 -11 -11    3.88    2.27
   0  11  11    2.72    1.72
   0  11  11    2.14    1.58
  -1 -11 -11   -0.22    1.32
  -1 -11 -11    3.34    1.90
   1  11  11    0.79    1.70
   1  11  11    1.38    1.68
  -2 -11 -11    3.23    1.61
   2  11  11    0.43    1.67
   2  11  11    4.60    1.82
  -3 -11 -11    9.43    2.72
   3  11  11   16.85    3.71
   3  11  11   10.87    3.48
  -4 -11 -11    2.48    2.21
   4  11  11    4.94    2.49
   4  11  11    6.48    2.46
   5  11  11    7.86    2.88
   5  11  11   10.63    2.45
   6  11  11    4.99    2.36
   6  11  11    4.06    2.41
   1 -12 -11    1.61    1.88
   1 -12 -11    1.12    2.33
  -1  12  11    0.34    2.00
   0 -12 -11    7.48    2.69
   0 -12 -11    4.76    2.18
   0  12  11   11.17    2.71
   0  12  11    4.88    2.41
  -1 -12 -11    4.28    2.17
  -1 -12 -11    4.96    2.34
   1  12  11    5.00    2.93
   1  12  11    4.76    2.55
  -2 -12 -11   12.87    2.87
  -2 -12 -11    2.29    2.49
   2  12  11   10.89    2.84
   2  12  11    5.53    2.73
  -3 -12 -11   11.58    3.32
   3  12  11   14.44    3.70
   3  12  11   17.91    4.24
  -4 -12 -11    7.73    3.84
   4  12  11   10.01    4.69
   4  12  11    5.36    2.44
   4   8 -12    7.20    2.92
   3   8 -12   17.00    4.06
  -3  -8  12    9.28    3.13
   2   8 -12    2.39    2.31
  -2  -8  12    0.11    1.93
   1   8 -12    2.15    1.92
  -1  -8  12    2.92    2.35
   0   8 -12   12.52    2.96
   0  -8  12    8.87    3.00
  -1   8 -12   18.93    3.63
   1  -8  12   20.67    4.62
   2  -8  12   21.83    4.46
   6   7 -12   18.28    4.85
   5   7 -12    8.14    3.03
   4   7 -12    5.69    2.59
  -4  -7  12    4.93    2.01
   3   7 -12    1.78    1.82
   2   7 -12   14.43    3.39
  -2  -7  12    7.89    2.62
   1   7 -12   48.83    4.79
  -1  -7  12   37.01    6.18
   0   7 -12   35.24    3.84
   0  -7  12   28.44    5.10
   1  -7  12   28.05    5.33
   2  -7  12   13.98    3.79
   3  -7  12   15.63    4.01
   4  -7  12   -3.12    1.75
   7   6 -12   11.70    4.04
   7   6 -12   -1.01    2.65
   6   6 -12    3.23    2.71
   6   6 -12   17.49    4.13
   5   6 -12    1.23    2.22
   5   6 -12    5.87    2.85
   4   6 -12    6.49    2.47
   3   6 -12    9.42    2.75
   2   6 -12   35.80    4.28
  -2  -6  12   34.74    4.46
   1   6 -12   32.62    3.96
  -1  -6  12   34.42    4.48
   0   6 -12   22.24    2.89
   0  -6  12   16.39    3.81
  -1   6 -12   18.25    2.38
   1  -6  12   17.04    3.77
  -2   6 -12   12.81    1.38
   2  -6  12   18.91    3.84
   3  -6  12   -3.82    1.32
   4  -6  12    3.86    2.19
   5  -6  12   22.96    4.23
   6  -6  12   19.11    4.23
   7   5 -12    2.24    2.57
   7   5 -12    1.39    2.51
   6   5 -12    0.21    1.47
   5   5 -12    7.36    2.53
   5   5 -12    9.40    2.98
  -5  -5  12    6.52    2.32
   4   5 -12   53.69    6.27
   4   5 -12   61.70    6.34
  -4  -5  12   58.44    5.27
   3   5 -12   24.89    5.01
   3   5 -12   33.21    4.16
  -3  -5  12   23.45    4.21
  -3  -5  12   20.44    3.42
   2   5 -12   55.59    5.59
  -2  -5  12   59.06    5.78
   1   5 -12   48.11    4.57
  -1  -5  12   38.52    4.64
   0   5 -12   11.36    2.44
   0  -5  12   10.34    2.65
  -1   5 -12    4.12    1.40
   1  -5  12    2.17    1.51
  -2   5 -12    0.30    0.59
  -2   5 -12    0.45    0.84
   2  -5  12    3.51    1.68
   3  -5  12    1.19    1.10
   4  -5  12   13.04    3.16
   5  -5  12    5.91    2.20
   6  -5  12   13.40    3.45
   7  -5  12    9.72    3.18
   8   4 -12    1.70    2.20
   8   4 -12   -0.29    1.94
   7   4 -12   -1.22    1.23
   7   4 -12   -0.34    1.85
   6   4 -12    6.77    3.02
   6   4 -12    7.76    2.82
  -6  -4  12    8.77    1.96
   5   4 -12   16.02    3.75
  -5  -4  12   12.32    2.68
   4   4 -12   47.39    5.44
  -4  -4  12   39.33    4.41
   3   4 -12   51.30    5.73
  -3  -4  12   38.91    4.41
  -3  -4  12   39.49    4.19
   2   4 -12   49.50    5.66
   2   4 -12   49.29    5.04
  -2  -4  12   52.10    4.96
  -2  -4  12   46.07    4.70
   1   4 -12   21.36    4.18
   1   4 -12   30.07    3.52
  -1  -4  12   35.98    3.89
   0   4 -12    2.81    1.43
   0  -4  12    1.20    1.13
  -1   4 -12    1.05    0.76
   1  -4  12    0.32    0.65
  -2   4 -12   68.35    3.83
  -2   4 -12   68.87    4.10
   2  -4  12   64.19    5.74
   3  -4  12   30.34    3.84
   4  -4  12   34.47    4.13
   5  -4  12   43.11    4.81
   6  -4  12    0.08    1.38
   7  -4  12   -2.31    1.22
   8  -4  12   -1.96    1.97
   9   3 -12    1.87    2.38
   8   3 -12    3.51    2.03
   7   3 -12   15.23    3.34
   6   3 -12   58.75    6.04
  -6  -3  12   49.19    4.34
   5   3 -12   85.65    7.23
  -5  -3  12   71.10    5.77
   4   3 -12   28.33    3.97
  -4  -3  12   26.74    3.71
   3   3 -12   21.82    4.03
  -3  -3  12   24.45    3.27
  -3  -3  12   27.01    3.32
   2   3 -12   10.35    2.89
  -2  -3  12    5.85    1.90
  -2  -3  12    3.57    1.61
   1   3 -12    1.86    1.25
  -1  -3  12    2.43    1.30
  -1  -3  12   -2.12    1.80
   0   3 -12   18.62    3.98
   0  -3  12   16.64    3.22
  -1   3 -12   47.96    3.82
   1  -3  12   56.34    4.86
  -2   3 -12   47.74    3.20
  -2   3 -12   50.79    3.67
   2  -3  12   55.83    4.93
   3  -3  12   72.97    5.91
   4  -3  12   12.16    2.82
   5  -3  12   55.78    5.33
   6  -3  12    3.10    1.42
   7  -3  12    0.44    1.17
   8  -3  12    0.74    1.75
   9   2 -12   -0.01    1.81
   8   2 -12   26.97    4.80
   7   2 -12   29.15    5.59
   6   2 -12   31.32    4.24
  -6  -2  12   27.43    3.79
   5   2 -12   38.95    4.53
   5   2 -12   27.31    3.52
  -5  -2  12   36.47    4.16
   4   2 -12   33.11    3.52
   4   2 -12   28.70    3.76
  -4  -2  12   41.62    3.95
  -4  -2  12   26.01    3.75
   3   2 -12    2.23    1.27
   3   2 -12    1.58    1.47
  -3  -2  12    4.17    1.55
  -3  -2  12    3.74    1.86
   2   2 -12   17.43    3.57
  -2  -2  12   16.59    3.05
  -2  -2  12   15.92    2.85
   1   2 -12   32.01    4.04
  -1  -2  12   41.15    3.82
  -1  -2  12   39.66    4.00
   0   2 -12  113.64    8.26
   0  -2  12  112.10    7.16
  -1   2 -12  106.46    5.77
  -1   2 -12   84.06    7.31
   1  -2  12  117.26    7.15
   2  -2  12   28.14    3.28
   2  -2  12   33.67    3.54
  -3   2 -12   47.11    2.33
   3  -2  12   57.72    4.86
   3  -2  12   54.66    4.53
   4  -2  12   10.29    2.39
   4  -2  12   13.22    2.59
   5  -2  12    0.69    0.92
   5  -2  12    0.98    1.17
   6  -2  12    3.46    1.24
   6  -2  12    5.91    2.10
   7  -2  12    8.08    2.41
   7  -2  12    3.80    1.63
   8  -2  12    4.31    1.95
   8  -2  12    4.13    1.59
   9  -2  12    5.74    2.44
   9  -2  12    1.43    1.71
   9   1 -12   38.29    5.27
   8   1 -12   14.05    3.13
   7   1 -12   34.51    3.10
   7   1 -12   18.13    5.92
  -7  -1  12   29.50    4.88
   6   1 -12   23.36    4.27
   6   1 -12   13.06    2.18
  -6  -1  12   12.82    3.00
   5   1 -12   23.68    4.26
   5   1 -12   16.35    2.51
  -5  -1  12   20.41    3.76
   4   1 -12   13.26    2.21
   4   1 -12    8.81    2.55
  -4  -1  12   10.56    2.29
  -4  -1  12   10.81    2.59
   3   1 -12   78.86    6.22
   3   1 -12   66.57    5.40
  -3  -1  12   58.48    5.16
   2   1 -12   34.78    3.92
   2   1 -12   33.29    3.20
  -2  -1  12   32.16    3.16
  -2  -1  12   36.58    3.71
   1   1 -12   14.95    2.53
   1   1 -12   17.05    3.51
  -1  -1  12   19.27    3.20
  -1  -1  12   17.02    2.18
   0   1 -12   73.49    5.36
   0   1 -12   86.28    6.63
   0  -1  12   78.40    5.79
   0  -1  12   72.53    5.70
   0  -1  12   88.52    5.68
  -1   1 -12   56.26    5.50
  -1   1 -12   49.74    5.03
  -1   1 -12   59.80    3.94
   1  -1  12   62.69    4.70
   1  -1  12   56.98    4.71
  -2   1 -12   22.16    2.94
  -2   1 -12   22.59    2.09
   2  -1  12   27.21    3.01
   2  -1  12   22.22    2.73
  -3   1 -12    4.69    0.91
   3  -1  12    3.71    1.34
   3  -1  12    5.71    1.71
   4  -1  12    2.15    1.14
   4  -1  12    2.74    1.37
   5  -1  12    8.12    2.06
   5  -1  12    9.15    2.29
   6  -1  12   33.36    4.11
   6  -1  12   37.08    3.71
   7  -1  12   10.78    2.33
   8  -1  12   16.10    3.37
   8  -1  12   12.80    2.67
   9  -1  12    6.90    2.36
   9  -1  12   14.31    2.67
   9   0 -12   13.84    3.35
   9   0 -12   11.60    2.73
   8   0 -12   15.55    3.16
   8   0 -12   10.24    3.09
   7   0 -12    2.89    0.87
   7   0 -12    2.53    1.61
   7   0 -12    5.36    1.84
   6   0 -12    0.63    0.95
   6   0 -12    1.36    0.84
   6   0 -12    4.10    1.64
   5   0 -12    1.23    0.90
   5   0 -12    4.05    1.59
   5   0 -12    3.12    1.61
  -5   0  12   -0.43    1.58
   4   0 -12    5.04    1.75
   4   0 -12    6.59    1.74
   4   0 -12    6.21    1.43
  -4   0  12    5.94    1.69
  -4   0  12    9.60    1.84
   3   0 -12  196.33    9.52
   3   0 -12  202.59   11.40
  -3   0  12  200.61    9.82
  -3   0  12  187.78   10.74
   2   0 -12   44.91    4.37
   2   0 -12   41.83    3.40
  -2   0  12   42.07    3.47
  -2   0  12   44.33    4.08
   1   0 -12   97.12    5.93
   1   0 -12  100.71    6.95
  -1   0  12   98.26    6.60
  -1   0  12   90.48    6.61
  -1   0  12   92.11    6.77
  -1   0  12   99.99    5.94
   0   0 -12  283.44   13.05
   0   0 -12  272.69   13.65
   0   0 -12  288.87   14.49
   0   0  12  282.28   14.02
   0   0  12  281.20   13.94
   0   0  12  279.27   14.10
   0   0  12  301.82   13.51
  -1   0 -12   61.80    5.21
  -1   0 -12   57.06    4.68
  -1   0 -12   59.82    4.66
  -1   0 -12   61.16    4.21
   1   0  12   63.64    4.68
   1   0  12   64.79    4.90
   1   0  12   61.55    4.99
   1   0  12   62.19    4.95
  -2   0 -12    0.50    0.99
  -2   0 -12    1.78    0.78
   2   0  12    1.37    0.90
   2   0  12    1.68    1.09
   2   0  12    1.67    0.88
  -3   0 -12    9.29    2.53
   3   0  12    7.36    1.93
   3   0  12    9.72    2.16
   3   0  12    7.07    1.77
  -4   0 -12    1.26    0.55
   4   0  12    1.23    0.91
   4   0  12    2.12    1.15
   4   0  12    0.22    1.11
   5   0  12   34.70    3.84
   5   0  12   29.68    4.08
   5   0  12   34.41    3.62
   6   0  12   23.91    3.24
   6   0  12   27.05    3.53
   7   0  12   38.98    4.46
   7   0  12   31.15    3.65
   8   0  12    7.13    2.14
   8   0  12    7.49    2.30
   9   0  12    7.38    2.11
   9   0  12    6.09    2.22
   9  -1 -12   14.85    2.67
   9  -1 -12   16.17    3.84
   8  -1 -12   16.49    3.32
   8  -1 -12   26.04    4.83
   7  -1 -12    0.80    1.04
   7  -1 -12    1.69    1.51
   6  -1 -12    0.41    1.47
   6  -1 -12    5.69    1.88
   5  -1 -12   18.01    3.50
   5  -1 -12   20.91    3.61
   4  -1 -12   86.22    4.68
   4  -1 -12   82.63    6.17
   4  -1 -12   85.93    6.64
  -4   1  12   81.93    4.77
  -4   1  12   75.57    6.35
   3  -1 -12   54.02    4.68
   3  -1 -12   51.00    3.51
   3  -1 -12   51.97    4.77
  -3   1  12   50.55    4.71
  -3   1  12   50.60    3.59
   2  -1 -12  100.93    5.70
   2  -1 -12  103.61    7.00
   2  -1 -12   93.12    6.65
  -2   1  12  103.61    5.67
  -2   1  12   96.20    6.68
  -2   1  12   93.55    6.72
   1  -1 -12    6.86    1.67
   1  -1 -12    3.81    1.48
   1  -1 -12    5.83    1.27
   1  -1 -12    7.07    1.84
  -1   1  12    6.89    1.82
  -1   1  12    6.27    1.40
  -1   1  12    2.88    1.22
  -1   1  12    7.19    1.98
   0  -1 -12  110.83    6.53
   0  -1 -12  125.15    7.52
   0  -1 -12  102.14    6.83
   0  -1 -12  106.24    6.46
   0   1  12  119.27    7.22
   0   1  12  116.42    6.51
   0   1  12  109.68    7.20
   0   1  12  111.28    7.10
  -1  -1 -12    3.49    1.23
  -1  -1 -12    3.67    1.57
  -1  -1 -12    1.98    1.61
   1   1  12    3.81    1.37
   1   1  12    1.94    1.02
   1   1  12    1.67    0.73
   1   1  12    1.49    1.41
  -2  -1 -12   23.20    3.11
  -2  -1 -12   33.79    2.89
  -2  -1 -12   35.10    3.64
   2   1  12   37.39    3.59
   2   1  12   35.23    3.39
   2   1  12   28.45    4.98
   2   1  12   38.28    3.46
  -3  -1 -12   22.36    4.99
  -3  -1 -12   17.29    2.03
   3   1  12   15.88    2.15
   3   1  12   17.77    2.99
   3   1  12   15.87    2.83
  -4  -1 -12   24.49    2.28
   4   1  12   26.46    3.13
   4   1  12   23.32    2.85
   4   1  12   24.70    3.00
   5   1  12   99.80    7.31
   5   1  12  119.74    7.38
   5   1  12  100.71    7.81
   6   1  12   29.23    3.42
   6   1  12   25.37    3.03
   6   1  12   33.41    3.83
   7   1  12   15.80    3.35
   7   1  12   14.46    3.00
   7   1  12    9.98    2.11
   8   1  12    1.44    1.33
   8   1  12    1.71    1.21
   9   1  12   -0.30    1.36
   9   1  12    1.85    1.57
  10   1  12    0.96    1.56
  10   1  12   -0.53    1.89
   9  -2 -12    4.77    2.62
   8  -2 -12    5.79    2.22
   8  -2 -12    5.88    2.68
   7  -2 -12   -0.49    1.13
   7  -2 -12    3.54    1.97
   6  -2 -12   36.08    4.04
   6  -2 -12   31.04    4.17
   5  -2 -12   70.50    6.18
   5  -2 -12   69.89    5.83
   4  -2 -12  205.46   11.19
   4  -2 -12  183.73   11.24
   3  -2 -12   29.19    3.43
   3  -2 -12   32.12    3.55
  -3   2  12   23.86    5.85
  -3   2  12   26.20    2.18
   2  -2 -12   82.73    6.82
   2  -2 -12   76.95    5.48
   2  -2 -12   73.95    5.77
   2  -2 -12   81.44    5.93
  -2   2  12   65.39    5.62
  -2   2  12   81.70    4.53
  -2   2  12   68.16    8.51
  -2   2  12   74.66    5.62
   1  -2 -12    2.06    0.99
   1  -2 -12    1.76    1.14
   1  -2 -12    1.30    0.92
   1  -2 -12    0.37    0.78
  -1   2  12   -0.47    1.22
  -1   2  12    1.42    0.91
  -1   2  12    0.97    0.55
  -1   2  12    1.28    1.05
   0  -2 -12   10.71    2.28
   0  -2 -12   11.75    2.12
   0  -2 -12   12.87    3.65
   0   2  12   10.83    2.32
   0   2  12   12.37    2.34
   0   2  12   17.03    3.07
   0   2  12   13.37    1.72
  -1  -2 -12   55.16    4.36
  -1  -2 -12   48.20    3.81
  -1  -2 -12   44.73    4.15
   1   2  12   57.50    4.69
   1   2  12   55.05    4.27
   1   2  12   45.37    4.11
   1   2  12   44.25    3.79
  -2  -2 -12  122.41    7.05
  -2  -2 -12  116.02    7.76
  -2  -2 -12  128.18    7.68
   2   2  12  136.99    7.88
   2   2  12  124.26    7.22
   2   2  12  133.89    8.27
   2   2  12  139.51    7.74
  -3  -2 -12   13.99    2.34
  -3  -2 -12   14.48    2.75
   3   2  12   12.16    2.49
   3   2  12   13.71    2.50
   3   2  12   14.72    1.98
  -4  -2 -12   96.29    6.00
   4   2  12   98.41    5.93
   4   2  12  109.01    6.96
   4   2  12   97.40    6.85
  -5  -2 -12   16.55    2.24
   5   2  12   15.14    3.11
   5   2  12   16.80    2.16
   5   2  12   17.55    3.08
   6   2  12   11.63    2.06
   6   2  12   10.79    2.63
   6   2  12   10.86    2.52
   6   2  12    9.93    1.68
   7   2  12    0.46    0.61
   7   2  12    0.02    0.79
   7   2  12    0.63    0.99
   7   2  12    1.22    0.98
   8   2  12    1.18    1.29
   8   2  12    1.71    1.45
   8   2  12    1.62    1.53
   9   2  12    4.20    2.20
   9   2  12    5.79    3.21
  10   2  12    5.90    2.14
  10   2  12    2.13    2.14
   9  -3 -12   -0.47    1.59
   9  -3 -12    0.37    1.88
   8  -3 -12   29.10    5.22
   8  -3 -12   28.55    5.06
   7  -3 -12   50.55    5.80
   7  -3 -12   57.10    5.43
   6  -3 -12   16.40    3.71
   6  -3 -12   15.65    3.06
   5  -3 -12   74.12    6.52
   5  -3 -12   78.64    6.35
   4  -3 -12   12.27    2.78
   4  -3 -12   16.47    3.14
   3  -3 -12   41.71    4.20
   3  -3 -12   45.45    4.39
   3  -3 -12   36.75    3.53
  -3   3  12   33.76    2.30
  -3   3  12   31.15    3.49
   2  -3 -12    0.47    0.79
   2  -3 -12   -1.14    0.90
   2  -3 -12    0.86    0.76
  -2   3  12    0.18    0.40
  -2   3  12    0.43    0.71
   1  -3 -12    0.06    0.50
   1  -3 -12    0.97    0.91
   1  -3 -12    0.83    0.77
  -1   3  12    0.94    0.72
  -1   3  12    0.71    0.73
  -1   3  12    0.16    1.04
  -1   3  12    0.88    0.51
   0  -3 -12   46.54    4.02
   0  -3 -12   49.10    4.65
   0  -3 -12   41.70    3.77
   0  -3 -12   48.80    4.23
   0   3  12   49.49    3.63
   0   3  12   48.71    4.21
   0   3  12   41.63    4.27
   0   3  12   46.14    4.09
  -1  -3 -12   83.26    5.65
  -1  -3 -12   86.02    6.17
  -1  -3 -12   86.03    5.67
   1   3  12   88.22    5.55
   1   3  12   97.60    6.21
   1   3  12   81.55    5.70
   1   3  12   79.23    6.11
  -2  -3 -12   46.88    3.94
  -2  -3 -12   39.65    4.97
  -2  -3 -12   47.64    3.92
   2   3  12   44.49    4.29
   2   3  12   51.82    4.41
   2   3  12   46.48    3.78
   2   3  12   46.28    3.95
  -3  -3 -12   50.77    4.33
  -3  -3 -12   54.35    4.34
   3   3  12   52.36    4.09
   3   3  12   64.37    4.96
   3   3  12   56.90    4.12
   3   3  12   56.71    4.67
  -4  -3 -12   58.70    4.83
   4   3  12   72.42    5.54
   4   3  12   65.28    5.25
   4   3  12   62.93    4.17
   4   3  12   60.50    4.40
  -5  -3 -12   -0.71    1.08
   5   3  12    0.44    0.92
   5   3  12    2.66    1.35
   5   3  12    1.40    0.90
   5   3  12    1.27    0.77
  -6  -3 -12    0.61    1.16
   6   3  12    0.01    0.68
   6   3  12    0.52    0.46
   6   3  12   -0.90    0.62
   6   3  12   -0.26    0.81
   7   3  12    3.12    1.41
   7   3  12   -0.25    1.39
   7   3  12    1.55    1.48
   8   3  12    4.83    1.38
   8   3  12    2.73    1.58
   8   3  12    5.43    2.02
   8   3  12    3.02    1.05
   9   3  12    4.39    1.42
   9   3  12    6.92    2.66
   9   3  12   10.72    3.05
  10   3  12   10.32    3.04
  10   3  12   12.57    2.91
   9  -4 -12    8.14    2.70
   9  -4 -12   10.19    3.50
   8  -4 -12   16.12    3.71
   8  -4 -12    9.34    2.77
   7  -4 -12   41.49    5.02
   7  -4 -12   45.50    5.40
   6  -4 -12   11.25    3.10
   6  -4 -12    8.01    2.55
   5  -4 -12   44.34    4.74
   5  -4 -12   37.60    4.43
   4  -4 -12    2.32    1.30
   4  -4 -12    1.79    1.08
   4  -4 -12    3.47    1.65
   3  -4 -12    1.50    1.02
   3  -4 -12    0.04    1.24
  -3   4  12    0.10    0.26
  -3   4  12   -0.17    0.64
   2  -4 -12   22.19    2.86
   2  -4 -12   31.06    3.65
   2  -4 -12   34.00    3.52
  -2   4  12   27.08    3.11
  -2   4  12   28.57    2.19
   1  -4 -12   62.51    5.31
   1  -4 -12   62.48    4.88
   1  -4 -12   55.54    4.75
  -1   4  12   59.99    4.68
  -1   4  12   57.67    3.82
   0  -4 -12   29.31    3.11
   0  -4 -12   29.16    3.35
   0  -4 -12   30.32    3.54
   0  -4 -12   25.84    3.12
   0   4  12   31.22    3.18
   0   4  12   25.41    2.98
   0   4  12   28.82    2.65
  -1  -4 -12   66.21    4.70
  -1  -4 -12   57.87    5.23
  -1  -4 -12   69.84    5.13
  -1  -4 -12   59.88    5.45
   1   4  12   59.90    4.64
   1   4  12   72.97    5.25
   1   4  12   61.68    9.73
   1   4  12   72.23    4.85
  -2  -4 -12   86.80    5.23
  -2  -4 -12   70.17    5.37
   2   4  12   83.64    5.82
   2   4  12   71.75    4.92
   2   4  12   73.84    5.33
   2   4  12   77.26    5.46
  -3  -4 -12   62.13    4.42
  -3  -4 -12   59.07    4.81
   3   4  12   71.16    5.23
   3   4  12   58.87    4.13
   3   4  12   59.05    4.58
   3   4  12   63.87    5.17
  -4  -4 -12    2.07    1.31
   4   4  12    1.25    0.72
   4   4  12    0.99    0.95
   4   4  12    1.39    0.97
   4   4  12    0.88    1.05
  -5  -4 -12    0.60    1.35
   5   4  12   -0.52    0.61
   5   4  12    1.03    0.81
   5   4  12    1.32    0.57
   5   4  12   -0.32    0.44
  -6  -4 -12    3.20    1.92
   6   4  12    1.07    1.11
   6   4  12    3.61    1.69
   6   4  12    1.39    1.15
   7   4  12   11.97    3.00
   7   4  12   18.96    2.54
   7   4  12   13.31    3.10
   8   4  12    5.03    1.54
   8   4  12    7.41    2.50
   9   4  12   10.51    2.13
   9   4  12   12.09    3.53
   9   4  12   13.10    3.48
  10   4  12    4.58    2.46
  10   4  12    5.10    1.76
  10   4  12    3.48    1.79
   8  -5 -12   12.57    3.61
   8  -5 -12   24.56    5.02
   7  -5 -12   20.37    3.81
   7  -5 -12   22.44    4.71
   6  -5 -12    6.45    2.38
   6  -5 -12    4.05    1.86
   5  -5 -12    4.01    2.02
   5  -5 -12    3.02    1.50
   5  -5 -12   -0.76    1.57
   4  -5 -12    9.37    2.15
   4  -5 -12    7.92    2.55
   4  -5 -12    9.92    2.80
   3  -5 -12   38.26    4.19
   3  -5 -12   31.72    3.82
   3  -5 -12   32.44    3.64
  -3   5  12   33.43    1.71
  -3   5  12   33.88    3.53
   2  -5 -12   26.15    3.07
   2  -5 -12   24.04    3.26
   2  -5 -12   26.14    3.29
  -2   5  12   27.16    3.14
  -2   5  12   25.89    2.03
   1  -5 -12   88.58    6.70
   1  -5 -12   80.66    5.92
   1  -5 -12   89.83    6.25
  -1   5  12   82.76    5.86
  -1   5  12   83.45    4.95
   0  -5 -12   95.82    6.93
   0  -5 -12   86.37    7.03
   0   5  12   91.21    6.14
   0   5  12   84.26    5.40
  -1  -5 -12   18.03    2.32
  -1  -5 -12   15.58    3.11
   1   5  12   22.76    2.76
   1   5  12   16.65    3.18
   1   5  12   18.97    3.14
  -2  -5 -12   34.22    3.86
  -2  -5 -12   35.64    3.06
   2   5  12   38.38    3.62
   2   5  12   38.52    3.77
   2   5  12   32.04    3.42
  -3  -5 -12    2.31    0.96
   3   5  12    4.43    1.59
   3   5  12    4.39    1.47
   3   5  12    0.84    0.92
   4   5  12   22.73    3.70
   4   5  12   26.66    3.09
   4   5  12   23.47    3.19
   5   5  12    6.12    1.96
   5   5  12    7.23    1.95
   5   5  12    7.11    2.12
   6   5  12   15.68    3.24
   6   5  12   17.03    3.49
   6   5  12   10.87    2.49
   7   5  12   39.56    4.86
   7   5  12   38.38    4.22
   7   5  12   39.71    6.93
   8   5  12   47.82    5.56
   8   5  12   39.65    4.90
   8   5  12   38.44    4.00
   9   5  12    1.64    1.93
   9   5  12    1.68    2.24
   9   5  12    3.29    1.55
  10   5  12   -1.88    1.81
  10   5  12    2.85    1.83
  10   5  12    6.14    2.72
   8  -6 -12   12.31    3.69
   8  -6 -12    6.90    3.43
   7  -6 -12    7.71    2.77
   7  -6 -12    7.59    2.87
   6  -6 -12   -0.25    1.13
   6  -6 -12    1.15    1.54
   5  -6 -12   11.72    3.28
   5  -6 -12    7.75    2.15
   5  -6 -12    9.45    2.97
   4  -6 -12   17.20    3.15
   4  -6 -12   21.12    4.18
   4  -6 -12   23.44    4.29
   3  -6 -12   56.94    4.72
   3  -6 -12   64.28    5.69
   3  -6 -12   70.18    6.08
  -3   6  12   63.13    4.93
  -3   6  12   55.83    2.43
  -3   6  12   46.65    2.63
   2  -6 -12   64.18    5.42
   2  -6 -12   74.49    5.96
   2  -6 -12   72.44    6.27
  -2   6  12   75.17    5.43
  -2   6  12   76.87    4.21
   1  -6 -12  101.97    7.39
   1  -6 -12   89.52    6.50
  -1   6  12   84.89    6.10
  -1   6  12   95.26    5.43
   0  -6 -12   43.19    4.48
   0  -6 -12   36.44    3.53
   0   6  12   35.64    3.65
   0   6  12   32.59    3.06
   0   6  12   30.13    3.50
  -1  -6 -12    4.12    1.29
  -1  -6 -12    6.12    1.98
   1   6  12    4.23    1.55
   1   6  12    6.73    1.79
  -2  -6 -12    0.37    0.79
  -2  -6 -12   -0.66    0.50
   2   6  12   -0.02    0.96
   2   6  12   -0.18    0.73
  -3  -6 -12    7.18    1.46
   3   6  12   10.13    2.29
   3   6  12   10.68    2.49
   4   6  12   16.30    3.11
   4   6  12   17.47    3.33
   5   6  12   25.11    4.38
   5   6  12   21.63    3.54
   6   6  12   17.47    3.53
   6   6  12   18.45    3.24
   7   6  12    2.42    1.54
   7   6  12    1.59    1.78
   7   6  12    3.88    2.11
   8   6  12    2.52    1.44
   8   6  12   -2.01    1.49
   8   6  12    3.46    1.61
   9   6  12    4.90    2.29
   9   6  12    5.57    2.52
   9   6  12    8.25    2.93
   7  -7 -12    7.58    2.94
   7  -7 -12    9.32    3.26
   6  -7 -12    8.82    2.93
   6  -7 -12    8.76    3.24
   5  -7 -12   22.34    4.94
   5  -7 -12   36.80    4.96
   5  -7 -12   35.86    4.92
   4  -7 -12   26.65    4.82
   4  -7 -12   26.48    4.64
   4  -7 -12   28.04    3.27
   3  -7 -12   44.29    4.80
   3  -7 -12   38.74    4.81
   3  -7 -12   37.07    3.79
  -3   7  12   39.07    3.79
  -3   7  12   38.02    1.93
  -3   7  12   29.48    1.93
   2  -7 -12   22.78    4.18
   2  -7 -12   21.74    3.81
  -2   7  12   29.25    3.06
  -2   7  12   26.33    2.28
  -2   7  12   20.95    2.15
   1  -7 -12    5.58    1.91
   1  -7 -12    3.73    1.59
  -1   7  12    7.35    1.86
   0  -7 -12    1.39    1.27
   0  -7 -12    3.75    1.38
   0   7  12    5.80    1.66
   0   7  12    3.38    1.43
  -1  -7 -12   -0.42    0.50
  -1  -7 -12    0.56    0.72
   1   7  12   -0.24    0.67
   1   7  12    0.55    0.67
  -2  -7 -12   15.71    1.97
  -2  -7 -12   16.85    3.54
   2   7  12   17.55    3.22
   2   7  12   16.76    3.22
  -3  -7 -12   22.69    2.16
  -3  -7 -12   17.84    3.59
   3   7  12   24.73    3.28
   3   7  12   22.52    3.75
   4   7  12   26.97    3.51
   4   7  12   31.87    3.86
   5   7  12   33.01    4.12
   5   7  12   30.10    3.58
   6   7  12    9.55    2.23
   7   7  12    3.80    2.19
   7   7  12    3.48    1.87
   8   7  12   -0.25    1.34
   8   7  12   -1.35    1.37
   9   7  12    0.78    2.02
   9   7  12   -1.65    1.72
   9   7  12    1.81    1.66
   7  -8 -12    4.80    2.89
   7  -8 -12   13.32    5.41
   6  -8 -12   40.49    5.56
   6  -8 -12   47.26    6.29
   5  -8 -12   16.73    3.90
   5  -8 -12   24.70    5.05
   4  -8 -12   22.89    4.42
   4  -8 -12   25.78    4.96
   3  -8 -12    9.74    2.63
  -3   8  12    8.17    2.21
  -3   8  12    7.89    0.96
  -3   8  12    8.66    1.15
   2  -8 -12    0.05    0.95
   2  -8 -12    2.10    1.18
  -2   8  12    1.88    0.81
  -2   8  12    2.65    1.27
  -2   8  12    1.44    1.20
   1  -8 -12    1.66    1.04
   1  -8 -12    1.17    1.10
  -1   8  12   -0.30    2.34
  -1   8  12    0.83    0.97
   0  -8 -12   10.52    2.86
   0  -8 -12    9.52    2.19
   0   8  12   11.14    2.47
   0   8  12    7.99    2.30
  -1  -8 -12    8.99    2.09
  -1  -8 -12    6.97    2.32
   1   8  12    5.41    1.85
   1   8  12    7.66    2.15
  -2  -8 -12   38.38    3.37
  -2  -8 -12   48.59    4.99
   2   8  12   41.55    4.66
   2   8  12   50.89    4.81
  -3  -8 -12   24.53    2.21
  -3  -8 -12   27.75    4.68
   3   8  12   30.40    3.83
   3   8  12   33.01    3.83
   4   8  12   14.68    3.12
   4   8  12    8.90    2.58
   5   8  12    7.23    2.01
   6   8  12   -0.31    1.19
   6   8  12    1.09    1.49
   7   8  12   -2.50    0.96
   7   8  12   -1.16    1.11
   8   8  12    2.84    2.22
   8   8  12    0.67    1.79
   6  -9 -12   31.55    5.90
   6  -9 -12   19.28    5.72
   5  -9 -12   21.60    4.74
   5  -9 -12   23.41    5.39
   4  -9 -12    5.18    2.59
   4  -9 -12    8.93    3.12
   3  -9 -12    5.10    2.44
   3  -9 -12    3.78    1.75
  -3   9  12    2.76    1.41
  -3   9  12    1.69    0.76
  -3   9  12    2.78    1.24
   2  -9 -12    3.03    1.49
   2  -9 -12    1.31    1.29
  -2   9  12   -1.06    0.83
  -2   9  12   -0.62    1.80
   1  -9 -12   15.91    3.19
   1  -9 -12   17.31    3.92
  -1   9  12   15.57    2.95
   0  -9 -12   17.24    3.21
   0  -9 -12   17.86    3.56
   0   9  12   18.98    3.23
   0   9  12   13.66    3.20
  -1  -9 -12   12.91    2.59
  -1  -9 -12   13.82    3.12
   1   9  12   15.52    3.33
   1   9  12   12.50    2.77
  -2  -9 -12   23.30    2.56
  -2  -9 -12   28.02    4.78
   2   9  12   21.40    3.97
   2   9  12   18.78    3.54
  -3  -9 -12   18.72    3.94
  -3  -9 -12   18.81    1.92
   3   9  12   21.87    4.01
   4   9  12    0.26    0.84
   5   9  12    4.67    1.86
   5   9  12    7.69    2.06
   6   9  12    0.40    1.58
   6   9  12   -1.72    1.14
   7   9  12    5.41    2.65
   7   9  12    4.25    2.18
   8   9  12    0.04    1.68
   8   9  12    3.06    2.24
   5 -10 -12    5.23    2.59
   5 -10 -12   -3.09    3.94
   4 -10 -12   -2.12    1.55
   4 -10 -12   -0.79    1.75
   3 -10 -12   10.21    3.48
   3 -10 -12    7.70    3.32
  -3  10  12   10.11    2.43
   2 -10 -12    0.54    1.77
   2 -10 -12    1.99    2.11
  -2  10  12    0.93    1.35
   1 -10 -12   16.76    3.23
   1 -10 -12   24.31    4.97
  -1  10  12   20.37    3.19
   0 -10 -12   26.87    3.73
   0 -10 -12   24.45    4.67
   0  10  12   20.50    4.29
   0  10  12   32.70    3.78
  -1 -10 -12   21.85    4.48
  -1 -10 -12   27.18    4.12
   1  10  12   23.30    3.91
   1  10  12   22.49    4.26
  -2 -10 -12    8.66    2.36
  -2 -10 -12    5.36    2.22
   2  10  12    6.07    2.33
   2  10  12    8.21    2.53
  -3 -10 -12   -0.77    0.78
  -3 -10 -12    2.29    1.73
   3  10  12    0.30    1.46
   3  10  12    1.11    1.19
   4  10  12    5.69    2.26
   4  10  12    3.69    1.54
   5  10  12    0.57    2.03
   5  10  12    4.02    1.92
   6  10  12   -1.19    1.53
   6  10  12    1.38    1.41
   7  10  12   12.02    3.19
   7  10  12   10.45    3.52
   3 -11 -12   14.07    3.82
   3 -11 -12   21.35    4.96
   2 -11 -12   18.26    4.25
   2 -11 -12   13.17    3.57
  -2  11  12   13.02    2.69
   1 -11 -12   12.01    3.32
   1 -11 -12    6.50    2.76
  -1  11  12    8.41    2.36
   0 -11 -12   18.82    3.77
   0 -11 -12    8.21    2.97
   0  11  12   16.89    3.81
   0  11  12   15.23    3.09
  -1 -11 -12    3.48    1.66
  -1 -11 -12    9.94    2.97
   1  11  12    1.00    2.27
  -2 -11 -12   -0.46    1.37
   2  11  12    0.19    1.56
   2  11  12   -1.18    1.00
  -3 -11 -12   -2.28    3.00
   3  11  12    0.07    1.59
   3  11  12    0.01    1.50
   4  11  12    0.67    1.73
   4  11  12    2.86    1.83
   5  11  12    1.68    1.93
   5  11  12    2.77    2.29
   0 -12 -12   -0.27    2.18
   0  12  12    2.49    1.84
   0  12  12    1.80    2.86
  -1 -12 -12   -4.20    1.61
  -1 -12 -12    0.00    1.92
   1  12  12    0.22    1.85
   1  12  12    1.39    1.70
  -2 -12 -12    6.59    3.31
   2  12  12    1.18    2.05
   2  12  12   -2.00    2.03
   3  12  12    6.83    2.63
   3  12  12    5.21    2.04
   2   8 -13   10.28    3.14
   1   8 -13   10.13    2.95
  -1  -8  13    3.66    2.46
   0   8 -13    5.94    2.40
   0  -8  13    1.19    2.08
   1  -8  13   -4.06    2.56
   5   7 -13   16.74    4.36
   4   7 -13   39.06    6.20
   3   7 -13   25.88    4.80
   2   7 -13   10.54    2.91
  -2  -7  13    8.19    2.93
   1   7 -13    2.52    1.69
  -1  -7  13    0.98    1.65
   0   7 -13    9.60    2.49
   0  -7  13   10.44    3.00
   1  -7  13   25.11    5.20
   2  -7  13   20.61    4.92
   3  -7  13   18.58    4.25
   4  -7  13   16.53    3.68
   6   6 -13   10.43    3.85
   6   6 -13   22.81    5.38
   5   6 -13   20.64    4.74
   5   6 -13   32.44    5.57
   4   6 -13    9.43    2.97
   3   6 -13    8.14    2.84
   2   6 -13   -0.36    1.23
  -2  -6  13    1.59    1.78
   1   6 -13    1.73    1.54
  -1  -6  13    5.89    1.94
   0   6 -13   14.01    2.74
   0  -6  13   12.96    3.08
  -1   6 -13   14.85    2.59
   1  -6  13   21.18    4.42
   2  -6  13   41.94    5.14
   3  -6  13   24.76    4.66
   4  -6  13   11.04    3.16
   5  -6  13   -1.85    1.60
   7   5 -13   10.85    3.85
   7   5 -13   15.12    3.88
   6   5 -13   20.72    4.60
   6   5 -13   31.64    5.44
   5   5 -13   15.11    3.93
   5   5 -13   13.78    3.54
   4   5 -13    6.32    2.82
   3   5 -13    8.78    2.55
   3   5 -13    8.80    2.96
  -3  -5  13    8.57    2.52
   2   5 -13   17.06    3.49
  -2  -5  13   13.14    3.33
   1   5 -13   57.79    5.24
  -1  -5  13   57.54    5.71
   0   5 -13   34.33    3.79
   0  -5  13   35.79    4.45
  -1   5 -13   40.93    3.59
  -2   5 -13   18.14    1.98
  -2   5 -13   15.48    1.59
   2  -5  13   19.77    3.97
   3  -5  13   11.29    2.84
   5  -5  13   -1.72    1.47
   6  -5  13    1.11    1.87
   8   4 -13   22.57    5.29
   8   4 -13   20.91    5.44
   7   4 -13    5.33    2.63
   7   4 -13    2.82    2.52
   6   4 -13   15.95    3.94
   6   4 -13   17.24    3.99
  -5  -4  13    4.55    3.11
   4   4 -13    4.40    1.98
  -4  -4  13    3.53    2.75
   3   4 -13   17.23    4.05
  -3  -4  13   10.47    2.62
   2   4 -13   29.28    3.91
   2   4 -13   32.36    4.50
  -2  -4  13   27.88    4.60
   1   4 -13   48.35    5.92
   1   4 -13   57.68    5.11
  -1  -4  13   52.13    5.20
   0   4 -13   81.86    5.99
   0  -4  13   85.36    6.88
  -1   4 -13   11.96    2.19
   1  -4  13   11.17    2.80
  -2   4 -13    6.75    1.20
  -2   4 -13    4.21    1.59
   2  -4  13    4.45    1.88
   3  -4  13    0.44    0.90
   4  -4  13    3.47    1.74
   5  -4  13   17.19    3.90
   6  -4  13    8.10    2.92
   7  -4  13    8.50    2.91
   8   3 -13    8.52    3.12
   7   3 -13    2.97    2.31
   6   3 -13    1.33    1.53
   5   3 -13   12.02    3.60
   4   3 -13   24.77    4.43
  -4  -3  13   32.08    4.19
  -4  -3  13   29.99    3.78
   3   3 -13   53.37    5.65
  -3  -3  13   51.94    4.98
  -3  -3  13   51.25    5.09
   2   3 -13   71.58    6.73
  -2  -3  13   66.55    5.65
   1   3 -13   25.03    4.63
  -1  -3  13   24.13    3.16
   0   3 -13   21.78    4.28
   0  -3  13   27.00    3.38
  -1   3 -13    0.48    0.67
   1  -3  13    0.91    0.76
  -2   3 -13    7.22    1.58
  -2   3 -13    4.46    1.10
   2  -3  13    4.89    1.86
   3  -3  13   19.72    3.66
   4  -3  13   57.56    5.52
   5  -3  13   13.43    3.18
   6  -3  13   46.46    5.09
   7  -3  13    5.21    1.87
   8  -3  13    4.93    2.39
   8   2 -13    2.57    1.88
   7   2 -13    7.65    2.35
  -6  -2  13   26.90    4.53
   5   2 -13   32.48    4.25
  -5  -2  13   19.88    3.87
   4   2 -13   59.46    5.75
  -4  -2  13   42.21    4.37
  -4  -2  13   53.23    5.15
   3   2 -13  101.84    7.87
  -3  -2  13   95.59    6.86
  -3  -2  13   96.15    6.96
   2   2 -13   31.41    5.17
  -2  -2  13   23.09    3.65
   1   2 -13   36.73    4.47
  -1  -2  13   32.53    3.57
   0   2 -13    2.10    1.41
   0  -2  13   -1.19    0.77
  -1   2 -13    0.31    0.86
  -1   2 -13    0.36    1.22
   1  -2  13    1.49    0.98
  -2   2 -13   46.42    3.14
   2  -2  13   44.49    4.32
   2  -2  13   43.61    4.22
  -3   2 -13   18.51    1.41
  -3   2 -13   25.78    1.74
   3  -2  13   25.00    3.07
   3  -2  13   24.97    3.14
   4  -2  13   40.99    4.22
   4  -2  13   44.82    4.56
   5  -2  13   21.43    3.79
   5  -2  13   24.17    3.17
   6  -2  13   13.98    2.75
   6  -2  13   16.67    3.44
   7  -2  13    5.55    2.17
   7  -2  13    5.87    1.89
   8  -2  13    2.44    1.64
   8  -2  13    6.77    2.76
   9   1 -13   -2.53    1.83
   8   1 -13    1.12    1.68
   7   1 -13   32.06    4.34
   6   1 -13   28.83    4.05
   5   1 -13   39.95    4.75
   5   1 -13   49.37    3.80
  -5  -1  13   42.54    5.20
   4   1 -13   33.85    3.43
   4   1 -13   47.28    4.83
  -4  -1  13   28.15    4.06
  -4  -1  13   38.89    3.72
   3   1 -13   29.60    3.72
   3   1 -13   26.37    2.92
  -3  -1  13   25.22    3.81
  -3  -1  13   25.23    2.98
   2   1 -13   -0.01    1.16
   2   1 -13    1.85    1.07
  -2  -1  13    1.16    0.91
  -2  -1  13   -0.34    1.50
   1   1 -13   30.82    5.02
  -1  -1  13   33.06    3.36
   0   1 -13   11.68    2.02
   0   1 -13    7.89    2.22
   0  -1  13   14.34    2.64
  -1   1 -13   43.27    3.29
  -1   1 -13   31.48    3.99
   1  -1  13   44.92    4.02
   1  -1  13   38.80    3.93
  -2   1 -13   74.25    4.50
   2  -1  13   69.86    5.61
   2  -1  13   78.46    5.72
  -3   1 -13   50.74    3.27
   3  -1  13   54.44    4.72
   3  -1  13   58.30    4.92
   4  -1  13    7.94    2.17
   4  -1  13   14.61    2.81
   5  -1  13   36.50    3.76
   5  -1  13   30.07    3.70
   6  -1  13    0.67    1.12
   6  -1  13    2.28    1.22
   7  -1  13   -0.22    1.16
   7  -1  13    4.81    2.03
   8  -1  13    3.74    1.96
   8  -1  13   -0.39    1.29
   9  -1  13   -0.15    1.58
   9  -1  13    0.85    1.59
   9   0 -13    8.08    2.94
   8   0 -13   14.51    3.86
   7   0 -13   18.05    3.97
   7   0 -13   22.49    3.02
   7   0 -13   24.13    2.22
   6   0 -13   30.41    4.18
   6   0 -13   21.95    3.07
   6   0 -13   18.75    2.16
   5   0 -13   24.35    2.51
   5   0 -13   27.52    3.82
   4   0 -13   25.59    2.65
   4   0 -13   29.53    3.72
  -4   0  13   28.15    2.86
   3   0 -13    4.39    1.72
   3   0 -13    6.30    1.54
  -3   0  13    3.86    1.30
  -3   0  13    2.91    2.01
   2   0 -13    1.94    0.96
  -2   0  13    2.50    1.40
  -2   0  13    1.54    1.80
   1   0 -13   63.22    4.71
   1   0 -13   61.39    4.73
   1   0 -13   62.62    5.50
  -1   0  13   61.35    5.24
  -1   0  13   68.51    4.74
   0   0 -13    2.52    1.46
   0   0 -13    7.86    2.21
   0   0 -13    7.21    1.75
   0   0  13    5.50    1.54
   0   0  13    5.84    1.75
  -1   0 -13  130.03    8.74
  -1   0 -13  131.47    7.32
   1   0  13  143.48    8.04
   1   0  13  135.37    8.33
  -2   0 -13   72.46    6.19
  -2   0 -13   74.46    4.72
   2   0  13   78.62    5.81
   2   0  13   82.14    5.73
  -3   0 -13    6.82    1.44
   3   0  13    9.44    2.20
   3   0  13   10.11    2.11
  -4   0 -13    4.78    0.99
   4   0  13    4.80    1.58
   4   0  13    6.52    1.94
   5   0  13    0.20    0.86
   5   0  13   -0.25    0.95
   6   0  13    3.23    1.84
   6   0  13    4.44    1.87
   7   0  13   15.28    2.85
   7   0  13   14.71    3.33
   8   0  13   12.09    3.15
   8   0  13   16.27    3.13
   9   0  13   19.33    3.95
   9   0  13   17.70    3.47
   9  -1 -13    5.90    2.32
   9  -1 -13   11.22    3.36
   8  -1 -13   56.66    5.20
   8  -1 -13   54.89    6.23
   7  -1 -13   47.83    4.86
   7  -1 -13   55.13    5.90
   6  -1 -13    3.43    1.71
   6  -1 -13    3.82    1.62
   5  -1 -13    0.76    0.59
   5  -1 -13    1.55    1.32
   4  -1 -13    1.44    0.70
   4  -1 -13    1.35    1.13
   4  -1 -13    0.59    1.03
  -4   1  13    2.16    0.77
   3  -1 -13   10.16    2.67
   3  -1 -13    7.08    2.07
   3  -1 -13    8.80    1.57
  -3   1  13    9.34    1.78
   2  -1 -13   61.72    5.46
   2  -1 -13   64.52    4.43
  -2   1  13   68.18    4.46
   1  -1 -13   71.63    5.34
   1  -1 -13   75.56    5.09
   1  -1 -13   81.32    6.15
  -1   1  13   71.84    5.68
  -1   1  13   82.19    5.04
   0  -1 -13   55.59    4.88
   0   1  13   54.49    4.73
   0   1  13   52.48    4.52
   0   1  13   55.70    4.20
  -1  -1 -13  158.99    8.40
  -1  -1 -13  160.11    9.52
   1   1  13  163.06    9.28
   1   1  13  152.51    8.94
   1   1  13  164.23    8.80
  -2  -1 -13   28.10    2.93
  -2  -1 -13   34.36    3.82
   2   1  13   37.55    3.57
   2   1  13   33.42    3.51
   2   1  13   37.19    3.57
  -3  -1 -13   -0.32    0.78
   3   1  13    0.62    0.83
   3   1  13    1.77    1.10
   3   1  13    0.14    0.63
  -4  -1 -13    5.40    1.45
   4   1  13    7.94    1.68
   4   1  13    4.87    1.67
   4   1  13    7.95    2.02
   5   1  13    6.98    2.04
   5   1  13    7.27    2.25
   5   1  13    7.94    2.16
   6   1  13   14.59    3.41
   6   1  13   14.85    2.78
   6   1  13   12.70    2.45
   7   1  13   20.71    3.51
   8   1  13    4.52    1.90
   8   1  13    5.24    1.99
   9   1  13    5.07    2.40
   9   1  13    2.83    1.94
   9  -2 -13   17.11    4.01
   9  -2 -13   17.73    3.66
   8  -2 -13   20.22    3.78
   8  -2 -13   29.99    5.27
   7  -2 -13    6.22    2.19
   7  -2 -13    0.55    1.44
   6  -2 -13    3.73    1.54
   6  -2 -13    2.10    1.22
   5  -2 -13    2.98    1.41
   5  -2 -13    6.82    2.16
   4  -2 -13   13.61    2.99
   4  -2 -13   17.77    3.63
   3  -2 -13   78.57    6.25
   3  -2 -13   82.27    6.46
  -3   2  13   75.77    4.58
   2  -2 -13  131.85    8.21
   2  -2 -13  116.42    7.99
  -2   2  13  109.05    7.54
  -2   2  13  122.45    6.40
   1  -2 -13   33.68    3.38
   1  -2 -13   39.96    4.14
   1  -2 -13   39.40    3.93
  -1   2  13   39.08    3.80
  -1   2  13   34.13    2.94
   0  -2 -13   18.60    3.30
   0  -2 -13   14.51    2.55
   0   2  13   14.92    2.70
   0   2  13   15.68    1.95
   0   2  13   10.60    2.35
  -1  -2 -13   10.87    2.41
  -1  -2 -13    7.35    1.82
   1   2  13   10.67    2.19
   1   2  13    8.33    1.91
   1   2  13   11.13    2.53
  -2  -2 -13    9.13    1.88
  -2  -2 -13    5.19    1.80
   2   2  13    6.35    1.75
   2   2  13    7.91    1.77
   2   2  13    8.13    2.01
  -3  -2 -13   25.06    3.97
  -3  -2 -13   24.81    2.87
   3   2  13   26.29    2.83
   3   2  13   23.84    3.00
   3   2  13   25.60    3.12
  -4  -2 -13   16.59    2.69
   4   2  13   12.95    2.72
   4   2  13   13.20    2.42
   4   2  13   10.90    2.50
  -5  -2 -13   16.79    2.64
   5   2  13   17.97    2.35
   5   2  13   21.31    3.54
   5   2  13   18.77    3.43
   6   2  13   46.14    3.97
   6   2  13   53.68    4.99
   6   2  13   53.15    5.15
   7   2  13   22.84    4.10
   7   2  13   19.16    3.60
   7   2  13   16.50    2.73
   8   2  13    4.42    1.81
   8   2  13    1.41    1.59
   9   2  13    5.20    2.00
   9   2  13   -0.70    1.48
  10   2  13    3.97    2.13
  10   2  13    2.12    1.81
   9  -3 -13    1.75    2.45
   9  -3 -13    5.19    2.33
   8  -3 -13    4.48    2.48
   8  -3 -13    3.12    2.00
   7  -3 -13    9.63    2.81
   7  -3 -13    4.31    2.33
   6  -3 -13   23.32    4.27
   6  -3 -13   24.33    5.26
   5  -3 -13   11.80    3.05
   5  -3 -13    6.63    2.19
   4  -3 -13   95.07    7.26
   4  -3 -13   95.56    7.35
   3  -3 -13  136.01    8.89
   3  -3 -13  134.54    8.82
  -3   3  13  128.04    6.26
   2  -3 -13   36.58    4.19
   2  -3 -13   41.08    4.26
  -2   3  13   45.59    3.07
  -2   3  13   45.73    4.21
   1  -3 -13    7.30    1.90
   1  -3 -13   10.14    2.47
  -1   3  13   11.24    1.86
  -1   3  13   10.87    2.42
  -1   3  13   11.78    2.97
   0  -3 -13   18.58    3.42
   0  -3 -13   19.93    2.61
   0  -3 -13   14.13    2.77
   0   3  13   19.24    3.15
   0   3  13   19.61    2.24
   0   3  13   20.35    3.36
  -1  -3 -13   36.64    3.36
  -1  -3 -13   33.23    3.93
   1   3  13   36.42    3.34
   1   3  13   32.42    3.57
   1   3  13   35.71    3.56
  -2  -3 -13    8.25    2.19
  -2  -3 -13    6.39    1.93
   2   3  13    5.93    1.80
   2   3  13    5.40    1.61
   2   3  13    4.34    1.45
  -3  -3 -13   55.69    4.82
  -3  -3 -13   66.78    5.16
   3   3  13   70.40    4.80
   3   3  13   71.08    5.43
   3   3  13   73.87    5.59
  -4  -3 -13   31.32    3.53
   4   3  13   34.81    3.75
   4   3  13   34.61    3.10
   4   3  13   36.07    3.23
   4   3  13   29.14    3.63
  -5  -3 -13    3.46    1.47
   5   3  13    6.58    1.98
   5   3  13    5.51    1.52
   5   3  13    6.76    1.95
   5   3  13    3.72    1.15
  -6  -3 -13    9.91    2.70
   6   3  13   16.48    3.56
   6   3  13   19.24    2.14
   6   3  13   18.51    3.40
   6   3  13   18.59    3.68
   7   3  13   -0.69    1.05
   7   3  13    4.24    1.29
   7   3  13   -0.38    1.40
   8   3  13    5.64    2.03
   8   3  13    5.60    2.88
   8   3  13    0.47    1.46
   9   3  13   -1.00    1.05
   9   3  13    2.47    1.65
  10   3  13    3.08    1.88
  10   3  13    0.67    1.88
   8  -4 -13    8.08    2.59
   8  -4 -13    2.01    2.24
   7  -4 -13    4.97    1.81
   7  -4 -13    4.74    2.29
   6  -4 -13   50.11    5.63
   6  -4 -13   51.89    5.43
   5  -4 -13    9.65    2.72
   5  -4 -13    6.85    2.28
   4  -4 -13   62.04    5.80
   4  -4 -13   64.62    6.04
   3  -4 -13   49.58    4.96
   3  -4 -13   44.99    4.61
  -3   4  13   43.16    2.55
  -3   4  13   37.88    4.11
   2  -4 -13    0.54    0.71
   2  -4 -13   -0.47    0.65
  -2   4  13    0.47    0.52
  -2   4  13   -0.41    0.68
   1  -4 -13    5.08    1.69
   1  -4 -13    5.08    1.76
  -1   4  13    3.18    1.31
  -1   4  13    2.36    0.88
   0  -4 -13    1.11    0.95
   0  -4 -13   -0.43    0.61
   0   4  13    0.28    0.52
   0   4  13    0.57    0.80
   0   4  13    0.03    0.88
  -1  -4 -13   17.44    3.58
  -1  -4 -13   18.42    2.41
  -1  -4 -13   16.01    3.61
   1   4  13   23.25    2.57
   1   4  13   16.09    2.83
   1   4  13   22.23    2.75
  -2  -4 -13   37.77    3.87
  -2  -4 -13   41.54    3.62
   2   4  13   43.92    3.88
   2   4  13   40.71    3.58
   2   4  13   44.46    4.15
  -3  -4 -13   29.05    3.15
  -3  -4 -13   33.72    3.63
   3   4  13   34.93    3.13
   3   4  13   37.75    3.57
   3   4  13   34.42    3.60
   3   4  13   39.28    4.05
  -4  -4 -13   43.15    4.36
   4   4  13   45.34    4.42
   4   4  13   41.11    3.74
   4   4  13   41.43    3.38
   4   4  13   48.82    4.59
  -5  -4 -13   19.36    3.69
   5   4  13   28.21    2.86
   5   4  13   33.06    3.68
   5   4  13   25.84    3.40
   5   4  13   26.59    3.02
   6   4  13    3.20    1.29
   6   4  13    2.26    1.52
   6   4  13    4.94    1.79
   6   4  13    3.63    0.90
   7   4  13    2.94    1.54
   7   4  13   -0.15    0.98
   7   4  13    1.03    1.30
   8   4  13   -1.40    1.11
   8   4  13    0.41    1.21
   8   4  13    0.10    1.37
   9   4  13    8.05    2.70
   9   4  13    5.93    2.16
   9   4  13    2.26    1.54
   8  -5 -13   15.50    3.90
   8  -5 -13   17.28    4.28
   7  -5 -13   26.11    4.75
   7  -5 -13   19.25    4.19
   6  -5 -13   54.73    7.21
   6  -5 -13   42.55    5.19
   5  -5 -13   45.94    4.99
   5  -5 -13   49.44    5.37
   4  -5 -13   13.04    2.83
   4  -5 -13   12.03    3.08
   3  -5 -13    8.07    2.22
   3  -5 -13    9.12    2.54
  -3   5  13    7.77    2.17
  -3   5  13    6.67    0.75
   2  -5 -13   17.21    3.28
   2  -5 -13   16.94    3.15
  -2   5  13   18.84    3.27
  -2   5  13   16.15    1.71
   1  -5 -13    3.63    1.41
   1  -5 -13    2.20    1.42
  -1   5  13    1.09    1.06
   0  -5 -13   39.49    4.43
   0  -5 -13   42.78    3.95
   0   5  13   43.61    4.19
   0   5  13   40.50    3.47
  -1  -5 -13   36.21    3.41
  -1  -5 -13   29.30    3.77
   1   5  13   36.41    3.38
   1   5  13   29.45    3.38
  -2  -5 -13   36.39    3.39
  -2  -5 -13   36.39    4.17
   2   5  13   41.46    3.95
   2   5  13   40.51    4.06
   2   5  13   42.11    3.90
  -3  -5 -13   14.87    2.07
   3   5  13   11.79    2.54
   3   5  13   12.46    2.64
   3   5  13   15.86    2.95
   4   5  13   10.03    2.35
   4   5  13    5.92    1.83
   4   5  13    5.70    1.81
   5   5  13    2.75    1.34
   5   5  13    5.38    1.71
   5   5  13    1.92    1.14
   6   5  13    0.48    0.90
   6   5  13    1.83    1.26
   6   5  13   -0.42    0.79
   7   5  13    0.85    1.10
   7   5  13    2.91    1.87
   7   5  13   -0.43    1.58
   8   5  13    5.37    2.10
   8   5  13    9.61    2.33
   8   5  13    7.78    2.91
   9   5  13    8.36    2.82
   9   5  13    8.50    2.20
   9   5  13    8.85    3.11
   8  -6 -13    9.30    3.58
   8  -6 -13   14.05    4.85
   7  -6 -13   25.71    4.69
   7  -6 -13   32.31    6.24
   6  -6 -13   29.09    5.25
   6  -6 -13   24.39    4.77
   5  -6 -13   -0.19    1.15
   5  -6 -13    3.19    2.67
   4  -6 -13    0.11    1.14
   4  -6 -13    3.45    1.51
   3  -6 -13    0.15    1.17
   3  -6 -13    4.06    1.74
  -3   6  13    0.55    0.93
   2  -6 -13   25.56    4.39
   2  -6 -13   30.31    3.74
  -2   6  13   25.87    3.24
  -2   6  13   24.18    2.16
   1  -6 -13   71.43    6.20
   1  -6 -13   68.81    5.60
  -1   6  13   61.26    5.11
  -1   6  13   60.39    4.25
   0  -6 -13   93.12    7.38
   0  -6 -13   99.43    6.62
   0   6  13   94.58    6.62
  -1  -6 -13   70.78    6.19
  -1  -6 -13   80.34    6.62
   1   6  13   74.17    5.36
   1   6  13   80.00    5.98
   1   6  13   69.82    5.86
  -2  -6 -13   20.51    2.38
  -2  -6 -13   19.99    3.73
   2   6  13   17.08    2.92
   2   6  13   21.05    3.53
   2   6  13   21.89    2.98
  -3  -6 -13   15.95    1.95
   3   6  13   10.01    2.46
   3   6  13   11.78    2.57
   3   6  13   13.17    2.85
   4   6  13    4.64    1.70
   4   6  13    2.98    1.43
   4   6  13    3.91    1.61
   5   6  13    5.38    1.89
   5   6  13    9.28    2.24
   5   6  13    2.65    1.48
   6   6  13    4.78    1.92
   6   6  13    4.30    1.99
   6   6  13    5.38    1.86
   7   6  13    8.71    2.42
   7   6  13    2.13    1.37
   7   6  13    3.70    2.06
   8   6  13   13.91    3.61
   8   6  13   17.15    3.99
   8   6  13   13.31    2.96
   9   6  13    1.93    1.79
   9   6  13    0.58    1.72
   9   6  13    5.32    2.60
   7  -7 -13    2.59    2.29
   7  -7 -13    8.11    3.14
   6  -7 -13    9.31    3.13
   6  -7 -13    2.78    2.26
   5  -7 -13   -0.89    1.54
   5  -7 -13   -2.31    0.92
   4  -7 -13    6.78    2.97
   4  -7 -13    8.43    2.90
   3  -7 -13    8.21    2.53
   3  -7 -13   12.11    3.35
  -3   7  13    8.62    2.31
   2  -7 -13   46.17    4.61
   2  -7 -13   41.19    4.73
  -2   7  13   40.73    2.96
  -2   7  13   37.94    2.98
  -2   7  13   39.31    3.95
   1  -7 -13   77.63    6.12
   1  -7 -13   70.49    6.43
  -1   7  13   73.34    4.83
  -1   7  13   67.58    5.51
   0  -7 -13   12.45    3.18
   0  -7 -13   10.74    2.36
   0   7  13   11.92    2.51
   0   7  13    8.91    1.99
  -1  -7 -13   -1.36    0.87
  -1  -7 -13    0.23    0.56
   1   7  13   -0.89    0.76
   1   7  13    0.12    0.82
  -2  -7 -13    0.76    1.02
  -2  -7 -13   -0.20    0.64
   2   7  13   -0.88    0.63
   2   7  13   -0.05    0.71
  -3  -7 -13    0.04    0.64
  -3  -7 -13    2.04    1.50
   3   7  13    1.01    1.15
   4   7  13   14.37    3.15
   4   7  13    9.31    2.46
   5   7  13   17.62    3.39
   5   7  13   21.53    4.10
   6   7  13    0.04    1.39
   6   7  13    5.73    1.92
   7   7  13   12.40    3.12
   7   7  13    5.39    2.27
   7   7  13    9.34    3.04
   8   7  13    2.96    2.22
   8   7  13    3.07    1.89
   8   7  13    3.62    2.01
   9   7  13    8.11    3.38
   9   7  13    4.94    2.13
   9   7  13    4.20    2.18
   6  -8 -13    6.52    2.88
   6  -8 -13    6.26    2.73
   5  -8 -13    7.55    2.85
   5  -8 -13    7.64    3.18
   4  -8 -13   51.48    6.29
   4  -8 -13   55.81    6.19
   3  -8 -13   40.47    4.99
   3  -8 -13   36.03    4.78
  -3   8  13   36.01    3.90
   2  -8 -13   23.03    4.06
   2  -8 -13   22.82    4.07
  -2   8  13   22.61    2.31
  -2   8  13   17.17    2.62
  -2   8  13   23.63    3.02
   1  -8 -13   28.99    3.65
   1  -8 -13   25.74    4.60
  -1   8  13   26.04    3.30
  -1   8  13   29.45    3.41
  -1   8  13   28.94    2.91
   0  -8 -13    3.15    1.26
   0  -8 -13    1.76    1.74
   0   8  13    4.45    1.57
   0   8  13    1.51    1.56
  -1  -8 -13    1.28    0.94
  -1  -8 -13   -0.64    1.25
   1   8  13    1.04    1.12
   1   8  13   -1.31    0.71
  -2  -8 -13    0.42    0.75
  -2  -8 -13   -0.58    0.88
   2   8  13    1.68    1.05
  -3  -8 -13    8.12    2.36
  -3  -8 -13    9.32    1.61
   3   8  13    9.70    2.65
   3   8  13   11.36    2.67
   4   8  13   26.89    4.64
   4   8  13   36.12    4.43
   5   8  13   11.48    3.53
   5   8  13   15.84    3.66
   6   8  13    1.02    1.07
   6   8  13    0.32    1.21
   7   8  13    4.56    2.33
   7   8  13    1.46    1.78
   8   8  13    0.61    1.86
   8   8  13    2.99    2.20
   5  -9 -13   22.00    5.16
   5  -9 -13   48.55    7.91
   4  -9 -13   38.92    6.60
   4  -9 -13   34.42    5.90
   3  -9 -13    8.23    3.28
   3  -9 -13   13.35    3.77
  -3   9  13    7.24    2.13
  -3   9  13    3.91    0.79
   2  -9 -13   10.36    3.30
   2  -9 -13   11.60    3.01
  -2   9  13   10.62    1.94
  -2   9  13   13.01    2.57
   1  -9 -13    0.48    1.30
   1  -9 -13    1.33    1.21
  -1   9  13    0.96    1.03
   0  -9 -13    5.22    1.73
   0  -9 -13    1.99    1.57
   0   9  13    4.33    1.77
   0   9  13    0.98    1.23
  -1  -9 -13    0.51    1.13
  -1  -9 -13    2.25    1.54
   1   9  13    2.75    1.88
   1   9  13    2.83    1.36
  -2  -9 -13    5.97    1.56
  -2  -9 -13    4.20    2.02
   2   9  13    1.47    1.44
   2   9  13    5.83    2.30
  -3  -9 -13   13.64    1.90
  -3  -9 -13   11.22    2.83
   3   9  13   14.13    3.23
   3   9  13   12.42    3.08
   4   9  13   13.94    3.22
   4   9  13    9.83    2.94
   5   9  13    2.25    1.43
   5   9  13   -0.11    1.51
   6   9  13    9.15    3.12
   6   9  13   12.48    3.11
   7   9  13    0.47    1.67
   7   9  13    1.00    1.88
   4 -10 -13   13.88    3.87
   4 -10 -13   10.67    3.66
   3 -10 -13   12.50    3.18
   3 -10 -13    5.44    2.75
  -3  10  13    3.53    1.94
   2 -10 -13    3.82    2.51
   2 -10 -13    2.44    2.26
  -2  10  13    3.40    1.74
   1 -10 -13   -1.40    1.56
   1 -10 -13    0.85    1.41
  -1  10  13    2.01    1.10
   0 -10 -13   24.64    4.88
   0 -10 -13   20.28    3.67
   0  10  13   18.87    3.95
   0  10  13   18.12    3.25
  -1 -10 -13   12.71    3.63
  -1 -10 -13   16.65    3.06
   1  10  13   17.27    3.69
   1  10  13   20.95    3.75
  -2 -10 -13   14.01    2.44
   2  10  13   15.24    3.24
  -3 -10 -13    9.86    1.61
  -3 -10 -13   15.46    3.72
   3  10  13   22.83    4.02
   3  10  13   19.47    4.07
   4  10  13    6.51    2.16
   4  10  13   10.77    3.00
   5  10  13    2.64    2.25
   5  10  13    1.20    1.88
   6  10  13    1.13    1.89
   6  10  13    0.83    1.72
   3 -11 -13   -3.24    2.26
   2 -11 -13    6.30    2.52
   2 -11 -13    2.51    2.00
  -2  11  13    5.66    2.25
   1 -11 -13   14.87    4.04
   1 -11 -13    7.93    2.65
  -1  11  13    4.36    2.27
   0 -11 -13   10.28    3.34
   0 -11 -13   10.12    2.54
   0  11  13   13.09    3.06
   0  11  13    7.98    3.16
  -1 -11 -13   18.81    4.19
   1  11  13   21.21    3.88
   1  11  13   21.82    4.68
  -2 -11 -13    3.68    1.59
  -2 -11 -13    3.62    2.48
   2  11  13    4.41    1.99
   2  11  13    2.76    2.05
  -3 -11 -13    3.40    2.27
   3  11  13    0.96    1.98
   3  11  13    4.91    2.22
   4  11  13    1.51    1.77
   4  11  13   -0.58    1.44
   5  11  13    1.56    2.07
   5  11  13    5.68    2.87
  -1 -12 -13    1.54    2.02
  -1 -12 -13    2.67    2.36
   1  12  13    3.17    1.94
   1  12  13   -0.56    3.20
  -2 -12 -13    0.71    2.22
   2  12  13    4.79    1.98
   3   7 -14   18.52    4.05
   2   7 -14   36.53    4.83
  -2  -7  14   38.44    6.57
   1   7 -14   39.04    4.81
  -1  -7  14   58.05    6.21
   0   7 -14    9.14    2.68
   0  -7  14   14.10    3.82
   1  -7  14    8.19    3.18
   2  -7  14    1.45    1.77
   5   6 -14    6.63    3.31
   5   6 -14   11.07    4.28
   4   6 -14   11.39    3.27
   3   6 -14   31.78    5.18
   2   6 -14   30.77    3.95
  -2  -6  14   23.94    4.72
   1   6 -14    7.94    2.70
  -1  -6  14   11.16    3.09
   0   6 -14   -0.41    1.50
   0  -6  14   -1.17    1.56
  -1   6 -14    5.94    1.99
   1  -6  14    7.35    2.48
   2  -6  14   13.85    3.43
   3  -6  14   20.98    4.30
   4  -6  14   15.17    3.72
   6   5 -14    6.68    2.71
   6   5 -14    6.62    3.04
   5   5 -14   37.19    5.20
   5   5 -14   29.71    5.75
   4   5 -14    8.13    2.89
   4   5 -14   14.75    3.29
   3   5 -14   14.14    3.55
   3   5 -14   16.22    4.28
  -3  -5  14   13.66    3.22
   2   5 -14    5.34    2.02
  -2  -5  14    4.35    2.18
   1   5 -14   -0.20    1.27
  -1  -5  14    0.30    1.16
   0   5 -14    4.33    1.54
   0  -5  14    8.16    2.24
  -1   5 -14   13.09    2.51
   1  -5  14   16.27    3.67
  -2   5 -14   12.40    1.55
  -2   5 -14   12.18    1.24
   2  -5  14   16.29    3.69
   3  -5  14   43.81    5.03
   4  -5  14   16.66    3.49
   5  -5  14    2.35    1.69
   6  -5  14    3.58    2.72
   7   4 -14   28.60    5.33
   7   4 -14   22.03    5.23
   6   4 -14   14.64    3.83
   6   4 -14   21.74    4.72
   5   4 -14   23.92    5.05
   5   4 -14   21.12    4.79
   4   4 -14   11.47    3.14
   3   4 -14   -0.81    1.84
  -3  -4  14    0.62    1.08
   2   4 -14    0.52    1.23
   2   4 -14    0.72    1.83
  -2  -4  14    4.59    1.90
   1   4 -14    5.31    1.83
   1   4 -14    2.79    2.36
  -1  -4  14    7.02    2.23
   0   4 -14   41.20    4.14
   0  -4  14   43.66    4.96
  -1   4 -14   21.01    2.55
   1  -4  14   24.23    4.08
  -2   4 -14   31.65    2.38
   2  -4  14   31.58    6.21
   3  -4  14   12.27    2.96
   4  -4  14   13.18    3.09
   5  -4  14   -1.42    1.52
   6  -4  14    5.08    2.05
   7  -4  14   -3.93    1.85
   8   3 -14    6.87    2.96
   7   3 -14   22.12    4.18
   6   3 -14   14.38    4.07
   5   3 -14    5.83    2.43
   4   3 -14    4.04    2.46
  -4  -3  14    2.83    1.38
   3   3 -14   14.91    3.69
  -3  -3  14   15.94    3.34
   2   3 -14   15.90    3.88
  -2  -3  14   17.49    3.58
   1   3 -14   28.40    5.41
  -1  -3  14   28.01    3.70
   0   3 -14   57.52    6.44
   0  -3  14   69.45    5.75
  -1   3 -14   28.07    3.08
  -1   3 -14   32.46    3.03
   1  -3  14   34.50    4.05
  -2   3 -14   31.57    2.61
  -2   3 -14   34.02    2.72
   2  -3  14   33.13    3.99
   3  -3  14   -0.30    0.72
   4  -3  14    0.82    1.13
   5  -3  14   -0.40    1.46
   6  -3  14   22.67    4.07
   7  -3  14    3.74    2.10
   8   2 -14   13.86    3.26
   7   2 -14    3.38    2.32
   6   2 -14    2.25    1.38
   4   2 -14   17.47    3.77
  -4  -2  14   22.47    3.72
   3   2 -14   69.50    6.48
  -3  -2  14   64.09    5.48
   2   2 -14   39.96    4.94
  -2  -2  14   43.08    4.23
   1   2 -14   63.08    6.29
  -1  -2  14   64.76    5.35
   0   2 -14   49.23    5.60
   0  -2  14   58.77    5.10
  -1   2 -14   22.36    4.78
  -1   2 -14   18.98    2.44
   1  -2  14   21.39    3.63
  -2   2 -14    0.81    0.97
   2  -2  14   -0.70    0.59
  -3   2 -14    3.22    0.71
  -3   2 -14    3.46    0.66
   3  -2  14    9.94    2.19
   3  -2  14    4.43    1.55
   4  -2  14   12.68    2.85
   4  -2  14    6.78    2.12
   5  -2  14   16.15    3.10
   5  -2  14   19.80    3.60
   6  -2  14   39.46    4.18
   6  -2  14   34.06    4.27
   7  -2  14   10.80    2.79
   7  -2  14   17.75    3.54
   8  -2  14   10.66    3.36
   8  -2  14   14.10    2.82
   8   1 -14   10.10    2.76
   7   1 -14    0.11    1.44
   6   1 -14   15.89    3.80
   6   1 -14    8.35    2.03
   5   1 -14   27.28    3.08
   5   1 -14   22.77    4.31
   4   1 -14   38.33    4.58
   4   1 -14   30.44    4.44
  -4  -1  14   31.84    3.42
   3   1 -14   21.90    3.78
  -3  -1  14   19.81    3.36
   2   1 -14   97.85    7.65
  -2  -1  14   87.72    6.26
   1   1 -14   29.11    4.07
  -1  -1  14   28.75    3.26
   0   1 -14    3.87    1.61
   0   1 -14    0.28    1.24
   0  -1  14    2.43    1.23
  -1   1 -14    1.05    1.01
  -1   1 -14    1.02    1.10
   1  -1  14    3.24    1.14
   1  -1  14    0.62    0.83
  -2   1 -14   22.77    2.41
   2  -1  14   27.09    3.45
   2  -1  14   31.56    3.52
   3  -1  14    2.95    1.40
   3  -1  14    6.60    2.13
   4  -1  14   32.59    3.74
   4  -1  14   32.78    3.79
   5  -1  14   33.82    4.29
   5  -1  14   36.23    4.01
   6  -1  14   12.25    3.26
   6  -1  14   18.64    3.33
   7  -1  14    2.02    1.47
   7  -1  14    2.41    1.75
   8  -1  14    1.05    1.46
   8  -1  14   -0.54    1.56
   8   0 -14    9.59    2.84
   7   0 -14    9.07    3.32
   6   0 -14   24.71    2.61
   6   0 -14   35.86    4.43
   5   0 -14   51.96    4.07
   5   0 -14   60.03    5.93
   4   0 -14   51.24    4.02
   4   0 -14   50.11    5.14
  -4   0  14   43.39    3.98
   3   0 -14   63.25    5.84
   3   0 -14   56.29    4.48
  -3   0  14   62.57    4.69
   2   0 -14   13.18    2.97
   2   0 -14   11.71    2.29
  -2   0  14   18.23    2.96
   1   0 -14   -0.26    1.05
   1   0 -14    0.89    0.95
  -1   0  14    0.00    0.57
   0   0 -14   36.63    4.27
   0   0 -14   32.71    3.38
   0   0  14   32.11    3.66
   0   0  14   40.82    3.71
  -1   0 -14    2.19    1.08
  -1   0 -14    0.69    0.85
   1   0  14    0.51    0.55
   1   0  14    2.17    1.26
  -2   0 -14   10.39    2.12
  -2   0 -14   10.91    2.80
   2   0  14   12.58    2.55
   2   0  14   10.40    2.61
  -3   0 -14   31.05    2.86
   3   0  14   36.95    3.92
   3   0  14   45.38    4.21
  -4   0 -14   33.33    2.54
   4   0  14   37.54    3.97
   4   0  14   33.29    3.78
   5   0  14    6.59    2.00
   5   0  14    6.98    2.02
   6   0  14    5.49    1.75
   7   0  14   -0.24    1.21
   7   0  14    1.29    1.40
   8   0  14   -0.88    1.45
   8   0  14   -1.34    1.41
   9   0  14    0.39    1.63
   8  -1 -14    0.80    1.42
   8  -1 -14    1.35    1.70
   7  -1 -14   34.13    4.43
   7  -1 -14   19.25    3.36
   6  -1 -14   19.10    3.49
   6  -1 -14   24.76    4.54
   5  -1 -14   47.12    5.15
   5  -1 -14   41.04    4.46
   4  -1 -14    8.17    2.33
   4  -1 -14   11.78    3.07
  -4   1  14    9.54    1.81
   3  -1 -14   35.91    4.16
   3  -1 -14   39.68    3.27
  -3   1  14   34.91    3.19
   2  -1 -14    5.59    2.03
   2  -1 -14    5.33    1.26
  -2   1  14    3.40    1.20
   1  -1 -14    8.39    2.01
   1  -1 -14   12.16    2.67
  -1   1  14    7.75    2.06
  -1   1  14   10.58    2.03
   0  -1 -14   21.97    3.01
   0  -1 -14   25.93    2.95
   0   1  14   22.05    2.52
   0   1  14   22.43    3.06
  -1  -1 -14  126.24    9.33
  -1  -1 -14  147.55    9.37
   1   1  14  161.26    8.71
   1   1  14  155.66    9.28
  -2  -1 -14   31.61    3.16
  -2  -1 -14   30.92    3.67
   2   1  14   29.66    3.47
   2   1  14   32.04    3.32
  -3  -1 -14  150.32    8.20
   3   1  14  158.90    9.36
   3   1  14  156.99    9.46
  -4  -1 -14    3.39    1.38
   4   1  14    6.08    1.79
   4   1  14    4.91    1.74
   5   1  14    5.39    1.71
   6   1  14    2.05    1.36
   6   1  14   -1.59    0.78
   7   1  14    1.12    1.39
   7   1  14   -0.97    1.02
   8   1  14    2.56    1.53
   9   1  14    7.71    2.67
   9   1  14    9.57    2.73
   8  -2 -14   25.66    5.05
   7  -2 -14   54.91    5.61
   7  -2 -14   61.57    6.45
   6  -2 -14   62.72    6.43
   6  -2 -14   64.52    5.92
   5  -2 -14    2.30    1.41
   5  -2 -14    1.85    1.38
   4  -2 -14    9.05    2.62
   4  -2 -14   10.66    2.60
  -4   2  14    9.01    1.49
   3  -2 -14    2.93    1.36
   3  -2 -14   -1.14    0.86
  -3   2  14    0.54    0.63
   2  -2 -14   11.16    2.67
   2  -2 -14    7.47    2.30
  -2   2  14    9.16    2.34
  -2   2  14   11.44    1.96
   1  -2 -14   79.31    6.19
  -1   2  14   80.91    5.12
  -1   2  14   73.71    5.95
   0  -2 -14    2.65    1.45
   0  -2 -14    6.91    2.08
   0   2  14    9.47    2.32
   0   2  14    7.46    1.63
  -1  -2 -14   68.66    5.46
  -1  -2 -14   59.51    4.68
   1   2  14   68.49    5.04
   1   2  14   68.40    5.41
   1   2  14   66.08    5.29
  -2  -2 -14   28.79    3.27
  -2  -2 -14   34.60    3.68
   2   2  14   30.79    3.59
   2   2  14   33.46    3.58
   2   2  14   32.82    3.40
  -3  -2 -14   13.35    2.96
  -3  -2 -14   19.66    2.96
   3   2  14   18.89    2.37
   3   2  14   22.55    2.90
   3   2  14   20.40    3.57
  -4  -2 -14    1.37    1.38
   4   2  14    0.45    0.92
   4   2  14    1.39    1.35
   4   2  14    2.49    1.28
  -5  -2 -14    0.71    1.36
   5   2  14    0.00    0.70
   5   2  14    0.11    0.66
   5   2  14   -0.81    1.06
   6   2  14    2.26    1.64
   6   2  14    3.46    1.72
   6   2  14    2.48    1.61
   7   2  14   28.84    3.92
   7   2  14   21.60    3.09
   7   2  14   26.62    4.61
   8   2  14   10.85    2.93
   8   2  14    7.91    2.72
   9   2  14   13.12    2.95
   9   2  14    8.61    2.86
   8  -3 -14   16.61    3.23
   8  -3 -14   22.78    5.18
   7  -3 -14   12.57    4.49
   7  -3 -14   17.86    3.95
   6  -3 -14   13.38    3.02
   6  -3 -14   10.90    3.04
   5  -3 -14    8.63    2.66
   5  -3 -14   10.28    2.90
   4  -3 -14    2.89    1.45
   4  -3 -14    1.81    1.23
   3  -3 -14   45.44    4.81
   3  -3 -14   39.98    4.55
  -3   3  14   43.16    3.00
   2  -3 -14  111.62    7.88
   2  -3 -14  109.18    8.07
  -2   3  14  100.04    7.37
  -2   3  14  124.84    6.19
   1  -3 -14  112.07    7.63
   1  -3 -14  102.11    7.84
  -1   3  14  120.26    7.70
  -1   3  14  112.28    6.32
   0  -3 -14   60.12    5.11
   0  -3 -14   55.68    5.42
   0   3  14   63.97    5.25
   0   3  14   61.56    4.51
  -1  -3 -14    7.51    2.02
  -1  -3 -14    4.89    1.57
   1   3  14    8.05    2.09
   1   3  14    7.03    1.98
   1   3  14    8.14    1.84
  -2  -3 -14   15.91    2.74
  -2  -3 -14   17.10    3.17
   2   3  14   13.87    2.70
   2   3  14   13.56    2.72
   2   3  14   19.82    3.29
  -3  -3 -14   19.71    3.33
  -3  -3 -14   11.96    2.61
   3   3  14   15.75    2.90
   3   3  14   14.40    2.90
   3   3  14   12.95    2.27
  -4  -3 -14   11.09    2.20
   4   3  14    3.48    1.61
   4   3  14    3.86    1.65
   4   3  14    6.68    1.68
  -5  -3 -14   17.73    4.48
   5   3  14   15.09    3.14
   5   3  14   12.36    2.16
   5   3  14   17.40    3.36
   6   3  14    7.48    2.45
   6   3  14    9.40    1.91
   6   3  14    9.54    2.71
   7   3  14    6.73    2.16
   7   3  14    9.71    1.89
   7   3  14   15.89    3.35
   8   3  14   20.56    3.89
   8   3  14   12.74    3.16
   9   3  14    3.05    1.93
   9   3  14   -2.97    1.34
   8  -4 -14   11.94    3.81
   8  -4 -14   10.00    3.25
   7  -4 -14    4.90    2.15
   7  -4 -14    6.42    2.27
   6  -4 -14    6.41    2.31
   6  -4 -14    2.44    1.61
   5  -4 -14   38.06    4.58
   5  -4 -14   36.63    4.57
   4  -4 -14   29.06    3.86
   4  -4 -14   26.70    3.78
   3  -4 -14   30.33    3.96
   3  -4 -14   29.96    3.73
  -3   4  14   27.65    3.47
  -3   4  14   26.85    2.03
   2  -4 -14  125.09    8.52
   2  -4 -14  138.21    9.22
  -2   4  14  137.97    6.60
  -2   4  14  111.98    7.90
   1  -4 -14   25.02    3.49
   1  -4 -14   23.09    3.15
  -1   4  14   27.45    3.24
  -1   4  14   22.66    2.36
   0  -4 -14   28.58    3.30
   0  -4 -14   28.05    3.74
   0   4  14   28.43    3.35
   0   4  14   17.99    4.10
   0   4  14   28.15    3.53
  -1  -4 -14    3.28    1.41
   1   4  14    4.60    1.47
   1   4  14    2.38    1.29
   1   4  14    3.64    1.41
  -2  -4 -14    0.15    0.86
   2   4  14    1.87    1.05
   2   4  14   -0.41    0.41
   2   4  14    0.07    0.86
  -3  -4 -14    8.17    2.02
   3   4  14    8.44    1.74
   3   4  14    4.19    1.50
   3   4  14    6.06    1.89
   4   4  14    9.78    2.20
   4   4  14    8.87    2.32
   4   4  14   10.25    2.27
   4   4  14    9.18    1.76
   5   4  14   37.38    4.25
   5   4  14   32.81    2.90
   5   4  14   33.45    3.46
   5   4  14   30.71    3.93
   6   4  14   10.08    2.75
   6   4  14    9.40    2.43
   6   4  14    7.43    2.19
   6   4  14   11.02    2.21
   7   4  14    0.44    1.34
   7   4  14    2.19    1.16
   7   4  14    2.14    1.38
   8   4  14    2.34    1.43
   8   4  14    1.03    1.62
   8   4  14    3.39    1.84
   9   4  14    0.26    1.29
   9   4  14   -0.88    1.44
   9   4  14    1.74    1.75
   8  -5 -14   -0.69    1.63
   8  -5 -14   -1.05    2.09
   7  -5 -14    0.28    1.65
   7  -5 -14   -0.29    1.44
   6  -5 -14   19.24    4.28
   6  -5 -14   12.75    3.41
   5  -5 -14   11.03    3.10
   5  -5 -14   19.79    4.25
   4  -5 -14   43.00    4.91
   4  -5 -14   41.94    4.83
   3  -5 -14   22.93    4.38
   3  -5 -14   27.23    3.63
  -3   5  14   29.06    1.78
  -3   5  14   25.82    3.27
   2  -5 -14   77.10    6.28
   2  -5 -14   77.04    6.63
  -2   5  14   70.59    5.74
  -2   5  14   72.47    4.24
   1  -5 -14    0.87    0.95
   1  -5 -14    1.10    1.05
  -1   5  14    0.67    0.90
  -1   5  14    2.56    0.88
   0  -5 -14    9.72    2.53
   0  -5 -14    6.70    1.78
   0   5  14    8.08    1.98
   0   5  14    7.99    1.88
  -1  -5 -14    0.63    0.93
  -1  -5 -14    0.51    0.70
   1   5  14   -0.19    0.63
   1   5  14    1.95    0.97
  -2  -5 -14   49.68    4.12
   2   5  14   46.67    4.25
   2   5  14   49.43    4.67
  -3  -5 -14   17.43    2.37
   3   5  14   17.54    3.45
   3   5  14   15.03    2.83
   3   5  14   15.81    2.96
   4   5  14   41.99    4.15
   4   5  14   48.13    4.70
   4   5  14   47.18    4.72
   5   5  14   33.02    3.71
   5   5  14   40.28    4.55
   5   5  14   30.27    3.91
   6   5  14    2.80    1.84
   6   5  14    3.48    1.70
   6   5  14    4.27    1.64
   7   5  14    4.23    1.88
   7   5  14    1.84    1.66
   7   5  14    2.91    1.91
   8   5  14    2.72    1.85
   8   5  14   -2.97    1.25
   9   5  14    5.28    2.45
   9   5  14   -2.09    1.31
   7  -6 -14   15.37    4.29
   7  -6 -14   11.46    3.23
   6  -6 -14   63.67    6.95
   6  -6 -14   70.67    7.01
   5  -6 -14   28.27    5.26
   5  -6 -14   14.20    3.73
   4  -6 -14   54.82    6.23
   4  -6 -14   51.79    5.65
   3  -6 -14   11.31    3.23
   3  -6 -14   12.80    3.13
  -3   6  14   16.92    3.21
   2  -6 -14    1.07    1.18
   2  -6 -14   -0.50    0.62
  -2   6  14    0.98    1.17
  -2   6  14    0.31    0.57
   1  -6 -14    0.69    0.96
   1  -6 -14    2.51    1.23
  -1   6  14    1.60    1.14
   0  -6 -14   10.78    2.28
   0  -6 -14   12.86    3.14
   0   6  14   15.34    2.49
   0   6  14   15.45    3.03
  -1  -6 -14    7.90    1.99
  -1  -6 -14    6.59    2.24
   1   6  14    9.60    2.28
   1   6  14    6.26    1.78
  -2  -6 -14   64.93    4.66
  -2  -6 -14   57.20    5.71
   2   6  14   60.22    5.07
   2   6  14   53.27    5.08
   2   6  14   66.10    5.59
  -3  -6 -14   42.65    3.69
   3   6  14   40.07    4.28
   3   6  14   43.83    4.61
   3   6  14   50.23    4.58
   4   6  14   12.07    2.88
   4   6  14    6.38    2.05
   4   6  14   13.42    2.81
   5   6  14    9.58    2.33
   5   6  14    8.25    2.58
   5   6  14   14.15    3.14
   6   6  14    3.67    1.76
   6   6  14    0.43    1.28
   6   6  14   -0.01    1.07
   7   6  14    0.78    0.87
   7   6  14   -1.45    1.12
   7   6  14    0.68    1.37
   8   6  14    3.77    2.02
   8   6  14   10.49    3.15
   8   6  14    4.59    2.52
   9   6  14    5.21    3.00
   9   6  14    3.22    2.06
   9   6  14    2.44    2.41
   7  -7 -14   29.93    6.18
   7  -7 -14   28.65    5.11
   6  -7 -14   37.26    6.97
   6  -7 -14   40.46    5.47
   5  -7 -14   39.61    5.37
   5  -7 -14   47.35    5.82
   4  -7 -14   11.48    3.00
   4  -7 -14   14.01    3.67
   3  -7 -14   -1.51    0.85
  -3   7  14    0.47    1.05
   2  -7 -14    3.56    1.64
   2  -7 -14    2.54    1.20
  -2   7  14    2.20    0.97
  -2   7  14    2.27    1.41
   1  -7 -14   29.72    3.59
   1  -7 -14   23.77    4.47
  -1   7  14   22.38    3.07
  -1   7  14   27.51    2.82
   0  -7 -14   71.83    6.69
   0  -7 -14   81.21    6.03
   0   7  14   72.40    5.92
   0   7  14   77.88    5.43
  -1  -7 -14   63.48    5.02
  -1  -7 -14   62.43    6.14
   1   7  14   65.73    5.14
   1   7  14   59.27    5.68
   1   7  14   68.31    5.62
  -2  -7 -14   16.39    2.70
  -2  -7 -14   15.85    3.75
   2   7  14   16.03    3.23
   2   7  14   16.42    3.35
   2   7  14   18.18    3.16
  -3  -7 -14   21.90    2.52
   3   7  14   20.92    3.76
   3   7  14   22.01    3.77
   4   7  14    1.48    1.10
   4   7  14    1.02    1.32
   5   7  14    0.51    1.23
   5   7  14    3.77    1.81
   5   7  14    4.33    1.95
   6   7  14    0.50    1.20
   6   7  14    0.13    0.90
   6   7  14    1.12    1.34
   7   7  14    9.69    2.63
   7   7  14   11.03    3.00
   7   7  14    4.25    2.37
   8   7  14    0.30    1.62
   8   7  14   -0.58    1.80
   8   7  14   -1.28    1.41
   6  -8 -14   -0.72    1.76
   6  -8 -14    1.77    1.98
   5  -8 -14    8.30    2.54
   5  -8 -14    4.84    2.34
   4  -8 -14   -0.82    1.64
   4  -8 -14    0.97    1.37
   3  -8 -14   19.78    4.14
  -3   8  14   13.27    2.64
   2  -8 -14    9.57    2.67
   2  -8 -14    3.37    2.03
  -2   8  14    7.07    1.81
  -2   8  14    5.32    1.76
  -2   8  14    5.25    1.31
   1  -8 -14   24.03    3.31
   1  -8 -14   18.92    4.11
  -1   8  14   23.84    2.72
  -1   8  14   17.34    3.22
   0  -8 -14   51.99    4.90
   0  -8 -14   55.20    5.91
   0   8  14   60.11    4.66
   0   8  14   55.13    5.00
  -1  -8 -14   24.35    3.77
  -1  -8 -14   22.13    4.14
   1   8  14   19.63    3.66
   1   8  14   21.44    3.97
  -2  -8 -14    0.40    1.23
  -2  -8 -14    1.20    1.02
   2   8  14    1.20    1.12
  -3  -8 -14    0.69    0.87
  -3  -8 -14    3.53    2.05
   3   8  14    1.68    1.24
   3   8  14    0.81    1.36
   4   8  14    1.16    1.36
   4   8  14    0.36    1.01
   5   8  14   21.46    4.33
   5   8  14   31.01    4.94
   6   8  14    4.87    2.42
   6   8  14    6.76    2.55
   7   8  14    8.16    2.99
   7   8  14    9.97    3.28
   7   8  14   11.81    2.99
   8   8  14   -0.50    1.68
   8   8  14    0.48    2.04
   8   8  14    1.88    2.11
   5  -9 -14    0.19    2.06
   5  -9 -14    5.65    3.05
   4  -9 -14   13.15    3.66
   4  -9 -14   12.47    3.81
   3  -9 -14   38.02    5.16
   3  -9 -14   40.72    5.35
  -3   9  14   35.08    4.13
   2  -9 -14   30.11    6.04
   2  -9 -14   25.45    5.18
  -2   9  14   19.95    3.41
  -2   9  14   23.60    2.54
   1  -9 -14    6.48    2.18
   1  -9 -14   15.90    3.39
  -1   9  14   12.62    2.73
  -1   9  14   11.18    2.25
   0  -9 -14   37.28    5.11
   0  -9 -14   35.73    3.98
   0   9  14   33.81    4.06
  -1  -9 -14    1.10    1.97
  -1  -9 -14    4.33    1.51
   1   9  14    7.69    2.23
   1   9  14    3.01    1.56
  -2  -9 -14   -2.09    1.05
  -2  -9 -14    0.06    1.56
   2   9  14    1.05    1.19
   2   9  14    4.50    1.60
  -3  -9 -14   -0.62    1.25
  -3  -9 -14    0.91    0.97
   3   9  14   -0.50    1.14
   4   9  14    1.94    1.83
   4   9  14   -1.67    1.29
   5   9  14   15.97    3.63
   5   9  14   18.21    3.86
   6   9  14   11.21    3.53
   6   9  14   13.78    3.50
   7   9  14    2.55    2.03
   7   9  14    1.29    1.72
   4 -10 -14    6.94    3.13
   4 -10 -14   10.31    3.15
   3 -10 -14   16.32    3.53
   3 -10 -14   15.44    3.83
  -3  10  14   17.85    3.49
   2 -10 -14   21.23    4.63
   2 -10 -14   17.50    3.67
  -2  10  14   19.58    3.53
   1 -10 -14    5.00    2.31
   1 -10 -14   10.93    2.74
  -1  10  14   10.04    2.34
   0 -10 -14    8.23    2.66
   0 -10 -14    7.27    1.96
   0  10  14    3.51    1.85
  -1 -10 -14    3.06    2.04
  -1 -10 -14    3.95    1.42
   1  10  14    3.40    2.00
  -2 -10 -14    2.68    1.25
  -2 -10 -14    0.21    1.43
   2  10  14    2.94    1.65
   2  10  14    2.27    1.59
  -3 -10 -14    3.10    1.35
  -3 -10 -14    4.46    2.15
   3  10  14    5.89    2.30
   3  10  14    6.76    2.71
   4  10  14   12.61    3.53
   4  10  14   11.20    2.86
   5  10  14   10.47    3.36
   5  10  14    5.50    2.78
   6  10  14    2.40    2.34
   6  10  14    0.38    1.93
   2 -11 -14    5.49    2.81
   2 -11 -14    6.48    2.96
  -2  11  14    1.33    2.15
   1 -11 -14   -1.25    2.00
   1 -11 -14    1.48    1.91
  -1  11  14    2.20    1.90
   0 -11 -14    3.42    2.16
   0 -11 -14   -0.82    2.06
   0  11  14   -0.43    1.42
  -1 -11 -14    7.65    2.92
  -1 -11 -14    4.41    2.01
   1  11  14    7.93    2.94
   1  11  14   13.34    3.01
  -2 -11 -14    4.52    2.19
  -2 -11 -14   10.21    2.52
   2  11  14    5.28    2.76
   2  11  14    9.85    2.97
  -3 -11 -14    9.75    3.54
   3  11  14   10.60    2.81
   3  11  14    7.40    2.92
   4  11  14   25.34    4.90
   4  11  14   18.57    4.56
   1   7 -15   21.18    3.87
  -1  -7  15   10.94    3.31
   0   7 -15   20.00    3.81
   0  -7  15   17.77    4.56
   4   6 -15    2.40    1.98
   3   6 -15   16.34    4.01
  -2  -6  15   23.72    4.81
   1   6 -15   32.50    5.03
  -1  -6  15   40.06    6.46
   0   6 -15   54.71    5.23
   0  -6  15   59.25    6.46
  -1   6 -15   -1.22    2.06
   1  -6  15    0.20    2.09
   2  -6  15   -0.47    1.72
   5   5 -15    5.84    2.92
   5   5 -15    7.41    3.30
   4   5 -15   22.89    4.47
   4   5 -15   12.68    3.41
   3   5 -15   26.22    5.75
   3   5 -15   33.79    5.37
  -3  -5  15   26.95    4.91
   2   5 -15   26.35    4.54
  -2  -5  15   23.59    4.70
   1   5 -15   11.19    2.95
  -1  -5  15   22.97    4.67
   0   5 -15    9.25    2.37
   0  -5  15    9.31    2.51
  -1   5 -15   -0.85    1.69
   1  -5  15   -1.46    1.22
   2  -5  15    0.53    1.62
   3  -5  15    6.67    2.47
   4  -5  15   24.93    4.66
   5  -5  15   15.09    4.10
   6   4 -15    4.67    2.47
   6   4 -15    5.25    2.75
   5   4 -15   19.43    4.33
   5   4 -15   24.96    5.18
   4   4 -15   33.34    5.86
   4   4 -15   22.79    4.64
   3   4 -15   38.39    4.81
   3   4 -15   31.20    5.58
   2   4 -15    6.42    2.42
   2   4 -15    8.05    2.43
  -2  -4  15    3.80    3.21
   1   4 -15    1.44    1.28
   0   4 -15    0.90    1.20
   0  -4  15    1.51    1.25
  -1   4 -15    5.66    2.05
   1  -4  15    7.96    2.39
  -2   4 -15   13.91    3.17
  -2   4 -15   13.99    1.68
   2  -4  15   18.98    3.72
   3  -4  15   25.50    4.37
   4  -4  15   27.16    4.68
   5  -4  15   12.32    3.32
   6  -4  15   -1.07    2.00
   7   3 -15   11.90    3.51
   6   3 -15   28.94    5.75
   5   3 -15   41.74    6.85
   4   3 -15   16.45    4.03
  -4  -3  15   18.92    3.43
   3   3 -15    8.82    2.65
  -3  -3  15    5.05    2.04
   2   3 -15    8.01    3.17
  -2  -3  15    6.19    2.16
   1   3 -15   -0.01    1.35
  -1  -3  15    5.23    1.97
   0   3 -15    4.57    2.34
   0  -3  15    3.63    1.66
  -1   3 -15   16.35    2.80
  -1   3 -15   12.02    2.92
   1  -3  15   23.11    4.08
  -2   3 -15   44.50    3.35
   2  -3  15   42.64    5.55
   3  -3  15   23.19    4.19
   4  -3  15   15.14    3.59
   5  -3  15    5.71    2.31
   6  -3  15    2.05    1.78
   7  -3  15    0.91    1.85
   7   2 -15   18.44    4.66
   6   2 -15   17.63    3.80
   5   2 -15   24.71    4.68
   4   2 -15    7.16    3.21
  -4  -2  15    7.53    2.36
   3   2 -15   -1.07    1.03
  -3  -2  15    1.37    1.09
   2   2 -15    5.69    2.29
  -2  -2  15   10.43    2.27
   1   2 -15   41.78    5.32
  -1  -2  15   54.38    4.85
   0   2 -15   41.67    5.56
   0   2 -15   59.57    6.37
   0  -2  15   59.66    5.13
  -1   2 -15   33.47    3.55
  -1   2 -15   36.36    4.84
   1  -2  15   49.53    4.57
  -2   2 -15   43.76    3.39
   2  -2  15   45.03    4.53
  -3   2 -15    2.37    0.78
  -3   2 -15    2.54    0.64
   3  -2  15    2.43    1.61
   3  -2  15    2.73    1.45
   4  -2  15    5.98    1.85
   4  -2  15    4.29    1.54
   5  -2  15    5.35    1.98
   5  -2  15    7.77    2.33
   6  -2  15   -1.60    0.97
   6  -2  15   -0.25    1.41
   7  -2  15   13.34    3.50
   7  -2  15   14.30    3.02
   8   1 -15   31.38    5.68
   7   1 -15   18.37    4.18
   6   1 -15   -0.72    1.15
   5   1 -15    2.31    1.76
   4   1 -15    1.94    1.80
  -4  -1  15    7.55    2.04
   3   1 -15    3.10    1.70
  -3  -1  15    6.45    2.02
   2   1 -15   70.64    6.53
  -2  -1  15   68.49    5.48
   1   1 -15   47.74    5.32
  -1  -1  15   48.41    4.49
   0   1 -15   86.77    6.34
   0   1 -15   75.44    7.09
   0  -1  15   89.58    6.31
  -1   1 -15   60.35    7.10
  -1   1 -15   79.26    7.07
   1  -1  15   85.58    6.70
   1  -1  15   91.33    6.42
  -2   1 -15   14.70    2.36
   2  -1  15   12.33    2.98
   2  -1  15   20.76    3.41
  -3   1 -15    3.72    1.10
   3  -1  15    4.01    1.44
   3  -1  15    2.47    1.35
   4  -1  15    0.18    1.07
   4  -1  15    1.75    1.19
   5  -1  15    4.19    1.80
   5  -1  15    4.35    1.93
   6  -1  15   19.69    3.66
   6  -1  15   13.64    3.33
   7  -1  15   11.39    3.17
   7  -1  15   13.38    3.21
   8  -1  15    6.43    2.40
   8  -1  15    4.63    2.20
   8   0 -15   15.56    4.14
   7   0 -15    3.59    2.31
   6   0 -15    1.07    1.21
   5   0 -15    4.21    2.12
   5   0 -15    5.92    2.59
   4   0 -15   24.11    4.55
   4   0 -15   17.59    2.86
  -4   0  15   20.47    2.71
   3   0 -15   38.19    3.81
   3   0 -15   47.84    5.07
  -3   0  15   47.07    4.08
   2   0 -15   53.03    5.49
  -2   0  15   55.31    4.61
   1   0 -15   35.28    4.33
  -1   0  15   38.81    3.68
   0   0 -15    0.07    0.65
   0   0  15    0.84    0.72
   0   0  15   -1.47    0.57
  -1   0 -15   -0.90    1.18
  -1   0 -15    2.06    1.38
   1   0  15    1.24    1.29
   1   0  15    1.77    1.00
  -2   0 -15    0.77    1.35
  -2   0 -15    1.38    1.22
   2   0  15    0.61    1.05
   2   0  15    1.72    1.10
  -3   0 -15    2.77    1.27
   3   0  15    3.32    1.54
   3   0  15    4.39    1.42
  -4   0 -15   15.66    2.69
   4   0  15   23.39    3.15
   4   0  15   17.22    3.23
   5   0  15    8.74    2.39
   5   0  15    5.43    1.90
   6   0  15   43.13    4.84
   6   0  15   40.89    4.46
   7   0  15    8.98    2.72
   7   0  15   14.48    3.15
   8   0  15    3.79    1.92
   8   0  15    1.88    1.91
   8  -1 -15    2.58    2.11
   8  -1 -15   -2.09    1.56
   7  -1 -15    0.33    1.44
   7  -1 -15    0.48    1.40
   6  -1 -15    2.46    1.74
   6  -1 -15    6.53    2.35
   5  -1 -15   24.99    3.49
   4  -1 -15   62.26    6.13
  -4   1  15   67.26    4.74
   3  -1 -15  102.91    8.00
  -3   1  15  105.13    7.30
   2  -1 -15   26.64    4.60
  -2   1  15   22.63    2.70
   1  -1 -15   52.77    5.18
  -1   1  15   47.26    4.04
  -1   1  15   45.72    4.78
   0  -1 -15    2.05    1.33
   0   1  15    5.95    1.94
   0   1  15    3.99    1.30
  -1  -1 -15   -0.83    0.85
  -1  -1 -15    2.14    1.41
   1   1  15    0.10    0.91
   1   1  15    0.67    1.05
  -2  -1 -15    9.32    2.49
  -2  -1 -15    6.48    1.86
   2   1  15    8.39    2.09
   2   1  15    9.86    2.52
  -3  -1 -15   33.43    3.51
   3   1  15   38.50    4.14
   3   1  15   37.48    4.05
   4   1  15   30.51    3.84
   4   1  15   27.78    3.48
  -5  -1 -15   16.30    2.18
   5   1  15   20.95    3.70
   5   1  15   13.45    2.80
   6   1  15    3.85    1.84
   6   1  15    9.70    2.45
   7   1  15    4.54    1.86
   7   1  15   -0.74    1.30
   8   1  15    3.31    2.16
   8   1  15    3.57    1.83
   9   1  15   -2.78    1.50
   9   1  15   -0.69    1.85
   8  -2 -15    1.01    1.79
   8  -2 -15    0.84    1.82
   7  -2 -15    3.89    2.07
   7  -2 -15    5.57    2.62
   6  -2 -15   46.90    5.25
   6  -2 -15   46.87    5.60
   5  -2 -15   78.60    6.73
   4  -2 -15   29.27    3.87
   4  -2 -15   32.35    3.99
  -4   2  15   22.16    2.34
   3  -2 -15   30.66    4.05
   3  -2 -15   36.34    4.42
  -3   2  15   32.93    3.05
   2  -2 -15    8.16    2.45
   2  -2 -15   10.57    2.82
  -2   2  15   10.85    2.61
  -2   2  15    6.40    1.42
   1  -2 -15    8.61    2.25
  -1   2  15    9.12    1.88
  -1   2  15    7.72    2.27
   0  -2 -15    7.71    2.12
   0   2  15    3.93    1.31
   0   2  15    4.72    1.64
  -1  -2 -15   30.98    3.88
  -1  -2 -15   39.58    4.33
   1   2  15   47.91    4.49
   1   2  15   44.21    3.94
  -2  -2 -15   67.32    5.81
  -2  -2 -15   57.53    4.83
   2   2  15   63.40    5.50
   2   2  15   74.35    5.53
  -3  -2 -15   33.06    4.21
  -3  -2 -15   27.29    5.99
   3   2  15   36.75    4.10
   3   2  15   48.76    4.44
  -4  -2 -15   22.37    3.53
   4   2  15   19.87    3.45
   4   2  15   23.97    3.98
   4   2  15   26.38    4.53
  -5  -2 -15   39.73    4.09
   5   2  15   39.91    4.98
   5   2  15   47.15    4.95
   5   2  15   50.86    4.86
  -6  -2 -15   -1.39    1.44
   6   2  15    1.17    1.33
   6   2  15    0.34    0.91
   7   2  15   -1.15    1.05
   8   2  15    2.07    1.62
   8   2  15    0.27    1.28
   9   2  15    0.03    1.88
   9   2  15    2.09    2.01
   8  -3 -15    9.69    3.46
   8  -3 -15    8.73    3.14
   7  -3 -15   37.35    4.88
   7  -3 -15   20.06    3.85
   6  -3 -15   47.18    5.30
   6  -3 -15   47.62    5.56
   5  -3 -15   40.62    7.77
   5  -3 -15   35.85    4.40
   4  -3 -15    5.63    1.59
   4  -3 -15    6.22    2.24
   3  -3 -15    6.63    2.32
   3  -3 -15    6.28    2.15
  -3   3  15    6.46    1.33
   2  -3 -15    2.03    1.39
   2  -3 -15    3.82    1.44
  -2   3  15    5.28    1.78
  -2   3  15    4.71    1.25
   1  -3 -15   39.36    4.54
   1  -3 -15   36.19    4.11
  -1   3  15   39.22    4.21
  -1   3  15   31.55    5.67
   0  -3 -15   55.42    5.08
   0   3  15   59.57    4.46
   0   3  15   55.03    5.06
  -1  -3 -15   47.48    4.47
   1   3  15   42.42    4.36
   1   3  15   47.07    4.18
  -2  -3 -15   36.62    3.95
   2   3  15   39.37    3.99
   2   3  15   33.60    3.66
   2   3  15   33.27    3.93
  -3  -3 -15   19.81    3.40
  -3  -3 -15   20.56    3.54
   3   3  15   25.10    3.71
   3   3  15   22.13    3.62
   3   3  15   22.12    2.88
  -4  -3 -15   18.22    3.28
   4   3  15   11.08    2.17
   4   3  15   15.86    3.14
   4   3  15   12.45    2.77
  -5  -3 -15    1.50    2.09
   5   3  15    3.06    1.13
   5   3  15    3.44    2.34
   5   3  15    0.64    1.36
  -6  -3 -15    5.65    2.61
   6   3  15    4.44    2.05
   6   3  15    4.63    1.82
   6   3  15    5.38    1.75
   7   3  15    8.73    2.45
   7   3  15    7.99    2.35
   8   3  15    3.97    2.52
   8   3  15   16.52    3.57
   9   3  15    4.06    2.35
   9   3  15    1.43    1.87
   8  -4 -15   16.19    3.76
   8  -4 -15   11.43    4.55
   7  -4 -15   30.17    5.70
   7  -4 -15   39.01    5.45
   6  -4 -15   51.62    5.94
   6  -4 -15   61.82    6.22
   5  -4 -15    1.23    1.17
   5  -4 -15   -2.34    0.87
   4  -4 -15    0.28    0.96
   4  -4 -15    0.67    1.27
   3  -4 -15   25.98    4.55
   3  -4 -15   16.63    3.88
  -3   4  15   15.00    3.10
  -3   4  15   15.99    1.67
   2  -4 -15   23.79    4.41
   2  -4 -15   22.53    4.11
  -2   4  15   21.34    2.15
  -2   4  15   25.12    3.33
   1  -4 -15   88.20    7.00
   1  -4 -15  100.04    7.86
  -1   4  15  101.26    5.95
  -1   4  15  109.74    7.49
   0  -4 -15   58.00    5.91
   0  -4 -15   69.38    5.61
   0   4  15   64.98    5.53
   0   4  15   66.29    4.82
  -1  -4 -15   27.61    3.34
   1   4  15   26.42    3.04
   1   4  15   24.21    3.30
  -2  -4 -15   25.98    3.23
   2   4  15   25.22    3.32
   2   4  15   26.95    3.30
   2   4  15   28.61    3.23
  -3  -4 -15    7.61    3.29
   3   4  15    3.11    1.72
   3   4  15    9.55    2.27
   3   4  15    5.18    2.03
   4   4  15    1.20    0.86
   4   4  15   -0.18    0.79
   4   4  15    0.96    1.25
   5   4  15   10.19    2.62
   5   4  15    8.13    2.28
   5   4  15    3.93    1.55
   6   4  15    4.68    3.32
   6   4  15    5.87    1.42
   6   4  15    4.77    1.55
   6   4  15    6.58    2.00
   7   4  15    0.82    1.58
   7   4  15    1.28    1.90
   7   4  15    4.15    1.43
   8   4  15    7.30    2.55
   8   4  15    6.78    1.80
   8   4  15    8.55    2.72
   9   4  15    1.44    2.20
   9   4  15    4.89    2.36
   7  -5 -15    0.95    2.22
   7  -5 -15    1.63    1.84
   6  -5 -15   22.95    5.09
   6  -5 -15   12.67    3.31
   5  -5 -15    3.04    1.73
   4  -5 -15    4.78    2.22
   4  -5 -15    8.51    2.45
   3  -5 -15   12.35    3.22
   3  -5 -15   16.09    3.33
  -3   5  15   14.03    1.30
  -3   5  15   16.31    3.22
   2  -5 -15   43.55    4.69
   2  -5 -15   40.48    4.90
  -2   5  15   41.07    3.07
  -2   5  15   47.26    4.39
   1  -5 -15   71.00    5.86
   1  -5 -15   67.35    6.35
  -1   5  15   61.78    5.53
  -1   5  15   69.90    4.67
   0  -5 -15   41.86    4.85
   0  -5 -15   49.03    4.59
   0   5  15   41.98    4.38
   0   5  15   47.82    3.91
  -1  -5 -15    8.56    2.08
  -1  -5 -15    7.27    2.45
   1   5  15    7.48    2.27
   1   5  15    3.67    1.31
  -2  -5 -15    4.79    1.46
   2   5  15    7.63    1.90
   2   5  15    7.60    2.17
  -3  -5 -15    0.02    0.85
   3   5  15    0.25    0.82
   3   5  15    1.42    1.05
   4   5  15   15.34    3.27
   4   5  15   12.29    2.58
   4   5  15   12.31    2.92
   5   5  15    4.93    1.83
   5   5  15    6.98    1.94
   5   5  15    6.79    2.20
   6   5  15   15.56    3.08
   6   5  15   15.84    3.54
   6   5  15   14.49    3.37
   7   5  15   11.54    2.87
   7   5  15    8.25    2.71
   7   5  15   14.98    2.70
   8   5  15   -0.97    1.44
   8   5  15   -0.18    1.39
   8   5  15    1.36    1.62
   9   5  15   -0.28    1.76
   9   5  15   -0.74    1.94
   9   5  15    2.13    1.90
   7  -6 -15    0.79    1.92
   7  -6 -15    3.10    2.16
   6  -6 -15    2.24    2.40
   6  -6 -15    5.30    2.40
   5  -6 -15    4.57    2.36
   5  -6 -15    4.83    2.19
   4  -6 -15   51.79    5.73
   4  -6 -15   51.39    6.04
   3  -6 -15   44.04    5.22
   3  -6 -15   42.86    4.87
  -3   6  15   34.73    4.18
   2  -6 -15   34.07    4.55
   2  -6 -15   35.85    4.24
  -2   6  15   36.02    4.11
  -2   6  15   36.00    2.72
   1  -6 -15   22.97    4.20
   1  -6 -15   18.11    3.85
  -1   6  15   23.31    2.60
  -1   6  15   25.29    3.29
   0  -6 -15   21.28    4.19
   0  -6 -15   23.62    3.31
   0   6  15   24.84    2.80
   0   6  15   25.69    3.37
  -1  -6 -15    2.65    1.46
  -1  -6 -15    0.25    1.03
   1   6  15    0.62    0.93
   1   6  15    0.76    0.94
  -2  -6 -15    2.64    1.64
  -2  -6 -15    2.30    1.23
   2   6  15    3.88    1.72
   2   6  15    3.11    1.55
  -3  -6 -15    7.26    1.75
   3   6  15   10.23    2.58
   3   6  15    9.43    2.35
   3   6  15    8.23    2.27
   4   6  15   38.33    3.97
   4   6  15   40.90    4.47
   4   6  15   36.35    4.48
   5   6  15   21.72    4.06
   5   6  15   18.27    3.20
   5   6  15   17.41    4.24
   6   6  15   14.34    3.35
   6   6  15    9.11    2.44
   6   6  15   11.52    2.96
   7   6  15   11.83    3.46
   7   6  15    6.05    2.21
   7   6  15    9.11    3.04
   8   6  15   -0.06    2.01
   8   6  15    2.92    2.45
   6  -7 -15   12.17    3.55
   6  -7 -15   26.30    5.25
   5  -7 -15   43.63    6.08
   5  -7 -15   47.81    5.91
   4  -7 -15   35.70    4.83
   4  -7 -15   34.68    4.82
   3  -7 -15   26.86    5.04
   3  -7 -15   27.30    4.96
  -3   7  15   22.13    3.78
   2  -7 -15   27.34    4.73
  -2   7  15   16.28    3.20
  -2   7  15   17.60    2.00
   1  -7 -15    3.13    1.68
   1  -7 -15    2.46    1.35
  -1   7  15    2.34    1.04
  -1   7  15    0.30    1.19
   0  -7 -15    1.37    1.20
   0  -7 -15    3.76    1.62
   0   7  15    1.09    1.33
   0   7  15    2.29    1.13
  -1  -7 -15    5.39    2.00
  -1  -7 -15    4.68    1.61
   1   7  15    8.01    2.07
   1   7  15    7.67    2.00
  -2  -7 -15   42.30    5.03
  -2  -7 -15   36.95    3.69
   2   7  15   36.89    3.98
   2   7  15   38.96    4.41
   2   7  15   43.95    4.56
  -3  -7 -15   15.85    2.54
   3   7  15   29.02    3.64
   3   7  15   20.47    3.84
   3   7  15   17.22    3.19
   4   7  15   18.39    3.54
   4   7  15   20.22    3.53
   5   7  15   17.08    3.55
   5   7  15   18.64    3.72
   5   7  15   17.28    3.56
   6   7  15   19.05    5.64
   6   7  15   15.56    3.60
   6   7  15   13.04    3.15
   7   7  15   -0.97    1.33
   7   7  15   -2.86    1.45
   7   7  15   -2.39    1.43
   8   7  15   -3.28    1.75
   8   7  15    0.74    1.60
   8   7  15    0.30    1.96
   5  -8 -15   47.65    6.29
   5  -8 -15   44.09    6.20
   4  -8 -15    4.78    2.33
   4  -8 -15    6.43    2.79
   3  -8 -15   32.77    5.84
   3  -8 -15   22.24    4.56
  -3   8  15   23.50    4.16
   2  -8 -15    1.84    1.43
   2  -8 -15    6.11    2.30
  -2   8  15    2.22    1.71
  -2   8  15    1.66    1.71
  -2   8  15    3.51    1.12
   1  -8 -15    2.23    1.91
   1  -8 -15    1.37    1.17
  -1   8  15    1.04    0.97
  -1   8  15    0.63    1.02
   0  -8 -15   12.18    4.00
   0  -8 -15   14.44    2.87
   0   8  15   12.96    2.45
   0   8  15    8.06    2.28
  -1  -8 -15   33.89    3.82
  -1  -8 -15   34.60    5.83
   1   8  15   42.34    4.10
   1   8  15   41.87    4.51
  -2  -8 -15   12.34    2.51
  -2  -8 -15   11.75    3.13
   2   8  15   10.50    2.65
   2   8  15   10.93    2.78
   2   8  15   14.59    5.25
  -3  -8 -15    7.43    1.83
   3   8  15    8.45    3.09
   3   8  15    8.64    2.40
   3   8  15    6.59    4.14
   4   8  15    2.36    1.48
   4   8  15    2.48    1.43
   4   8  15    5.21    1.91
   5   8  15    3.64    1.64
   5   8  15   -0.97    1.01
   5   8  15   -1.15    1.18
   6   8  15   -3.74    1.32
   6   8  15    2.28    1.48
   6   8  15   -0.73    1.59
   7   8  15    2.01    1.30
   7   8  15    4.20    2.02
   7   8  15   -0.51    1.61
   4  -9 -15    4.03    2.23
   4  -9 -15    1.29    1.87
   3  -9 -15    0.06    1.94
   3  -9 -15    0.92    1.55
  -3   9  15   -0.62    1.69
   2  -9 -15    5.11    2.24
   2  -9 -15    8.34    2.80
  -2   9  15    9.06    2.63
  -2   9  15    6.66    1.71
   1  -9 -15   20.79    3.88
   1  -9 -15   17.44    3.86
  -1   9  15   17.40    2.86
  -1   9  15   17.31    3.44
   0  -9 -15    4.62    2.23
   0  -9 -15    4.81    1.73
   0   9  15   10.73    2.23
   0   9  15    7.24    1.95
  -1  -9 -15   59.09    4.95
  -1  -9 -15   46.71    5.83
   1   9  15   52.91    4.83
   1   9  15   51.42    5.45
   1   9  15   47.78    5.39
  -2  -9 -15   10.35    3.25
  -2  -9 -15    6.69    1.66
   2   9  15   12.22    3.51
   2   9  15   12.85    2.98
  -3  -9 -15   15.79    4.50
  -3  -9 -15   12.18    2.26
   3   9  15   15.12    3.44
   3   9  15   13.96    3.40
   4   9  15    9.10    2.76
   4   9  15    5.27    2.32
   5   9  15   -1.10    1.32
   5   9  15    0.90    1.73
   6   9  15   10.20    2.95
   6   9  15    9.93    3.12
   7   9  15    3.57    2.53
   7   9  15   10.07    2.96
   7   9  15   -0.42    2.10
   3 -10 -15   13.02    4.23
   3 -10 -15   14.50    3.81
  -3  10  15   12.72    3.00
   2 -10 -15    3.27    2.26
   2 -10 -15   10.66    2.86
  -2  10  15    7.23    2.44
   1 -10 -15   12.59    3.87
   1 -10 -15   16.10    3.70
  -1  10  15    6.25    2.19
  -1  10  15    5.94    2.36
   0 -10 -15   13.61    3.62
   0 -10 -15    9.37    2.56
   0  10  15   15.82    3.72
   0  10  15   12.66    2.63
  -1 -10 -15    4.38    2.41
  -1 -10 -15    6.50    2.08
   1  10  15    4.65    2.52
   1  10  15    2.81    1.83
  -2 -10 -15    9.52    2.30
  -2 -10 -15   11.47    3.58
   2  10  15   17.93    3.99
   2  10  15   14.72    3.25
  -3 -10 -15    2.89    1.66
   3  10  15    1.37    2.21
   3  10  15   -1.74    1.40
   4  10  15    4.62    2.21
   4  10  15   -0.44    1.73
   5  10  15   -1.79    1.18
   5  10  15    1.59    2.21
   1 -11 -15    2.82    2.34
   1 -11 -15   12.28    3.62
  -1  11  15    3.16    2.34
  -1  11  15    7.44    2.39
   0 -11 -15   14.59    4.35
   0  11  15    9.54    2.87
  -1 -11 -15   -0.55    1.74
  -1 -11 -15   -0.16    1.85
   1  11  15    1.99    2.09
   1  11  15    2.77    2.17
  -2 -11 -15   -0.53    1.78
  -2 -11 -15    1.10    1.89
   2  11  15   -3.42    1.52
   2  11  15    1.11    2.39
  -3 -11 -15    3.98    2.47
   3  11  15    6.28    3.21
   3  11  15    2.88    2.07
   4  11  15    4.71    2.53
   4  11  15    4.34    2.65
   3   6 -16   -0.38    2.21
   2   6 -16    0.17    2.10
  -2  -6  16    0.92    2.02
   1   6 -16    1.56    2.57
  -1  -6  16    1.36    2.36
   0   6 -16   24.42    4.11
   0  -6  16   29.97    5.77
   1  -6  16   36.50    6.49
   2  -6  16   26.22    4.76
   4   5 -16    0.10    2.72
   4   5 -16   -0.17    1.96
   3   5 -16    2.30    2.26
   3   5 -16    4.69    3.35
  -3  -5  16   10.04    3.21
   2   5 -16    4.89    3.16
  -2  -5  16    1.17    2.07
   1   5 -16   31.06    3.99
  -1  -5  16   22.58    4.54
   0   5 -16   29.36    4.31
   0  -5  16   23.38    4.48
   1  -5  16   23.90    4.49
   2  -5  16    0.22    1.21
   3  -5  16   -1.97    1.96
   4  -5  16    4.73    2.01
   5   4 -16    2.50    2.16
   5   4 -16   -2.06    1.97
   4   4 -16   10.81    3.59
   4   4 -16   11.83    3.41
   3   4 -16   23.19    5.29
   3   4 -16   40.51    5.00
  -3  -4  16   28.66    5.06
   2   4 -16   37.75    4.69
   2   4 -16   34.74    6.77
  -2  -4  16   41.29    4.89
   1   4 -16   51.07    5.09
  -1  -4  16   46.19    5.43
   0   4 -16   34.34    4.03
   0  -4  16   34.73    4.51
  -1   4 -16    8.69    2.12
   1  -4  16    5.53    2.11
  -2   4 -16    2.42    0.99
   2  -4  16    1.22    1.37
   3  -4  16   -1.84    1.36
   4  -4  16    2.52    2.02
   5  -4  16   16.44    4.19
   6   3 -16    4.80    3.18
   5   3 -16    9.90    3.30
   4   3 -16   39.87    5.29
   3   3 -16   21.53    4.43
  -3  -3  16   16.98    3.48
   2   3 -16   31.71    5.71
  -2  -3  16   34.73    4.16
   1   3 -16    4.17    1.97
  -1  -3  16    8.46    2.45
   0  -3  16   11.84    4.96
  -1   3 -16   -1.65    0.93
  -1   3 -16   -1.48    1.95
   1  -3  16    1.34    1.12
  -2   3 -16    1.92    1.02
  -2   3 -16    5.27    1.61
   2  -3  16    1.90    1.45
   3  -3  16    2.91    2.19
   4  -3  16   22.05    4.42
   5  -3  16   21.55    4.08
   6  -3  16    4.87    2.18
   7   2 -16    2.51    2.28
   6   2 -16   17.27    4.06
   5   2 -16   24.56    5.03
   4   2 -16   45.45    5.65
  -4  -2  16   51.12    4.97
   3   2 -16   24.58    4.85
  -3  -2  16   33.06    3.84
  -2  -2  16    8.66    2.45
   1   2 -16    7.84    2.70
  -1  -2  16    5.91    1.94
   0   2 -16    8.98    2.98
   0  -2  16    7.91    2.25
  -1   2 -16   10.30    2.40
   1  -2  16   13.90    3.13
  -2   2 -16   10.44    2.20
   2  -2  16   16.18    3.39
  -3   2 -16   46.23    2.60
   3  -2  16   46.69    5.15
   4  -2  16   19.75    3.68
   4  -2  16   25.43    4.26
   5  -2  16    4.54    1.90
   5  -2  16    6.36    2.03
   6  -2  16    7.92    2.41
   6  -2  16   11.77    3.57
   7  -2  16   -0.23    1.63
   7  -2  16    1.86    1.81
   7   1 -16   38.49    6.59
   6   1 -16   18.59    4.22
   5   1 -16   38.27    5.00
   4   1 -16   33.57    4.47
  -4  -1  16   28.15    3.55
   3   1 -16   11.37    3.52
  -3  -1  16   11.97    2.77
   2   1 -16    3.06    1.79
  -2  -1  16    1.13    1.36
   1   1 -16   -1.10    1.19
  -1  -1  16    0.81    0.91
   0   1 -16   26.30    5.00
   0  -1  16   28.14    3.44
  -1   1 -16   71.37    5.31
  -1   1 -16   73.94    7.26
   1  -1  16   73.17    5.96
  -2   1 -16   32.28    3.35
   2  -1  16   33.66    3.98
   2  -1  16   36.60    4.23
   3  -1  16   54.46    5.21
   3  -1  16   53.83    5.31
   4  -1  16    1.32    1.28
   4  -1  16    8.63    2.42
   5  -1  16    0.28    1.30
   5  -1  16   -1.42    0.99
   6  -1  16    0.65    1.28
   6  -1  16    2.01    1.55
   7  -1  16    1.81    1.83
   7  -1  16    0.26    1.99
   7   0 -16   37.48    6.32
   6   0 -16   34.40    4.70
   5   0 -16    4.96    2.39
   4   0 -16    2.68    1.62
  -4   0  16    2.67    1.38
   3   0 -16   -0.19    0.86
  -3   0  16    0.09    0.98
   2   0 -16   10.28    3.04
  -2   0  16   10.84    2.33
   1   0 -16   28.67    3.97
  -1   0  16   29.82    3.39
   0   0 -16   46.62    5.27
   0   0  16   52.77    4.56
   0   0  16   46.09    4.91
  -1   0 -16   41.68    4.91
  -1   0 -16   38.40    3.86
   1   0  16   50.08    4.51
   1   0  16   46.67    4.71
  -2   0 -16   45.61    5.27
   2   0  16   54.45    4.99
   2   0  16   56.37    5.32
  -3   0 -16    2.65    1.73
   3   0  16    1.55    1.42
   3   0  16    1.79    1.39
   4   0  16    4.83    1.90
   4   0  16    4.04    1.69
   5   0  16   -0.10    1.18
   5   0  16    0.90    1.20
   6   0  16    3.47    2.02
   6   0  16    3.73    1.95
   7   0  16    7.42    2.71
   7   0  16   10.36    2.66
   8   0  16    5.28    1.90
   8   0  16    4.85    2.54
   7  -1 -16    5.64    3.07
   6  -1 -16    2.43    1.73
   5  -1 -16    1.09    1.38
   4  -1 -16    8.78    3.55
  -4   1  16    9.55    2.33
   3  -1 -16   10.26    2.93
  -3   1  16   15.75    2.73
   2  -1 -16   76.96    6.85
  -2   1  16   82.61    5.71
   1  -1 -16   53.34    5.55
  -1   1  16   57.85    5.62
  -1   1  16   66.39    5.01
   0  -1 -16   30.62    4.02
   0   1  16   28.71    3.83
   0   1  16   27.88    3.28
  -1  -1 -16    4.24    1.96
   1   1  16    4.05    1.28
   1   1  16    2.26    1.26
  -2  -1 -16   13.49    2.64
  -2  -1 -16   10.51    2.57
   2   1  16   12.75    2.92
   2   1  16   11.91    2.48
  -3  -1 -16    1.03    1.47
   3   1  16   -0.70    0.59
   3   1  16    1.47    0.99
  -4  -1 -16    2.84    1.65
   4   1  16    6.01    1.82
   4   1  16    2.96    1.50
  -5  -1 -16    2.09    1.29
   5   1  16    6.37    2.32
   5   1  16    7.36    2.22
   6   1  16   11.70    2.93
   6   1  16   16.27    3.62
   7   1  16   12.80    3.41
   7   1  16   23.44    4.44
   8   1  16   12.63    3.27
   8   1  16   12.46    3.45
   7  -2 -16    4.58    2.19
   7  -2 -16    3.20    1.90
   6  -2 -16    2.73    1.77
   6  -2 -16    4.61    2.25
   5  -2 -16    2.95    1.95
   5  -2 -16    6.75    2.30
   4  -2 -16   28.60    5.28
   4  -2 -16   19.24    3.79
  -4   2  16   19.68    2.34
   3  -2 -16   38.21    4.71
   3  -2 -16   43.40    4.87
  -3   2  16   38.89    3.48
   2  -2 -16   75.92    6.56
  -2   2  16   63.02    5.98
  -2   2  16   73.33    4.91
   1  -2 -16   44.49    4.86
  -1   2  16   43.48    3.76
  -1   2  16   42.14    4.54
   0  -2 -16   10.65    2.84
   0   2  16   17.36    3.26
   0   2  16   18.41    2.40
  -1  -2 -16   21.45    3.85
   1   2  16   25.73    3.50
   1   2  16   26.89    3.10
  -2  -2 -16    3.41    1.69
   2   2  16    0.65    1.01
   2   2  16    2.60    1.19
  -3  -2 -16    6.25    2.34
  -3  -2 -16    5.29    2.36
   3   2  16   11.19    2.67
   3   2  16    7.45    2.04
   4   2  16   35.40    4.19
   4   2  16   36.03    4.21
  -5  -2 -16   14.71    2.92
   5   2  16   26.75    4.37
   5   2  16   23.45    4.94
   6   2  16    8.15    2.54
   7   2  16    5.52    2.16
   7   2  16    7.15    2.28
   8   2  16    0.85    1.78
   8   2  16    4.95    1.89
   7  -3 -16    6.58    2.28
   7  -3 -16    5.97    2.85
   6  -3 -16    3.67    2.47
   6  -3 -16   12.85    3.28
   5  -3 -16   36.25    4.87
   5  -3 -16   42.22    4.87
   4  -3 -16   51.12    5.58
   4  -3 -16   60.22    6.89
   3  -3 -16   42.07    4.98
   3  -3 -16   42.97    5.12
  -3   3  16   42.00    3.29
   2  -3 -16   36.54    4.26
   2  -3 -16   22.85    4.33
  -2   3  16   30.99    3.89
  -2   3  16   30.52    2.95
   1  -3 -16   26.04    3.54
  -1   3  16   24.49    4.22
  -1   3  16   29.24    2.88
   0  -3 -16    0.90    0.82
   0   3  16    1.01    0.88
   0   3  16    0.87    0.76
  -1  -3 -16    1.16    1.04
   1   3  16    0.83    0.74
   1   3  16   -0.86    0.69
  -2  -3 -16   29.74    3.77
   2   3  16   20.94    3.69
   2   3  16   33.79    3.64
  -3  -3 -16   17.79    3.65
   3   3  16   19.47    3.60
   3   3  16   20.69    3.63
   4   3  16   22.40    3.82
   4   3  16   20.95    3.83
   4   3  16   22.00    3.89
  -5  -3 -16   10.05    3.33
   5   3  16    7.91    2.55
   5   3  16   13.40    3.12
   5   3  16   13.18    3.04
  -6  -3 -16    9.31    3.83
   6   3  16    8.35    2.70
   6   3  16   10.77    2.69
   6   3  16   13.75    3.09
   7   3  16    5.85    2.32
   7   3  16    2.85    1.96
   8   3  16    3.45    2.04
   8   3  16   -1.73    1.78
   7  -4 -16   23.26    4.77
   7  -4 -16   33.95    6.17
   6  -4 -16   31.03    5.91
   6  -4 -16   15.74    4.14
   5  -4 -16   35.48    5.79
   5  -4 -16   28.61    5.32
   4  -4 -16   46.23    5.52
   4  -4 -16   45.72    9.98
   3  -4 -16    8.81    2.95
   3  -4 -16    6.18    2.09
  -3   4  16    8.70    1.54
   2  -4 -16    1.18    0.97
   2  -4 -16    3.02    1.66
  -2   4  16    1.74    0.97
   1  -4 -16   -0.10    0.88
   1  -4 -16    3.09    1.55
  -1   4  16   -0.12    1.18
  -1   4  16    0.07    0.83
   0  -4 -16    8.83    2.81
   0  -4 -16    8.93    2.36
   0   4  16   13.12    2.36
   0   4  16   13.23    2.84
  -1  -4 -16   33.99    3.82
   1   4  16   35.19    3.64
   1   4  16   38.76    4.33
  -2  -4 -16   45.51    4.48
   2   4  16   47.26    4.43
   2   4  16   43.12    4.67
  -3  -4 -16   41.67    4.52
   3   4  16   37.65    4.12
   3   4  16   47.68    4.94
   3   4  16   44.29    4.55
   4   4  16    6.99    2.24
   4   4  16   11.04    2.50
   4   4  16    9.98    2.75
   5   4  16    7.68    2.08
   5   4  16   11.35    3.08
   5   4  16    5.92    2.31
   6   4  16    0.77    1.31
   6   4  16    2.04    1.48
   6   4  16   -2.57    1.37
   7   4  16    3.06    1.78
   7   4  16   -0.58    1.46
   8   4  16    3.29    1.93
   8   4  16    1.94    1.69
   7  -5 -16   16.53    4.27
   7  -5 -16   16.04    4.49
   6  -5 -16   33.95    6.02
   6  -5 -16   26.29    5.29
   5  -5 -16   36.75    4.98
   5  -5 -16   45.97    5.62
   4  -5 -16    6.41    2.36
   4  -5 -16    4.27    2.24
   3  -5 -16    1.40    1.98
   3  -5 -16    1.84    1.39
  -3   5  16    0.82    1.06
  -3   5  16    1.21    0.62
   2  -5 -16    0.87    0.87
   2  -5 -16    0.80    0.96
  -2   5  16    1.23    0.78
  -2   5  16    2.70    1.30
   1  -5 -16   24.84    3.41
   1  -5 -16   16.55    3.69
  -1   5  16   24.10    3.28
  -1   5  16   25.33    2.67
   0  -5 -16   17.18    4.01
   0  -5 -16   18.29    3.44
   0   5  16   24.14    4.01
   0   5  16   19.36    2.56
  -1  -5 -16   40.57    4.26
   1   5  16   44.86    4.75
   1   5  16   46.04    4.21
  -2  -5 -16   19.63    2.73
   2   5  16   23.62    3.07
   2   5  16   18.28    3.54
  -3  -5 -16   11.50    2.53
   3   5  16   13.57    3.22
   3   5  16    9.78    2.39
   4   5  16    6.66    2.36
   4   5  16   10.33    2.75
   5   5  16    6.66    2.46
   6   5  16    2.49    1.51
   6   5  16    2.72    1.60
   6   5  16    2.87    1.78
   7   5  16   11.53    3.11
   7   5  16    5.45    2.09
   7   5  16   10.91    3.04
   8   5  16    0.66    1.98
   8   5  16    1.93    1.64
   8   5  16    3.91    2.25
   6  -6 -16    6.33    2.98
   6  -6 -16    6.25    2.86
   5  -6 -16   12.17    3.90
   5  -6 -16    6.82    2.65
   4  -6 -16    1.56    1.90
   4  -6 -16    0.33    1.30
   3  -6 -16    2.82    1.76
   3  -6 -16    3.30    1.64
  -3   6  16    2.99    1.32
   2  -6 -16    6.30    2.49
   2  -6 -16    4.78    2.16
  -2   6  16    5.42    1.84
  -2   6  16    5.62    1.22
   1  -6 -16   21.59    4.33
   1  -6 -16   20.89    3.79
  -1   6  16   22.34    2.55
  -1   6  16   26.90    3.31
   0  -6 -16   47.90    5.68
   0  -6 -16   47.58    4.78
   0   6  16   55.30    4.37
   0   6  16   46.89    4.83
  -1  -6 -16   17.92    4.02
  -1  -6 -16   14.70    2.91
   1   6  16   20.92    3.46
   1   6  16   10.38    2.80
  -2  -6 -16    2.55    1.13
   2   6  16    2.84    1.38
   2   6  16    4.58    1.78
  -3  -6 -16    1.82    1.32
   3   6  16    1.51    1.17
   3   6  16    0.76    0.94
   4   6  16    0.56    1.37
   4   6  16    1.58    1.32
   4   6  16   -0.41    1.14
   5   6  16   14.41    3.21
   5   6  16   10.78    2.87
   5   6  16   12.46    2.62
   6   6  16    9.37    3.02
   6   6  16   10.89    2.58
   6   6  16   10.04    3.30
   7   6  16    5.44    2.32
   7   6  16    5.73    2.45
   7   6  16    3.12    2.02
   8   6  16    9.79    3.33
   8   6  16   14.55    2.94
   8   6  16    3.92    2.34
   6  -7 -16    0.92    2.01
   6  -7 -16    4.27    2.56
   5  -7 -16    9.52    3.55
   5  -7 -16    6.35    2.72
   4  -7 -16   13.88    3.50
   3  -7 -16   37.53    4.74
   3  -7 -16   34.66    4.83
  -3   7  16   30.39    4.10
   2  -7 -16   41.51    5.38
   2  -7 -16   39.21    4.59
  -2   7  16   43.39    4.52
  -2   7  16   39.56    2.93
   1  -7 -16   19.57    3.66
   1  -7 -16   12.59    4.33
  -1   7  16   14.05    3.20
  -1   7  16   11.89    2.23
   0  -7 -16   15.02    3.73
   0  -7 -16   23.19    3.17
   0   7  16   22.51    2.82
   0   7  16   20.82    3.75
  -1  -7 -16   33.83    5.70
  -1  -7 -16   30.73    3.64
   1   7  16   32.49    3.56
   1   7  16   35.14    4.20
  -2  -7 -16    2.02    1.36
  -2  -7 -16    3.02    2.17
   2   7  16    3.30    1.58
   2   7  16    1.60    1.30
  -3  -7 -16    0.54    1.01
   3   7  16    2.17    1.15
   3   7  16   -0.80    0.90
   3   7  16    0.84    1.18
   4   7  16    6.96    2.22
   4   7  16    6.66    2.21
   5   7  16   11.12    2.95
   5   7  16    9.59    2.99
   5   7  16    8.34    3.68
   6   7  16   23.97    4.10
   6   7  16   19.03    4.09
   6   7  16   29.84    5.27
   7   7  16    0.19    1.56
   7   7  16    1.59    1.98
   7   7  16    2.07    2.07
   5  -8 -16   29.00    6.47
   5  -8 -16   32.87    5.61
   4  -8 -16   15.87    4.10
   4  -8 -16   14.20    3.55
   3  -8 -16   36.44    4.73
   3  -8 -16   36.94    6.42
  -3   8  16   34.95    4.30
   2  -8 -16   23.80    4.77
  -2   8  16   16.34    2.05
  -2   8  16   19.94    3.74
   1  -8 -16    9.14    2.29
   1  -8 -16   18.73    4.25
  -1   8  16   10.87    2.68
  -1   8  16   10.66    2.13
   0  -8 -16    0.83    1.04
   0   8  16   -1.55    0.96
   0   8  16    0.98    1.34
  -1  -8 -16   -0.23    0.96
  -1  -8 -16    0.33    1.33
   1   8  16   -1.20    0.75
   1   8  16    0.45    1.26
  -2  -8 -16    2.52    1.35
  -2  -8 -16    6.19    2.77
   2   8  16    5.08    1.98
   2   8  16    3.99    2.14
   2   8  16    6.03    1.85
  -3  -8 -16   25.23    2.97
   3   8  16   26.96    4.58
   3   8  16   22.61    4.29
   3   8  16   25.33    4.12
   4   8  16    3.81    1.88
   4   8  16    4.72    1.93
   4   8  16   10.38    2.61
   5   8  16    4.68    2.17
   5   8  16    4.06    1.83
   5   8  16    1.93    1.82
   6   8  16    8.39    2.66
   6   8  16    8.20    2.96
   6   8  16    3.95    2.39
   7   8  16    7.17    3.01
   7   8  16    4.53    2.23
   7   8  16   11.76    3.41
   4  -9 -16   23.12    5.28
   4  -9 -16   23.59    5.34
   3  -9 -16   10.66    3.52
   3  -9 -16   10.60    2.91
  -3   9  16    5.27    2.41
   2  -9 -16    5.73    2.79
   2  -9 -16    3.63    1.68
  -2   9  16    3.01    1.91
  -2   9  16    1.47    1.26
   1  -9 -16   -0.67    1.44
   1  -9 -16    3.96    1.81
  -1   9  16   -0.27    1.27
  -1   9  16    3.67    1.43
   0  -9 -16   -1.89    1.19
   0  -9 -16    1.94    1.57
   0   9  16    1.59    1.34
   0   9  16   -1.18    1.63
  -1  -9 -16    1.59    1.94
  -1  -9 -16    1.31    1.51
   1   9  16    1.70    1.72
   1   9  16    7.01    1.94
  -2  -9 -16    6.86    2.12
  -2  -9 -16    5.52    2.10
   2   9  16    4.51    1.93
   2   9  16    4.45    2.07
   2   9  16    6.28    2.40
  -3  -9 -16   11.57    2.18
   3   9  16   20.01    4.03
   3   9  16   20.88    3.73
   3   9  16   16.16    3.89
   4   9  16    5.68    2.31
   4   9  16    5.49    2.17
   4   9  16    1.94    1.92
   5   9  16    3.07    2.04
   5   9  16    1.87    1.50
   5   9  16    5.66    2.03
   6   9  16   -1.07    1.56
   6   9  16    1.63    1.94
   6   9  16    2.81    1.79
   2 -10 -16    4.27    1.93
   2 -10 -16    1.76    2.01
  -2  10  16    1.49    2.60
   1 -10 -16    3.97    2.59
   1 -10 -16    1.72    1.71
  -1  10  16   -1.38    1.46
  -1  10  16    0.82    1.74
   0 -10 -16   13.27    3.24
   0 -10 -16   10.26    2.77
   0  10  16   11.30    2.91
   0  10  16   12.84    2.66
  -1 -10 -16    2.93    1.60
  -1 -10 -16    5.81    2.51
   1  10  16    4.82    1.91
   1  10  16    7.62    2.65
  -2 -10 -16   13.96    3.76
  -2 -10 -16   10.39    2.63
   2  10  16   14.82    3.34
   2  10  16   20.27    4.02
   2  10  16   20.61    4.41
   3  10  16    9.24    2.78
   3  10  16   11.73    3.63
   4  10  16    1.54    1.91
   4  10  16    0.29    2.06
   5  10  16    9.00    2.67
   5  10  16   14.57    3.65
   0 -11 -16    2.64    2.40
   0 -11 -16   -3.57    1.62
   0  11  16    0.07    1.81
   0  11  16    1.96    2.07
  -1 -11 -16   27.40    5.30
  -1 -11 -16   18.53    3.73
   1  11  16   19.98    3.79
   1  11  16   13.34    3.63
  -2 -11 -16    4.07    2.56
   2  11  16    2.40    2.42
   2  11  16    5.69    2.37
   3   5 -17    5.97    2.69
  -3  -5  17    7.31    2.68
   2   5 -17   -0.32    2.12
  -2  -5  17    1.25    2.13
   1   5 -17    4.60    2.23
  -1  -5  17    5.16    2.47
   0   5 -17   -0.12    2.05
   0  -5  17    0.40    2.24
   1  -5  17   23.66    4.58
   2  -5  17   29.20    4.95
   5   4 -17   -0.89    2.22
   4   4 -17    5.18    3.12
   4   4 -17    7.87    2.57
   3   4 -17   -0.81    1.77
  -3  -4  17   -0.73    1.81
   2   4 -17    9.87    3.63
  -2  -4  17   13.03    3.05
   1   4 -17   14.63    3.12
  -1  -4  17   19.79    4.10
   0   4 -17   18.71    3.48
   0  -4  17   32.37    4.16
  -1   4 -17   31.35    3.60
   1  -4  17   23.50    4.70
   2  -4  17    8.70    2.70
   3  -4  17    4.40    2.55
   4  -4  17    4.61    2.58
   5   3 -17    1.12    2.09
   4   3 -17   -1.75    1.49
   3   3 -17   12.31    3.35
  -3  -3  17   10.80    2.70
   2   3 -17   44.01    5.95
  -2  -3  17   39.99    4.91
   1   3 -17    9.76    3.05
  -1  -3  17   10.40    2.96
   0  -3  17   29.66    3.95
  -1   3 -17   36.96    3.74
   1  -3  17   38.26    4.78
  -2   3 -17    2.64    1.24
   2  -3  17    1.95    1.86
   3  -3  17   -2.11    1.36
   4  -3  17    3.53    1.75
   5  -3  17    8.63    2.92
   6   2 -17    2.48    1.77
   5   2 -17    2.01    2.15
   4   2 -17   14.50    4.01
  -4  -2  17   13.31    3.11
   3   2 -17   22.50    4.72
  -3  -2  17   21.94    4.26
   2   2 -17   20.62    4.40
  -2  -2  17   28.27    4.52
   1   2 -17   10.04    3.12
  -1  -2  17   12.47    3.16
   0   2 -17   22.69    5.06
   0  -2  17   20.47    3.89
   1  -2  17   15.96    3.43
  -2   2 -17    1.54    2.05
   2  -2  17    2.39    1.36
  -3   2 -17    2.32    0.88
  -3   2 -17    2.31    0.82
   3  -2  17    2.27    1.51
   4  -2  17    4.38    1.88
   5  -2  17   13.01    3.07
   6  -2  17   11.60    3.11
   6   1 -17    7.81    3.14
   5   1 -17   13.53    3.51
   4   1 -17   46.21    5.86
  -4  -1  17   44.59    4.70
   3   1 -17   48.72    5.79
  -3  -1  17   40.18    4.48
   2   1 -17   30.43    5.54
  -2  -1  17   39.49    4.13
   1   1 -17   13.98    4.10
  -1  -1  17   22.45    3.78
   0   1 -17   -0.43    1.37
   0  -1  17    5.51    1.84
  -1   1 -17   13.04    3.61
   1  -1  17    8.03    2.29
   2  -1  17    7.46    2.52
   2  -1  17    7.37    2.19
   3  -1  17   17.96    3.51
   3  -1  17   19.96    3.52
   4  -1  17   19.97    4.57
   4  -1  17   22.04    3.97
   5  -1  17   18.92    3.56
   5  -1  17   16.92    3.66
   6  -1  17    1.05    1.83
   6  -1  17    2.52    2.09
   7  -1  17    3.50    2.27
   7  -1  17    2.45    2.44
   7   0 -17   12.62    3.78
   6   0 -17   26.89    5.35
   5   0 -17   37.01    4.87
   4   0 -17   19.36    4.20
  -4   0  17   25.48    3.37
   3   0 -17   16.26    3.74
  -3   0  17   11.41    2.56
   2   0 -17   10.81    2.98
  -2   0  17   16.75    3.04
   1   0 -17   -0.56    1.04
  -1   0  17    0.43    0.86
   0   0 -17    2.11    1.40
   0   0  17    1.25    1.15
  -1   0 -17   20.87    4.40
   1   0  17   14.46    3.34
   1   0  17   18.36    3.36
  -2   0 -17   52.47    4.47
  -2   0 -17   41.63    5.36
   2   0  17   49.57    5.20
   2   0  17   50.27    5.00
   3   0  17   29.97    3.97
   3   0  17   30.18    4.75
  -4   0 -17   35.59    3.99
   4   0  17   33.65    4.29
   4   0  17   39.37    4.47
   5   0  17   11.77    3.37
   5   0  17   16.84    3.46
   6   0  17    0.49    1.76
   6   0  17    0.44    1.75
   7   0  17    1.25    2.06
   7   0  17   -2.26    1.80
   7  -1 -17   29.85    5.39
   6  -1 -17   26.68    5.42
   5  -1 -17   19.63    4.18
   4  -1 -17    9.41    2.79
  -4   1  17    9.26    2.09
  -3   1  17    1.72    1.31
   2  -1 -17    1.47    1.20
  -2   1  17    1.98    1.12
   1  -1 -17   15.32    3.48
  -1   1  17   17.83    2.98
  -1   1  17   14.33    3.40
   0  -1 -17   34.79    4.45
   0   1  17   38.09    3.90
   0   1  17   34.42    4.21
  -1  -1 -17    2.26    1.31
   1   1  17    3.85    1.71
   1   1  17    4.90    1.70
  -2  -1 -17   20.57    4.15
   2   1  17   12.09    2.92
   2   1  17   21.06    3.70
  -3  -1 -17    4.49    2.17
   3   1  17    5.44    2.02
   3   1  17    2.46    1.56
  -4  -1 -17    3.34    2.26
   4   1  17    5.33    2.14
   4   1  17    6.21    2.07
  -5  -1 -17    2.07    2.31
   5   1  17   -2.38    1.11
   5   1  17    0.96    1.84
   6   1  17   -1.10    1.38
   6   1  17    2.05    1.85
   7   1  17   -0.25    1.65
   7   1  17    3.25    1.85
   8   1  17   12.94    2.92
   8   1  17    7.62    2.84
   7  -2 -17   13.22    3.74
   7  -2 -17   14.90    3.49
   6  -2 -17    6.94    2.70
   6  -2 -17    5.16    2.48
   5  -2 -17    5.03    2.11
   5  -2 -17    0.64    1.75
   4  -2 -17   -2.14    0.83
  -4   2  17    1.45    1.01
   3  -2 -17    8.64    2.84
  -3   2  17    7.49    1.94
   2  -2 -17   25.37    4.52
  -2   2  17   26.75    2.98
   1  -2 -17   48.31    5.28
  -1   2  17   49.73    5.04
  -1   2  17   45.67    4.10
   0  -2 -17   56.48    5.73
   0   2  17   62.02    5.80
   0   2  17   59.91    4.90
  -1  -2 -17   14.01    3.07
   1   2  17   10.62    2.59
   1   2  17   15.03    3.13
  -2  -2 -17   38.55    4.82
   2   2  17   46.29    4.57
   2   2  17   55.56    5.23
  -3  -2 -17   27.02    4.65
   3   2  17   37.79    4.37
   3   2  17   36.63    4.25
  -4  -2 -17    3.41    2.48
   4   2  17    0.84    1.03
   4   2  17    2.11    1.33
  -5  -2 -17    0.07    2.48
   5   2  17    0.02    1.26
   5   2  17    1.09    1.47
   6   2  17    2.86    1.78
   6   2  17    1.19    1.57
   7   2  17    2.20    1.93
   7   2  17    4.31    2.02
   8   2  17    8.28    3.15
   8   2  17   10.15    2.79
   7  -3 -17   13.99    3.76
   7  -3 -17   20.65    4.74
   6  -3 -17   19.70    4.41
   6  -3 -17   17.42    4.42
   5  -3 -17    1.64    1.80
   5  -3 -17    5.52    1.93
   4  -3 -17   16.64    3.84
   4  -3 -17   13.54    3.37
   3  -3 -17   16.78    3.92
   3  -3 -17   18.63    3.87
  -3   3  17   22.88    2.50
   2  -3 -17   21.10    4.23
   2  -3 -17   15.78    3.68
  -2   3  17   24.69    4.22
  -2   3  17   24.64    2.65
   1  -3 -17   50.10    5.20
  -1   3  17   44.97    4.88
  -1   3  17   46.66    3.99
   0  -3 -17   29.74    3.90
   0   3  17   28.70    3.13
   0   3  17   30.45    4.00
  -1  -3 -17    6.48    2.26
   1   3  17    7.30    2.07
   1   3  17    6.76    2.00
  -2  -3 -17    2.40    1.57
   2   3  17    7.31    2.01
   2   3  17    1.84    1.19
  -3  -3 -17    0.24    1.07
   3   3  17    1.10    1.29
   3   3  17    1.99    1.35
   4   3  17   18.85    3.58
   4   3  17   19.48    3.73
   5   3  17    2.98    1.81
   5   3  17    4.31    1.85
   6   3  17    4.59    2.03
   6   3  17    7.28    2.49
   7   3  17   16.24    3.63
   7   3  17   20.57    4.29
   8   3  17    0.32    1.76
   8   3  17    1.53    1.81
   7  -4 -17    0.86    1.90
   7  -4 -17    1.02    2.68
   6  -4 -17    5.07    2.27
   6  -4 -17    9.14    2.68
   5  -4 -17   12.28    3.57
   5  -4 -17   10.61    3.29
   4  -4 -17   32.79    4.49
   4  -4 -17   30.11    5.30
   3  -4 -17   30.81    6.62
   3  -4 -17   33.30    6.34
  -3   4  17   24.37    2.44
   2  -4 -17   35.77    4.49
   2  -4 -17   27.74    4.89
  -2   4  17   29.94    4.91
   1  -4 -17   35.40    4.69
   1  -4 -17   35.22    4.22
  -1   4  17   39.75    3.46
  -1   4  17   35.06    4.28
   0  -4 -17   24.96    3.42
   0   4  17   20.04    3.90
   0   4  17   21.32    3.29
  -1  -4 -17   -0.51    0.89
   1   4  17    1.82    1.01
   1   4  17    0.13    1.03
  -2  -4 -17    2.55    1.62
   2   4  17    2.20    1.57
   2   4  17    2.71    1.73
  -3  -4 -17   11.19    2.73
   3   4  17   11.43    2.78
   3   4  17   12.03    2.92
   4   4  17   17.24    3.31
   5   4  17   19.28    3.53
   5   4  17   13.72    3.19
   5   4  17   25.78    4.49
   6   4  17    1.27    1.43
   6   4  17    2.00    1.50
   7   4  17    4.49    2.28
   7   4  17    4.25    2.01
   8   4  17   -1.42    1.63
   8   4  17    5.89    2.44
   6  -5 -17   26.33    5.26
   6  -5 -17   28.25    5.55
   5  -5 -17   62.01    6.82
   5  -5 -17   63.86    6.90
   4  -5 -17    9.91    2.91
   4  -5 -17   11.01    3.03
   3  -5 -17   41.06    5.28
   3  -5 -17   50.01    8.44
  -3   5  17   32.78    2.44
  -3   5  17   32.96    4.21
   2  -5 -17   14.24    5.10
   2  -5 -17   11.92    3.03
  -2   5  17    9.41    2.78
  -2   5  17   12.65    1.95
   1  -5 -17    1.84    1.50
   1  -5 -17   -0.41    1.04
  -1   5  17    1.40    1.50
  -1   5  17    0.59    0.97
   0  -5 -17    0.47    1.24
   0  -5 -17    2.02    1.46
   0   5  17    0.91    1.12
   0   5  17    1.54    1.12
  -1  -5 -17    4.63    1.72
   1   5  17    3.21    1.56
   1   5  17    4.98    1.60
  -2  -5 -17   10.35    2.30
   2   5  17   10.45    2.63
   2   5  17   10.66    2.68
  -3  -5 -17   14.05    2.89
   3   5  17   11.29    2.84
   3   5  17   12.15    3.23
   4   5  17   11.37    2.95
   4   5  17   11.12    2.85
   5   5  17    4.67    2.13
   5   5  17    4.76    1.69
   6   5  17   19.08    3.92
   6   5  17   10.48    3.13
   7   5  17   -0.01    1.75
   7   5  17   -2.33    1.20
   8   5  17    1.32    1.87
   8   5  17   -1.09    1.51
   6  -6 -17    6.00    2.68
   6  -6 -17    0.91    2.17
   5  -6 -17   39.43    5.46
   5  -6 -17   36.02    6.65
   4  -6 -17    1.79    1.80
   4  -6 -17    4.91    2.31
   3  -6 -17   25.37    4.57
   3  -6 -17   33.54    6.13
  -3   6  17   25.90    4.34
   2  -6 -17    0.53    1.22
   2  -6 -17    0.16    1.20
  -2   6  17   -1.15    1.17
  -2   6  17    1.58    0.92
   1  -6 -17    3.29    1.75
   1  -6 -17    1.31    1.38
  -1   6  17    1.06    1.14
  -1   6  17    4.56    1.61
   0  -6 -17   15.26    5.65
   0  -6 -17   11.01    2.80
   0   6  17   15.53    3.43
   0   6  17   14.25    2.55
  -1  -6 -17   12.12    3.49
  -1  -6 -17   22.11    3.87
   1   6  17   21.73    4.02
   1   6  17   20.67    2.62
  -2  -6 -17    7.62    2.15
   2   6  17   11.84    3.12
   2   6  17   15.05    2.96
  -3  -6 -17   20.96    3.56
   3   6  17   20.50    3.70
   3   6  17   15.63    3.55
   4   6  17    8.54    2.41
   4   6  17    8.31    2.59
   5   6  17   -0.56    1.23
   5   6  17    0.93    1.33
   6   6  17   -0.06    1.90
   6   6  17   -1.44    1.38
   6   6  17    0.61    1.68
   7   6  17    4.16    2.09
   7   6  17    3.26    2.18
   7   6  17    1.18    1.93
   5  -7 -17    6.47    3.45
   5  -7 -17    5.25    2.83
   4  -7 -17   12.11    3.64
   4  -7 -17    7.67    3.13
   3  -7 -17    3.34    1.93
   3  -7 -17    2.20    1.64
  -3   7  17    4.16    1.73
   2  -7 -17    7.66    2.93
   2  -7 -17    4.76    2.66
  -2   7  17   10.45    2.52
  -2   7  17   10.25    1.71
   1  -7 -17   18.50    3.92
   1  -7 -17   11.04    2.88
  -1   7  17   15.39    3.27
  -1   7  17   10.97    2.23
   0  -7 -17   12.46    3.84
   0  -7 -17    8.72    2.38
   0   7  17   12.42    2.47
   0   7  17   10.10    2.63
  -1  -7 -17   25.89    4.13
   1   7  17   23.75    3.12
  -2  -7 -17   13.42    2.52
   2   7  17   22.74    3.83
   2   7  17   16.28    3.47
  -3  -7 -17    5.35    2.32
   3   7  17    4.80    2.14
   3   7  17    7.32    2.21
   4   7  17    6.44    2.17
   4   7  17    1.89    1.78
   4   7  17    4.11    2.16
   5   7  17    0.65    1.45
   5   7  17    2.63    1.59
   5   7  17   -2.59    1.43
   6   7  17    3.67    2.33
   6   7  17    4.39    2.17
   6   7  17    6.46    2.75
   7   7  17    9.52    2.56
   7   7  17    0.86    2.43
   7   7  17    4.22    2.44
   4  -8 -17   -1.69    1.65
   4  -8 -17   -0.77    1.66
   3  -8 -17   17.34    3.70
   3  -8 -17   17.07    4.14
  -3   8  17   17.03    4.66
   2  -8 -17   20.67    4.29
   2  -8 -17   23.16    4.94
  -2   8  17   12.93    1.91
  -2   8  17   21.21    6.38
   1  -8 -17   14.48    3.26
   1  -8 -17   14.27    3.59
  -1   8  17   17.85    2.75
   0  -8 -17   15.15    3.76
   0  -8 -17   13.51    2.68
   0   8  17   24.68    4.40
  -1  -8 -17    2.17    1.70
  -1  -8 -17    8.86    2.68
   1   8  17    9.29    2.63
   1   8  17    3.49    1.88
  -2  -8 -17   11.55    3.58
  -2  -8 -17   15.09    2.82
   2   8  17   17.16    3.84
   2   8  17   16.34    3.19
  -3  -8 -17    2.11    2.20
   3   8  17    1.19    1.77
   3   8  17    3.38    1.99
   4   8  17    2.53    1.66
   4   8  17    1.33    1.52
   4   8  17    0.83    1.53
   5   8  17   -0.44    1.46
   5   8  17    2.82    1.54
   6   8  17    2.39    2.26
   6   8  17    7.04    2.91
   6   8  17    8.89    3.14
   3  -9 -17   18.10    4.68
   3  -9 -17   10.24    2.93
  -3   9  17   11.04    3.11
   2  -9 -17   13.06    3.91
   2  -9 -17   13.17    3.54
  -2   9  17   15.42    3.59
   1  -9 -17   19.03    4.49
   1  -9 -17   13.50    2.92
  -1   9  17   24.65    3.00
  -1   9  17   17.57    3.44
   0  -9 -17    5.27    2.54
   0  -9 -17    3.31    1.92
   0   9  17    4.86    1.91
   0   9  17    4.20    1.96
  -1  -9 -17    0.93    1.80
  -1  -9 -17    2.66    1.61
   1   9  17    3.02    1.71
   1   9  17    1.41    1.66
  -2  -9 -17    1.23    1.75
  -2  -9 -17    9.20    3.12
   2   9  17    6.57    2.38
   2   9  17    4.45    1.92
  -3  -9 -17    1.40    1.69
   3   9  17    1.00    1.63
   3   9  17    1.87    1.38
   3   9  17    1.42    1.65
   4   9  17   10.52    3.09
   4   9  17    9.56    3.12
   4   9  17    8.31    3.04
   5   9  17    2.56    2.02
   5   9  17   -0.61    1.88
   5   9  17    0.52    1.97
   2 -10 -17    8.56    3.09
   2 -10 -17   11.13    4.71
   1 -10 -17    3.78    2.78
   1 -10 -17    4.57    2.21
  -1  10  17    9.89    2.44
  -1  10  17    3.33    2.31
   0 -10 -17    3.05    2.27
   0  10  17    1.62    1.99
   0  10  17    1.75    2.01
  -1 -10 -17    2.08    1.57
   1  10  17    0.44    1.68
   1  10  17    1.31    1.73
  -2 -10 -17    6.83    2.33
  -2 -10 -17    7.09    2.99
   2  10  17    8.69    2.59
   2  10  17   15.64    3.60
   3  10  17    4.32    2.68
   3  10  17    1.54    1.83
   3  10  17    1.61    2.44
   4  10  17    6.26    2.90
   4  10  17   10.43    3.07
   4  10  17    2.99    2.84
   3   4 -18   15.02    3.75
   3   4 -18   16.06    4.86
  -3  -4  18   26.98    4.82
   2   4 -18    4.27    1.93
   2   4 -18    5.13    3.00
  -2  -4  18    4.19    2.36
   1   4 -18    0.08    1.85
  -1  -4  18    2.95    2.14
   0   4 -18    1.36    1.89
   0  -4  18    2.81    1.76
  -1   4 -18    5.88    2.23
   1  -4  18    1.90    1.43
   2  -4  18    9.74    3.47
   3  -4  18   11.20    3.34
   4   3 -18    7.66    3.47
   3   3 -18    1.91    2.54
  -3  -3  18    8.81    2.52
   2   3 -18    0.56    1.65
  -2  -3  18    2.80    1.53
   1   3 -18    3.07    2.80
  -1  -3  18   12.88    3.25
   0  -3  18   15.10    3.34
  -1   3 -18   45.98    4.49
   1  -3  18   40.01    5.03
  -2   3 -18   10.82    2.16
   2  -3  18   25.12    4.35
   3  -3  18   20.75    4.14
   4  -3  18    1.33    1.97
   5   2 -18    2.94    2.62
   4   2 -18    4.83    2.49
  -4  -2  18    5.94    3.79
   3   2 -18   -3.24    1.81
  -3  -2  18   -1.92    3.08
   2   2 -18    0.81    2.11
  -2  -2  18    1.07    2.05
   1   2 -18   22.61    4.75
  -1  -2  18   32.70    4.24
   0   2 -18    5.01    3.03
   0  -2  18    5.07    1.90
   1  -2  18   19.36    3.67
   2  -2  18   32.06    5.11
   3  -2  18    3.31    1.95
   4  -2  18    2.86    2.23
   5  -2  18    0.87    1.91
   6   1 -18    6.41    3.01
   5   1 -18   -0.19    1.58
   4   1 -18   -0.26    2.05
  -4  -1  18    0.44    1.46
   3   1 -18    5.21    2.26
  -3  -1  18    7.28    2.44
   2   1 -18   31.16    5.69
  -2  -1  18   36.26    4.39
   1   1 -18   41.36    5.37
  -1  -1  18   38.06    4.52
   0   1 -18   15.06    3.94
  -1   1 -18    1.04    1.96
   1  -1  18    8.08    2.13
   2  -1  18    5.30    1.94
   3  -1  18    3.18    1.55
   3  -1  18   -1.72    0.81
   4  -1  18    1.16    1.21
   4  -1  18    1.69    1.50
   5  -1  18    4.33    2.02
   5  -1  18    8.58    2.54
   6  -1  18   13.88    3.67
   6   0 -18   -1.31    1.73
   5   0 -18   14.17    4.09
   4   0 -18   27.35    5.43
  -4   0  18   29.09    3.62
   3   0 -18   28.98    5.40
  -3   0  18   46.26    4.53
   2   0 -18   53.80    5.88
  -2   0  18   47.80    4.75
   1   0 -18   17.16    4.20
  -1   0  18    9.97    2.65
   0   0 -18   16.20    4.00
   0   0  18   18.96    3.44
  -1   0 -18   -1.90    0.92
   1   0  18   -0.60    1.22
   1   0  18   -0.39    1.63
  -2   0 -18   -0.15    1.45
   2   0  18    0.63    1.63
  -3   0 -18    1.18    3.45
   3   0  18    3.52    1.63
   3   0  18    0.59    1.45
   4   0  18   33.28    4.28
   4   0  18   25.49    4.59
   5   0  18    9.34    2.50
   5   0  18   12.93    2.76
   6   0  18    6.83    2.39
   6   0  18    2.32    2.37
   7   0  18    3.04    2.27
   7   0  18    1.71    2.20
   6  -1 -18    5.76    2.56
   5  -1 -18   20.35    4.77
   4  -1 -18   49.02    5.92
  -4   1  18   55.13    4.71
   3  -1 -18   23.04    4.83
  -3   1  18   23.98    3.52
   2  -1 -18    8.00    2.64
  -2   1  18    9.51    2.28
   1  -1 -18   19.12    4.48
  -1   1  18   13.29    2.88
   0  -1 -18   -0.76    1.46
   0   1  18    1.07    1.25
   0   1  18    0.23    1.24
  -1  -1 -18    8.11    2.76
   1   1  18    6.41    1.90
   1   1  18    4.84    2.50
  -2  -1 -18   28.52    5.22
   2   1  18   26.12    6.34
   2   1  18   32.34    3.76
  -3  -1 -18    7.12    3.13
   3   1  18   12.72    3.57
   3   1  18   10.65    2.89
   4   1  18   24.19    4.12
   4   1  18   24.34    4.42
   5   1  18    8.01    2.30
   5   1  18    8.43    2.62
   6   1  18    3.61    2.29
   6   1  18    6.37    2.67
   7   1  18    0.67    1.82
   7   1  18    1.10    2.06
   6  -2 -18   29.61    5.90
   5  -2 -18    8.00    2.80
   4  -2 -18   10.69    3.12
  -4   2  18    8.03    2.09
   3  -2 -18    5.71    2.40
  -3   2  18    5.67    1.85
  -2   2  18    0.09    0.97
   1  -2 -18    0.19    1.21
  -1   2  18   -0.75    1.28
  -1   2  18    1.66    0.88
   0  -2 -18    9.50    2.90
   0   2  18   11.33    2.90
   0   2  18    6.79    1.89
  -1  -2 -18   42.03    4.77
   1   2  18   42.58    4.20
   1   2  18   35.18    4.55
  -2  -2 -18    8.05    2.30
   2   2  18    6.65    2.80
   2   2  18    6.67    2.10
   3   2  18   13.23    3.75
   3   2  18    7.95    2.34
   4   2  18   15.72    3.36
   4   2  18   13.55    3.21
   5   2  18   10.74    2.99
   5   2  18   17.73    3.61
   6   2  18    2.77    1.53
   6   2  18    0.80    1.28
   7   2  18    0.81    1.63
   7   2  18   -1.33    1.64
   6  -3 -18   23.99    4.87
   6  -3 -18   26.59    4.94
   5  -3 -18   43.28    7.15
   5  -3 -18   46.28    5.44
   4  -3 -18    8.94    3.02
   4  -3 -18    3.08    1.93
   3  -3 -18   -0.96    0.96
   2  -3 -18    6.04    2.67
  -2   3  18   -1.47    2.08
  -2   3  18    1.35    0.97
   1  -3 -18   22.29    4.12
  -1   3  18   31.03    4.14
  -1   3  18   23.13    2.96
   0  -3 -18   18.05    3.54
   0   3  18   24.95    4.43
   0   3  18   29.54    3.18
  -1  -3 -18   33.53    4.43
   1   3  18   44.52    5.00
   1   3  18   43.52    4.17
   2   3  18   13.64    3.27
   2   3  18   11.48    2.80
  -3  -3 -18   20.59    3.84
   3   3  18   19.54    3.40
   3   3  18   14.76    3.92
   4   3  18   14.66    3.17
   4   3  18   16.81    3.72
   5   3  18    3.28    1.52
   5   3  18    2.07    1.68
   6   3  18   -0.77    1.26
   6   3  18    1.69    1.48
   7   3  18    1.59    1.56
   7   3  18    3.25    1.96
   6  -4 -18    6.75    2.59
   6  -4 -18    6.39    2.54
   5  -4 -18    9.75    3.67
   5  -4 -18   10.28    3.38
   4  -4 -18    1.02    1.15
   4  -4 -18    5.34    2.33
   3  -4 -18    6.25    2.65
   3  -4 -18   10.44    2.89
  -3   4  18    3.42    1.29
   2  -4 -18    8.34    3.07
   2  -4 -18   11.74    3.36
  -2   4  18   14.21    4.25
  -2   4  18   13.51    2.24
   1  -4 -18   29.95    4.14
  -1   4  18   27.77    4.88
  -1   4  18   30.07    3.20
   0  -4 -18   76.66    6.59
   0   4  18   65.27    6.34
   0   4  18   79.49    5.74
  -1  -4 -18   16.60    3.10
   1   4  18   18.07    3.06
   1   4  18   21.25    3.84
  -2  -4 -18    4.27    1.96
   2   4  18    3.00    1.76
  -3  -4 -18    5.24    2.08
   3   4  18    0.73    1.45
   3   4  18   -1.82    0.89
   4   4  18   -1.82    1.08
   4   4  18    1.12    0.95
   5   4  18   15.05    3.62
   5   4  18   23.62    4.26
   6   4  18    6.01    2.11
   6   4  18    0.54    1.65
   7   4  18   -1.73    1.56
   7   4  18    0.63    1.96
   6  -5 -18   -2.84    1.35
   6  -5 -18   -2.48    1.52
   5  -5 -18    5.32    2.48
   5  -5 -18    2.96    2.17
   4  -5 -18    7.85    2.43
   4  -5 -18    9.10    3.07
   3  -5 -18   26.88    4.79
   3  -5 -18   26.86    4.97
  -3   5  18   28.11    2.41
   2  -5 -18   25.81    5.43
  -2   5  18   25.93    6.98
   1  -5 -18   22.07    4.71
   1  -5 -18   33.87    4.40
  -1   5  18   34.33    5.79
  -1   5  18   29.34    3.18
   0  -5 -18   16.02    3.26
   0   5  18   14.32    2.72
   0   5  18   21.25    5.28
  -1  -5 -18    2.27    1.59
   1   5  18    6.46    1.82
  -2  -5 -18    0.68    1.20
   2   5  18    0.15    0.99
   2   5  18   -1.50    1.18
  -3  -5 -18    2.48    1.73
   3   5  18   -0.64    1.10
   3   5  18    3.67    1.64
   4   5  18    7.64    2.47
   4   5  18    8.86    2.31
   5   5  18   23.83    4.59
   5   5  18   21.88    4.03
   6   5  18   14.10    3.48
   6   5  18   14.24    3.41
   7   5  18    1.12    1.62
   7   5  18   -1.01    1.87
   5  -6 -18   26.45    5.38
   5  -6 -18   21.66    5.31
   4  -6 -18   34.47    5.65
   4  -6 -18   26.85    5.03
   3  -6 -18   26.19    4.64
   3  -6 -18   27.05    5.06
  -3   6  18   23.48    4.34
   2  -6 -18   16.99    4.05
   2  -6 -18   10.73    2.84
  -2   6  18   14.07    2.16
  -2   6  18   14.08    4.19
   1  -6 -18   23.29    4.87
   1  -6 -18   10.42    2.94
  -1   6  18   16.92    2.58
   0  -6 -18    0.61    1.34
   0  -6 -18    1.40    1.19
   0   6  18    2.68    2.19
   0   6  18   -0.19    0.98
  -1  -6 -18    2.09    1.68
   1   6  18    2.87    1.71
   1   6  18    3.77    1.72
  -2  -6 -18   -2.51    0.99
   2   6  18   -0.28    1.11
   2   6  18   -1.17    1.13
  -3  -6 -18   12.02    2.64
   3   6  18   21.77    4.18
   3   6  18   23.76    4.25
   4   6  18    6.04    2.20
   4   6  18    1.77    1.79
   5   6  18    5.19    1.88
   5   6  18    5.65    2.45
   6   6  18    3.62    1.99
   6   6  18    3.38    2.48
   7   6  18   13.33    3.26
   7   6  18    5.52    2.47
   5  -7 -18    4.34    2.50
   4  -7 -18   29.66    5.73
   4  -7 -18   34.60    6.18
   3  -7 -18    6.59    2.51
   3  -7 -18    7.03    2.64
  -3   7  18    9.40    2.90
   2  -7 -18    6.76    2.21
   2  -7 -18   12.83    3.56
  -2   7  18   10.68    2.67
  -2   7  18   11.45    1.89
   1  -7 -18    8.51    2.69
   1  -7 -18    6.28    2.59
  -1   7  18    5.57    1.75
  -1   7  18    9.13    2.82
   0  -7 -18    4.51    2.34
   0  -7 -18    5.86    2.12
   0   7  18    8.27    2.09
   0   7  18    2.81    1.75
  -1  -7 -18    9.04    2.49
  -1  -7 -18    7.20    3.18
   1   7  18   11.17    2.52
   1   7  18    6.11    2.02
  -2  -7 -18    9.13    2.53
   2   7  18   13.41    2.89
   2   7  18    8.29    2.66
  -3  -7 -18    2.49    2.01
   3   7  18    8.52    2.33
   3   7  18    7.27    2.84
   4   7  18   17.32    3.51
   4   7  18   12.11    3.45
   5   7  18    0.47    1.45
   5   7  18   -2.97    1.30
   6   7  18   -2.29    1.92
   6   7  18    2.97    2.01
   6   7  18    1.22    1.99
   4  -8 -18   12.18    3.66
   4  -8 -18    5.56    3.56
   3  -8 -18    2.64    2.07
   3  -8 -18    7.78    2.74
  -3   8  18    2.63    1.98
   2  -8 -18    0.61    1.68
   2  -8 -18    1.39    1.98
  -2   8  18    0.98    1.30
  -2   8  18    1.88    1.66
   1  -8 -18    0.51    1.48
   1  -8 -18    3.83    2.08
  -1   8  18    0.74    1.45
  -1   8  18    3.70    1.93
   0  -8 -18   22.81    4.94
   0  -8 -18   30.79    4.19
   0   8  18   28.41    4.70
   0   8  18   26.64    3.35
  -1  -8 -18    2.92    1.49
  -1  -8 -18    5.83    2.44
   1   8  18    5.24    2.22
   1   8  18    7.55    1.93
  -2  -8 -18   31.15    3.74
   2   8  18   28.22    4.78
  -3  -8 -18   10.58    2.48
   3   8  18   13.13    3.04
   3   8  18   13.24    3.43
   4   8  18   20.01    3.86
   4   8  18   23.22    4.48
   5   8  18    1.69    1.85
   5   8  18   -1.16    1.82
   5   8  18    1.96    2.29
   6   8  18    1.12    2.46
   6   8  18    0.02    1.68
   6   8  18    0.58    2.37
   2  -9 -18    2.46    2.49
   2  -9 -18    6.57    2.66
  -2   9  18    8.42    3.06
   1  -9 -18    5.68    2.72
   1  -9 -18    3.49    2.49
  -1   9  18    8.91    2.80
  -1   9  18    9.67    2.45
   0  -9 -18    1.86    2.05
   0  -9 -18    4.50    2.79
   0   9  18    5.97    2.17
   0   9  18    3.68    2.02
  -1  -9 -18   13.45    3.79
  -1  -9 -18   11.73    2.92
   1   9  18   22.64    3.68
   1   9  18   17.94    3.93
  -2  -9 -18    1.04    1.84
   2   9  18    3.19    1.92
   2   9  18    4.74    2.15
   3   9  18   -2.55    1.83
   3   9  18    5.33    2.37
   4   9  18    1.13    1.61
   4   9  18    1.68    2.06
   4   9  18    3.65    2.16
   5   9  18    1.09    2.43
   5   9  18    5.25    2.76
   5   9  18    4.81    2.54
   0 -10 -18    3.86    1.96
   0 -10 -18    4.15    2.57
   0  10  18    4.66    2.60
   0  10  18    3.88    2.23
  -1 -10 -18   11.37    3.69
   1  10  18    8.58    2.72
   1  10  18   11.09    3.18
  -2 -10 -18   -0.26    2.37
  -2 -10 -18    0.64    2.34
   2  10  18    3.61    1.98
   2  10  18    0.95    1.71
   1   4 -19   11.54    3.39
   0   4 -19    0.62    2.24
   0  -4  19    0.97    1.86
   3   3 -19    8.42    3.99
  -3  -3  19   12.05    3.67
   2   3 -19   22.10    6.10
  -2  -3  19   16.04    3.54
   1   3 -19   16.68    4.62
  -1  -3  19   19.09    4.09
   0   3 -19    4.53    2.15
   0  -3  19    4.90    2.21
  -1   3 -19    7.37    2.45
   1  -3  19    5.59    2.27
   2  -3  19    0.88    2.13
   3  -3  19    6.15    2.62
   4   2 -19    9.77    3.65
   3   2 -19    9.84    3.19
  -3  -2  19   26.21    4.42
   2   2 -19    7.09    3.05
  -2  -2  19   15.80    3.26
   1   2 -19    3.24    2.36
  -1  -2  19   -0.28    1.89
   0   2 -19    3.69    2.33
   0  -2  19    4.49    1.79
   1  -2  19   11.11    3.09
   2  -2  19   14.57    3.37
   3  -2  19   15.06    3.59
   4  -2  19    8.57    2.62
   5   1 -19   17.14    4.49
   4   1 -19    9.49    3.46
  -4  -1  19   13.01    2.83
   3   1 -19   -0.36    1.74
  -3  -1  19    1.72    1.71
   2   1 -19    1.17    1.64
   1   1 -19    4.84    1.98
  -1  -1  19   12.63    2.65
   0   1 -19    8.29    2.88
   0  -1  19    6.43    2.46
  -1   1 -19    6.14    2.89
   1  -1  19    7.67    2.30
   2  -1  19   30.92    3.96
   3  -1  19   12.93    3.26
   4  -1  19    6.20    2.34
   4  -1  19    5.76    2.54
   5  -1  19   -0.65    1.92
   5  -1  19    2.69    1.76
   5   0 -19    0.28    1.80
   4   0 -19   -0.92    1.48
  -4   0  19    0.78    1.50
   3   0 -19    8.53    3.03
  -3   0  19    4.58    2.20
   2   0 -19   17.04    4.00
  -2   0  19   16.63    3.45
   1   0 -19   36.90    5.21
  -1   0  19   41.81    4.49
   0   0 -19   28.31    5.20
   0   0  19   40.67    4.62
  -1   0 -19   17.21    3.78
   1   0  19   21.84    4.00
   2   0  19    8.08    2.62
   2   0  19   11.92    3.17
   3   0  19    5.65    2.22
   3   0  19    1.60    1.52
   4   0  19    2.59    2.14
   4   0  19   -0.56    1.14
   5   0  19    1.13    1.67
   5   0  19    1.52    1.81
   6   0  19    8.45    2.66
   6   0  19    5.06    2.46
   5  -1 -19   -2.13    1.67
   4  -1 -19    7.77    2.88
  -4   1  19   15.07    2.97
   3  -1 -19   20.86    4.44
  -3   1  19   15.86    2.88
   2  -1 -19   27.91    5.33
  -2   1  19   28.69    3.50
   1  -1 -19   34.63    5.89
  -1   1  19   32.60    3.68
   0  -1 -19   20.99    4.72
   0   1  19   17.65    3.52
   0   1  19   21.57    4.46
  -1  -1 -19   12.07    5.64
   1   1  19   13.09    2.98
   1   1  19   16.29    3.48
  -2  -1 -19    1.57    1.99
   2   1  19   -1.91    0.95
   2   1  19   -0.15    1.43
   3   1  19    4.80    1.78
   3   1  19   -0.44    1.46
   4   1  19    3.42    2.09
   4   1  19    8.65    2.34
   5   1  19   13.46    3.38
   5   1  19    7.08    2.62
   6   1  19    6.07    2.53
   6   1  19    6.08    2.28
   6  -2 -19    6.32    4.62
   5  -2 -19    5.93    2.59
   4  -2 -19   29.74    5.75
  -4   2  19   26.03    3.48
   3  -2 -19   27.28    5.06
  -3   2  19   21.83    3.45
   2  -2 -19   37.31    4.96
  -2   2  19   30.54    3.56
   1  -2 -19   16.57    3.72
  -1   2  19   18.38    3.99
  -1   2  19   23.40    3.70
   0  -2 -19   14.55    3.55
   0   2  19   14.15    2.78
   0   2  19   19.08    3.62
  -1  -2 -19    0.65    1.41
   1   2  19    2.17    1.52
   1   2  19   -0.77    1.34
  -2  -2 -19    5.30    2.39
   2   2  19    9.14    2.67
   2   2  19   17.53    4.43
   3   2  19    4.27    1.89
   3   2  19    0.21    1.61
   4   2  19    5.38    2.01
   4   2  19    2.79    1.77
   5   2  19    9.87    2.74
   5   2  19   13.79    3.42
   6   2  19    7.00    2.44
   6   2  19    3.04    2.22
   5  -3 -19   10.35    3.30
   4  -3 -19    4.55    2.24
   3  -3 -19   42.12    5.10
  -3   3  19   35.07    3.61
   2  -3 -19    8.73    2.77
  -2   3  19    7.33    1.98
  -1   3  19   -1.07    0.79
  -1   3  19    1.71    1.34
   0  -3 -19    4.33    2.05
   0   3  19    1.58    1.25
   0   3  19   -0.99    1.31
  -1  -3 -19    1.02    1.30
   1   3  19    3.18    1.58
   1   3  19   -1.60    1.25
  -2  -3 -19   12.24    3.14
   2   3  19   15.95    3.55
   2   3  19   22.26    3.79
  -3  -3 -19   16.20    4.00
   3   3  19   18.19    3.73
   3   3  19    8.53    2.75
   4   3  19   16.43    3.60
   4   3  19   16.93    3.42
   5   3  19   35.50    4.64
   5   3  19   22.59    4.32
   6   3  19    6.61    2.41
   6   3  19   11.03    3.07
   7   3  19   -0.23    1.99
   7   3  19    2.50    1.85
   5  -4 -19   51.36    6.35
   5  -4 -19   47.42    6.37
   4  -4 -19   25.30    4.82
   3  -4 -19   16.22    3.91
   3  -4 -19   18.40    4.33
  -3   4  19   17.71    2.59
   2  -4 -19    2.67    1.72
  -2   4  19   -0.55    1.23
  -2   4  19    1.38    1.15
  -1   4  19   -0.22    0.86
  -1   4  19    1.18    1.32
   0  -4 -19    2.49    1.65
   0   4  19    4.91    1.83
   0   4  19    4.99    1.76
  -1  -4 -19   30.85    5.18
   1   4  19   27.00    3.47
   1   4  19   25.21    4.74
  -2  -4 -19    4.47    1.96
   2   4  19    8.97    2.40
   2   4  19    2.52    1.56
   3   4  19   24.22    4.11
   3   4  19   22.52    4.30
   4   4  19    3.41    1.54
   4   4  19   -0.90    1.23
   5   4  19    7.48    2.50
   5   4  19    1.46    1.64
   6   4  19    2.85    1.47
   6   4  19    0.37    1.67
   7   4  19    1.02    2.00
   7   4  19   -4.09    1.57
   5  -5 -19   -0.01    1.84
   5  -5 -19    0.59    2.04
   4  -5 -19   11.48    3.49
   4  -5 -19   18.76    4.40
   3  -5 -19   11.59    3.47
   3  -5 -19   16.05    4.03
  -3   5  19   13.63    1.99
   2  -5 -19    1.83    1.80
   2  -5 -19    3.26    2.08
  -2   5  19    0.95    1.55
  -2   5  19    4.59    1.39
  -1   5  19    3.12    1.30
  -1   5  19    5.33    1.95
   0  -5 -19   18.90    4.00
   0   5  19   24.94    3.17
   0   5  19   29.81    5.01
  -1  -5 -19   67.17    6.14
   1   5  19   63.30    5.49
   1   5  19   66.41    6.35
   2   5  19   21.24    3.54
   2   5  19   19.33    3.89
  -3  -5 -19    2.46    1.92
   3   5  19    0.02    1.44
   3   5  19    4.49    2.37
   4   5  19   -0.10    1.55
   4   5  19    5.15    2.29
   5   5  19   -0.15    1.32
   5   5  19    0.96    2.18
   6   5  19    7.72    2.95
   6   5  19    4.82    2.51
   4  -6 -19    1.52    2.09
   4  -6 -19    2.29    2.09
   3  -6 -19   14.18    3.84
   3  -6 -19   18.44    4.18
   2  -6 -19   20.86    4.87
   2  -6 -19   20.44    4.45
  -2   6  19   16.31    3.68
   1  -6 -19    8.79    2.60
   1  -6 -19    4.40    2.14
  -1   6  19   11.86    2.95
  -1   6  19    7.90    2.11
   0  -6 -19   37.79    4.56
   0   6  19   35.63    3.76
   0   6  19   45.66    5.14
  -1  -6 -19    4.98    1.96
   1   6  19    4.90    1.79
   1   6  19    5.27    2.22
  -2  -6 -19    2.86    1.81
   2   6  19    3.65    1.90
   2   6  19    2.46    2.05
  -3  -6 -19   -0.66    1.71
   3   6  19   -0.91    1.23
   3   6  19   -1.37    1.23
   4   6  19   -1.44    1.44
   4   6  19    1.02    2.07
   5   6  19   -2.42    1.13
   5   6  19   -3.76    1.57
   6   6  19    2.38    2.41
   6   6  19    2.21    2.35
   4  -7 -19   18.31    4.45
   4  -7 -19    9.77    3.90
   3  -7 -19    4.89    2.58
   3  -7 -19    7.44    3.14
   2  -7 -19   13.30    3.70
   2  -7 -19   14.99    3.38
  -2   7  19   13.64    2.28
  -2   7  19   12.43    3.24
   1  -7 -19    8.44    3.57
   1  -7 -19    9.52    2.92
  -1   7  19   12.26    2.34
  -1   7  19   17.29    3.58
   0  -7 -19   12.32    4.12
   0  -7 -19   11.18    3.09
   0   7  19   10.81    2.62
   0   7  19   13.34    3.40
  -1  -7 -19    1.06    1.48
   1   7  19   -1.64    1.60
   1   7  19    5.26    2.11
   2   7  19    8.34    2.47
  -3  -7 -19   -0.82    1.53
   3   7  19    2.38    1.58
   3   7  19   -3.07    1.10
   4   7  19    4.58    2.14
   4   7  19    4.98    2.37
   5   7  19   10.55    2.90
   5   7  19   12.51    3.46
   6   7  19    2.62    2.26
   3  -8 -19   10.43    3.49
   3  -8 -19   12.99    5.01
   2  -8 -19   17.05    4.65
   2  -8 -19   15.67    4.08
  -2   8  19    9.60    3.01
   1  -8 -19    3.80    1.96
   1  -8 -19    8.89    3.24
  -1   8  19    3.43    2.09
  -1   8  19    2.04    1.80
   0  -8 -19    6.10    3.52
   0  -8 -19    1.36    1.84
   0   8  19    2.76    1.47
   0   8  19   -0.85    1.36
  -1  -8 -19    1.04    1.80
  -1  -8 -19    2.93    2.02
   1   8  19    2.00    1.65
   1   8  19   -2.71    1.24
  -2  -8 -19    3.61    2.20
   2   8  19    5.96    2.14
   2   8  19    1.98    1.70
  -3  -8 -19    0.35    2.20
   3   8  19    2.94    1.80
   3   8  19   -1.96    1.11
   4   8  19    9.99    3.11
   4   8  19   10.79    3.27
   5   8  19   11.45    3.77
   5   8  19   12.73    4.02
   1  -9 -19    2.10    1.99
   1  -9 -19    4.39    2.11
  -1   9  19    3.48    2.00
  -1   9  19    2.60    2.00
   0  -9 -19   -0.85    1.76
   0  -9 -19   -2.12    1.89
   0   9  19    1.15    1.82
   0   9  19    1.07    1.79
  -1  -9 -19    3.81    2.74
  -1  -9 -19    2.08    1.90
   1   9  19    4.73    2.49
   1   9  19    6.09    2.51
  -2  -9 -19    9.15    2.78
   2   9  19    1.85    2.27
   2   9  19   11.83    3.52
   3   9  19   18.74    3.71
   3   9  19   15.23    3.87
   0   3 -20    9.85    3.06
   0  -3  20   21.64    4.51
   3   2 -20    6.83    4.36
  -3  -2  20   14.14    3.90
   2   2 -20   16.32    4.84
  -2  -2  20   14.43    3.35
   1   2 -20   19.79    5.41
  -1  -2  20   20.81    3.82
   0  -2  20   13.58    3.15
   1  -2  20    4.25    2.18
   2  -2  20    9.80    2.72
   3  -2  20    2.06    1.97
   4   1 -20   19.20    6.49
  -4  -1  20   16.38    3.72
   3   1 -20   21.52    5.34
  -3  -1  20   28.63    4.85
   2   1 -20    4.82    3.04
  -2  -1  20    6.12    2.63
   1   1 -20   17.22    4.02
  -1  -1  20   17.64    3.84
   0   1 -20    0.22    2.59
   0  -1  20    0.96    1.73
   1  -1  20   -0.23    1.31
   2  -1  20    5.20    1.99
   3  -1  20    4.79    2.44
   4  -1  20   13.80    3.64
   4   0 -20    9.04    3.11
  -4   0  20   10.46    2.60
   3   0 -20    8.07    3.40
  -3   0  20    9.90    2.43
   2   0 -20    3.70    2.60
   1   0 -20   -1.11    1.74
  -1   0  20    0.17    1.26
   0   0 -20   -0.65    1.32
   0   0  20    5.07    2.07
  -1   0 -20   13.86    3.83
   2   0  20    9.66    3.21
   2   0  20   13.66    3.31
   3   0  20   12.38    3.25
   3   0  20   18.03    3.92
   4   0  20   12.48    3.07
   4   0  20   10.68    3.45
   5   0  20    4.31    2.70
   5   0  20    3.69    2.86
   5  -1 -20   16.70    5.48
   4  -1 -20   -0.98    1.63
  -4   1  20   -2.98    1.80
   3  -1 -20    0.75    1.64
  -3   1  20    1.25    1.64
   2  -1 -20    6.51    2.73
  -2   1  20    7.45    2.07
   1  -1 -20   16.72    3.91
  -1   1  20   30.57    3.79
   0  -1 -20   12.30    3.68
   0   1  20   12.77    3.91
  -1  -1 -20   17.70    4.31
   1   1  20   16.93    3.77
   1   1  20   15.49    3.35
  -2  -1 -20   13.86    3.67
   2   1  20   27.89    4.34
   2   1  20   17.83    4.00
   3   1  20   11.89    3.64
   3   1  20   16.86    3.53
   4   1  20   11.24    2.90
   4   1  20    8.76    2.87
   5   1  20    3.31    2.03
   5   1  20    3.25    2.12
   5  -2 -20    4.40    2.95
   4  -2 -20    2.12    2.07
  -4   2  20    2.10    1.92
   3  -2 -20    5.71    2.60
  -3   2  20    2.92    1.63
   2  -2 -20   13.55    3.60
  -2   2  20   13.01    2.94
   1  -2 -20   12.12    3.76
  -1   2  20   13.27    2.78
   0  -2 -20   24.10    4.73
   0   2  20   23.89    4.50
   0   2  20   38.80    4.11
  -1  -2 -20   12.07    3.41
   1   2  20   22.74    4.55
   1   2  20   10.12    3.00
  -2  -2 -20    9.25    3.45
   2   2  20    8.18    2.38
   2   2  20    7.04    2.10
   3   2  20    2.85    1.42
   3   2  20    2.75    2.03
   4   2  20    6.87    2.52
   4   2  20    8.23    2.83
   5   2  20    0.70    1.71
   5   2  20    1.05    1.31
   6   2  20   10.42    2.82
   6   2  20   -0.23    2.44
   5  -3 -20    9.59    4.13
   4  -3 -20    2.53    2.11
   3  -3 -20   12.04    3.55
  -3   3  20   18.13    2.81
   2  -3 -20   10.00    2.99
  -2   3  20    8.98    2.26
   1  -3 -20   11.55    3.29
  -1   3  20   17.46    3.27
  -1   3  20   16.35    3.72
   0  -3 -20    7.98    2.67
   0   3  20    8.77    2.98
   0   3  20   16.43    3.04
   1   3  20   23.37    3.80
   1   3  20   12.80    3.25
  -2  -3 -20    0.43    1.68
   2   3  20   -0.09    1.35
   2   3  20   -1.04    0.99
  -3  -3 -20    1.03    1.95
   3   3  20    0.30    1.22
   3   3  20    1.50    1.55
   4   3  20    5.07    1.94
   4   3  20    1.41    1.85
   5   3  20    2.80    2.16
   5   3  20    3.86    2.12
   6   3  20   17.70    3.74
   6   3  20   11.89    3.21
   4  -4 -20   22.92    5.15
   3  -4 -20   26.57    5.26
   2  -4 -20   41.72    6.62
  -2   4  20   33.30    3.50
   1  -4 -20   12.82    3.17
  -1   4  20   11.55    2.99
  -1   4  20   12.11    2.68
   0  -4 -20   -1.17    1.37
   0   4  20    0.09    1.12
   1   4  20    3.36    1.48
   1   4  20   -0.31    1.27
  -2  -4 -20   -0.69    1.36
   2   4  20    0.51    1.20
   2   4  20    1.58    1.56
   3   4  20   12.94    2.96
   3   4  20   16.56    3.80
   4   4  20    2.48    2.27
   4   4  20    5.88    2.09
   5   4  20   -0.51    2.10
   5   4  20    5.02    2.34
   6   4  20   13.13    3.34
   6   4  20   10.23    3.25
   4  -5 -20   31.40    5.65
   4  -5 -20   20.91    5.57
   3  -5 -20   13.47    3.73
   3  -5 -20   11.62    4.11
   2  -5 -20   10.76    3.56
  -2   5  20    5.41    2.15
  -2   5  20    6.44    1.81
   1  -5 -20    0.53    1.63
  -1   5  20   -1.61    1.22
  -1   5  20   -0.74    1.77
   0  -5 -20   -0.62    1.48
   0   5  20   -1.22    1.34
   0   5  20    1.91    1.59
  -1  -5 -20    0.16    1.37
   1   5  20   -0.05    1.16
   1   5  20    2.36    1.55
  -2  -5 -20   24.56    4.45
   2   5  20   28.10    4.70
   2   5  20   19.74    3.50
  -3  -5 -20    5.89    2.77
   3   5  20    7.07    2.71
   3   5  20   10.05    2.87
   4   5  20    8.95    2.57
   4   5  20    9.50    2.69
   5   5  20    6.27    2.54
   5   5  20    0.34    2.08
   6   5  20    1.67    2.11
   6   5  20    0.07    2.03
   4  -6 -20    7.17    3.10
   4  -6 -20    3.67    2.86
   3  -6 -20    6.23    3.07
   3  -6 -20    8.42    3.04
   2  -6 -20    1.32    1.57
   2  -6 -20    3.51    2.15
  -2   6  20   -2.42    1.49
  -2   6  20    2.85    1.37
   1  -6 -20    7.47    3.37
  -1   6  20   11.89    2.37
  -1   6  20   15.34    3.76
   0  -6 -20    3.91    2.36
   0   6  20   -0.15    1.39
   0   6  20    4.04    2.48
  -1  -6 -20   14.22    3.28
   1   6  20   21.12    3.39
   1   6  20   21.28    4.33
  -2  -6 -20   12.86    3.57
   2   6  20   20.60    4.32
   2   6  20   30.95    4.85
  -3  -6 -20    6.52    2.59
   3   6  20    4.20    2.48
   3   6  20   11.02    2.85
   4   6  20    6.14    2.20
   4   6  20    2.68    1.85
   5   6  20    1.01    1.82
   5   6  20    6.45    2.84
   3  -7 -20   -0.17    2.19
   3  -7 -20    5.21    2.76
   2  -7 -20    5.17    2.31
   2  -7 -20    3.95    3.25
  -2   7  20    4.18    2.25
   1  -7 -20    8.01    2.54
   1  -7 -20    9.28    3.44
  -1   7  20    3.95    2.30
  -1   7  20   12.72    2.41
   0  -7 -20   -0.15    1.62
   0   7  20   -0.22    1.51
   0   7  20   -1.88    1.70
  -1  -7 -20   28.52    4.85
   1   7  20   24.25    4.33
   1   7  20   23.10    4.53
  -2  -7 -20    5.94    2.48
   2   7  20    3.74    2.20
   2   7  20    4.07    2.68
  -3  -7 -20    7.15    2.75
   3   7  20    1.85    1.90
   3   7  20    1.95    1.91
   4   7  20    1.47    2.00
   4   7  20   -2.65    1.77
   5   7  20   -3.10    1.78
   5   7  20   -0.10    1.89
   1  -8 -20    4.64    2.74
   1  -8 -20    1.38    2.29
  -1   8  20   10.40    2.37
  -1   8  20    7.43    2.99
   0  -8 -20   20.16    4.19
   0  -8 -20   11.85    4.21
   0   8  20   16.50    3.10
   0   8  20   17.36    3.58
  -1  -8 -20    3.13    2.18
   1   8  20    1.37    1.81
   1   8  20   -0.89    1.79
  -2  -8 -20    1.53    2.11
   2   8  20    1.46    2.01
   2   8  20    7.21    2.65
  -3  -8 -20   -1.96    2.26
   3   8  20    0.60    2.53
   3   8  20   -0.61    2.08
   4   8  20   -0.12    1.66
   4   8  20   -0.78    2.28
   2   1 -21   18.89    4.41
  -2  -1  21   17.26    4.13
   1   1 -21   20.28    4.78
  -1  -1  21   25.33    4.74
   0   1 -21   10.29    3.30
   0  -1  21    9.45    3.31
   1  -1  21   -1.47    2.17
   2  -1  21    0.23    1.55
   3   0 -21   10.37    3.89
  -3   0  21   17.01    3.75
   2   0 -21   12.36    3.77
  -2   0  21   16.37    3.66
   1   0 -21   15.22    4.32
  -1   0  21   10.73    2.95
   0   0 -21    3.88    2.47
   0   0  21    5.96    2.08
  -1   0 -21   -1.47    1.44
   1   0  21   -2.81    1.55
   2   0  21    3.46    2.05
   3   0  21    4.24    2.48
   3   0  21    9.99    2.81
   3  -1 -21   29.59    5.44
  -3   1  21   21.31    3.71
   2  -1 -21    3.03    2.43
   1  -1 -21    0.78    1.66
  -1   1  21   -0.09    1.66
   0  -1 -21    4.60    2.47
   0   1  21    4.97    2.14
  -1  -1 -21    6.20    2.78
   1   1  21    3.91    1.90
   1   1  21    2.32    1.84
   2   1  21   13.24    3.58
   2   1  21   12.53    2.85
   3   1  21   21.33    4.01
   3   1  21   22.26    4.42
   4   1  21    1.20    2.22
   4   1  21    5.41    2.75
   4  -2 -21   22.13    6.79
   3  -2 -21    4.26    2.81
  -3   2  21    3.02    2.05
   2  -2 -21   -1.74    1.50
  -2   2  21   -1.84    1.49
   1  -2 -21   -0.59    1.76
  -1   2  21    1.74    1.78
   0  -2 -21   10.06    3.17
   0   2  21    6.75    2.44
   0   2  21   12.39    3.13
  -1  -2 -21   10.89    3.11
   1   2  21    7.61    2.26
   1   2  21   10.06    2.78
   2   2  21   12.63    3.00
   2   2  21    9.70    3.26
   3   2  21   12.08    3.62
   3   2  21   17.41    3.73
   4   2  21    3.61    2.10
   4   2  21    6.12    2.81
   5   2  21    3.89    2.51
   4  -3 -21    6.69    3.62
   3  -3 -21   11.75    3.51
  -3   3  21    7.50    2.64
   2  -3 -21    7.02    2.78
  -2   3  21   -1.04    1.65
   1  -3 -21    9.78    3.25
  -1   3  21    5.58    2.51
  -1   3  21    5.52    1.89
   0  -3 -21   21.43    4.31
   0   3  21   32.33    5.68
  -1  -3 -21   15.05    3.94
   1   3  21   19.30    3.75
   1   3  21   21.24    4.32
  -2  -3 -21   12.54    3.16
   2   3  21   24.45    3.98
   2   3  21   21.00    4.02
   3   3  21    1.64    1.85
   3   3  21   -3.25    1.42
   4   3  21    3.57    2.48
   4   3  21    1.88    2.30
   5   3  21    3.77    2.26
   5   3  21    1.16    1.94
   3  -4 -21   -1.29    1.72
  -3   4  21   -3.56    2.31
   2  -4 -21   16.88    4.11
  -2   4  21   10.35    2.39
   1  -4 -21   17.11    4.06
  -1   4  21    8.42    2.46
  -1   4  21   17.62    3.94
   0  -4 -21   12.68    3.24
   0   4  21   15.35    2.78
   0   4  21   14.79    3.76
  -1  -4 -21    6.85    2.70
   1   4  21    4.16    2.68
   1   4  21    3.86    2.03
  -2  -4 -21    2.62    2.13
   2   4  21    5.52    2.23
   2   4  21    1.98    1.65
  -3  -4 -21    0.74    1.96
   3   4  21    3.33    2.00
   3   4  21    1.74    1.93
   4   4  21   -1.81    1.23
   4   4  21    2.11    2.00
   5   4  21    0.07    1.82
   5   4  21   -1.71    1.80
   3  -5 -21   13.98    4.37
   2  -5 -21   43.10    5.84
  -2   5  21   40.46    6.37
  -2   5  21   32.50    3.81
   1  -5 -21   23.10    4.73
  -1   5  21   20.76    3.49
  -1   5  21   22.50    4.49
   0  -5 -21    2.41    1.78
   0   5  21   -0.97    1.51
   0   5  21    2.50    2.21
  -1  -5 -21   16.84    3.77
   1   5  21   11.84    2.97
   1   5  21   12.88    3.22
  -2  -5 -21    4.69    3.32
   2   5  21   -0.78    1.44
   2   5  21    1.91    1.47
  -3  -5 -21    0.34    2.20
   3   5  21    4.99    2.05
   3   5  21    5.46    2.32
   4   5  21    9.87    3.84
   4   5  21   19.54    3.96
   5   5  21   -2.70    1.75
   5   5  21    2.31    3.43
   2  -6 -21   18.43    4.72
   2  -6 -21    9.65    3.62
  -2   6  21   10.51    3.43
   1  -6 -21    2.77    2.17
  -1   6  21    0.86    1.53
   0  -6 -21   -2.16    1.54
   0   6  21   -2.40    1.39
   0   6  21   -2.43    1.66
  -1  -6 -21   -0.39    1.78
   1   6  21    1.49    1.69
   1   6  21    0.09    1.44
  -2  -6 -21    3.72    2.25
   2   6  21    3.33    1.99
   2   6  21   -0.94    1.41
  -3  -6 -21   14.10    3.74
   3   6  21   18.68    3.75
   3   6  21   16.74    4.21
   4   6  21   13.56    3.35
   4   6  21    8.22    2.98
   1  -7 -21    1.04    1.81
   1  -7 -21    0.27    2.54
  -1   7  21   -0.72    1.86
  -1   7  21    5.35    1.96
   0  -7 -21    1.89    1.98
   0   7  21   -0.67    1.63
   0   7  21    1.98    2.32
  -1  -7 -21   11.88    3.71
   1   7  21    7.45    3.35
   1   7  21    8.16    2.47
  -2  -7 -21    2.88    2.25
   2   7  21    4.77    2.34
   2   7  21   -0.43    1.76
  -3  -7 -21    6.69    2.87
   3   7  21   17.70    3.66
   3   7  21   13.31    3.82
   0   0 -22   15.05    4.21
   0   0  22   20.24    4.52
  -1   0 -22    3.35    3.11
   1   0  22    1.25    2.19
   2  -1 -22   12.31    4.02
   1  -1 -22   29.27    5.73
  -1   1  22   15.47    3.41
   0  -1 -22    7.23    3.67
   0   1  22    7.80    2.97
  -1  -1 -22    3.43    2.83
   1   1  22    3.78    1.94
   2   1  22    0.54    1.90
   2   1  22   -2.83    1.45
   2  -2 -22   16.21    4.18
  -2   2  22   24.27    4.09
   1  -2 -22    7.22    3.04
  -1   2  22    8.75    2.41
   0  -2 -22   -0.73    1.50
   0   2  22    0.55    1.77
  -1  -2 -22    3.03    2.65
   1   2  22    0.01    2.09
   1   2  22   -0.61    1.78
  -2  -2 -22   -0.24    2.41
   2   2  22   -2.06    1.60
   2   2  22    0.07    1.85
   3   2  22    6.02    3.05
   3   2  22    6.83    2.84
   2  -3 -22    5.02    2.92
  -2   3  22    3.27    2.25
   1  -3 -22   -0.62    1.96
  -1   3  22   -1.24    1.61
   0  -3 -22   -0.33    1.83
   0   3  22    2.48    1.63
   0   3  22    0.44    1.93
  -1  -3 -22    1.03    1.98
   1   3  22    0.52    1.69
   1   3  22   -0.93    2.16
  -2  -3 -22   21.43    4.56
   2   3  22   15.21    3.32
   2   3  22   20.99    4.36
   3   3  22    5.90    2.50
   3   3  22    2.63    2.13
   2  -4 -22    3.99    2.33
  -2   4  22    1.77    2.08
   1  -4 -22    1.98    2.21
  -1   4  22    1.86    2.38
  -1   4  22    4.77    1.99
   0  -4 -22    4.19    2.93
   0   4  22    9.25    3.19
   0   4  22    0.26    1.98
  -1  -4 -22    6.38    2.90
   1   4  22    9.00    2.86
   1   4  22    7.61    2.59
  -2  -4 -22   14.50    3.88
   2   4  22   28.97    4.60
   2   4  22   26.15    5.14
   3   4  22    7.76    2.44
   3   4  22    3.43    2.53
   1  -5 -22    9.20    2.97
  -1   5  22    1.58    2.25
  -1   5  22    5.62    2.23
   0  -5 -22    8.84    2.91
   0   5  22   11.44    3.00
   0   5  22   12.37    3.99
  -1  -5 -22   15.36    3.63
   1   5  22    9.44    3.01
   1   5  22   15.27    3.70
  -2  -5 -22    1.63    2.15
   2   5  22    1.55    1.87
   2   5  22    3.71    2.59
  -3  -5 -22    0.02    2.63
   3   5  22    3.64    2.60
   3   5  22    3.28    2.03
   0  -6 -22    9.00    2.92
   0   6  22    8.52    2.83
   0   6  22    5.36    2.15
  -1  -6 -22    2.99    2.64
   1   6  22    8.98    2.89
   1   6  22    5.11    2.23
  -2  -6 -22    0.62    2.31
   2   6  22    2.34    2.07
   2   6  22    2.33    1.97
   0   0   0    0.00    0.00
;
_shelx_hkl_checksum              59574
loop_
_space_group_symop_operation_xyz
'x, y, z'
'-x, -y, -z'
loop_
_atom_site_type_symbol
_atom_site_label
_atom_site_fract_x
_atom_site_fract_y
_atom_site_fract_z
_atom_site_U_iso_or_equiv
_atom_site_adp_type
_atom_site_calc_flag
_atom_site_refinement_flags_adp
_atom_site_refinement_flags_occupancy
_atom_site_refinement_flags_posn
_atom_site_occupancy
_atom_site_disorder_assembly
_atom_site_disorder_group
C C1 0.5841(4) 0.3201(3) 0.23384(18) 0.0160(5) Uani d . . . 1 . .
C C2 0.4802(3) 0.4691(3) 0.23941(18) 0.0166(5) Uani d . . . 1 . .
H H2 0.400367 0.470823 0.291741 0.02 Uiso calc U . R 1 . .
C C3 0.4960(4) 0.6151(3) 0.16662(19) 0.0187(5) Uani d . . . 1 . .
H H3 0.427705 0.719134 0.168942 0.022 Uiso calc U . R 1 . .
C C4 0.6119(4) 0.6088(4) 0.09028(19) 0.0203(5) Uani d . . . 1 . .
H H4 0.621256 0.708555 0.040023 0.024 Uiso calc U . R 1 . .
C C5 0.7145(4) 0.4580(4) 0.08663(19) 0.0192(5) Uani d . . . 1 . .
H H5 0.793483 0.455783 0.034026 0.023 Uiso calc U . R 1 . .
C C6 0.7026(4) 0.3097(3) 0.15957(18) 0.0162(5) Uani d . . . 1 . .
C C7 0.8108(4) 0.1369(3) 0.16156(18) 0.0167(5) Uani d . . . 1 . .
C C8 0.7583(4) 0.0735(4) 0.0774(2) 0.0225(6) Uani d . . . 1 . .
C C9 1.0122(4) 0.1589(4) 0.15599(19) 0.0210(6) Uani d . . . 1 . .
C C10 0.3793(4) 0.2079(3) 0.42896(18) 0.0158(5) Uani d . . . 1 . .
C C11 0.1977(3) 0.1838(3) 0.43380(18) 0.0159(5) Uani d . . . 1 . .
H H11 0.146078 0.132579 0.391699 0.019 Uiso calc U . R 1 . .
C C12 0.0989(3) 0.2396(3) 0.50396(18) 0.0144(5) Uani d . . . 1 . .
C C13 0.1734(3) 0.3122(3) 0.56713(17) 0.0124(4) Uani d . . . 1 . .
C C14 0.3519(3) 0.3369(3) 0.56214(18) 0.0155(5) Uani d . . . 1 . .
H H14 0.402095 0.388941 0.604347 0.019 Uiso calc U . R 1 . .
C C15 0.4552(3) 0.2815(3) 0.49175(18) 0.0160(5) Uani d . . . 1 . .
H H15 0.57941 0.29404 0.486446 0.019 Uiso calc U . R 1 . .
C C16 -0.1167(4) 0.2876(3) 0.60748(19) 0.0176(5) Uani d . . . 1 . .
C C17 0.0545(4) 0.3994(4) 0.71469(19) 0.0207(6) Uani d . . . 1 . .
H H17A -0.062233 0.407915 0.746921 0.031 Uiso calc U . R 1 . .
H H17B 0.100914 0.511295 0.697649 0.031 Uiso calc U . R 1 . .
H H17C 0.137589 0.31654 0.756999 0.031 Uiso calc U . R 1 . .
F F1 0.5838(2) 0.0510(2) 0.08540(14) 0.0347(4) Uani d . . . 1 . .
F F2 0.8472(3) -0.0766(2) 0.07548(12) 0.0282(4) Uani d . . . 1 . .
F F3 0.7840(3) 0.1803(2) -0.00754(12) 0.0280(4) Uani d . . . 1 . .
F F4 1.1133(2) 0.0105(2) 0.16745(13) 0.0308(4) Uani d . . . 1 . .
F F5 1.0676(2) 0.2620(2) 0.07499(12) 0.0283(4) Uani d . . . 1 . .
F F6 1.0529(3) 0.2264(3) 0.22571(13) 0.0346(5) Uani d . . . 1 . .
I I1 0.56286(2) 0.09166(2) 0.34153(2) 0.01746(5) Uani d . . . 1 . .
N N1 0.0357(3) 0.3437(3) 0.62921(15) 0.0150(4) Uani d . . . 1 . .
O O1 0.7790(3) 0.0157(3) 0.24262(14) 0.0267(5) Uani d . . . 1 . .
O O2 -0.0795(2) 0.2257(3) 0.52724(13) 0.0186(4) Uani d . . . 1 . .
O O3 -0.2617(3) 0.2882(3) 0.64531(15) 0.0240(4) Uani d . . . 1 . .
loop_
_atom_site_aniso_label
_atom_site_aniso_U_11
_atom_site_aniso_U_22
_atom_site_aniso_U_33
_atom_site_aniso_U_12
_atom_site_aniso_U_13
_atom_site_aniso_U_23
C1 0.0191(12) 0.0150(12) 0.0127(11) -0.0003(10) 0.0014(10) -0.0022(9)
C2 0.0169(11) 0.0168(12) 0.0160(12) 0.0003(10) 0.0007(10) -0.0051(10)
C3 0.0200(12) 0.0137(12) 0.0203(13) 0.0024(10) -0.0011(10) -0.0020(10)
C4 0.0238(13) 0.0180(13) 0.0168(13) -0.0031(11) -0.0020(11) 0.0003(10)
C5 0.0228(13) 0.0216(13) 0.0127(12) -0.0020(11) 0.0041(10) -0.0044(10)
C6 0.0196(12) 0.0146(12) 0.0139(12) 0.0003(10) 0.0002(10) -0.0039(10)
C7 0.0215(12) 0.0153(12) 0.0117(11) 0.0005(10) 0.0052(10) -0.0029(9)
C8 0.0222(13) 0.0184(13) 0.0277(15) -0.0004(11) 0.0024(12) -0.0087(12)
C9 0.0247(13) 0.0232(14) 0.0158(13) 0.0040(12) -0.0024(11) -0.0083(11)
C10 0.0188(11) 0.0149(12) 0.0117(11) 0.0016(10) 0.0023(9) -0.0017(9)
C11 0.0163(11) 0.0177(12) 0.0142(12) 0.0015(10) -0.0011(9) -0.0059(10)
C12 0.0114(10) 0.0149(11) 0.0168(12) -0.0011(9) -0.0006(9) -0.0040(10)
C13 0.0129(10) 0.0127(11) 0.0114(11) 0.0008(9) 0.0006(9) -0.0041(9)
C14 0.0151(11) 0.0137(11) 0.0185(12) -0.0030(10) -0.0014(10) -0.0045(10)
C15 0.0146(11) 0.0147(12) 0.0171(12) -0.0015(10) 0.0008(9) -0.0016(10)
C16 0.0153(11) 0.0190(13) 0.0192(13) 0.0019(10) -0.0019(10) -0.0071(11)
C17 0.0192(12) 0.0251(14) 0.0216(14) 0.0024(11) -0.0015(10) -0.0146(12)
F1 0.0232(9) 0.0336(11) 0.0528(12) -0.0049(8) 0.0013(8) -0.0205(10)
F2 0.0347(10) 0.0195(8) 0.0328(10) 0.0036(8) 0.0009(8) -0.0139(8)
F3 0.0387(10) 0.0286(9) 0.0176(8) -0.0004(8) -0.0033(7) -0.0084(7)
F4 0.0261(9) 0.0293(10) 0.0353(10) 0.0104(8) 0.0013(8) -0.0112(8)
F5 0.0230(8) 0.0344(10) 0.0258(9) -0.0063(8) 0.0067(7) -0.0046(8)
F6 0.0352(10) 0.0440(12) 0.0304(10) 0.0069(9) -0.0114(8) -0.0226(9)
I1 0.02072(8) 0.01379(8) 0.01467(8) 0.00243(6) 0.00549(6) -0.00089(6)
N1 0.0130(9) 0.0181(10) 0.0152(10) 0.0004(9) 0.0002(8) -0.0076(9)
O1 0.0365(12) 0.0163(10) 0.0202(10) 0.0071(9) 0.0133(9) 0.0012(8)
O2 0.0109(8) 0.0271(10) 0.0214(10) -0.0020(8) 0.0004(7) -0.0125(8)
O3 0.0120(8) 0.0344(12) 0.0280(11) -0.0009(8) 0.0028(8) -0.0137(9)
loop_
_atom_type_symbol
_atom_type_description
_atom_type_scat_dispersion_real
_atom_type_scat_dispersion_imag
_atom_type_scat_source
C C 0.0033 0.0016 'International Tables Vol C Tables 4.2.6.8 and 6.1.1.4'
H H 0.0000 0.0000 'International Tables Vol C Tables 4.2.6.8 and 6.1.1.4'
F F 0.0171 0.0103 'International Tables Vol C Tables 4.2.6.8 and 6.1.1.4'
I I -0.4742 1.8119 'International Tables Vol C Tables 4.2.6.8 and 6.1.1.4'
N N 0.0061 0.0033 'International Tables Vol C Tables 4.2.6.8 and 6.1.1.4'
O O 0.0106 0.0060 'International Tables Vol C Tables 4.2.6.8 and 6.1.1.4'
loop_
_geom_angle_atom_site_label_1
_geom_angle_atom_site_label_2
_geom_angle_atom_site_label_3
_geom_angle_site_symmetry_1
_geom_angle_site_symmetry_3
_geom_angle
_geom_angle_publ_flag
C6 C1 C2 . . 123.5(2) ?
C6 C1 I1 . . 116.38(19) ?
C2 C1 I1 . . 120.12(19) ?
C3 C2 C1 . . 118.3(2) ?
C3 C2 H2 . . 120.9 ?
C1 C2 H2 . . 120.9 ?
C2 C3 C4 . . 119.8(2) ?
C2 C3 H3 . . 120.1 ?
C4 C3 H3 . . 120.1 ?
C3 C4 C5 . . 120.7(3) ?
C3 C4 H4 . . 119.6 ?
C5 C4 H4 . . 119.6 ?
C4 C5 C6 . . 120.6(2) ?
C4 C5 H5 . . 119.7 ?
C6 C5 H5 . . 119.7 ?
C1 C6 C5 . . 117.1(2) ?
C1 C6 C7 . . 118.6(2) ?
C5 C6 C7 . . 124.2(2) ?
O1 C7 C6 . . 112.0(2) ?
O1 C7 C8 . . 108.0(2) ?
C6 C7 C8 . . 109.2(2) ?
O1 C7 C9 . . 107.7(2) ?
C6 C7 C9 . . 109.4(2) ?
C8 C7 C9 . . 110.6(2) ?
F2 C8 F3 . . 106.9(2) ?
F2 C8 F1 . . 107.0(2) ?
F3 C8 F1 . . 106.7(2) ?
F2 C8 C7 . . 112.1(2) ?
F3 C8 C7 . . 114.5(2) ?
F1 C8 C7 . . 109.2(2) ?
F4 C9 F5 . . 106.8(2) ?
F4 C9 F6 . . 106.6(2) ?
F5 C9 F6 . . 106.4(2) ?
F4 C9 C7 . . 112.2(2) ?
F5 C9 C7 . . 114.6(2) ?
F6 C9 C7 . . 109.7(2) ?
C15 C10 C11 . . 122.2(2) ?
C15 C10 I1 . . 116.15(19) ?
C11 C10 I1 . . 120.74(18) ?
C12 C11 C10 . . 115.3(2) ?
C12 C11 H11 . . 122.3 ?
C10 C11 H11 . . 122.3 ?
O2 C12 C11 . . 127.7(2) ?
O2 C12 C13 . . 109.3(2) ?
C11 C12 C13 . . 122.9(2) ?
C14 C13 N1 . . 132.1(2) ?
C14 C13 C12 . . 121.8(2) ?
N1 C13 C12 . . 106.1(2) ?
C13 C14 C15 . . 116.5(2) ?
C13 C14 H14 . . 121.8 ?
C15 C14 H14 . . 121.8 ?
C14 C15 C10 . . 121.3(2) ?
C14 C15 H15 . . 119.4 ?
C10 C15 H15 . . 119.4 ?
O3 C16 N1 . . 129.9(2) ?
O3 C16 O2 . . 122.2(2) ?
N1 C16 O2 . . 107.8(2) ?
N1 C17 H17A . . 109.5 ?
N1 C17 H17B . . 109.5 ?
H17A C17 H17B . . 109.5 ?
N1 C17 H17C . . 109.5 ?
H17A C17 H17C . . 109.5 ?
H17B C17 H17C . . 109.5 ?
C1 I1 C10 . . 94.78(10) ?
C1 I1 O1 . . 76.58(8) ?
C10 I1 O1 . . 169.35(9) ?
C16 N1 C13 . . 109.6(2) ?
C16 N1 C17 . . 123.7(2) ?
C13 N1 C17 . . 125.9(2) ?
C7 O1 I1 . . 116.07(15) ?
C12 O2 C16 . . 107.09(19) ?
loop_
_geom_bond_atom_site_label_1
_geom_bond_atom_site_label_2
_geom_bond_site_symmetry_2
_geom_bond_distance
_geom_bond_publ_flag
C1 C6 . 1.383(4) ?
C1 C2 . 1.389(4) ?
C1 I1 . 2.118(3) ?
C2 C3 . 1.386(4) ?
C2 H2 . 0.95 ?
C3 C4 . 1.389(4) ?
C3 H3 . 0.95 ?
C4 C5 . 1.390(4) ?
C4 H4 . 0.95 ?
C5 C6 . 1.396(4) ?
C5 H5 . 0.95 ?
C6 C7 . 1.542(4) ?
C7 O1 . 1.360(3) ?
C7 C8 . 1.541(4) ?
C7 C9 . 1.543(4) ?
C8 F2 . 1.334(3) ?
C8 F3 . 1.336(3) ?
C8 F1 . 1.343(3) ?
C9 F4 . 1.333(3) ?
C9 F5 . 1.338(3) ?
C9 F6 . 1.343(3) ?
C10 C15 . 1.398(4) ?
C10 C11 . 1.400(4) ?
C10 I1 . 2.145(2) ?
C11 C12 . 1.379(3) ?
C11 H11 . 0.95 ?
C12 O2 . 1.379(3) ?
C12 C13 . 1.392(3) ?
C13 C14 . 1.378(3) ?
C13 N1 . 1.389(3) ?
C14 C15 . 1.396(4) ?
C14 H14 . 0.95 ?
C15 H15 . 0.95 ?
C16 O3 . 1.198(3) ?
C16 N1 . 1.364(3) ?
C16 O2 . 1.399(3) ?
C17 N1 . 1.457(3) ?
C17 H17A . 0.98 ?
C17 H17B . 0.98 ?
C17 H17C . 0.98 ?
I1 O1 . 2.2633(19) ?
