#------------------------------------------------------------------------------
#$Date: 2020-10-06 15:02:28 +0300 (Tue, 06 Oct 2020) $
#$Revision: 258163 $
#$URL: file:///home/coder/svn-repositories/cod/cif/1/55/84/1558493.cif $
#------------------------------------------------------------------------------
#
# This file is available in the Crystallography Open Database (COD),
# http://www.crystallography.net/
#
# All data on this site have been placed in the public domain by the
# contributors.
#
data_1558493
loop_
_publ_author_name
'MIKURIYA, Masahiro'
'WATANABE, Nanami'
'KOYAMA, Yoshiki'
'YOSHIOKA, Daisuke'
'OGAWA, Junya'
'MITSUHASHI, Ryoji'
'HANDA, Makoto'
_publ_section_title
;
 Crystal Structure and Magnetic Property of Manganese(II)
 Hexafluorosilicate Hexahydrate
;
_journal_issue                   0
_journal_name_full               'X-ray Structure Analysis Online'
_journal_page_first              17
_journal_page_last               19
_journal_paper_doi               10.2116/xraystruct.36.17
_journal_volume                  36
_journal_year                    2020
_chemical_formula_sum            'F6 H12 Mn O6 Si'
_chemical_formula_weight         305.13
_space_group_crystal_system      monoclinic
_space_group_IT_number           14
_space_group_name_Hall           '-P 2ybc'
_space_group_name_H-M_alt        'P 1 21/c 1'
_atom_sites_solution_hydrogens   difmap
_audit_creation_method           SHELXL-2014/7
_cell_angle_alpha                90
_cell_angle_beta                 100.009(7)
_cell_angle_gamma                90
_cell_formula_units_Z            2
_cell_length_a                   6.473(3)
_cell_length_b                   9.639(5)
_cell_length_c                   8.579(4)
_cell_measurement_reflns_used    1239
_cell_measurement_temperature    90(2)
_cell_measurement_theta_max      28.4791
_cell_measurement_theta_min      3.2063
_cell_volume                     527.1(4)
_computing_cell_refinement       'Bruker SMART'
_computing_data_collection       'Bruker SMART'
_computing_data_reduction        'Bruker SAINT'
_computing_structure_refinement  'SHELXL-2014/7 (Sheldrick, 2014)'
_computing_structure_solution    'XT, VERSION 2014/4'
_diffrn_ambient_temperature      90(2)
_diffrn_measured_fraction_theta_full 0.997
_diffrn_measured_fraction_theta_max 0.925
_diffrn_measurement_device_type  'CCD area detector'
_diffrn_measurement_method       'phi and omega scans'
_diffrn_radiation_type           MoK\a
_diffrn_radiation_wavelength     0.71073
_diffrn_reflns_av_R_equivalents  0.0227
_diffrn_reflns_av_unetI/netI     0.0285
_diffrn_reflns_Laue_measured_fraction_full 0.997
_diffrn_reflns_Laue_measured_fraction_max 0.925
_diffrn_reflns_limit_h_max       7
_diffrn_reflns_limit_h_min       -8
_diffrn_reflns_limit_k_max       11
_diffrn_reflns_limit_k_min       -12
_diffrn_reflns_limit_l_max       11
_diffrn_reflns_limit_l_min       -11
_diffrn_reflns_number            3153
_diffrn_reflns_point_group_measured_fraction_full 0.997
_diffrn_reflns_point_group_measured_fraction_max 0.925
_diffrn_reflns_theta_full        25.242
_diffrn_reflns_theta_max         28.812
_diffrn_reflns_theta_min         3.206
_diffrn_source                   'sealed tube'
_exptl_absorpt_coefficient_mu    1.457
_exptl_absorpt_correction_T_max  0.74
_exptl_absorpt_correction_T_min  0.60
_exptl_absorpt_correction_type   multi-scan
_exptl_absorpt_process_details   SADABS
_exptl_crystal_colour            pale-pink
_exptl_crystal_density_diffrn    1.922
_exptl_crystal_description       plate
_exptl_crystal_F_000             306
_exptl_crystal_size_max          0.360
_exptl_crystal_size_mid          0.300
_exptl_crystal_size_min          0.220
_refine_diff_density_max         0.450
_refine_diff_density_min         -0.285
_refine_diff_density_rms         0.069
_refine_ls_extinction_method     none
_refine_ls_goodness_of_fit_ref   1.097
_refine_ls_hydrogen_treatment    refall
_refine_ls_matrix_type           full
_refine_ls_number_parameters     147
_refine_ls_number_reflns         1278
_refine_ls_number_restraints     0
_refine_ls_restrained_S_all      1.097
_refine_ls_R_factor_all          0.0481
_refine_ls_R_factor_gt           0.0330
_refine_ls_shift/su_max          0.000
_refine_ls_shift/su_mean         0.000
_refine_ls_structure_factor_coef Fsqd
_refine_ls_weighting_details
'w=1/[\s^2^(Fo^2^)+(0.0193P)^2^+0.6876P] where P=(Fo^2^+2Fc^2^)/3'
_refine_ls_weighting_scheme      calc
_refine_ls_wR_factor_gt          0.0694
_refine_ls_wR_factor_ref         0.0734
_reflns_Friedel_coverage         0.000
_reflns_number_gt                961
_reflns_number_total             1278
_reflns_threshold_expression     'I > 2\s(I)'
_cod_data_source_file            36_17_1.txt
_cod_data_source_block           MnSiF6W_0m
_cod_depositor_comments          'Adding full bibliography for 1558493.cif.'
_cod_original_cell_volume        527.2(4)
_cod_original_sg_symbol_H-M      'P 21/c'
_cod_database_code               1558493
_shelx_shelxl_version_number     2014/7
_shelx_space_group_comment
;
The symmetry employed for this shelxl refinement is uniquely defined
by the following loop, which should always be used as a source of
symmetry information in preference to the above space-group names.
They are only intended as comments.
;
_shelx_estimated_absorpt_t_min   0.622
_shelx_estimated_absorpt_t_max   0.740
_shelx_res_file
;

    MnSiF6W_0m.res created by SHELXL-2014/7


TITL MnSiF6W_0m_a.res in P2(1)/c
REM Old TITL MnSiF6W_0m in P2/c
REM SHELXT solution in P2(1)/c
REM R1 0.207,  Rweak 0.003,  Alpha 0.043,  Orientation as input
REM Formula found by SHELXT:  O3 F6 Mn
CELL  0.71073   6.4732   9.6395   8.5792   90.000  100.009   90.000
ZERR    2.000   0.0032   0.0047   0.0042    0.000    0.007    0.000
LATT  1
SYMM -X, 1/2+Y, 1/2-Z
SFAC O H F SI MN
UNIT 12 24 12 2 2
TEMP -183.000
L.S. 10
BOND $H
LIST 6
FMAP 2
PLAN 20
SIZE 0.22 0.30 0.36
acta
WGHT    0.019300    0.687600
FVAR       0.27741   0.72853   0.71286
MN1   5    0.000000    0.500000    0.500000    10.50000    0.01495    0.01186 =
         0.01649    0.00000    0.00411   -0.00012
SI1   4    0.500000    1.000000    0.500000    10.50000    0.01387    0.01116 =
         0.01554    0.00031    0.00413    0.00028
part 1
F1A   3    0.728205    0.911244    0.532780    21.00000    0.01515    0.01681 =
         0.01712   -0.00109    0.00349    0.00242
F2A   3    0.447377    0.945583    0.676429    21.00000    0.01720    0.01960 =
         0.01169    0.00086    0.00321   -0.00140
F3A   3    0.377631    0.858048    0.411715    21.00000    0.01900    0.01364 =
         0.01434   -0.00120    0.00331   -0.00062
part 2
F1B   3    0.622910    0.857623    0.587575   -21.00000    0.02369    0.01271 =
         0.02927    0.00395    0.00259    0.00317
F2B   3    0.444218    1.052716    0.675109   -21.00000    0.01837    0.01601 =
         0.03149   -0.00417    0.00701   -0.00141
F3B   3    0.268475    0.912101    0.463401   -21.00000    0.01787    0.01636 =
         0.02921    0.00319    0.00230   -0.00377
part 3
O1A   1    0.190421    0.673436    0.595848    31.00000    0.03080    0.01760 =
         0.01112    0.00084   -0.00076   -0.00918
O2A   1    0.271856    0.367969    0.555777    31.00000    0.01694    0.01802 =
         0.02579   -0.00845   -0.00457    0.00425
O3A   1    0.067271    0.536592    0.265732    31.00000    0.01803    0.03476 =
         0.01719    0.00739    0.00889    0.00685
part 4
O1B   1    0.272152    0.632559    0.565208   -31.00000    0.03096    0.01962 =
         0.05364    0.00738    0.01222    0.00097
O2B   1    0.193789    0.330602    0.604655   -31.00000    0.03881    0.02437 =
         0.03561   -0.00430    0.01222    0.01057
O3B   1    0.080292    0.454721    0.272188   -31.00000    0.01789    0.02803 =
         0.03422   -0.01129    0.00438   -0.00361
part 0
H1A   2    0.243121    0.671107    0.680069    11.00000    0.04351
H1B   2    0.245492    0.713171    0.547095    11.00000    0.07467
H2A   2    0.359775    0.380063    0.640853    11.00000    0.06636
H2B   2    0.267533    0.286560    0.526587    11.00000    0.05965
H3A   2    0.166527    0.521124    0.246884    11.00000    0.04087
H3B   2   -0.048935    0.532696    0.194101    11.00000    0.17642
HKLF 4

REM  MnSiF6W_0m_a.res in P2(1)/c
REM R1 =  0.0330 for     961 Fo > 4sig(Fo)  and  0.0481 for all    1278 data
REM    147 parameters refined using      0 restraints

END

WGHT      0.0193      0.6876

REM Highest difference peak  0.450,  deepest hole -0.285,  1-sigma level  0.069
Q1    1   0.0679  0.5030  0.4239  11.00000  0.05    0.45
Q2    1   0.4709  0.9917  0.6030  11.00000  0.05    0.32
Q3    1  -0.1515  0.5069  0.4492  11.00000  0.05    0.28
Q4    1   0.0000  0.5000  0.0000  10.50000  0.05    0.28
Q5    1  -0.0307  0.5738  0.1826  11.00000  0.05    0.26
Q6    1   0.4046  0.9326  0.4414  11.00000  0.05    0.25
Q7    1   0.3535  0.9959  0.4391  11.00000  0.05    0.23
Q8    1   0.2767  0.8669  0.3519  11.00000  0.05    0.23
Q9    1  -0.0439  0.4215  0.1786  11.00000  0.05    0.23
Q10   1  -0.1090  0.4946  0.3528  11.00000  0.05    0.22
Q11   1   0.2810  0.3608  0.7533  11.00000  0.05    0.21
Q12   1   0.4831  0.5103  0.6290  11.00000  0.05    0.21
Q13   1   0.4114  0.6145  0.7097  11.00000  0.05    0.19
Q14   1   0.8448  0.8916  0.6055  11.00000  0.05    0.19
Q15   1   0.5994  0.9361  0.5394  11.00000  0.05    0.19
Q16   1   0.0714  0.6631  0.5434  11.00000  0.05    0.18
Q17   1   0.1663  0.8661  0.4528  11.00000  0.05    0.18
Q18   1   0.4578  0.6844  0.5456  11.00000  0.05    0.17
Q19   1   0.2324  0.9374  0.4193  11.00000  0.05    0.17
Q20   1   0.0928  0.6007  0.3698  11.00000  0.05    0.17
;
_shelx_res_checksum              86924
_shelx_hkl_file
;
  -2   0   0   42.36    0.88
  -3   0   0   49.87    1.07
  -4   0   0  233.17    4.36
  -5   0   0    6.56    0.65
  -5   0   0    7.21    0.38
  -6   0   0    6.09    0.71
  -7   0   0    5.76    0.77
  -8   0   0   22.47    1.47
   0  -1   0    1.27    0.06
   0  -1   0    1.31    0.07
   0   1   0    1.68    0.11
   1  -1   0    1.95    0.12
  -1  -1   0    1.89    0.14
  -1  -1   0    2.01    0.11
  -2  -1   0    0.29    0.09
   2  -1   0    0.30    0.09
  -2  -1   0    0.06    0.13
  -3  -1   0   24.74    0.63
  -4  -1   0   12.59    0.67
  -5  -1   0    1.72    0.22
  -5  -1   0    2.15    0.42
  -5   1   0    1.95    0.22
  -5   1   0    2.38    0.47
  -6  -1   0    3.63    0.57
  -6   1   0    5.19    0.62
  -7  -1   0    0.39    0.55
  -7   1   0    0.48    0.56
  -8  -1   0    0.52    0.76
  -8   1   0    0.66    0.63
   0  -2   0  988.76   17.07
   0  -2   0 1000.00   17.06
   0   2   0  919.14   17.90
   1  -2   0   30.36    0.68
  -1  -2   0   30.91    0.67
  -1  -2   0   30.34    0.71
  -1   2   0   29.69    0.77
   2  -2   0  653.60   11.45
  -2  -2   0  642.56   11.43
  -2  -2   0  635.74   11.56
  -3  -2   0   24.87    0.82
   3  -2   0   24.99    0.68
  -3  -2   0   24.59    0.65
   4  -2   0  184.28    3.45
  -4  -2   0  172.22    3.41
  -4  -2   0  176.68    3.72
  -5  -2   0    0.34    0.34
  -5  -2   0    0.78    0.20
  -6  -2   0   19.03    1.06
  -6   2   0   17.00    1.00
  -7  -2   0    5.04    0.79
  -7   2   0    5.22    0.75
  -8  -2   0   11.80    1.23
  -8   2   0   12.49    1.15
   0  -3   0    0.13    0.08
   0  -3   0    0.12    0.09
   1  -3   0    8.40    0.36
  -1  -3   0    9.67    0.37
   1  -3   0   10.57    0.30
  -1  -3   0    9.41    0.34
  -1   3   0   10.48    0.45
   2  -3   0    0.55    0.13
  -2  -3   0    0.50    0.12
  -2  -3   0    0.52    0.17
  -2   3   0    0.58    0.20
   4  -3   0    4.63    0.36
  -4  -3   0    5.22    0.34
   5  -3   0   -0.43    0.25
  -5  -3   0    0.17    0.19
  -5  -3   0   -0.23    0.33
  -6  -3   0    1.77    0.50
  -6   3   0    1.36    0.52
  -7  -3   0    1.22    0.59
  -7   3   0    1.01    0.59
   0  -4   0    2.86    0.18
   0  -4   0    2.75    0.21
   1  -4   0  148.05    2.83
  -1  -4   0  147.82    2.81
  -1  -4   0  144.14    2.79
  -1   4   0  141.29    2.98
  -2  -4   0  678.21   12.19
  -2  -4   0  676.97   12.09
   2  -4   0  679.78   12.12
  -2   4   0  665.23   12.30
  -3  -4   0    1.34    0.29
   3  -4   0    1.43    0.24
  -3  -4   0    1.12    0.22
  -3   4   0    1.37    0.37
  -4  -4   0   80.55    1.80
   4  -4   0   83.02    1.87
  -4  -4   0   83.54    2.11
  -4   4   0   82.38    2.16
  -5  -4   0    3.03    0.54
   5  -4   0    3.65    0.46
   6  -4   0   71.13    1.78
  -6  -4   0   70.02    2.17
  -6   4   0   60.55    2.73
  -7  -4   0    0.00    0.50
   0  -5   0    0.03    0.09
   0  -5   0    0.02    0.10
   1  -5   0    0.43    0.15
  -1  -5   0    0.41    0.13
  -1  -5   0    0.54    0.16
  -1   5   0    0.73    0.25
  -2  -5   0    0.50    0.17
  -2  -5   0    0.60    0.19
   2  -5   0    0.53    0.18
  -2   5   0    0.89    0.27
  -3  -5   0    0.94    0.26
  -3  -5   0    0.70    0.20
   3  -5   0    0.90    0.23
  -3   5   0    1.43    0.36
  -4  -5   0    0.19    0.28
  -4  -5   0    0.38    0.18
   4  -5   0    0.07    0.24
  -4   5   0    0.33    0.36
  -5  -5   0    8.89    0.79
   5  -5   0    8.25    0.65
  -5   5   0   10.74    1.06
  -6  -5   0    3.64    0.63
   6  -5   0    2.17    0.44
  -6   5   0    4.35    0.87
  -7  -5   0    0.87    0.58
   0  -6   0  188.89    3.57
   0  -6   0  191.12    3.73
  -1  -6   0   32.84    0.92
   1  -6   0   32.68    0.93
  -1  -6   0   32.81    0.87
  -1   6   0   30.89    1.15
  -2  -6   0  112.81    2.43
  -2  -6   0  115.33    2.41
   2  -6   0  113.87    2.44
  -2   6   0  113.83    2.70
   3  -6   0    3.59    0.41
  -3  -6   0    3.43    0.42
  -3  -6   0    3.59    0.38
  -3   6   0    3.19    0.49
   4  -6   0   26.98    0.96
  -4  -6   0   27.31    1.11
  -4  -6   0   28.27    0.93
  -4   6   0   28.00    1.32
   5  -6   0   30.79    1.09
  -5  -6   0   30.89    1.33
  -5   6   0   30.71    1.61
   6  -6   0   67.01    1.84
  -6  -6   0   66.28    2.20
  -7  -6   0    1.39    0.82
   0  -7   0    0.09    0.15
  -1  -7   0   16.93    0.69
   1  -7   0   16.17    0.68
  -1  -7   0   16.62    0.60
   2  -7   0    0.19    0.21
  -2  -7   0    0.15    0.16
  -2  -7   0    0.10    0.18
  -2   7   0    0.37    0.33
  -3  -7   0   -0.01    0.19
  -3  -7   0    0.14    0.21
   3  -7   0    0.11    0.23
  -3   7   0    0.41    0.41
   4  -7   0   -0.07    0.27
  -4  -7   0    0.17    0.23
  -4  -7   0   -0.13    0.28
  -4   7   0    0.05    0.60
  -5  -7   0    3.41    0.53
   5  -7   0    1.90    0.40
  -6  -7   0    0.42    0.51
   6  -7   0   -0.38    0.35
   0  -8   0   61.60    1.61
  -1  -8   0    4.15    0.45
   1  -8   0    4.27    0.47
   2  -8   0   41.06    1.25
  -2  -8   0   41.45    1.23
  -2  -8   0   40.53    1.18
  -2   8   0   39.59    1.61
  -3  -8   0   40.35    1.24
   3  -8   0   41.28    1.27
  -3  -8   0   41.13    1.29
   4  -8   0   40.90    1.32
  -4  -8   0   40.53    1.40
  -4  -8   0   38.39    1.25
   5  -8   0    1.19    0.40
  -5  -8   0    1.78    0.51
  -6  -8   0   30.29    1.50
   6  -8   0   29.03    1.21
   0  -9   0    0.05    0.23
   1  -9   0    1.02    0.33
  -1  -9   0    1.33    0.32
   2  -9   0    1.21    0.35
  -2  -9   0    1.48    0.32
   3  -9   0    1.49    0.37
  -3  -9   0    1.43    0.35
   4  -9   0    1.06    0.35
  -4  -9   0    0.62    0.34
  -4  -9   0    0.91    0.37
   5  -9   0   -0.10    0.37
  -5  -9   0    0.01    0.43
  -6  -9   0    0.16    0.72
   6  -9   0    0.47    0.59
   0 -10   0    9.05    0.65
   1 -10   0   18.59    0.89
  -1 -10   0   17.71    0.87
   2 -10   0   19.51    0.92
  -2 -10   0   20.21    0.92
  -3 -10   0    4.13    0.54
   3 -10   0    3.74    0.54
   4 -10   0   54.62    1.72
   5 -10   0    0.04    0.48
   0 -11   0    0.18    0.32
  -1 -11   0    0.59    0.34
   1 -11   0    0.55    0.34
  -2 -11   0    0.49    0.36
   2 -11   0    1.07    0.37
  -3 -11   0    0.09    0.32
   3 -11   0    0.11    0.36
   0 -12   0   28.06    1.28
  -1 -12   0    6.41    0.76
   1 -12   0    5.84    0.75
   2 -12   0   10.77    1.29
  -2 -12   0   11.53    0.88
  -3 -12   0    0.61    0.46
  -8   0   1   -0.04    0.61
  -7   0   1   -0.02    0.51
  -6   0   1   -0.07    0.27
  -5   0   1    0.04    0.14
  -4   0   1   -0.14    0.11
  -3   0   1    0.06    0.09
  -2   0   1    0.11    0.08
  -1   0   1    0.03    0.05
   0   0   1    0.81    0.06
   0   0  -1    0.84    0.10
   0   0  -1    0.82    0.08
  -1   0  -1    0.12    0.09
  -2   0  -1    0.08    0.13
  -3   0  -1    0.29    0.18
  -4   0  -1   -0.04    0.23
  -4   0  -1    0.11    0.11
  -5   0  -1    0.15    0.35
  -6   0  -1    0.21    0.43
  -7   0  -1   -0.08    0.61
  -8   0  -1   -0.40    0.78
  -8  -1   1    3.99    0.82
  -8   1   1    3.58    0.76
  -7  -1   1   12.56    1.00
  -7   1   1   12.37    1.07
  -6  -1   1   24.03    0.90
  -6  -1   1   24.52    1.20
  -6   1   1   26.62    0.90
  -5  -1   1   22.20    0.74
  -5   1   1   23.23    0.74
  -4  -1   1   21.60    0.66
  -4   1   1   21.21    0.66
   3  -1  -1    1.29    0.19
  -3  -1   1    1.33    0.18
   2  -1  -1    0.66    0.12
  -2  -1   1    1.18    0.15
  -1  -1   1  966.13   16.67
   1  -1  -1  915.31   16.88
   1  -1  -1  957.28   16.65
   0  -1  -1    2.14    0.10
   0  -1   1    2.26    0.11
   0  -1  -1    2.33    0.13
   0   1  -1    2.02    0.10
   0   1  -1    1.98    0.17
   1  -1   1  621.29   11.23
  -1  -1  -1  653.15   11.34
  -1   1  -1  640.44   11.26
  -2  -1  -1   40.88    1.01
   2  -1   1   41.04    0.84
  -2   1  -1   40.90    0.94
  -3  -1  -1  408.81    7.63
   3  -1   1  403.91    7.36
  -3   1  -1  418.46    7.56
  -4  -1  -1   10.28    0.64
  -4   1  -1   11.64    0.61
  -5  -1  -1  176.78    3.86
  -5   1  -1  173.63    3.76
  -6  -1  -1    2.82    0.69
  -6   1  -1    2.85    0.58
  -7  -1  -1   49.16    1.88
  -7   1  -1   44.67    1.81
  -8  -1  -1    0.41    0.89
  -8   1  -1    1.09    0.78
  -8  -2   1    0.37    0.66
  -8   2   1   -0.11    0.57
  -7  -2   1    2.21    0.56
  -7   2   1    1.03    0.65
  -6  -2   1    0.87    0.43
  -6  -2   1    0.88    0.34
  -6   2   1    1.46    0.31
  -5  -2   1    1.06    0.37
  -5  -2   1    0.74    0.20
   4  -2  -1    2.83    0.29
  -4  -2   1    4.74    0.33
  -3  -2   1   11.15    0.44
   3  -2  -1   11.69    0.45
  -2  -2   1   48.84    1.06
   2  -2  -1   46.25    1.06
   1  -2  -1    0.18    0.09
  -1  -2   1    0.30    0.11
   1  -2  -1    0.49    0.12
   0  -2  -1    3.30    0.18
   0  -2   1    3.25    0.19
   0  -2  -1    3.25    0.21
   0   2  -1    4.56    0.36
  -1  -2  -1    0.18    0.07
   1  -2   1    0.17    0.07
  -1  -2  -1    0.19    0.13
  -1   2  -1    0.41    0.20
   2  -2   1    5.46    0.27
  -2  -2  -1    6.85    0.40
  -2   2  -1    6.84    0.30
  -3  -2  -1    8.49    0.51
  -3   2  -1    9.09    0.44
  -4  -2  -1    3.28    0.41
   4  -2   1    4.07    0.33
  -4   2  -1    3.74    0.39
  -5  -2  -1    3.31    0.53
  -5   2  -1    5.01    0.54
  -6  -2  -1    0.61    0.52
  -6   2  -1    0.28    0.44
  -7  -2  -1   -0.63    0.59
  -7   2  -1    0.20    0.59
  -8  -2  -1    0.41    1.14
  -8  -3   1    7.12    1.18
  -8   3   1    6.87    0.95
  -7  -3   1   19.91    1.20
  -6  -3   1    1.34    0.47
   5  -3  -1   57.60    1.44
  -5  -3   1   55.46    1.40
  -5  -3   1   54.21    1.67
  -4  -3   1    1.77    0.26
   4  -3  -1    1.45    0.28
  -4  -3   1    1.74    0.37
   3  -3  -1  188.94    3.62
  -3  -3   1  187.95    3.77
  -3  -3   1  185.62    3.61
   2  -3  -1  140.99    2.74
  -2  -3   1  140.77    2.74
   1  -3  -1    0.77    0.14
   1  -3  -1    0.67    0.14
  -1  -3   1    0.74    0.15
  -1  -3   1    1.38    0.17
   0  -3   1    0.70    0.14
   0  -3  -1    1.01    0.16
   0  -3  -1    0.73    0.13
   0   3  -1    0.93    0.26
  -1  -3  -1  615.83   10.85
  -1  -3  -1  605.46   10.75
   1  -3   1  609.73   10.80
  -1   3  -1  591.78   11.01
  -2  -3  -1  100.18    1.98
  -2  -3  -1  104.48    2.18
   2  -3   1  103.02    2.04
  -2   3  -1  102.02    2.31
  -3  -3  -1  441.81    8.24
   3  -3   1  455.15    8.32
  -3  -3  -1  470.91    8.57
  -3   3  -1  457.18    8.70
  -3   3  -1  469.93    8.35
   4  -3   1    8.92    0.43
  -4  -3  -1    8.04    0.37
  -4  -3  -1    8.96    0.66
  -4   3  -1    8.81    0.54
  -5  -3  -1  134.04    3.23
   5  -3   1  140.97    2.81
  -5   3  -1  134.27    3.00
  -6  -3  -1    6.55    0.79
  -6   3  -1    9.49    0.84
  -7  -3  -1   23.85    1.44
  -7  -4   1    2.57    0.57
   6  -4  -1    0.65    0.33
  -6  -4   1    0.03    0.38
  -5  -4   1    0.10    0.25
   5  -4  -1    0.45    0.31
  -5  -4   1    0.03    0.29
   4  -4  -1    7.96    0.51
  -4  -4   1    8.87    0.46
  -4  -4   1    9.55    0.64
  -3  -4   1    5.90    0.36
   3  -4  -1    5.10    0.35
  -3  -4   1    5.62    0.44
  -2  -4   1    0.43    0.16
   2  -4  -1    0.49    0.15
  -2  -4   1    0.38    0.13
   2  -4  -1    0.31    0.10
   1  -4  -1    0.12    0.11
  -1  -4   1    0.21    0.12
  -1  -4   1    0.06    0.10
   1  -4  -1    0.20    0.10
   0  -4   1   54.97    1.28
   0  -4  -1   55.54    1.26
   0  -4  -1   56.06    1.25
   0   4  -1   60.98    1.55
  -1  -4  -1    3.25    0.23
   1  -4   1    2.67    0.24
  -1  -4  -1    2.98    0.27
  -1   4  -1    4.28    0.47
   2  -4   1    9.08    0.48
  -3  -4  -1    0.01    0.24
  -3  -4  -1   -0.01    0.13
   3  -4   1    0.14    0.16
  -3   4  -1    0.21    0.32
  -4  -4  -1    5.06    0.33
   4  -4   1    3.64    0.35
  -4  -4  -1    4.25    0.51
  -4   4  -1    5.14    0.45
  -4   4  -1    5.26    0.63
  -5  -4  -1    0.57    0.45
   5  -4   1    0.04    0.27
  -5   4  -1    0.27    0.60
  -5   4  -1    0.29    0.58
  -6  -4  -1    0.43    0.52
  -6   4  -1    0.66    0.76
  -7  -4  -1    1.39    0.65
  -7   4  -1    2.59    1.06
  -8   4  -1    4.99    1.68
  -7  -5   1   45.33    1.86
  -6  -5   1    2.33    0.58
   6  -5  -1    1.32    0.41
  -5  -5   1   57.39    1.48
  -5  -5   1   56.73    1.75
   5  -5  -1   56.50    1.52
  -5   5   1   47.41    2.39
  -4  -5   1    1.71    0.30
  -4  -5   1    1.85    0.36
   4  -5  -1    2.26    0.35
  -3  -5   1  109.63    2.33
   3  -5  -1  108.81    2.34
  -3  -5   1  107.98    2.42
  -2  -5   1    1.34    0.25
   2  -5  -1    0.89    0.21
   2  -5  -1    0.84    0.17
  -2  -5   1    1.16    0.23
   1  -5  -1  134.44    2.64
  -1  -5   1  135.04    2.61
  -1  -5   1  135.19    2.72
   1  -5  -1  135.26    2.72
   0  -5   1  145.02    2.90
   0  -5  -1  147.36    2.85
   0  -5  -1  149.38    2.89
   0   5  -1  139.90    3.24
  -1  -5  -1  193.68    3.73
   1  -5   1  189.61    3.71
  -1  -5  -1  197.07    3.69
  -1   5  -1  187.83    4.04
  -2  -5  -1    1.21    0.21
  -2  -5  -1    0.96    0.24
   2  -5   1    1.48    0.25
  -2   5  -1    1.29    0.35
  -3  -5  -1  111.42    2.54
   3  -5   1  115.58    2.39
  -3  -5  -1  111.58    2.31
  -3   5  -1  111.50    2.73
  -4  -5  -1   35.37    1.29
  -4  -5  -1   37.83    1.36
   4  -5   1   36.70    1.08
  -4   5  -1   35.44    1.54
   5  -5   1   78.79    1.91
  -5  -5  -1   81.55    2.28
  -5   5  -1   76.58    2.45
  -6  -5  -1    2.01    0.58
  -6   5  -1    2.19    0.90
  -7  -5  -1   25.85    1.59
  -7   5  -1   26.50    2.20
  -7  -6   1    0.51    0.62
   6  -6  -1    0.08    0.31
  -6  -6   1    0.28    0.38
   5  -6  -1    0.17    0.29
  -5  -6   1    0.33    0.27
  -5  -6   1   -0.01    0.31
   4  -6  -1    0.14    0.24
  -4  -6   1   -0.18    0.22
  -4  -6   1    0.15    0.21
   3  -6  -1    0.12    0.20
  -3  -6   1    0.03    0.18
  -3  -6   1    0.15    0.18
   2  -6  -1    3.84    0.39
   2  -6  -1    4.22    0.28
  -2  -6   1    3.17    0.37
  -2  -6   1    3.94    0.35
   1  -6  -1    1.93    0.23
   1  -6  -1    2.02    0.28
  -1  -6   1    1.77    0.20
  -1  -6   1    1.73    0.27
   0  -6  -1    9.07    0.42
   0  -6  -1   10.29    0.47
   0  -6   1    8.86    0.47
  -1  -6  -1   10.22    0.49
   1  -6   1    8.66    0.49
  -1  -6  -1   10.21    0.47
  -1   6  -1   12.39    0.84
  -2  -6  -1   13.41    0.53
   2  -6   1   11.23    0.60
  -2  -6  -1   11.21    0.58
  -2   6  -1   15.24    0.91
  -3  -6  -1    0.20    0.25
   3  -6   1   -0.02    0.26
  -3  -6  -1    0.15    0.18
  -3   6  -1    0.58    0.45
   4  -6   1    0.91    0.34
  -4  -6  -1    0.90    0.35
  -4   6  -1    1.42    0.57
   5  -6   1    0.48    0.32
  -5  -6  -1    0.56    0.42
  -5   6  -1    0.96    0.64
  -6  -6  -1    0.89    0.57
  -6   6  -1    1.60    0.87
  -7  -6  -1    0.16    0.94
  -7  -7   1   44.44    2.35
   7  -7  -1   46.73    2.15
  -6  -7   1    0.96    0.47
   6  -7  -1    0.59    0.36
  -5  -7   1   28.55    1.06
  -5  -7   1   26.78    1.18
   5  -7  -1   27.00    1.06
  -4  -7   1   38.86    1.21
  -4  -7   1   36.91    1.30
   4  -7  -1   39.56    1.23
  -3  -7   1  110.34    2.51
   3  -7  -1  110.69    2.51
  -3  -7   1  111.45    2.50
  -2  -7   1   16.60    0.62
  -2  -7   1   15.95    0.68
   2  -7  -1   15.29    0.69
  -1  -7   1  216.15    4.27
   1  -7  -1  210.54    4.25
   1  -7  -1  215.34    4.15
   0  -7   1   46.42    1.26
   0  -7  -1   44.54    1.22
   0  -7  -1   46.76    1.17
  -1  -7  -1   61.78    1.49
   1  -7   1   61.07    1.55
  -1  -7  -1   62.87    1.52
  -1   7  -1   58.54    1.92
  -2  -7  -1    3.40    0.37
   2  -7   1    3.02    0.41
  -2  -7  -1    2.89    0.38
  -2   7  -1    3.12    0.63
  -3  -7  -1   28.46    0.92
  -3  -7  -1   28.34    1.06
   3  -7   1   28.73    1.00
  -3   7  -1   28.93    1.48
   4  -7   1   75.89    1.92
  -4  -7  -1   76.43    2.11
  -4   7  -1   75.12    2.42
  -5  -7  -1   11.94    0.92
   5  -7   1   12.06    0.73
  -5   7  -1   12.39    1.45
  -6  -7  -1    0.43    0.52
  -6  -8   1    0.46    0.49
   6  -8  -1    0.20    0.36
  -5  -8   1    1.39    0.43
   5  -8  -1    0.78    0.34
  -4  -8   1    0.13    0.28
   4  -8  -1    0.20    0.28
  -4  -8   1    0.04    0.26
   3  -8  -1    0.05    0.24
  -3  -8   1    0.14    0.20
  -3  -8   1   -0.10    0.22
  -2  -8   1    8.37    0.58
   2  -8  -1    8.14    0.58
  -1  -8   1    0.81    0.26
   1  -8  -1    0.91    0.25
   0  -8  -1    0.15    0.20
   0  -8   1    0.15    0.18
  -1  -8  -1    6.50    0.49
   1  -8   1    6.15    0.51
  -1  -8  -1    6.55    0.44
  -1   8  -1    8.62    1.01
  -2  -8  -1    0.34    0.22
  -2  -8  -1    0.35    0.25
   2  -8   1    0.03    0.24
  -2   8  -1    0.07    0.52
  -3  -8  -1   -0.15    0.21
  -3  -8  -1    0.19    0.28
   3  -8   1   -0.04    0.28
  -3   8  -1   -0.09    0.56
   4  -8   1    1.19    0.38
  -4  -8  -1    0.58    0.36
  -4   8  -1    1.55    0.76
   5  -8   1   -0.12    0.31
  -5  -8  -1   -0.16    0.39
  -6  -8  -1    0.36    0.73
  -6  -9   1    0.49    0.69
   6  -9  -1    0.81    0.57
   5  -9  -1   49.31    1.60
   4  -9  -1    2.38    0.44
  -4  -9   1    2.24    0.44
   3  -9  -1  109.17    2.61
  -3  -9   1  109.22    2.64
   2  -9  -1    7.23    0.56
  -2  -9   1    7.08    0.55
  -1  -9   1   43.05    1.34
   1  -9  -1   41.48    1.31
   0  -9   1    5.53    0.57
   0  -9  -1    6.98    0.64
  -1  -9  -1   32.41    1.11
   1  -9   1   31.12    1.12
   2  -9   1   23.35    0.98
  -2  -9  -1   24.24    0.93
  -2   9  -1   22.99    1.51
   3  -9   1   30.23    1.14
  -3  -9  -1   30.79    1.08
  -3  -9  -1   30.88    1.18
  -3   9  -1   26.69    2.59
   4  -9   1    1.90    0.41
  -4  -9  -1    2.10    0.47
   5  -9   1   10.91    0.80
  -5  -9  -1   11.42    0.96
   5 -10  -1   -0.30    0.41
   4 -10  -1    0.03    0.33
  -4 -10   1    0.04    0.33
   3 -10  -1    0.84    0.33
  -3 -10   1    0.91    0.38
  -2 -10   1    0.06    0.28
   2 -10  -1    0.17    0.27
  -1 -10   1    1.83    0.39
   1 -10  -1    1.23    0.33
   0 -10  -1    0.25    0.30
   0 -10   1    0.29    0.27
  -1 -10  -1   10.49    0.69
   1 -10   1   10.29    0.72
  -2 -10  -1    0.61    0.30
   2 -10   1    0.37    0.32
  -3 -10  -1    1.34    0.39
   3 -10   1    1.44    0.42
   4 -10   1    0.25    0.37
   5 -10   1    0.23    0.55
  -4 -11   1    5.18    0.69
  -3 -11   1   30.77    1.26
   3 -11  -1   29.99    1.26
  -2 -11   1   31.59    1.24
   2 -11  -1   31.65    1.24
  -1 -11   1   33.92    1.30
   1 -11  -1   34.42    1.29
   0 -11  -1    3.05    0.52
   0 -11   1    2.81    0.51
   1 -11   1   22.79    1.07
  -1 -11  -1   23.62    1.07
   2 -11   1    8.46    0.83
  -2 -11  -1    8.51    0.71
   3 -11   1   10.65    0.87
  -3 -12   1    1.06    0.45
   2 -12  -1    0.04    0.42
  -2 -12   1    0.51    0.41
  -1 -12   1    2.82    0.57
   1 -12  -1    2.42    0.55
   0 -12   1    0.19    0.41
   0 -12  -1    0.26    0.36
  -1 -12  -1    1.37    0.46
   1 -12   1    0.95    0.45
  -2 -12  -1    0.95    0.42
  -8   0   2   58.22    2.15
  -7   0   2   51.26    1.77
  -6   0   2   22.18    0.86
  -5   0   2   44.40    1.21
  -4   0   2   77.63    1.73
  -3   0   2   29.99    0.80
  -2   0   2    0.79    0.14
  -1   0   2   27.37    0.66
   1   0  -2   28.98    0.72
   0   0  -2  690.17   11.70
   0   0  -2  655.57   11.74
   0   0   2  633.51   11.62
  -1   0  -2   27.48    0.70
  -2   0  -2   62.34    1.39
  -3   0  -2  157.24    3.21
  -4   0  -2  438.70    8.28
  -5   0  -2    1.42    0.48
  -6   0  -2   92.99    2.56
  -7   0  -2    1.21    0.72
  -8   0  -2   58.65    2.35
  -8  -1   2    0.05    0.61
  -8   1   2   -0.82    0.58
  -7   1   2   -0.07    0.35
  -6  -1   2    0.47    0.28
  -6   1   2    1.53    0.30
  -5  -1   2    5.98    0.45
  -5   1   2    6.04    0.45
  -4  -1   2   11.82    0.48
  -4   1   2   10.84    0.48
  -3  -1   2   34.35    0.89
  -3   1   2   33.91    0.88
  -2  -1   2    1.69    0.20
   2  -1  -2    1.34    0.17
  -1  -1   2   21.27    0.56
   1  -1  -2   20.81    0.54
   1  -1  -2   21.85    0.61
   0  -1   2    0.48    0.09
   0  -1  -2    0.74    0.16
   0  -1  -2    0.42    0.07
   0   1  -2    0.60    0.14
   0   1  -2    0.52    0.17
  -1  -1  -2   -0.02    0.14
   1  -1   2   -0.05    0.07
  -1   1  -2    0.08    0.19
  -1   1  -2    0.13    0.12
  -2  -1  -2    0.08    0.16
  -2   1  -2    0.16    0.15
  -3  -1  -2    1.73    0.31
  -3   1  -2    1.57    0.28
  -4  -1  -2    0.40    0.34
  -4   1  -2    0.71    0.31
  -5  -1  -2    3.09    0.58
  -5   1  -2    3.86    0.57
  -6  -1  -2    5.64    0.81
  -6   1  -2    5.40    0.75
  -7  -1  -2   -0.16    0.69
  -7   1  -2    0.06    0.67
  -8  -1  -2    6.22    1.58
  -8   1  -2    2.87    0.99
  -8  -2   2   39.32    1.79
  -7  -2   2   10.04    0.95
  -7   2   2   11.44    0.75
  -6  -2   2   57.15    1.55
  -6   2   2   58.12    1.55
  -5  -2   2   10.07    0.54
  -5   2   2   11.14    0.57
   4  -2  -2  116.43    2.41
  -4  -2   2  112.77    2.41
   3  -2  -2  135.36    2.70
  -3  -2   2  134.81    2.72
  -2  -2   2    3.01    0.28
   2  -2  -2    2.91    0.31
   2  -2  -2    2.33    0.20
   1  -2  -2    0.75    0.14
   1  -2  -2    1.02    0.19
  -1  -2   2    0.85    0.15
   0  -2  -2   40.40    0.84
   0  -2  -2   40.52    0.94
   0  -2   2   40.69    0.88
   0   2  -2   38.65    0.83
   0   2  -2   38.14    1.09
  -1  -2  -2   43.87    1.04
   1  -2   2   42.19    0.91
  -1   2  -2   41.97    1.19
  -1   2  -2   42.51    0.88
  -2  -2  -2  193.18    3.70
   2  -2   2  185.67    3.48
  -2   2  -2  188.40    3.53
  -2   2  -2  186.51    3.86
  -3  -2  -2    0.56    0.27
   3  -2   2    0.42    0.12
  -3   2  -2    0.28    0.22
  -4  -2  -2  196.56    4.14
  -4   2  -2  198.36    3.96
  -5  -2  -2    1.85    0.56
  -5   2  -2    2.33    0.48
  -6  -2  -2   86.73    2.53
  -6   2  -2   83.08    2.32
  -7  -2  -2    5.95    0.91
  -7   2  -2    6.11    0.94
  -8  -3   2    0.01    0.61
  -7  -3   2    0.36    0.43
  -7   3   2    0.58    0.38
  -6  -3   2    2.81    0.40
  -6  -3   2    3.67    0.57
  -6   3   2    3.48    0.42
   5  -3  -2    4.42    0.44
  -5  -3   2    5.67    0.43
  -4  -3   2    6.77    0.41
   4  -3  -2    6.75    0.43
  -3  -3   2    6.66    0.39
   3  -3  -2    6.39    0.36
   2  -3  -2    1.06    0.18
   2  -3  -2    1.41    0.22
  -2  -3   2    1.22    0.19
   1  -3  -2   13.74    0.45
   1  -3  -2   14.59    0.50
  -1  -3   2   13.44    0.49
   0  -3  -2    0.11    0.08
   0  -3  -2    0.09    0.13
   0  -3   2    0.02    0.10
   0   3  -2    0.05    0.24
  -2  -3  -2    2.18    0.29
   2  -3   2    1.86    0.21
   3  -3   2    0.09    0.15
  -3  -3  -2    0.18    0.25
  -3   3  -2   -0.28    0.28
  -3   3  -2   -0.31    0.19
  -4  -3  -2    0.09    0.34
   4  -3   2    0.25    0.17
  -4   3  -2    0.40    0.26
  -4   3  -2    0.03    0.52
  -5  -3  -2   10.86    0.92
  -5   3  -2   12.32    0.81
  -6  -3  -2    1.72    0.63
  -7  -3  -2   -0.26    0.67
  -7  -4   2   -0.36    0.40
  -7   4   2   -0.02    0.37
  -6  -4   2  113.30    2.98
   6  -4  -2  122.27    2.72
  -6  -4   2  118.53    2.70
  -5  -4   2    4.83    0.62
  -5  -4   2    5.00    0.49
   5  -4  -2    5.86    0.55
   4  -4  -2   56.94    1.46
  -4  -4   2   57.62    1.46
   3  -4  -2   28.93    0.87
  -3  -4   2   29.37    0.88
   2  -4  -2  129.93    2.71
   2  -4  -2  132.16    2.67
  -2  -4   2  135.97    2.71
  -1  -4   2   32.57    0.88
   1  -4  -2   33.39    0.87
   1  -4  -2   31.67    0.84
   0  -4   2    0.79    0.17
   0  -4  -2    0.69    0.19
   0  -4  -2    0.95    0.16
   0   4  -2    0.83    0.30
  -1  -4  -2   23.01    0.74
  -1  -4  -2   23.90    0.62
   1  -4   2   22.71    0.67
  -1   4  -2   21.29    0.92
   2  -4   2  443.56    8.04
  -2  -4  -2  447.05    8.21
  -2  -4  -2  433.79    7.94
  -2   4  -2  442.83    8.45
  -3  -4  -2   11.39    0.69
   3  -4   2   11.90    0.51
  -3   4  -2   13.17    0.50
  -3   4  -2   12.31    0.94
  -4  -4  -2   67.60    1.89
   4  -4   2   68.44    1.57
  -4   4  -2   66.67    2.17
  -5  -4  -2   22.79    1.18
  -5   4  -2   23.42    1.48
  -6  -4  -2   59.18    2.04
  -6   4  -2   59.38    2.45
  -7  -4  -2    2.55    0.83
  -7   4  -2    3.29    1.06
  -7  -5   2    0.77    0.48
  -6  -5   2   -0.05    0.37
  -6  -5   2   -0.48    0.32
   6  -5  -2   -0.07    0.31
  -5  -5   2    1.01    0.35
   5  -5  -2    0.70    0.30
  -5  -5   2    0.38    0.26
  -4  -5   2    0.57    0.25
   4  -5  -2    0.70    0.26
  -4  -5   2    0.69    0.27
   3  -5  -2   16.02    0.66
  -3  -5   2   16.88    0.68
  -3  -5   2   16.64    0.68
   2  -5  -2    0.55    0.17
   2  -5  -2    0.42    0.17
  -2  -5   2    0.50    0.17
  -2  -5   2    0.50    0.18
  -1  -5   2    4.71    0.37
  -1  -5   2    5.76    0.27
   1  -5  -2    5.25    0.35
   1  -5  -2    4.39    0.33
   0  -5  -2   15.57    0.59
   0  -5   2   14.68    0.59
   0  -5  -2   15.68    0.56
   0   5  -2   18.37    0.96
  -1  -5  -2   32.63    0.98
   1  -5   2   29.73    0.93
  -1   5  -2   36.67    1.29
   2  -5   2    1.55    0.27
  -2  -5  -2    1.01    0.27
  -2  -5  -2    1.29    0.19
  -2   5  -2    1.81    0.43
   3  -5   2    0.76    0.25
  -3  -5  -2    0.76    0.31
  -3  -5  -2    0.82    0.17
  -3   5  -2    1.63    0.51
  -4  -5  -2    0.16    0.38
   4  -5   2    0.39    0.28
  -4   5  -2   -0.01    0.55
  -5  -5  -2    0.55    0.45
  -5   5  -2    0.52    0.72
  -6  -5  -2    2.00    0.60
  -6   5  -2    0.42    0.94
  -7  -5  -2    0.17    0.78
  -7   5  -2   -1.32    1.00
   7  -6  -2    0.21    0.40
  -7  -6   2    1.33    0.64
   6  -6  -2   52.45    1.56
  -6  -6   2   51.52    1.82
  -6  -6   2   50.67    1.61
  -5  -6   2   21.16    1.02
  -5  -6   2   24.27    0.94
   5  -6  -2   22.44    0.93
   4  -6  -2   39.44    1.20
  -4  -6   2   37.33    1.26
  -4  -6   2   38.81    1.19
   3  -6  -2   15.96    0.69
  -3  -6   2   16.37    0.72
  -3  -6   2   16.85    0.69
  -2  -6   2  358.00    6.66
   2  -6  -2  351.10    6.63
  -2  -6   2  352.51    6.53
   2  -6  -2  341.98    6.59
   1  -6  -2   29.46    0.87
  -1  -6   2   29.46    0.75
   1  -6  -2   29.59    0.90
  -1  -6   2   29.49    0.91
   0  -6   2  123.04    2.57
   0  -6  -2  118.78    2.52
   0  -6  -2  123.04    2.51
   0   6  -2  115.72    3.01
   1  -6   2    1.01    0.26
  -1  -6  -2    0.94    0.26
  -1  -6  -2    1.69    0.25
  -1   6  -2    1.24    0.46
   2  -6   2   79.87    1.84
  -2  -6  -2   80.91    1.76
  -2  -6  -2   78.24    1.95
  -2   6  -2   78.80    2.31
  -3  -6  -2   33.27    1.18
   3  -6   2   34.98    1.04
  -3  -6  -2   30.67    0.92
  -3   6  -2   33.12    1.54
  -4  -6  -2   29.60    1.23
   4  -6   2   30.93    1.03
  -4   6  -2   30.35    1.60
  -5  -6  -2    7.94    0.82
  -5   6  -2    8.59    1.03
  -6  -6  -2   45.99    1.87
  -6   6  -2   46.06    2.34
  -7   6  -2   -0.45    1.21
  -7  -7   2   -0.35    0.61
   7  -7  -2    0.55    0.52
  -6  -7   2    0.55    0.38
   6  -7  -2    1.54    0.43
   5  -7  -2    0.90    0.35
  -5  -7   2    1.39    0.35
  -5  -7   2    0.77    0.35
  -4  -7   2   -0.29    0.21
  -4  -7   2    0.09    0.24
   4  -7  -2    0.08    0.24
  -3  -7   2    1.54    0.29
  -3  -7   2    1.45    0.34
   3  -7  -2    1.40    0.31
  -2  -7   2   -0.04    0.19
   2  -7  -2    0.11    0.18
   2  -7  -2    0.28    0.16
  -2  -7   2   -0.04    0.18
   1  -7  -2    4.19    0.43
   1  -7  -2    3.30    0.35
  -1  -7   2    2.88    0.37
   0  -7  -2    4.24    0.38
   0  -7  -2    4.55    0.38
   0  -7   2    3.60    0.41
  -1  -7  -2    0.47    0.23
   1  -7   2    0.60    0.25
  -1  -7  -2    0.58    0.23
  -1   7  -2    0.68    0.50
  -2  -7  -2    0.55    0.29
   2  -7   2    0.25    0.27
  -2  -7  -2    0.67    0.21
  -2   7  -2    0.96    0.56
  -3  -7  -2   12.21    0.79
   3  -7   2   11.40    0.73
  -4  -7  -2    0.24    0.39
   4  -7   2    0.31    0.32
  -4   7  -2   -0.07    0.66
  -5  -7  -2   -0.25    0.44
  -5   7  -2    0.53    0.80
  -6  -7  -2   -0.31    0.67
  -6   7  -2   -0.71    0.94
   6  -8  -2   12.37    0.88
  -6  -8   2   14.77    1.02
  -5  -8   2    3.40    0.54
  -5  -8   2    3.33    0.51
   5  -8  -2    3.87    0.54
  -4  -8   2  108.91    2.57
  -4  -8   2  101.98    2.65
   4  -8  -2  108.52    2.57
   3  -8  -2    0.43    0.26
  -3  -8   2    0.05    0.24
  -2  -8   2  125.05    2.85
   2  -8  -2  130.12    2.84
  -1  -8   2    1.21    0.30
   1  -8  -2    1.34    0.28
   0  -8  -2  164.27    3.41
   0  -8   2  163.16    3.49
   0  -8  -2  160.24    3.35
  -1  -8  -2    5.44    0.45
   1  -8   2    4.39    0.51
  -1  -8  -2    4.69    0.52
  -1   8  -2    4.32    0.82
   2  -8   2   62.99    1.68
  -2  -8  -2   61.66    1.73
  -2  -8  -2   60.15    1.57
  -2   8  -2   58.86    2.26
   3  -8   2   30.33    1.10
  -3  -8  -2   30.67    1.21
  -3   8  -2   30.15    1.75
   4  -8   2   11.73    0.73
  -4  -8  -2   12.93    0.90
  -4   8  -2   13.60    1.55
  -5  -8  -2    0.63    0.48
   5  -8   2    0.02    0.47
  -5   8  -2    0.07    0.85
  -6  -8  -2   23.52    2.22
  -5  -9   2   -0.03    0.31
   5  -9  -2    0.01    0.30
  -4  -9   2   -0.03    0.30
   4  -9  -2    0.17    0.28
  -3  -9   2   -0.21    0.26
   3  -9  -2    0.53    0.29
  -2  -9   2    4.30    0.55
   2  -9  -2    5.18    0.54
  -1  -9   2   -0.14    0.22
   1  -9  -2    0.21    0.27
   0  -9   2    5.85    0.58
   0  -9  -2    6.33    0.52
   1  -9   2    0.84    0.32
  -1  -9  -2    0.68    0.32
  -1   9  -2    0.95    0.68
  -2  -9  -2   -0.73    0.29
  -2  -9  -2    0.18    0.27
   2  -9   2    0.31    0.29
  -2   9  -2   -0.22    0.70
  -3  -9  -2    0.76    0.41
   3  -9   2    1.66    0.41
  -3   9  -2    1.56    0.83
   4  -9   2   -0.14    0.32
  -4  -9  -2    0.78    0.47
  -4   9  -2    0.20    0.88
  -5  -9  -2    0.84    0.63
   5  -9   2    0.39    0.50
   5 -10  -2    5.83    1.08
  -5 -10   2    6.32    0.73
   4 -10  -2   56.19    1.76
  -4 -10   2   57.58    1.78
  -3 -10   2    7.56    0.75
   3 -10  -2    7.15    0.61
  -2 -10   2   50.96    1.60
   2 -10  -2   51.23    1.58
   1 -10  -2    1.99    0.42
  -1 -10   2    1.93    0.41
   0 -10  -2   83.60    2.14
   0 -10   2   80.27    2.16
  -1 -10  -2    7.58    0.62
   1 -10   2    6.91    0.71
   2 -10   2   52.96    1.67
  -2 -10  -2   54.22    1.62
  -2  10  -2   54.96    2.52
   3 -10   2    0.91    0.41
  -3  10  -2   -1.30    1.22
   4 -10   2   29.71    1.25
  -4 -10  -2   33.73    1.69
  -5 -10  -2    6.23    1.03
   5 -10   2    4.98    0.88
  -4 -11   2   -0.39    0.37
   3 -11  -2   -0.02    0.31
  -3 -11   2    0.21    0.32
   2 -11  -2   -0.19    0.25
  -2 -11   2    0.30    0.33
   1 -11  -2    0.12    0.32
  -1 -11   2    0.47    0.32
   0 -11   2    0.18    0.31
   0 -11  -2    0.35    0.33
  -1 -11  -2    0.00    0.33
   1 -11   2   -0.14    0.29
   2 -11   2   -0.05    0.36
  -2 -11  -2   -0.08    0.32
   3 -11   2    0.17    0.52
  -2 -12   2   41.02    1.65
   1 -12  -2    3.09    0.59
  -1 -12   2    2.81    0.59
   0 -12  -2   53.64    1.76
   0 -12   2   53.29    1.83
  -1 -12  -2    2.97    0.54
   1 -12   2    3.11    0.74
  -7   0   3   -0.19    0.31
  -6   0   3   -0.05    0.24
  -5   0   3    0.15    0.21
  -4   0   3    0.37    0.15
  -3   0   3    0.02    0.10
   2   0  -3    0.05    0.12
  -2   0   3    0.03    0.09
   1   0  -3    0.74    0.19
  -1   0   3    0.37    0.12
   0   0   3   -0.01    0.07
   0   0  -3    0.05    0.19
   0   0  -3    0.10    0.18
  -1   0  -3    0.50    0.17
  -2   0  -3    0.82    0.22
  -3   0  -3    0.35    0.27
  -4   0  -3    0.05    0.34
  -5   0  -3    0.07    0.44
  -6   0  -3    0.42    0.58
  -7   0  -3    0.31    0.69
  -7  -1   3   38.21    1.31
  -7   1   3   38.32    1.30
  -6  -1   3   10.64    0.66
  -6   1   3   11.81    0.66
  -5  -1   3  204.56    4.11
  -5   1   3  204.82    4.11
  -4  -1   3   29.43    0.88
  -4   1   3   28.23    0.87
  -3  -1   3  125.21    2.56
  -3   1   3  125.74    2.56
  -2  -1   3  135.07    2.65
   2  -1  -3  132.11    2.74
  -2   1   3  131.63    2.62
  -1  -1   3  619.07   11.05
   1  -1  -3  636.26   11.13
   1   1  -3  605.08   11.24
  -1   1   3  600.02   11.02
   1   1  -3  630.24   11.11
   0  -1  -3   45.80    1.09
   0  -1   3   44.24    0.96
   0   1   3   43.44    0.92
   0   1  -3   45.73    1.04
   0   1  -3   40.49    1.15
  -1  -1  -3   58.74    1.33
   1  -1   3   56.46    1.13
  -1   1  -3   56.18    1.25
  -1   1  -3   55.85    1.48
  -2  -1  -3  128.25    2.65
  -2   1  -3  127.40    2.56
  -3  -1  -3   59.14    1.55
  -3   1  -3   59.35    1.47
  -4  -1  -3    0.28    0.36
  -4   1  -3    0.38    0.33
  -5  -1  -3   46.77    1.56
  -5   1  -3   45.75    1.49
  -6  -1  -3    2.87    0.67
  -6   1  -3    2.66    0.64
  -7  -1  -3   48.79    1.92
  -7   1  -3   48.60    1.87
  -8  -2   3   -0.57    0.53
  -7  -2   3    2.46    0.46
  -7   2   3    3.33    0.47
  -6  -2   3    2.84    0.39
  -6   2   3    3.08    0.41
  -5  -2   3    2.63    0.36
  -5   2   3    2.59    0.34
  -4  -2   3    7.68    0.45
  -4   2   3    7.14    0.43
   3  -2  -3    2.24    0.27
  -3  -2   3    2.37    0.29
   2  -2  -3   27.46    0.85
   2  -2  -3   26.81    0.75
  -2  -2   3   27.46    0.79
  -1  -2   3    1.98    0.22
   1  -2  -3    2.86    0.31
   1  -2  -3    2.55    0.20
   1   2  -3    2.39    0.35
   0  -2  -3    8.47    0.30
   0  -2   3    7.29    0.34
   0  -2  -3    7.39    0.42
   0   2  -3    9.15    0.58
   0   2  -3    8.83    0.35
   1  -2   3    0.62    0.12
  -1  -2  -3    0.48    0.21
  -1   2  -3    0.65    0.28
  -1   2  -3    1.09    0.17
  -2  -2  -3    0.18    0.23
   2  -2   3    0.20    0.10
  -2   2  -3    0.18    0.18
  -2   2  -3    0.35    0.30
  -3  -2  -3   -0.05    0.28
  -3   2  -3    0.15    0.43
  -3   2  -3   -0.23    0.23
  -4  -2  -3   12.53    0.83
  -4   2  -3   13.15    0.68
  -5  -2  -3   12.38    0.98
  -5   2  -3   12.12    0.81
  -6  -2  -3   -0.07    0.59
  -6   2  -3   -0.04    0.57
  -7  -2  -3    2.09    0.84
  -8  -3   3    0.45    0.77
  -7  -3   3   62.69    2.10
  -7  -3   3   62.49    1.77
  -7   3   3   61.72    1.80
  -6  -3   3    0.70    0.29
  -6   3   3    0.97    0.33
  -5  -3   3  156.11    3.32
  -4  -3   3   42.34    1.19
   4  -3  -3   41.39    1.15
   3  -3  -3  169.37    3.40
  -3  -3   3  173.48    3.44
   2  -3  -3  135.85    2.74
   2  -3  -3  140.01    2.87
  -2  -3   3  137.89    2.80
   1  -3  -3    0.99    0.17
   1  -3  -3    0.73    0.23
  -1  -3   3    1.32    0.21
   1   3  -3    0.66    0.32
   0  -3  -3   46.64    1.03
   0  -3   3   48.10    1.11
   0  -3  -3   49.20    1.19
   0   3  -3   44.28    1.38
  -1  -3  -3  405.24    7.33
  -1  -3  -3  418.15    7.59
   1  -3   3  412.80    7.42
  -1   3  -3  403.89    7.82
  -2  -3  -3    0.20    0.26
   2  -3   3    0.12    0.14
  -2   3  -3    0.14    0.16
  -2   3  -3    0.79    0.38
  -3  -3  -3   22.45    0.92
   3  -3   3   22.59    0.66
  -3   3  -3   22.68    1.21
  -3   3  -3   23.54    0.74
  -4  -3  -3    0.48    0.41
  -4   3  -3    0.49    0.30
  -4   3  -3    0.99    0.61
  -5  -3  -3   49.22    1.72
  -5   3  -3   50.92    2.20
  -6  -3  -3   12.70    1.10
  -6   3  -3   10.93    1.29
  -7  -3  -3   21.58    1.57
  -7   3  -3   24.23    2.25
  -8   4   3   -0.64    0.52
  -7  -4   3    0.57    0.45
  -7  -4   3   -0.14    0.35
  -7   4   3    0.12    0.40
  -6  -4   3    0.91    0.32
   5  -4  -3    8.96    0.58
  -5  -4   3    8.31    0.59
   4  -4  -3    2.77    0.35
  -4  -4   3    2.47    0.35
   3  -4  -3    0.60    0.19
  -3  -4   3    0.73    0.22
   3  -4  -3    0.49    0.19
   2  -4  -3   24.42    0.77
  -2  -4   3   24.42    0.81
   2  -4  -3   26.09    0.84
   1  -4  -3    3.49    0.26
   1  -4  -3    3.47    0.36
  -1  -4   3    2.84    0.31
   1   4  -3    3.21    0.49
   0  -4   3    3.12    0.30
   0  -4  -3    2.82    0.32
   0  -4  -3    3.11    0.27
   0   4  -3    3.15    0.49
  -1  -4  -3   12.00    0.62
   1  -4   3   11.94    0.55
  -1   4  -3   14.50    0.83
   2  -4   3    0.66    0.21
  -2  -4  -3    0.82    0.31
  -2   4  -3    1.30    0.45
   3  -4   3   -0.01    0.19
  -3  -4  -3    0.34    0.33
  -3   4  -3   -0.12    0.47
  -4  -4  -3    0.14    0.43
  -4   4  -3   -0.87    0.65
  -5  -4  -3    0.97    0.54
  -5   4  -3   -0.55    0.83
  -6  -4  -3    4.38    0.82
  -6   4  -3    4.26    1.07
  -7  -4  -3   -0.12    0.96
  -7   4  -3    0.03    1.23
  -8   5   3    0.87    0.61
  -7  -5   3   62.79    2.19
  -7   5   3   69.03    1.96
  -6  -5   3    7.30    0.68
   6  -5  -3    7.06    0.62
  -6  -5   3    7.22    0.81
  -5  -5   3   32.83    1.26
   5  -5  -3   32.08    1.09
  -5  -5   3   29.76    1.09
  -4  -5   3    3.52    0.44
   4  -5  -3    4.36    0.48
   3  -5  -3  205.80    4.08
   3  -5  -3  201.38    4.18
  -3  -5   3  207.13    4.13
   2  -5  -3   30.36    0.97
  -2  -5   3   29.00    0.94
   2  -5  -3   30.26    0.89
  -1  -5   3   89.16    2.01
   1  -5  -3   88.91    1.94
   1  -5  -3   90.79    2.03
   0  -5   3   23.25    0.74
   0  -5  -3   22.76    0.68
   0  -5  -3   22.09    0.80
   0   5  -3   20.42    1.14
  -1  -5  -3  172.02    3.33
  -1  -5  -3  177.24    3.56
   1  -5   3  174.18    3.42
  -1   5  -3  168.00    3.91
  -2  -5  -3    9.12    0.63
   2  -5   3    9.75    0.48
  -2  -5  -3    9.21    0.40
  -2   5  -3   10.56    1.01
   3  -5   3   69.05    1.61
  -3  -5  -3   68.00    1.88
  -3   5  -3   67.05    2.19
  -4  -5  -3   25.13    1.17
  -4   5  -3   27.11    1.57
  -5  -5  -3   45.96    1.71
  -5   5  -3   47.28    2.15
  -6  -5  -3    0.98    0.63
  -6   5  -3   -0.64    0.94
  -7   5  -3   11.71    1.80
  -7  -6   3   -0.94    0.49
   6  -6  -3    0.75    0.34
  -6  -6   3    0.36    0.35
  -6  -6   3   -0.28    0.31
   5  -6  -3    4.82    0.55
  -5  -6   3    3.84    0.48
  -5  -6   3    4.22    0.55
  -4  -6   3    8.82    0.60
  -4  -6   3    8.10    0.57
   4  -6  -3    8.12    0.57
   3  -6  -3    0.95    0.25
  -3  -6   3    0.89    0.23
  -3  -6   3    0.77    0.25
   3  -6  -3    0.92    0.25
   2  -6  -3    0.39    0.18
  -2  -6   3    0.29    0.21
   2  -6  -3    0.25    0.17
  -2  -6   3    0.44    0.16
   1  -6  -3    1.55    0.27
  -1  -6   3    1.26    0.27
   1  -6  -3    2.35    0.34
   0  -6   3    3.92    0.40
   0  -6  -3    3.02    0.37
   0  -6  -3    4.20    0.32
   0   6  -3    4.28    0.68
  -1  -6  -3    3.63    0.44
   1  -6   3    4.95    0.46
  -1  -6  -3    5.54    0.35
  -1   6  -3    5.66    0.78
  -2  -6  -3    1.84    0.22
  -2  -6  -3    1.70    0.39
   2  -6   3    2.25    0.36
  -2   6  -3    2.62    0.64
   3  -6   3    0.18    0.29
  -3  -6  -3    0.52    0.39
  -3   6  -3    0.28    0.59
   4  -6   3    0.22    0.31
  -4  -6  -3    0.15    0.39
  -4   6  -3    0.47    0.69
  -5  -6  -3    0.80    0.52
  -5   6  -3    0.28    0.80
  -6  -6  -3    1.60    0.81
  -6   6  -3    3.11    1.01
  -7  -7   3   17.38    1.34
   7  -7  -3   17.89    1.17
  -6  -7   3    8.33    0.89
   6  -7  -3    8.60    0.78
  -6  -7   3    8.61    0.80
   5  -7  -3   18.58    0.90
  -5  -7   3   18.31    0.95
  -5  -7   3   19.90    0.96
  -4  -7   3    7.12    0.58
   4  -7  -3    6.98    0.56
  -4  -7   3    7.02    0.57
  -3  -7   3  126.96    3.04
  -3  -7   3  131.89    2.91
   3  -7  -3  125.34    2.87
   3  -7  -3  128.54    2.85
  -2  -7   3   18.41    0.79
   2  -7  -3   17.30    0.73
   2  -7  -3   17.35    0.74
  -1  -7   3  218.77    4.41
   1  -7  -3  219.42    4.35
   1  -7  -3  217.41    4.37
   0  -7  -3   10.41    0.63
   0  -7  -3   12.23    0.58
   0  -7   3   11.73    0.64
   0   7  -3   11.49    1.14
  -1  -7  -3   62.80    1.68
   1  -7   3   61.84    1.60
  -1  -7  -3   58.61    1.48
  -1   7  -3   59.75    2.23
   2  -7   3    2.19    0.40
  -2  -7  -3    2.42    0.48
  -2  -7  -3    2.25    0.32
  -2   7  -3    2.01    0.70
   3  -7   3   80.13    1.97
  -3  -7  -3   80.27    2.19
  -3   7  -3   79.58    2.64
   4  -7   3    7.53    0.59
  -4  -7  -3    6.64    0.75
  -4   7  -3    6.98    1.03
  -5  -7  -3   32.79    1.48
  -5   7  -3   31.50    2.04
  -6  -7  -3    1.25    0.96
  -6   7  -3    0.23    1.09
  -6  -8   3    0.02    0.39
  -6  -8   3    0.08    0.35
   6  -8  -3    0.25    0.49
  -5  -8   3    0.19    0.36
   5  -8  -3    0.72    0.33
  -4  -8   3    0.14    0.27
   4  -8  -3    0.17    0.25
   3  -8  -3    0.32    0.23
  -3  -8   3   -0.29    0.31
  -2  -8   3    0.10    0.21
   2  -8  -3   -0.07    0.20
   1  -8  -3    1.57    0.32
   1  -8  -3    1.12    0.27
  -1  -8   3    1.44    0.32
   0  -8  -3    8.83    0.59
   0  -8   3    7.43    0.60
   0  -8  -3    9.76    0.57
  -1  -8  -3    1.03    0.35
  -1  -8  -3    1.00    0.27
   1  -8   3    1.46    0.35
  -1   8  -3    1.68    0.72
  -2  -8  -3    0.32    0.33
   2  -8   3    0.15    0.31
  -2  -8  -3   -0.49    0.33
  -2   8  -3    0.31    0.68
  -3  -8  -3    2.70    0.55
   3  -8   3    1.99    0.44
  -3   8  -3    3.84    0.98
  -4  -8  -3    2.14    0.54
   4  -8   3    0.91    0.39
  -4   8  -3    2.01    0.97
  -5  -8  -3    0.38    0.67
  -5   8  -3    0.08    0.90
  -6   8  -3    0.82    1.37
  -6  -9   3    0.67    0.49
  -5  -9   3   29.59    1.22
   5  -9  -3   30.43    1.27
   4  -9  -3    7.31    0.71
  -4  -9   3    7.63    0.77
  -3  -9   3   36.40    1.31
   3  -9  -3   37.92    1.28
  -2  -9   3    1.12    0.35
   2  -9  -3    1.69    0.38
  -1  -9   3   78.54    2.07
   1  -9  -3   77.81    1.99
   0  -9  -3    0.69    0.29
   0  -9   3    0.83    0.35
   1  -9   3  124.49    2.89
  -1  -9  -3  126.63    2.91
  -1  -9  -3  121.41    2.77
  -1   9  -3  124.25    3.75
   2  -9   3    1.89    0.45
  -2  -9  -3    1.52    0.47
  -2   9  -3    1.65    0.91
  -3  -9  -3   65.68    2.00
   3  -9   3   64.00    1.83
  -3   9  -3   63.04    2.79
  -4  -9  -3    0.41    0.51
   4  -9   3    0.15    0.37
  -4   9  -3   -0.10    0.94
  -5  -9  -3   23.69    1.58
  -5   9  -3   26.59    2.61
  -5 -10   3    0.22    0.41
   4 -10  -3   -0.26    0.31
  -4 -10   3   -0.35    0.32
   3 -10  -3    0.54    0.30
  -3 -10   3    0.19    0.33
  -2 -10   3    0.21    0.32
   2 -10  -3    0.31    0.28
  -1 -10   3    0.56    0.33
   1 -10  -3    0.44    0.27
   0 -10  -3   -0.01    0.30
   0 -10   3    0.16    0.27
  -1 -10  -3    0.59    0.33
   1 -10   3    0.27    0.36
   2 -10   3    2.18    0.46
  -2  10  -3    1.45    1.01
  -3 -10  -3    1.35    0.60
   3 -10   3    1.23    0.47
  -3  10  -3    2.68    1.11
   4 -10   3    0.56    0.49
  -4 -10  -3    1.22    0.74
  -4  10  -3    0.76    1.40
  -4 -11   3    1.52    0.86
  -3 -11   3   12.36    0.92
   3 -11  -3   14.05    0.90
  -2 -11   3   18.74    1.03
   2 -11  -3   20.43    1.01
  -1 -11   3   43.52    1.55
   1 -11  -3   46.81    1.53
   0 -11   3    2.06    0.44
   0 -11  -3    2.62    0.47
   1 -11   3   69.16    2.08
  -1 -11  -3   68.80    1.96
   2 -11   3    0.66    0.54
  -2  11  -3    0.82    1.01
   3 -11   3   46.79    1.74
   1 -12  -3    0.94    0.42
   0 -12  -3   -0.29    0.36
  -1 -12  -3    0.04    0.54
  -8   0   4   22.88    1.13
  -7   0   4    7.10    0.68
  -6   0   4   36.05    1.20
  -5   0   4   18.45    0.77
  -4   0   4  346.42    6.58
  -3   0   4    0.95    0.21
   2   0  -4  620.30   11.31
  -2   0   4  617.32   11.18
  -1   0   4  106.25    2.17
   1   0  -4  108.96    2.27
   0   0  -4  193.49    3.90
   0   0  -4  206.58    3.85
   0   0   4  197.23    3.71
  -1   0  -4  141.50    3.10
  -1   0  -4  153.81    2.99
  -2   0  -4    1.85    0.33
  -3   0  -4  122.56    2.70
  -4   0  -4   82.36    2.11
  -5   0  -4    4.87    0.66
  -6   0  -4    9.01    0.93
  -7   0  -4    3.08    0.83
  -8  -1   4   -0.01    0.42
  -8   1   4    0.16    0.39
  -7  -1   4   -0.02    0.35
  -7   1   4    0.21    0.36
  -6  -1   4    0.28    0.28
  -6   1   4    0.47    0.29
  -5  -1   4    0.18    0.20
  -5   1   4    0.26    0.20
  -4  -1   4    0.22    0.20
  -4   1   4    0.40    0.18
  -3  -1   4    5.77    0.37
  -3   1   4    5.79    0.37
  -2  -1   4    6.36    0.38
   2  -1  -4    5.56    0.43
  -2   1   4    5.88    0.35
  -1  -1   4   47.68    1.14
   1  -1  -4   47.75    1.24
  -1   1   4   47.86    1.12
   1   1  -4   49.59    1.22
   1   1  -4   48.71    1.36
   0  -1   4    2.95    0.23
   0  -1  -4    3.48    0.37
   0   1  -4    4.81    0.49
   0   1  -4    3.69    0.37
   0   1   4    3.65    0.22
   1  -1   4    0.55    0.11
  -1  -1  -4    0.45    0.26
  -1   1  -4    0.70    0.24
  -1   1  -4    0.86    0.33
  -2  -1  -4    0.09    0.26
  -2   1  -4    0.12    0.24
  -2   1  -4    0.10    0.33
  -3  -1  -4    0.73    0.37
  -3   1  -4    0.71    0.32
  -4  -1  -4    1.38    0.48
  -4   1  -4    0.87    0.43
  -5  -1  -4    0.02    0.50
  -5   1  -4    0.07    0.48
  -6  -1  -4    0.64    0.66
  -6   1  -4    0.22    0.60
  -7  -1  -4   -0.17    0.80
  -8  -2   4   20.81    1.50
  -8   2   4   19.86    1.08
  -7  -2   4    0.45    0.38
  -7   2   4    1.07    0.41
  -6  -2   4   76.42    1.99
  -6   2   4   75.38    1.97
  -5  -2   4    1.21    0.31
  -5   2   4    0.88    0.27
  -4  -2   4  200.75    4.04
  -4   2   4  198.44    4.00
   3  -2  -4   29.72    1.02
  -3  -2   4   30.28    0.92
  -3   2   4   29.51    0.88
  -2  -2   4  192.51    3.80
   2  -2  -4  193.24    3.90
   1  -2  -4   35.46    1.01
  -1  -2   4   35.19    0.93
   1  -2  -4   34.85    0.87
   1   2  -4   34.15    1.21
   1   2  -4   33.43    0.95
   0  -2   4  421.83    7.66
   0  -2  -4  436.79    7.83
   0   2  -4  421.28    7.67
   0   2  -4  408.21    8.00
   1  -2   4  150.92    2.90
  -1  -2  -4  156.84    3.14
  -1   2  -4  147.99    3.31
  -1   2  -4  153.63    2.98
  -2  -2  -4   62.68    1.61
  -2   2  -4   62.22    1.44
  -2   2  -4   60.33    1.82
  -3  -2  -4   10.80    0.75
  -3   2  -4   11.47    0.99
  -3   2  -4   10.71    0.61
  -4  -2  -4   28.24    1.18
  -4   2  -4   26.61    1.03
  -4   2  -4   25.05    1.54
  -5  -2  -4   14.99    1.08
  -5   2  -4   13.83    0.93
  -6  -2  -4   11.75    1.08
  -7  -2  -4    1.72    0.96
  -7   2  -4    3.31    1.55
  -8   3   4    0.41    0.48
  -7  -3   4    0.61    0.35
  -7   3   4    0.36    0.39
  -6  -3   4    1.01    0.35
  -6   3   4    1.29    0.35
  -5  -3   4    0.00    0.22
  -5   3   4    0.15    0.24
  -4  -3   4    0.35    0.22
  -3  -3   4    0.63    0.20
   3  -3  -4    0.58    0.23
   3  -3  -4    0.56    0.18
   2  -3  -4   19.32    0.76
   2  -3  -4   17.58    0.62
  -2  -3   4   17.91    0.68
   1  -3  -4   23.11    0.70
  -1  -3   4   22.86    0.76
   1  -3  -4   24.39    0.84
   1   3  -4   25.24    1.11
   0  -3  -4    6.77    0.32
   0  -3  -4    6.78    0.50
   0  -3   4    6.42    0.40
   0   3  -4    8.13    0.39
   0   3  -4    7.09    0.70
  -1  -3  -4    0.66    0.28
   1  -3   4    0.43    0.17
  -1   3  -4    0.73    0.34
  -1   3  -4    0.92    0.23
  -2  -3  -4    0.74    0.33
   2  -3   4    0.42    0.17
  -2   3  -4    0.75    0.46
  -2   3  -4    0.72    0.25
  -3  -3  -4    2.52    0.52
  -3   3  -4    3.96    0.39
  -3   3  -4    3.82    0.71
  -4  -3  -4   -0.03    0.44
  -4   3  -4   -0.83    0.64
  -5  -3  -4    0.80    0.60
  -5   3  -4    2.18    0.85
  -6  -3  -4    0.87    0.68
  -6   3  -4    1.50    0.96
  -8   4   4   21.30    1.21
  -7  -4   4    2.92    0.54
  -7   4   4    2.53    0.52
  -6  -4   4   80.99    2.13
  -6   4   4   79.68    2.12
   5  -4  -4    5.22    0.53
  -5  -4   4    5.85    0.59
   4  -4  -4   54.41    1.47
  -4  -4   4   55.33    1.52
   3  -4  -4   46.19    1.24
  -3  -4   4   45.17    1.29
   3  -4  -4   46.68    1.38
   2  -4  -4  119.08    2.51
  -2  -4   4  118.80    2.58
   2  -4  -4  121.73    2.65
   1  -4  -4   29.05    0.83
  -1  -4   4   29.06    0.90
   1  -4  -4   30.73    0.98
   1   4  -4   28.81    1.30
   0  -4   4  243.29    4.62
   0  -4  -4  239.03    4.51
   0  -4  -4  245.98    4.75
   0   4  -4  234.86    5.10
   1  -4   4   14.92    0.56
  -1  -4  -4   14.19    0.73
  -1  -4  -4   14.42    0.47
  -1   4  -4   13.87    0.96
  -2  -4  -4  200.18    4.10
   2  -4   4  196.80    3.77
  -2   4  -4  189.95    4.37
  -3  -4  -4    1.87    0.49
   3  -4   4    2.45    0.48
  -3   4  -4    2.13    0.65
  -4  -4  -4   21.35    1.12
  -4   4  -4   20.04    1.50
  -5  -4  -4   24.24    1.30
  -5   4  -4   24.23    1.81
  -6  -4  -4   14.73    1.24
  -6   4  -4   13.44    1.50
  -7  -5   4   -0.53    0.35
  -7  -5   4    0.31    0.45
  -7   5   4    0.79    0.43
  -6  -5   4    3.98    0.56
   5  -5  -4    0.08    0.22
  -5  -5   4   -0.20    0.25
   4  -5  -4    1.41    0.31
  -4  -5   4    0.95    0.32
   3  -5  -4    2.79    0.40
  -3  -5   4    2.54    0.39
   3  -5  -4    2.69    0.35
   2  -5  -4    7.07    0.43
  -2  -5   4    6.67    0.46
   2  -5  -4    7.32    0.52
   1  -5  -4    1.65    0.33
  -1  -5   4    0.78    0.22
   1  -5  -4    1.08    0.22
   1   5  -4    0.86    0.47
   0  -5  -4    0.91    0.30
   0  -5  -4    0.67    0.19
   0  -5   4    1.08    0.27
   0   5  -4    0.69    0.52
  -1  -5  -4    3.43    0.48
   1  -5   4    3.45    0.40
  -1  -5  -4    3.58    0.29
  -1   5  -4    4.09    0.70
   2  -5   4    1.47    0.30
  -2  -5  -4    2.41    0.49
  -2   5  -4    3.51    0.68
  -3  -5  -4   10.82    0.85
   3  -5   4    6.55    0.58
  -4  -5  -4    0.14    0.51
  -4   5  -4    0.93    0.77
  -5  -5  -4    0.27    0.55
  -5   5  -4    0.00    0.88
  -6  -5  -4    0.40    0.76
  -6   5  -4    0.67    1.08
  -7  -6   4    4.24    0.63
  -7  -6   4    3.95    0.81
  -6  -6   4   21.66    1.12
   6  -6  -4   20.12    0.96
  -6  -6   4   20.43    1.05
   5  -6  -4   16.39    0.81
  -5  -6   4   17.66    0.88
  -5  -6   4   17.21    0.92
   4  -6  -4   38.65    1.26
  -4  -6   4   40.49    1.31
   3  -6  -4    2.88    0.37
   3  -6  -4    2.46    0.39
  -3  -6   4    2.70    0.38
   2  -6  -4  218.23    4.28
   2  -6  -4  208.14    4.37
  -2  -6   4  215.92    4.36
  -1  -6   4   47.79    1.34
   1  -6  -4   47.81    1.26
   1  -6  -4   47.79    1.38
   0  -6  -4   26.51    0.82
   0  -6   4   26.66    0.90
   0  -6  -4   26.35    0.98
   0   6  -4   24.89    1.51
   1  -6   4    7.59    0.53
  -1  -6  -4    6.49    0.63
  -1   6  -4    5.35    0.83
   2  -6   4  136.06    2.86
  -2  -6  -4  135.68    3.13
  -2   6  -4  132.39    3.57
   3  -6   4   25.84    0.92
  -3  -6  -4   23.43    1.17
  -3   6  -4   24.12    1.69
  -4  -6  -4   47.23    1.73
  -4   6  -4   49.46    2.23
  -5  -6  -4    3.52    0.77
  -5   6  -4    2.60    0.94
  -6  -6  -4   45.98    3.13
  -6   6  -4   47.33    2.69
  -7  -7   4    0.18    0.46
  -7  -7   4   -0.76    0.62
   6  -7  -4    0.43    0.33
  -6  -7   4    0.38    0.38
  -6  -7   4    0.16    0.38
   5  -7  -4    0.27    0.28
  -5  -7   4    0.36    0.33
  -5  -7   4    0.45    0.29
  -4  -7   4    4.64    0.59
   4  -7  -4    5.15    0.55
   3  -7  -4    0.50    0.25
  -3  -7   4   -0.15    0.21
   3  -7  -4    0.17    0.22
  -2  -7   4    0.62    0.26
   2  -7  -4    0.89    0.28
   2  -7  -4    0.79    0.25
   1  -7  -4    0.91    0.26
  -1  -7   4    0.69    0.26
   1  -7  -4    1.11    0.31
   0  -7  -4    0.00    0.25
   0  -7   4    0.52    0.28
   0  -7  -4    0.30    0.22
   0   7  -4   -0.19    0.61
   1  -7   4    2.54    0.45
  -1  -7  -4    2.46    0.32
  -1  -7  -4    2.97    0.48
  -1   7  -4    3.44    0.86
  -2  -7  -4    0.41    0.43
   2  -7   4    0.17    0.36
  -2   7  -4    1.19    0.81
  -3  -7  -4   -0.29    0.45
   3  -7   4    0.01    0.35
  -3   7  -4    0.52    0.81
  -4  -7  -4    1.42    0.57
  -4   7  -4    2.51    0.95
  -5  -7  -4    1.89    0.78
  -5   7  -4    2.39    1.04
  -6  -8   4   10.41    0.94
   6  -8  -4   10.08    0.95
  -5  -8   4   28.44    1.23
   5  -8  -4   29.44    1.19
   4  -8  -4   50.55    1.56
  -4  -8   4   49.65    1.60
  -3  -8   4    2.58    0.44
   3  -8  -4    2.50    0.40
   2  -8  -4   37.35    1.20
  -2  -8   4   36.14    1.26
   2  -8  -4   36.14    1.22
   1  -8  -4   12.36    0.65
  -1  -8   4   13.66    0.73
   1  -8  -4   12.85    0.71
   0  -8  -4   65.11    1.68
   0  -8  -4   64.53    1.83
   0  -8   4   67.52    1.81
   0   8  -4   65.10    2.64
  -1  -8  -4    2.71    0.39
  -1  -8  -4    2.60    0.46
   1  -8   4    3.18    0.49
  -1   8  -4    3.71    1.05
   2  -8   4   70.83    1.87
  -2  -8  -4   68.74    2.04
  -2   8  -4   68.36    2.76
  -3  -8  -4    2.26    0.57
   3  -8   4    3.14    0.49
  -3   8  -4    3.04    0.98
  -4  -8  -4   47.75    1.86
  -4   8  -4   47.06    2.51
  -5  -8  -4    2.23    0.90
  -5   8  -4    1.19    1.14
   5  -9  -4    1.18    0.46
  -5  -9   4    0.61    0.42
   4  -9  -4    0.66    0.32
  -4  -9   4   -0.20    0.34
   3  -9  -4    0.09    0.28
  -3  -9   4    0.10    0.30
   2  -9  -4    0.28    0.28
  -2  -9   4    0.13    0.28
  -1  -9   4    0.19    0.28
   1  -9  -4    0.23    0.28
   0  -9  -4    5.28    0.58
   0  -9  -4    5.20    0.53
   0  -9   4    5.27    0.64
   1  -9   4    1.72    0.43
  -1  -9  -4    1.22    0.44
  -1  -9  -4    1.34    0.43
  -1   9  -4    1.93    0.98
  -2  -9  -4    5.88    0.76
   2  -9   4    6.51    0.69
  -2   9  -4    7.93    1.30
   3  -9   4    0.97    0.42
  -3  -9  -4    0.20    0.57
  -3   9  -4    0.18    1.07
  -4  -9  -4    0.45    0.72
  -4   9  -4   -0.67    1.06
  -4 -10   4   11.76    0.89
   4 -10  -4   12.64    0.84
   3 -10  -4   31.32    1.22
  -3 -10   4   28.81    1.23
   2 -10  -4    8.12    0.67
  -2 -10   4    9.17    0.87
  -1 -10   4    2.09    0.43
   1 -10  -4    1.26    0.38
   0 -10  -4   66.55    1.85
   0 -10   4   67.36    1.97
   1 -10   4    0.53    0.37
  -1  10  -4    0.87    1.04
   2 -10   4   47.43    1.61
  -2 -10  -4   50.51    1.74
  -2  10  -4   48.90    2.68
  -3 -10  -4    1.09    0.58
   3 -10   4    1.22    0.46
  -3  10  -4    1.55    1.18
  -4 -10  -4   45.63    3.13
  -4  10  -4   50.95    3.92
  -3 -11   4   -0.04    0.53
   3 -11  -4    0.09    0.45
  -2 -11   4   -0.09    0.38
   2 -11  -4    0.71    0.41
  -1 -11   4    0.77    0.45
   1 -11  -4    0.83    0.35
   0 -11  -4    0.21    0.33
   0 -11   4    0.24    0.41
   1 -11   4   -0.35    0.50
   2 -11   4    1.19    0.64
  -2  11  -4    1.11    1.18
   1 -12  -4    0.74    0.52
   0 -12  -4   22.14    1.14
  -8   0   5   -0.85    0.45
  -7   0   5    0.00    0.36
  -6   0   5    0.12    0.28
  -5   0   5    0.54    0.26
  -4   0   5    0.41    0.20
  -3   0   5   -0.06    0.13
   2   0  -5   -0.15    0.20
  -2   0   5   -0.18    0.13
   1   0  -5    2.00    0.32
  -1   0   5    1.06    0.21
   0   0  -5    0.12    0.27
   0   0  -5    0.27    0.29
   0   0   5    0.12    0.13
  -1   0  -5    0.26    0.28
  -1   0  -5    0.17    0.36
  -2   0  -5    0.89    0.37
  -2   0  -5    0.81    0.48
  -3   0  -5    2.00    0.50
  -4   0  -5   -0.20    0.47
  -5   0  -5    0.10    0.58
  -6   0  -5    0.20    0.69
  -7   0  -5   -0.19    1.21
  -8  -1   5   14.62    1.01
  -8   1   5   14.72    0.98
  -7  -1   5    9.29    0.84
  -7   1   5    9.26    0.83
  -6  -1   5    1.75    0.42
  -6   1   5    1.64    0.42
  -5  -1   5  126.90    2.87
  -5   1   5  124.99    2.85
  -4  -1   5   14.49    0.68
  -4   1   5   14.03    0.64
  -3  -1   5  106.88    2.37
   3  -1  -5  105.86    2.52
  -3   1   5  105.70    2.33
   2  -1  -5    1.72    0.35
  -2  -1   5    1.03    0.23
   2   1  -5    1.80    0.34
  -2   1   5    1.33    0.25
  -1  -1   5  445.14    8.20
   1  -1  -5  457.54    8.35
   1   1  -5  435.81    8.47
  -1   1   5  440.10    8.17
   1   1  -5  458.52    8.31
   0  -1   5    0.40    0.16
   0  -1  -5    0.76    0.32
   0   1   5    0.22    0.12
   0   1  -5    0.19    0.28
   0   1  -5    0.67    0.32
   1  -1   5   58.20    1.25
  -1  -1  -5   58.32    1.62
  -1  -1  -5   60.04    1.54
  -1   1  -5   62.31    1.50
  -1   1  -5   57.08    1.71
  -2  -1  -5  108.82    2.48
  -2   1  -5  108.19    2.39
  -2   1  -5  107.32    2.77
  -3  -1  -5  230.91    4.75
  -3   1  -5  231.98    4.64
  -3   1  -5  229.10    5.08
  -4  -1  -5    1.36    0.52
  -4   1  -5    0.32    0.68
  -4   1  -5    0.10    0.46
  -5  -1  -5   23.74    1.30
  -5   1  -5   22.87    1.22
  -6  -1  -5   13.83    1.19
  -7  -1  -5   11.34    1.61
  -8  -2   5    0.58    0.48
  -8   2   5    0.82    0.50
  -7  -2   5    0.25    0.39
  -7   2   5    0.73    0.37
  -6  -2   5   -0.18    0.26
  -6   2   5    0.43    0.31
  -5  -2   5    5.64    0.58
  -5   2   5    4.80    0.50
  -4  -2   5   22.13    0.87
  -4   2   5   21.11    0.81
  -3  -2   5    3.40    0.40
   3  -2  -5    3.84    0.49
  -3   2   5    3.87    0.39
   2  -2  -5   32.25    1.09
  -2  -2   5   33.58    1.01
  -2   2   5   34.16    0.96
   1  -2  -5    7.99    0.57
  -1  -2   5    8.39    0.45
  -1   2   5    8.06    0.44
   1   2  -5    9.53    0.56
   1   2  -5    9.22    0.82
   0  -2   5    4.06    0.31
   0  -2  -5    3.14    0.44
   0   2   5    4.12    0.28
   0   2  -5    3.87    0.41
   0   2  -5    3.58    0.53
  -1  -2  -5    0.96    0.37
   1  -2   5    0.67    0.17
  -1   2  -5    0.71    0.42
  -1   2  -5    0.89    0.34
  -2  -2  -5    0.43    0.39
  -2   2  -5    0.55    0.54
  -2   2  -5    0.85    0.34
  -3  -2  -5    1.74    0.55
  -3   2  -5    1.86    0.40
  -3   2  -5    1.63    0.67
  -4  -2  -5   -0.39    0.52
  -4   2  -5    0.89    0.66
  -4   2  -5    0.29    0.47
  -5  -2  -5    1.61    0.69
  -5   2  -5    2.12    0.86
  -6  -2  -5    2.05    0.80
  -6   2  -5    3.01    1.08
  -8  -3   5    0.37    0.45
  -8   3   5    0.46    0.91
  -7  -3   5   42.39    1.51
  -7   3   5   43.23    1.50
  -6  -3   5    2.08    0.44
  -6   3   5    2.00    0.43
  -5  -3   5   40.56    1.33
  -5   3   5   40.39    1.29
  -4  -3   5    3.93    0.47
  -4   3   5    3.51    0.43
   3  -3  -5   55.85    1.62
  -3  -3   5   56.60    1.49
   2  -3  -5    1.64    0.26
   2  -3  -5    1.62    0.36
  -2  -3   5    1.13    0.26
   1  -3  -5  168.03    3.34
   1  -3  -5  170.85    3.54
  -1  -3   5  169.24    3.42
   1   3  -5  169.69    3.87
   1   3  -5  171.18    3.43
   0  -3  -5   10.60    0.66
   0  -3   5   10.75    0.51
   0  -3  -5   10.10    0.43
   0   3  -5    9.51    0.53
   0   3  -5   10.25    0.90
  -1  -3  -5  435.15    8.06
   1  -3   5  435.85    7.76
  -1   3  -5  403.84    8.29
  -1   3  -5  421.79    7.77
  -2  -3  -5   -0.21    0.42
   2  -3   5    0.29    0.24
  -2   3  -5   -0.27    0.33
  -2   3  -5    0.37    0.54
  -3  -3  -5   26.23    1.20
  -3   3  -5   25.43    1.52
  -4  -3  -5   41.65    1.59
  -4   3  -5   40.89    1.95
  -5  -3  -5   40.69    1.68
  -5   3  -5   42.20    2.18
  -6  -3  -5    5.17    1.00
  -6   3  -5    3.86    1.30
  -8  -4   5    0.29    0.62
  -7  -4   5    0.25    0.36
  -7   4   5    0.04    0.40
  -6  -4   5    0.34    0.34
  -6   4   5    0.07    0.31
  -5  -4   5    0.79    0.35
  -5   4   5    0.35    0.28
   4  -4  -5    0.69    0.25
  -4  -4   5    1.02    0.30
  -3  -4   5    1.07    0.27
   3  -4  -5    0.90    0.25
   3  -4  -5    0.94    0.31
   2  -4  -5    0.87    0.23
  -2  -4   5    0.81    0.25
   2  -4  -5    1.38    0.34
  -1  -4   5    8.63    0.51
   1  -4  -5    8.28    0.62
   1  -4  -5    9.30    0.45
   1   4  -5    9.49    1.03
   0  -4  -5    1.63    0.38
   0  -4   5    1.44    0.28
   0  -4  -5    1.32    0.22
   0   4  -5    1.67    0.28
   0   4  -5    1.82    0.61
  -1  -4  -5    2.31    0.45
   1  -4   5    1.38    0.28
  -1   4  -5    1.39    0.55
   2  -4   5    8.71    0.53
  -2  -4  -5    9.55    0.83
  -2   4  -5   13.84    1.22
  -3  -4  -5    5.29    0.79
  -3   4  -5    8.33    0.98
  -4  -4  -5    0.82    0.58
  -4   4  -5    0.83    0.78
  -5  -4  -5    0.55    0.66
  -5   4  -5   -0.10    0.88
  -6  -4  -5    0.83    0.91
  -6   4  -5    0.05    1.21
  -7  -5   5   49.87    1.73
  -7   5   5   53.48    1.81
  -6  -5   5    2.70    0.51
  -6   5   5    2.95    0.54
  -5  -5   5    8.21    0.67
   5  -5  -5    6.72    0.55
   4  -5  -5    4.75    0.53
  -4  -5   5    5.02    0.58
   3  -5  -5  151.46    3.24
  -3  -5   5  153.91    3.35
   3  -5  -5  155.96    3.48
  -2  -5   5   10.81    0.61
   2  -5  -5   11.37    0.56
   2  -5  -5   10.28    0.66
  -1  -5   5   24.34    0.86
   1  -5  -5   22.57    0.77
   1  -5  -5   22.91    0.95
   1   5  -5   23.82    1.47
   0  -5   5    6.80    0.48
   0  -5  -5    6.35    0.61
   0  -5  -5    6.38    0.39
   0   5  -5    6.65    0.89
   1  -5   5  170.75    3.40
  -1  -5  -5  170.02    3.65
  -1   5  -5  160.98    4.07
   2  -5   5    2.36    0.36
  -2  -5  -5    0.81    0.55
  -2   5  -5    2.97    0.72
  -3  -5  -5   49.67    1.71
  -3   5  -5   50.86    2.13
  -4  -5  -5   21.90    1.26
  -4   5  -5   23.70    1.71
  -5  -5  -5   35.94    1.65
  -5   5  -5   36.03    2.12
  -7  -6   5    0.51    0.53
  -7  -6   5    2.26    0.69
  -6  -6   5   -0.12    0.35
  -5  -6   5    0.47    0.35
   5  -6  -5    0.56    0.28
  -4  -6   5    0.30    0.26
   4  -6  -5    0.06    0.20
   3  -6  -5    0.45    0.25
   3  -6  -5    0.13    0.27
  -3  -6   5    0.16    0.26
   2  -6  -5    8.89    0.63
   2  -6  -5    8.67    0.53
  -2  -6   5    7.50    0.55
   1  -6  -5    0.29    0.21
   1  -6  -5    0.11    0.30
  -1  -6   5    0.13    0.22
   1   6  -5   -0.22    0.57
   0  -6  -5    0.75    0.24
   0  -6   5    0.63    0.29
   0  -6  -5    1.17    0.40
   0   6  -5    0.64    0.72
  -1  -6  -5    8.83    0.79
   1  -6   5    7.70    0.64
  -1   6  -5    9.93    1.14
  -2  -6  -5   -0.23    0.45
   2  -6   5    0.43    0.32
  -2   6  -5   -0.01    0.74
  -3  -6  -5    1.13    0.58
  -3   6  -5    2.28    0.87
  -4  -6  -5    5.56    0.91
  -4   6  -5    6.56    1.15
  -5  -6  -5    1.65    0.82
  -5   6  -5    0.82    1.08
   6  -7  -5    5.40    0.73
  -6  -7   5    5.46    0.71
  -6  -7   5    5.96    0.81
  -5  -7   5   32.99    1.29
   5  -7  -5   30.67    1.20
   4  -7  -5    1.93    0.40
  -4  -7   5    2.21    0.45
  -3  -7   5   73.98    2.01
   3  -7  -5   74.72    1.94
   3  -7  -5   73.14    2.07
  -2  -7   5   10.07    0.67
   2  -7  -5   11.46    0.63
   2  -7  -5   11.11    0.70
  -1  -7   5   22.67    0.92
   1  -7  -5   22.41    0.98
   1  -7  -5   21.91    0.84
   0  -7   5   30.19    1.05
   0  -7  -5   28.35    0.95
   0  -7  -5   29.66    1.18
   0   7  -5   29.04    1.87
   1  -7   5   18.59    0.86
  -1  -7  -5   18.27    0.98
  -1   7  -5   19.56    1.75
   2  -7   5    9.22    0.65
  -2  -7  -5    7.39    0.78
  -2   7  -5    7.65    1.12
  -3  -7  -5   60.10    1.99
  -3   7  -5   59.61    2.58
  -4  -7  -5    0.47    0.65
  -4   7  -5    0.60    0.88
  -5  -7  -5   39.15    2.58
  -5   7  -5   47.98    2.73
  -6  -8   5    0.45    0.53
   5  -8  -5    0.34    0.29
  -5  -8   5    0.41    0.40
   4  -8  -5    0.08    0.31
  -4  -8   5   -0.21    0.31
   3  -8  -5    1.33    0.35
  -3  -8   5    0.99    0.38
   3  -8  -5    0.98    0.34
  -2  -8   5    0.31    0.26
   2  -8  -5    0.29    0.28
   2  -8  -5    0.58    0.27
   1  -8  -5    0.43    0.29
  -1  -8   5    0.37    0.29
   1  -8  -5    0.82    0.32
   0  -8  -5   -0.03    0.33
   0  -8  -5    0.62    0.27
   0  -8   5    0.92    0.38
   0   8  -5    0.09    0.84
  -1  -8  -5    1.51    0.51
   1  -8   5    2.42    0.51
  -1   8  -5    2.20    0.99
  -2  -8  -5    1.35    0.58
   2  -8   5    1.52    0.45
  -2   8  -5    1.78    1.05
  -3  -8  -5    0.95    0.62
  -3   8  -5    1.02    1.02
  -4  -8  -5   -0.26    0.78
  -4   8  -5    0.72    1.17
  -5  -9   5   37.87    1.58
   4  -9  -5   19.34    0.99
  -4  -9   5   16.97    0.99
  -3  -9   5    7.72    0.79
   3  -9  -5    8.59    0.79
   2  -9  -5    7.32    0.70
  -2  -9   5    6.30    0.66
   1  -9  -5   38.95    1.30
  -1  -9   5   39.69    1.38
   1  -9  -5   39.32    1.38
   0  -9  -5   11.88    0.73
   0  -9   5   13.04    0.80
   0  -9  -5   11.78    0.83
   0   9  -5   14.01    1.59
   1  -9   5   24.74    1.07
  -1  -9  -5   23.58    1.16
  -1   9  -5   25.28    2.13
  -2  -9  -5    1.41    0.51
   2  -9   5    1.01    0.44
  -2   9  -5    0.77    1.08
  -3  -9  -5   24.56    1.41
  -3   9  -5   26.17    2.51
  -3 -10   5    0.37    0.39
   3 -10  -5    0.11    0.38
   2 -10  -5   -0.27    0.30
  -2 -10   5    0.67    0.33
  -1 -10   5    0.79    0.42
   1 -10  -5    0.96    0.37
   0 -10   5    0.82    0.40
  -1 -10  -5   -0.48    0.44
   1 -10   5   -0.02    0.38
  -1  10  -5    0.22    1.10
  -2 -10  -5   -0.61    0.45
   2 -10   5    0.64    0.45
  -2  10  -5    0.78    1.29
  -3 -10  -5   -0.74    0.77
   2 -11  -5   15.57    0.99
  -1 -11   5   17.04    1.22
   1 -11  -5   21.87    1.04
   0 -11   5    1.21    0.58
   1 -11   5   19.59    1.32
  -7   0   6   27.83    1.22
  -6   0   6   35.02    1.26
  -5   0   6    0.60    0.29
  -4   0   6  112.94    2.60
  -3   0   6    3.73    0.43
   3   0  -6    3.54    0.53
   2   0  -6  105.42    2.49
  -2   0   6  106.07    2.32
  -1   0   6   11.46    0.51
   1   0  -6   10.31    0.66
   0   0   6   22.17    0.69
   0   0  -6   21.94    0.93
   0   0  -6   22.17    0.99
  -1   0  -6    4.55    0.58
  -1   0  -6    4.85    0.55
  -2   0  -6  225.24    4.68
  -2   0  -6  233.64    5.02
  -3   0  -6    0.73    0.62
  -3   0  -6    0.63    0.49
  -4   0  -6  105.55    2.72
  -4   0  -6  110.16    3.24
  -5   0  -6    0.45    0.69
  -6   0  -6   28.40    1.61
  -7  -1   6   -0.38    0.36
  -7   1   6   -0.04    0.35
  -6  -1   6    1.81    0.44
  -6   1   6    2.34    0.43
  -5  -1   6    1.41    0.38
  -5   1   6    1.25    0.33
  -4  -1   6    0.11    0.21
  -4   1   6    0.33    0.21
   3  -1  -6    0.54    0.30
  -3  -1   6    0.63    0.23
  -3   1   6    0.72    0.22
  -2  -1   6    0.32    0.20
   2  -1  -6    0.49    0.33
  -2   1   6    0.43    0.22
   2   1  -6    1.06    0.37
   1  -1  -6    2.19    0.45
  -1  -1   6    1.88    0.29
  -1   1   6    2.23    0.29
   1   1  -6    2.29    0.49
   1   1  -6    2.07    0.40
   0  -1   6    0.02    0.16
   0  -1  -6    0.51    0.41
   0   1  -6    0.35    0.33
   0   1  -6    0.68    0.36
   0   1   6   -0.29    0.16
  -1  -1  -6    6.44    0.70
  -1  -1  -6    8.84    0.79
  -1   1  -6    7.84    0.66
  -1   1  -6    8.80    0.97
  -2  -1  -6    0.91    0.59
  -2  -1  -6    1.01    0.52
  -2   1  -6    1.71    0.49
  -2   1  -6    0.86    0.67
  -3  -1  -6    0.09    0.49
  -3   1  -6    0.39    0.64
  -3   1  -6    0.15    0.44
  -4  -1  -6    0.42    0.62
  -4   1  -6   -1.24    0.71
  -4   1  -6    1.04    0.56
  -5  -1  -6    0.45    0.75
  -5   1  -6    1.15    0.77
  -6  -1  -6    2.08    0.87
  -6   1  -6    0.57    1.23
  -7  -2   6   18.36    1.02
  -7   2   6   18.48    1.01
  -6  -2   6   49.81    1.60
  -6   2   6   47.52    1.56
  -5  -2   6    7.44    0.59
  -5   2   6    6.81    0.54
  -4  -2   6   36.31    1.20
  -4   2   6   36.45    1.16
  -3  -2   6    2.39    0.38
   3  -2  -6    2.24    0.45
  -3   2   6    2.20    0.34
  -2  -2   6   77.67    1.87
   2  -2  -6   75.64    2.00
  -2   2   6   76.95    1.81
   2   2  -6   77.54    1.97
   1  -2  -6    8.73    0.68
  -1  -2   6    8.78    0.48
  -1   2   6    9.53    0.47
   1   2  -6    9.99    0.63
   1   2  -6    9.53    0.91
   0  -2  -6  186.79    3.87
   0  -2   6  185.62    3.61
   0   2   6  183.64    3.56
   0   2  -6  183.59    3.71
   0   2  -6  180.28    4.11
  -1  -2  -6    0.49    0.45
  -1  -2  -6   -0.95    0.37
   1  -2   6   -0.65    0.19
  -1   2  -6    0.48    0.53
  -1   2  -6    0.02    0.37
  -2  -2  -6   73.86    2.04
  -2   2  -6   73.33    1.84
  -2   2  -6   73.34    2.33
  -3  -2  -6    0.61    0.54
  -3   2  -6    0.22    0.68
  -3   2  -6    0.87    0.51
  -4  -2  -6   83.25    2.44
  -4   2  -6   89.68    2.90
  -5  -2  -6   12.64    1.19
  -5   2  -6   14.73    1.60
  -6  -2  -6   22.92    1.58
  -7  -3   6   -0.31    0.31
  -7   3   6   -0.19    0.39
  -6  -3   6    1.06    0.37
  -6   3   6    1.01    0.38
  -5  -3   6    0.32    0.29
  -5   3   6    0.52    0.24
  -4  -3   6    5.11    0.54
  -4   3   6    6.06    0.49
  -3  -3   6    0.27    0.20
   3  -3  -6    0.07    0.29
  -3   3   6   -0.05    0.19
   2  -3  -6    0.31    0.30
  -2  -3   6    0.15    0.20
  -2   3   6    0.39    0.22
  -1  -3   6    0.53    0.24
   1  -3  -6    0.95    0.38
   1   3  -6    0.40    0.31
   1   3  -6    0.23    0.55
  -1   3   6    0.47    0.19
   0  -3  -6    3.40    0.52
   0  -3   6    4.57    0.39
   0   3   6    2.32    0.28
   0   3  -6    3.00    0.42
   0   3  -6    3.18    0.67
  -1  -3  -6    2.97    0.58
   1  -3   6    1.64    0.29
  -1   3  -6    2.99    0.46
  -1   3  -6    3.57    0.71
  -2  -3  -6    0.63    0.54
  -2   3  -6    0.45    0.65
  -3  -3  -6    0.26    0.56
  -3   3  -6    0.55    0.68
  -4  -3  -6    2.16    0.74
  -4   3  -6    1.40    0.88
  -5  -3  -6    0.53    0.74
  -5   3  -6   -1.03    0.87
  -6  -3  -6    1.72    1.48
  -7  -4   6    3.57    0.63
  -7   4   6    3.10    0.62
  -6  -4   6   34.03    1.33
  -6   4   6   34.29    1.32
  -5  -4   6   16.68    0.88
  -5   4   6   16.68    0.83
  -4  -4   6   30.16    1.13
   4  -4  -6   30.26    1.26
  -4   4   6   32.11    1.10
   3  -4  -6    4.17    0.58
  -3  -4   6    4.13    0.49
   2  -4  -6   58.25    1.49
  -2  -4   6   60.93    1.60
   2  -4  -6   56.17    1.68
   1  -4  -6    1.26    0.42
  -1  -4   6    0.86    0.27
   1  -4  -6    1.48    0.27
   1   4  -6    0.47    0.64
   0  -4   6  165.50    3.40
   0  -4  -6  166.62    3.65
   0   4  -6  166.24    4.11
   1  -4   6    0.45    0.27
  -1  -4  -6    0.98    0.48
  -1   4  -6    0.42    0.66
  -2  -4  -6   43.54    1.60
  -2   4  -6   44.41    1.93
  -3  -4  -6   11.30    0.96
  -3   4  -6   11.26    1.38
  -4  -4  -6   33.03    1.52
  -4   4  -6   36.56    1.95
  -5  -4  -6    8.83    1.13
  -5   4  -6    8.19    1.28
  -7  -5   6    0.59    0.48
  -6  -5   6    0.45    0.38
  -6   5   6    0.04    0.35
  -5  -5   6    0.31    0.33
  -5   5   6    0.27    0.24
   4  -5  -6   13.06    0.87
  -4  -5   6   12.88    0.77
   4  -5  -6   12.68    0.71
   3  -5  -6    2.65    0.41
   3  -5  -6    4.20    0.62
  -3  -5   6    3.39    0.49
   2  -5  -6    0.87    0.35
   2  -5  -6    0.85    0.28
  -2  -5   6    0.85    0.28
  -1  -5   6    3.83    0.45
   1  -5  -6    3.32    0.52
   1  -5  -6    3.36    0.38
   1   5  -6    4.05    0.89
   0  -5   6    1.63    0.37
   0  -5  -6    1.52    0.47
   0  -5  -6    1.35    0.25
   0   5  -6    2.64    0.82
   1  -5   6    1.08    0.29
  -1  -5  -6   -0.03    0.42
  -1   5  -6    0.78    0.72
  -2  -5  -6    6.64    0.89
  -2   5  -6    9.72    1.08
  -3  -5  -6    1.58    0.65
  -3   5  -6    0.94    0.81
  -4  -5  -6    1.27    0.71
  -4   5  -6    1.39    0.94
  -5  -5  -6    0.96    0.89
  -5   5  -6    0.88    1.13
  -6  -6   6   24.73    1.21
  -6   6   6   25.04    1.21
   5  -6  -6    2.27    0.42
  -5  -6   6    2.64    0.53
  -4  -6   6   78.85    2.18
   4  -6  -6   77.85    2.28
   4  -6  -6   79.48    2.08
  -3  -6   6    0.50    0.29
   3  -6  -6    0.28    0.34
   3  -6  -6    0.74    0.30
   2  -6  -6   59.23    1.59
   2  -6  -6   58.50    1.76
  -2  -6   6   59.68    1.69
  -1  -6   6   27.50    1.02
   1  -6  -6   26.50    1.12
   1  -6  -6   26.87    0.94
   1   6  -6   28.77    1.87
   0  -6   6    4.12    0.48
   0  -6  -6    4.52    0.59
   0   6  -6    4.57    0.93
   1  -6   6    3.49    0.47
  -1  -6  -6    2.20    0.55
  -1   6  -6    1.75    0.89
  -2  -6  -6   81.06    2.35
  -2   6  -6   78.08    2.88
  -3  -6  -6   11.99    1.07
  -3   6  -6    9.73    1.19
  -4  -6  -6   12.72    1.15
  -4   6  -6   15.21    1.79
  -6  -7   6    1.34    0.61
  -5  -7   6   -0.09    0.34
   5  -7  -6    0.11    0.29
  -4  -7   6    0.45    0.34
   4  -7  -6    0.44    0.30
   4  -7  -6    0.35    0.32
  -3  -7   6    0.01    0.22
   3  -7  -6   -0.18    0.29
   3  -7  -6    0.25    0.27
  -2  -7   6    4.04    0.54
   2  -7  -6    3.31    0.47
   2  -7  -6    4.88    0.59
   1  -7  -6    0.60    0.26
   1  -7  -6    0.70    0.39
  -1  -7   6    0.23    0.28
   0  -7   6    0.74    0.33
   0  -7  -6    0.72    0.41
   0   7  -6    0.24    0.82
  -1  -7  -6    0.86    0.53
   1  -7   6    1.36    0.44
  -1   7  -6    1.03    0.99
  -2  -7  -6    1.23    0.54
  -2   7  -6    1.30    0.92
  -3  -7  -6   -0.01    0.55
  -3   7  -6   -0.55    0.97
  -4  -7  -6   -0.79    0.86
  -4   7  -6    0.26    1.11
   5  -8  -6    3.17    0.59
  -5  -8   6    3.28    0.64
   4  -8  -6   44.75    1.64
  -4  -8   6   44.46    1.59
   4  -8  -6   43.37    1.48
  -3  -8   6    0.50    0.29
   3  -8  -6    0.59    0.37
   3  -8  -6    1.19    0.37
   2  -8  -6   36.92    1.38
  -2  -8   6   35.38    1.32
   2  -8  -6   38.35    1.29
   1  -8  -6   49.39    1.47
   1  -8  -6   49.28    1.62
  -1  -8   6   50.65    1.56
   0  -8   6   17.95    0.91
   0  -8  -6   17.39    1.00
   0   8  -6   15.13    1.91
   1  -8   6    6.51    0.65
  -1  -8  -6    5.91    0.72
  -1   8  -6    6.33    1.25
  -2  -8  -6   18.59    1.13
  -2   8  -6   19.46    2.13
  -3  -8  -6    0.77    0.77
  -3   8  -6    2.18    1.27
  -4  -9   6    0.38    0.41
   4  -9  -6    0.50    0.40
   3  -9  -6    0.86    0.40
  -3  -9   6    0.69    0.36
   2  -9  -6    1.24    0.36
  -2  -9   6    0.04    0.27
   2  -9  -6    0.36    0.35
   1  -9  -6   -0.06    0.32
   1  -9  -6   -0.17    0.33
  -1  -9   6    0.80    0.33
   0  -9   6    1.03    0.46
   0  -9  -6    1.30    0.50
   0   9  -6    2.30    1.19
   1  -9   6    0.39    0.41
  -1  -9  -6   -0.07    0.46
  -1   9  -6   -0.11    1.08
   2  -9   6    1.33    0.87
  -2  -9  -6    2.00    0.69
  -2   9  -6    1.66    1.39
  -3  -9  -6    3.09    1.25
   3 -10  -6   16.72    1.01
   2 -10  -6   26.04    1.14
  -2 -10   6   24.84    1.23
   1 -10  -6    0.67    0.40
  -1 -10   6    0.83    0.55
   0 -10  -6   43.87    1.73
   0 -10   6   45.89    1.69
  -1 -10  -6    9.48    1.01
   1 -10   6   10.26    0.94
  -1  10  -6    9.06    1.87
   2 -10   6    6.03    1.35
  -2 -10  -6    5.43    1.00
  -7   0   7   -0.32    0.41
  -6   0   7    0.05    0.28
  -5   0   7    0.53    0.27
  -4   0   7   -0.01    0.21
  -3   0   7   -0.02    0.20
   3   0  -7    0.28    0.41
   2   0  -7    0.39    0.41
  -2   0   7   -0.06    0.22
  -1   0   7    0.09    0.21
   1   0  -7    1.04    0.43
   0   0  -7    0.29    0.38
   0   0  -7   -0.18    0.45
   0   0   7   -0.19    0.19
  -1   0  -7    0.13    0.51
  -1   0  -7    0.08    0.55
  -2   0  -7    0.65    0.51
  -2   0  -7   -0.48    0.61
  -3   0  -7   -0.13    0.78
  -3   0  -7    1.11    0.64
  -4   0  -7    0.40    0.64
  -4   0  -7    0.31    0.73
  -5   0  -7   -0.20    0.96
  -5   0  -7    0.48    0.62
  -7  -1   7   11.68    0.93
  -7   1   7   12.37    0.91
  -6  -1   7    8.80    0.84
  -6   1   7    7.90    0.68
  -5  -1   7  107.38    2.66
  -5   1   7  108.08    2.64
  -4  -1   7   39.01    1.28
  -4   1   7   37.99    1.25
   3  -1  -7   25.90    1.18
  -3  -1   7   27.17    0.99
  -3   1   7   26.95    0.97
  -2  -1   7   35.22    1.12
   2  -1  -7   34.47    1.31
   2   1  -7   35.08    1.32
  -2   1   7   36.19    1.10
  -1  -1   7   68.13    1.65
   1  -1  -7   65.43    1.84
   1   1  -7   66.97    2.01
  -1   1   7   67.30    1.60
   1   1  -7   66.59    1.85
   0  -1   7    0.02    0.18
   0  -1  -7   -0.36    0.48
   0   1  -7    0.54    0.57
   0   1  -7    0.31    0.48
  -1  -1  -7   26.96    1.32
  -1  -1  -7   26.15    1.17
  -1   1  -7   26.00    1.14
  -1   1  -7   26.00    1.43
  -2  -1  -7    1.06    0.52
  -2  -1  -7    1.01    0.62
  -2   1  -7    0.07    0.63
  -2   1  -7    0.19    0.53
  -3  -1  -7  100.39    2.74
  -3  -1  -7  113.55    3.09
  -3   1  -7  100.98    2.63
  -3   1  -7  110.28    3.20
  -4  -1  -7   14.10    1.40
  -4  -1  -7   12.68    1.09
  -4   1  -7   16.20    1.52
  -5  -1  -7   24.71    1.99
  -5   1  -7   27.19    2.20
  -7  -2   7   -0.04    0.38
  -7   2   7   -0.21    0.40
  -6  -2   7    0.09    0.32
  -6   2   7    0.51    0.37
  -5  -2   7   -0.33    0.20
  -5   2   7    0.07    0.22
  -4  -2   7    1.66    0.37
  -4   2   7    2.07    0.38
   3  -2  -7    0.00    0.36
  -3  -2   7    0.01    0.22
  -3   2   7    0.11    0.22
  -2  -2   7   14.02    0.68
   2  -2  -7   12.87    0.88
  -2   2   7   14.93    0.67
   2   2  -7   15.17    0.94
  -1  -2   7    1.67    0.31
   1  -2  -7    1.78    0.54
  -1   2   7    1.28    0.32
   1   2  -7    2.17    0.55
   1   2  -7    1.84    0.64
   0  -2  -7   18.17    1.04
   0   2  -7   18.74    0.90
   0   2  -7   20.53    1.33
  -1  -2  -7    9.39    0.93
  -1   2  -7    7.79    0.74
  -1   2  -7    9.67    1.19
  -2  -2  -7    0.85    0.55
  -2  -2  -7    1.21    0.56
  -2   2  -7    0.08    0.63
  -2   2  -7    0.75    0.69
  -3  -2  -7   -1.43    0.70
  -3  -2  -7    0.12    0.63
  -3   2  -7    0.09    0.76
  -4  -2  -7    0.50    0.70
  -4   2  -7   -0.35    0.76
  -5  -2  -7    0.79    0.60
  -5   2  -7   -0.88    1.18
  -7  -3   7   39.56    1.71
  -6  -3   7   30.49    1.27
  -6   3   7   29.71    1.22
  -5  -3   7   18.89    0.94
  -5   3   7   20.15    0.90
  -4  -3   7   22.83    0.95
   4  -3  -7   21.94    1.12
  -4   3   7   21.21    0.91
  -3  -3   7   59.48    1.65
   3  -3  -7   55.19    1.80
  -3   3   7   58.27    1.59
  -2  -3   7    2.50    0.40
   2  -3  -7    2.50    0.51
  -2   3   7    2.94    0.42
   1  -3  -7  124.74    3.01
  -1  -3   7  130.09    2.80
  -1   3   7  128.17    2.71
   1   3  -7  126.86    3.39
   1   3  -7  127.91    2.91
   0  -3  -7    2.99    0.63
   0  -3   7    1.41    0.38
   0   3  -7    2.19    0.77
   0   3  -7    2.15    0.53
  -1  -3  -7   44.68    1.57
  -1   3  -7   43.53    1.86
  -2  -3  -7    4.35    0.76
  -2   3  -7    3.71    0.81
  -3  -3  -7   16.60    1.19
  -3   3  -7   18.88    1.53
  -4  -3  -7   14.07    1.17
  -4   3  -7   13.66    1.51
  -5  -3  -7   32.01    1.75
  -5   3  -7   33.49    2.53
  -6  -4   7    0.75    0.37
  -6   4   7    0.53    0.33
  -5  -4   7    1.87    0.44
  -5   4   7    1.54    0.37
  -4  -4   7    0.53    0.27
   4  -4  -7    0.59    0.38
  -4   4   7    0.58    0.27
   3  -4  -7    2.02    0.51
  -3  -4   7    1.64    0.36
  -3   4   7    1.57    0.37
   2  -4  -7    1.00    0.40
  -2  -4   7    1.08    0.32
  -2   4   7    0.70    0.29
   1  -4  -7    3.86    0.59
  -1  -4   7    3.58    0.46
  -1   4   7    3.32    0.42
   1   4  -7    4.10    0.87
   0  -4  -7    0.03    0.51
   0  -4   7    0.35    0.27
   0   4  -7   -0.13    0.72
  -1  -4  -7    4.42    0.75
  -1   4  -7    6.37    1.00
  -2  -4  -7    0.83    0.60
  -2   4  -7   -0.39    0.68
  -3  -4  -7    0.39    0.70
  -3   4  -7    0.80    0.76
  -4  -4  -7    3.87    0.98
  -4   4  -7    3.35    1.02
  -6  -5   7    5.76    0.78
  -6   5   7    4.59    0.66
  -5  -5   7   21.52    1.07
  -5   5   7   21.25    0.99
  -4  -5   7    6.99    0.59
   4  -5  -7    7.78    0.90
  -4   5   7    6.48    0.56
   3  -5  -7  121.83    3.11
  -3  -5   7  125.71    2.95
  -2  -5   7    2.49    0.45
   2  -5  -7    2.43    0.49
  -1  -5   7   18.92    0.83
   1  -5  -7   17.31    0.97
   1   5  -7   16.21    1.57
   0  -5   7    2.74    0.40
   0  -5  -7    2.69    0.58
   0   5  -7    3.03    0.88
  -1  -5  -7   85.82    2.40
  -1   5  -7   85.97    2.88
  -2  -5  -7    3.41    0.69
  -2   5  -7    1.93    0.89
  -3  -5  -7   11.38    1.11
  -3   5  -7    9.98    1.19
  -4  -5  -7    4.85    1.00
  -4   5  -7    4.19    1.20
  -5  -6   7    0.21    0.35
  -5   6   7    1.05    0.34
  -4  -6   7    0.07    0.24
   4  -6  -7    0.24    0.33
   3  -6  -7    3.98    0.52
  -3  -6   7    4.66    0.60
   3  -6  -7    5.49    0.77
  -2  -6   7    1.66    0.38
   2  -6  -7    1.27    0.34
   2  -6  -7    2.71    0.53
   1  -6  -7    3.40    0.43
   1  -6  -7    4.50    0.65
  -1  -6   7    3.17    0.46
   1   6  -7    4.14    1.06
   0  -6   7    0.79    0.34
   0  -6  -7    0.44    0.45
   0   6  -7   -0.28    0.84
  -1  -6  -7    0.92    0.51
  -1   6  -7   -0.33    0.89
  -2  -6  -7   -0.07    0.51
  -2   6  -7   -0.10    0.88
  -3  -6  -7    1.67    0.80
  -3   6  -7    2.01    0.96
  -4  -6  -7    0.47    1.07
  -5  -7   7   52.42    1.83
  -4  -7   7    1.80    0.41
   4  -7  -7    2.77    0.53
   4  -7  -7    2.59    0.49
   3  -7  -7   65.05    1.84
  -3  -7   7   64.51    1.92
   3  -7  -7   65.98    2.09
   2  -7  -7   10.94    0.73
  -2  -7   7   10.84    0.71
   2  -7  -7   11.81    0.83
  -1  -7   7   14.49    0.81
   1  -7  -7   14.91    0.94
   1   7  -7   16.56    1.73
   0  -7   7    7.06    0.61
   0  -7  -7    7.04    0.79
   0   7  -7    6.12    1.12
   1  -7   7   43.38    1.58
  -1  -7  -7   45.69    1.71
  -1   7  -7   48.23    2.43
  -2  -7  -7    3.71    0.70
  -2   7  -7    3.77    1.08
  -3  -7  -7   21.44    1.50
  -3   7  -7   24.40    2.31
   4  -8  -7    1.59    0.48
  -4  -8   7    1.16    0.44
   4  -8  -7    1.42    0.47
  -3  -8   7    0.41    0.31
   3  -8  -7    0.48    0.44
   3  -8  -7    0.10    0.34
   2  -8  -7    0.59    0.37
  -2  -8   7    0.21    0.29
   2  -8  -7    0.59    0.36
  -1  -8   7    0.36    0.37
   1  -8  -7    0.82    0.43
   0  -8  -7    0.06    0.46
   0  -8   7    0.43    0.36
   0   8  -7   -0.79    0.91
  -1  -8  -7    0.82    0.57
   1  -8   7    0.42    0.43
  -1   8  -7   -0.33    1.05
  -2  -8  -7    0.39    0.81
  -2   8  -7    1.42    1.31
   3  -9  -7   19.50    1.04
   3  -9  -7   19.66    1.25
  -3  -9   7   17.60    1.16
  -2  -9   7    0.26    0.42
   2  -9  -7    0.54    0.39
   2  -9  -7    1.51    0.45
   1  -9  -7   66.56    2.12
  -1  -9   7   68.45    2.03
   0  -9   7    4.95    0.66
   0  -9  -7    4.10    0.78
   0   9  -7    3.82    1.44
   1  -9   7   14.47    1.01
  -1  -9  -7   12.87    1.26
  -1   9  -7   12.44    2.09
   2 -10  -7   -0.13    0.41
   1 -10  -7   -0.27    0.68
   0 -10   7    0.52    0.88
   0 -10  -7    0.58    0.75
   1 -10   7    1.11    1.00
  -6   0   8   55.90    1.80
  -5   0   8    2.33    0.45
  -4   0   8   39.42    1.35
  -3   0   8   79.96    2.08
   3   0  -8   79.30    2.34
  -2   0   8   28.69    1.03
   2   0  -8   28.11    1.28
   1   0  -8   27.93    1.21
  -1   0   8   24.89    0.90
   0   0  -8   20.52    1.42
   0   0  -8   20.02    1.05
  -1   0  -8   42.32    1.55
  -1   0  -8   42.51    1.76
  -2   0  -8   83.10    2.36
  -2   0  -8   87.69    2.67
  -3   0  -8   12.53    1.42
  -3   0  -8   11.99    1.01
  -4   0  -8   13.36    1.63
  -4   0  -8   13.48    1.17
  -6  -1   8    0.60    0.36
  -6   1   8    1.00    0.35
  -5  -1   8    0.24    0.27
  -5   1   8    0.18    0.22
  -4  -1   8    1.53    0.39
  -4   1   8    1.58    0.38
   3  -1  -8    6.51    0.85
  -3  -1   8    4.50    0.56
  -3   1   8    4.98    0.53
  -2  -1   8    0.68    0.32
   2  -1  -8   -0.06    0.54
  -2   1   8   -0.06    0.27
   2   1  -8    0.65    0.56
   1  -1  -8    2.25    0.62
  -1  -1   8    2.25    0.33
   1   1  -8    1.69    0.63
  -1   1   8    2.13    0.34
   1   1  -8    2.62    0.63
   0  -1  -8    1.36    0.56
   0   1  -8    0.30    0.63
   0   1  -8    0.68    0.53
  -1  -1  -8    0.74    0.92
  -1  -1  -8    1.75    0.64
  -1   1  -8    1.32    0.71
  -1   1  -8    1.35    0.63
  -2  -1  -8    0.77    0.68
  -2  -1  -8    1.48    0.74
  -2   1  -8    2.06    0.79
  -2   1  -8    1.36    0.70
  -3  -1  -8    0.72    0.56
  -3  -1  -8    1.34    0.76
  -3   1  -8    0.81    0.74
  -4  -1  -8   -0.15    0.60
  -4  -1  -8    0.03    0.86
  -4   1  -8    0.04    0.93
  -5  -1  -8    0.78    0.77
  -6  -2   8   30.32    1.32
  -6   2   8   28.60    1.23
  -5  -2   8    3.19    0.48
  -5   2   8    3.51    0.49
   4  -2  -8   28.76    1.41
  -4  -2   8   29.01    1.15
  -4   2   8   29.36    1.11
  -3  -2   8   29.67    1.12
   3  -2  -8   28.99    1.36
  -3   2   8   29.57    1.08
  -2  -2   8   76.25    1.97
   2  -2  -8   77.46    2.25
  -2   2   8   79.74    1.96
   2   2  -8   79.50    2.22
  -1  -2   8   23.18    0.86
   1  -2  -8   22.54    1.18
   1   2  -8   21.65    1.44
   1   2  -8   21.63    1.15
  -1   2   8   22.93    0.97
   0  -2  -8   47.79    1.70
   0   2  -8   48.28    1.97
   0   2  -8   48.19    1.54
  -1  -2  -8   13.29    1.04
  -1   2  -8   11.58    1.36
  -1   2  -8   13.02    1.26
  -2  -2  -8   16.53    1.15
  -2   2  -8   21.64    1.52
  -3  -2  -8    2.07    0.81
  -3  -2  -8    1.58    0.59
  -3   2  -8    1.10    0.79
  -4  -2  -8   28.46    1.55
  -4  -2  -8   31.88    1.87
  -4   2  -8   31.12    2.19
  -6  -3   8    1.38    0.44
  -6   3   8    1.01    0.42
  -5  -3   8    0.20    0.23
  -5   3   8    0.20    0.23
  -4  -3   8    1.77    0.38
   4  -3  -8    2.01    0.54
  -4   3   8    2.02    0.37
  -3  -3   8    1.30    0.37
   3  -3  -8    1.08    0.59
  -3   3   8    1.31    0.31
  -2  -3   8    1.91    0.38
   2  -3  -8    1.89    0.58
  -2   3   8    1.22    0.32
   1  -3  -8    0.56    0.58
  -1  -3   8    0.89    0.31
   1   3  -8    1.09    0.84
   1   3  -8    0.15    0.71
   0  -3  -8    8.21    0.95
   0   3  -8    6.46    1.08
  -1  -3  -8   -0.51    0.66
  -1   3  -8    0.01    0.77
  -2  -3  -8    0.01    0.67
  -2   3  -8    0.32    0.76
  -3  -3  -8    1.04    0.70
  -3   3  -8    0.58    0.79
  -4  -3  -8    2.05    1.04
  -4   3  -8    2.28    1.24
  -6  -4   8   10.65    1.22
  -6   4   8    9.61    1.06
  -5  -4   8    8.12    0.64
  -5   4   8    7.63    0.62
   4  -4  -8   49.80    1.85
  -4  -4   8   52.78    1.67
  -4   4   8   52.70    1.61
   3  -4  -8    2.56    0.63
  -3  -4   8    1.53    0.38
  -3   4   8    1.46    0.35
   2  -4  -8   65.23    2.02
  -2  -4   8   68.13    1.86
  -2   4   8   67.69    1.78
  -1  -4   8    8.20    0.59
   1  -4  -8    7.04    0.84
   1   4  -8    7.62    1.06
   0  -4  -8   79.24    2.35
   0   4  -8   82.28    2.83
  -1  -4  -8    3.90    0.78
  -1   4  -8    2.53    0.93
  -2  -4  -8   11.49    1.13
  -2   4  -8   10.18    1.15
  -3  -4  -8   12.06    1.19
  -3   4  -8   13.72    1.68
  -4  -4  -8   22.17    1.75
  -5  -5   8    0.15    0.32
  -5   5   8   -0.07    0.34
   4  -5  -8    0.95    0.44
  -4  -5   8    1.24    0.34
  -4   5   8    0.42    0.32
   3  -5  -8    1.15    0.54
  -3  -5   8    1.87    0.41
  -3   5   8    2.06    0.40
  -2  -5   8    1.16    0.34
   2  -5  -8    2.79    0.56
  -2   5   8    1.32    0.37
  -1  -5   8    1.89    0.38
   1  -5  -8    1.70    0.56
   1   5  -8    1.99    0.90
   0  -5  -8    1.82    0.59
   0  -5   8    2.06    0.43
   0   5  -8    1.69    0.89
  -1  -5  -8    0.05    0.67
  -1   5  -8   -0.46    0.84
  -2  -5  -8    0.10    0.68
  -2   5  -8    0.55    0.93
  -3  -5  -8    1.00    0.83
  -3   5  -8   -0.42    1.04
  -5  -6   8    3.33    0.73
  -5   6   8    3.14    0.61
  -4  -6   8   66.74    2.05
   4  -6  -8   65.23    2.21
  -4   6   8   70.40    2.00
  -3  -6   8    0.13    0.26
   3  -6  -8   -0.03    0.49
  -3   6   8    0.57    0.33
  -2  -6   8   23.63    1.05
   2  -6  -8   24.87    1.20
  -2   6   8   24.93    0.98
  -1  -6   8    4.34    0.54
   1  -6  -8    5.20    0.69
   1   6  -8    6.34    1.15
   0  -6   8   44.00    1.40
   0  -6  -8   43.81    1.69
   0   6  -8   45.18    2.33
  -1  -6  -8    0.56    0.55
  -1   6  -8   -0.09    0.94
  -2  -6  -8   56.30    2.12
  -2   6  -8   61.22    2.79
   4  -7  -8    1.44    0.58
  -4  -7   8    0.82    0.45
  -4   7   8    1.80    0.53
   3  -7  -8   -0.45    0.52
  -3  -7   8   -0.25    0.27
  -2  -7   8    0.65    0.31
   2  -7  -8    1.37    0.46
   1  -7  -8   -0.33    0.47
  -1  -7   8    0.26    0.32
   1   7  -8    0.36    0.92
   0  -7   8    1.53    0.40
   0  -7  -8   -0.30    0.53
   0   7  -8    0.63    0.98
  -1  -7  -8   -0.17    0.59
  -1   7  -8    0.27    1.18
  -2  -7  -8    4.70    0.97
  -2   7  -8    3.96    1.63
   4  -8  -8   20.34    1.51
   3  -8  -8    0.62    0.41
  -3  -8   8   -0.01    0.41
   3  -8  -8    1.18    0.74
  -2  -8   8   44.55    1.62
   2  -8  -8   43.74    1.76
   1  -8  -8    4.93    0.85
  -1  -8   8    4.90    0.64
   0  -8   8   29.02    1.24
   0  -8  -8   26.10    1.54
   0   8  -8   25.48    2.59
  -1  -8  -8    0.54    0.78
   3  -9  -8    0.30    0.82
   2  -9  -8    1.69    0.75
   1  -9  -8   -0.40    0.69
  -1  -9   8    1.82    0.65
   0  -9   8    1.14    0.71
  -5   0   9    0.29    0.30
  -4   0   9   -0.41    0.23
   3   0  -9    1.03    0.65
  -3   0   9   -0.03    0.25
  -2   0   9   -0.25    0.27
   2   0  -9   -0.15    0.63
   1   0  -9    1.17    0.65
   0   0  -9    0.07    0.65
  -1   0  -9    0.40    0.67
  -2   0  -9    0.95    0.70
  -2   0  -9    0.69    0.87
  -3   0  -9   -0.60    0.78
  -3   0  -9    0.58    0.72
  -4   0  -9   -0.30    1.18
  -5  -1   9   51.87    1.71
  -5   1   9   49.91    1.66
  -4  -1   9    1.56    0.43
  -4   1   9    1.36    0.37
  -3  -1   9   11.91    0.72
   3  -1  -9   11.86    1.10
  -3   1   9   10.13    0.69
   3   1  -9   12.47    1.15
   2  -1  -9    7.84    0.98
  -2  -1   9    6.71    0.56
  -2   1   9    8.31    0.61
   2   1  -9    9.61    0.99
   1  -1  -9   44.30    1.65
   1   1  -9   43.01    1.65
   0  -1  -9   18.93    1.19
   0   1  -9   17.62    1.11
  -1  -1  -9   32.35    1.53
  -1   1  -9   32.41    1.44
  -1   1  -9   33.40    1.69
  -2  -1  -9   12.98    1.18
  -2   1  -9   16.19    1.47
  -3  -1  -9   25.87    1.48
  -3   1  -9   30.74    1.94
  -4  -1  -9    2.84    0.79
  -4  -1  -9    1.94    1.48
  -5  -2   9    1.77    0.47
  -5   2   9    2.28    0.46
   4  -2  -9    1.17    0.66
  -4  -2   9    0.03    0.26
  -4   2   9    0.25    0.26
  -3  -2   9    0.87    0.31
   3  -2  -9    1.83    0.71
  -3   2   9    0.90    0.31
  -2  -2   9    1.25    0.36
   2  -2  -9    1.81    0.73
   2   2  -9    3.02    0.77
  -2   2   9    2.17    0.39
   1  -2  -9    1.27    0.67
   1   2  -9    0.26    1.09
   1   2  -9    1.26    0.73
   0  -2  -9    8.15    0.96
   0   2  -9    5.83    1.05
  -1  -2  -9    1.74    0.76
  -1   2  -9    1.31    0.84
  -2  -2  -9    2.99    0.93
  -2   2  -9    3.91    0.95
  -3  -2  -9    0.20    0.66
  -3   2  -9    2.94    1.05
  -4  -2  -9    1.58    1.41
  -5  -3   9   11.48    0.86
  -5   3   9   10.55    0.85
  -4  -3   9    0.19    0.29
   4  -3  -9    1.26    0.62
  -4   3   9    0.27    0.29
   3  -3  -9   60.00    2.14
  -3  -3   9   62.52    1.82
  -3   3   9   61.01    1.77
   2  -3  -9    0.71    0.68
  -2  -3   9    0.96    0.34
  -2   3   9    1.48    0.41
   1  -3  -9   52.16    1.85
   1   3  -9   52.12    2.21
   0  -3  -9   10.37    1.02
   0   3  -9    9.61    1.19
  -1  -3  -9   11.26    1.16
  -1   3  -9   10.27    1.22
  -2  -3  -9   12.50    1.25
  -2   3  -9   15.71    1.55
  -3  -3  -9   24.36    1.67
  -3   3  -9   31.25    2.40
  -5  -4   9    0.19    0.36
  -5   4   9    0.35    0.44
  -4  -4   9    0.05    0.28
   4  -4  -9    0.67    0.57
  -4   4   9    0.42    0.31
  -3  -4   9    6.50    0.70
   3  -4  -9    7.30    0.91
  -3   4   9    6.76    0.57
  -2  -4   9    1.17    0.37
   2  -4  -9    2.20    0.69
   1  -4  -9    1.42    0.69
  -1  -4   9    0.40    0.33
   1   4  -9    0.98    0.80
   0  -4  -9   -0.19    0.66
   0   4  -9    0.55    0.86
  -1  -4  -9    1.31    0.80
  -1   4  -9    0.12    0.90
  -2  -4  -9   -0.52    0.83
  -2   4  -9   -0.07    1.03
  -4  -5   9    1.08    0.46
   4  -5  -9    0.69    0.68
  -4   5   9    0.84    0.38
   3  -5  -9   43.98    1.83
  -3  -5   9   46.69    1.60
  -3   5   9   45.98    1.50
   2  -5  -9    1.68    0.54
  -2  -5   9    0.51    0.35
  -1  -5   9   17.81    0.87
   1  -5  -9   17.48    1.12
   1   5  -9   21.80    1.80
   0  -5  -9    3.61    0.82
   0   5  -9    4.69    1.10
  -1  -5  -9   54.92    2.15
  -1   5  -9   58.87    2.81
  -2  -5  -9    1.53    0.96
  -2   5  -9    2.09    1.41
  -4  -6   9   -0.24    0.64
   4  -6  -9    1.09    0.76
  -4   6   9    0.19    0.51
  -3  -6   9    1.29    0.48
   3  -6  -9    1.43    0.82
  -3   6   9    0.41    0.38
   2  -6  -9    1.60    0.65
  -2  -6   9   -0.02    0.32
  -1  -6   9    1.67    0.42
   1  -6  -9    1.14    0.73
   1   6  -9    2.65    1.11
   0  -6  -9    0.30    0.69
   0   6  -9   -0.55    1.11
  -1  -6  -9    2.82    0.91
  -1   6  -9    3.58    1.52
  -3  -7   9   16.84    1.37
  -3   7   9   19.21    1.16
   2  -7  -9    9.90    1.10
  -2  -7   9    8.82    0.90
  -1  -7   9   11.41    0.83
   1  -7  -9   11.69    1.22
   0  -7  -9    0.64    1.19
   0   7  -9   -0.35    1.46
  -1  -8   9    0.68    0.60
  -5   0  10    0.08    0.39
  -4   0  10   10.41    0.77
   3   0 -10    1.10    0.76
  -3   0  10   -0.02    0.29
   2   0 -10   28.14    1.57
   1   0 -10    2.86    0.88
   0   0 -10   30.33    1.52
  -1   0 -10    6.49    0.93
  -5  -1  10    0.39    0.61
  -5   1  10    0.41    0.48
  -4  -1  10    0.06    0.32
  -4   1  10    0.27    0.33
   3  -1 -10    3.24    0.85
  -3  -1  10    1.24    0.35
  -3   1  10    0.93    0.40
   3   1 -10    2.47    0.83
   2  -1 -10   -0.01    0.73
   2   1 -10    1.33    0.78
   1  -1 -10    5.34    0.92
   1   1 -10    3.17    0.89
   0  -1 -10    0.11    0.74
   0   1 -10    1.56    0.78
  -1  -1 -10    1.58    0.81
  -2  -1 -10    1.19    0.72
  -3  -1 -10   -0.03    0.86
  -3   1 -10    0.87    2.03
   4  -2 -10   30.25    1.76
  -4  -2  10   28.97    1.24
  -4   2  10   29.12    1.22
   3  -2 -10    0.48    0.77
  -3  -2  10   -0.14    0.33
  -3   2  10   -0.34    0.30
   2  -2 -10   40.00    1.80
   2   2 -10   43.55    1.85
   1  -2 -10    1.10    0.77
   0  -2 -10   12.10    1.19
  -1  -2 -10    2.88    0.89
  -1   2 -10    2.81    1.63
  -2  -2 -10   18.81    1.57
  -2   2 -10   23.48    2.06
   4  -3 -10    1.47    0.94
  -4  -3  10    0.87    0.52
  -4   3  10    0.39    0.41
   3  -3 -10    1.02    0.91
  -3  -3  10    0.91    0.39
  -3   3  10    1.67    0.42
   2  -3 -10    1.49    0.82
  -2  -3  10    0.85    0.40
   1  -3 -10    0.45    0.74
   0  -3 -10    1.11    0.79
   0   3 -10   -0.04    1.09
  -1  -3 -10    1.41    1.00
  -1   3 -10    0.13    1.00
  -2  -3 -10    2.63    1.68
  -2   3 -10    6.57    1.59
  -4  -4  10   43.97    1.90
  -4   4  10   45.79    1.68
   3  -4 -10   -0.24    0.86
  -3  -4  10    0.69    0.41
   2  -4 -10   21.05    1.52
  -2  -4  10   21.97    1.04
   1  -4 -10    1.42    0.90
   1   4 -10    2.36    1.04
   0  -4 -10   18.86    1.45
   0   4 -10   19.16    1.94
  -1  -4 -10   -0.15    1.23
  -1   4 -10   -0.58    1.37
  -4   5  10    1.62    0.88
  -3  -5  10   -0.41    0.51
   2  -5 -10    2.61    1.12
  -2  -5  10    1.11    0.47
   1  -5 -10    2.50    1.08
   1   5 -10    3.95    1.28
   0   5 -10    2.25    1.43
  -2  -6  10    4.45    0.74
   1   6 -10    3.97    1.71
  -4   0  11   -0.09    0.56
   3   0 -11    1.72    1.00
   2   0 -11    0.28    0.93
   1   0 -11    1.40    0.86
   0   0 -11    2.09    0.93
  -4   1  11    3.67    0.85
   3  -1 -11   23.68    2.33
   2  -1 -11    0.43    0.99
   2   1 -11    2.73    0.92
   1  -1 -11   43.64    2.03
   0  -1 -11    1.50    0.96
  -1  -1 -11   16.65    1.61
   2  -2 -11    0.08    1.32
   1  -2 -11    3.41    1.07
   0  -2 -11    0.17    1.21
  -3  -3  11   45.82    2.04
   0   0   0    0.00    0.00
;
_shelx_hkl_checksum              18872
loop_
_space_group_symop_operation_xyz
'x, y, z'
'-x, y+1/2, -z+1/2'
'-x, -y, -z'
'x, -y-1/2, z-1/2'
loop_
_atom_site_label
_atom_site_type_symbol
_atom_site_fract_x
_atom_site_fract_y
_atom_site_fract_z
_atom_site_U_iso_or_equiv
_atom_site_adp_type
_atom_site_occupancy
_atom_site_site_symmetry_order
_atom_site_calc_flag
_atom_site_refinement_flags_posn
_atom_site_refinement_flags_adp
_atom_site_refinement_flags_occupancy
_atom_site_disorder_assembly
_atom_site_disorder_group
Mn1 Mn 0.0000 0.5000 0.5000 0.01427(15) Uani 1 2 d S . P . .
Si1 Si 0.5000 1.0000 0.5000 0.01334(19) Uani 1 2 d S . P . .
F1A F 0.7282(3) 0.91124(19) 0.5328(2) 0.0163(5) Uani 0.729(3) 1 d . . P A 1
F2A F 0.4474(3) 0.9456(2) 0.6764(2) 0.0161(5) Uani 0.729(3) 1 d . . P A 1
F3A F 0.3776(3) 0.85805(18) 0.4117(2) 0.0156(5) Uani 0.729(3) 1 d . . P A 1
F1B F 0.6229(9) 0.8576(5) 0.5876(7) 0.0221(15) Uani 0.271(3) 1 d . . P A 2
F2B F 0.4442(8) 1.0527(6) 0.6751(7) 0.0216(15) Uani 0.271(3) 1 d . . P A 2
F3B F 0.2685(8) 0.9121(5) 0.4634(7) 0.0214(15) Uani 0.271(3) 1 d . . P A 2
O1A O 0.1904(8) 0.6734(5) 0.5958(4) 0.0204(11) Uani 0.713(13) 1 d . . P B 3
O2A O 0.2719(7) 0.3680(4) 0.5558(5) 0.0212(11) Uani 0.713(13) 1 d . . P B 3
O3A O 0.0673(5) 0.5366(7) 0.2657(4) 0.0226(11) Uani 0.713(13) 1 d . . P B 3
O1B O 0.272(2) 0.6326(11) 0.5652(15) 0.034(3) Uani 0.287(13) 1 d . . P B 4
O2B O 0.194(2) 0.3306(11) 0.6047(12) 0.032(3) Uani 0.287(13) 1 d . . P B 4
O3B O 0.0803(13) 0.4547(16) 0.2722(10) 0.027(3) Uani 0.287(13) 1 d . . P B 4
H1A H 0.243(6) 0.671(4) 0.680(5) 0.044(12) Uiso 1 1 d . . . . .
H1B H 0.245(8) 0.713(5) 0.547(6) 0.075(17) Uiso 1 1 d . . . . .
H2A H 0.360(7) 0.380(4) 0.641(5) 0.066(13) Uiso 1 1 d . . . . .
H2B H 0.268(6) 0.287(4) 0.527(5) 0.060(12) Uiso 1 1 d . . . . .
H3A H 0.167(7) 0.521(4) 0.247(4) 0.041(11) Uiso 1 1 d . . . . .
H3B H -0.049(13) 0.533(8) 0.194(9) 0.18(3) Uiso 1 1 d . . . . .
loop_
_atom_site_aniso_label
_atom_site_aniso_U_11
_atom_site_aniso_U_22
_atom_site_aniso_U_33
_atom_site_aniso_U_23
_atom_site_aniso_U_13
_atom_site_aniso_U_12
Mn1 0.0150(2) 0.0119(2) 0.0165(2) 0.0000(2) 0.00411(18) -0.0001(2)
Si1 0.0139(4) 0.0112(4) 0.0155(4) 0.0003(4) 0.0041(3) 0.0003(4)
F1A 0.0152(11) 0.0168(9) 0.0171(10) -0.0011(8) 0.0035(9) 0.0024(8)
F2A 0.0172(10) 0.0196(12) 0.0117(10) 0.0009(8) 0.0032(8) -0.0014(8)
F3A 0.0190(11) 0.0136(9) 0.0143(10) -0.0012(7) 0.0033(9) -0.0006(8)
F1B 0.024(3) 0.013(2) 0.029(3) 0.004(2) 0.003(3) 0.003(2)
F2B 0.018(3) 0.016(3) 0.031(3) -0.004(2) 0.007(3) -0.001(2)
F3B 0.018(3) 0.016(3) 0.029(3) 0.003(2) 0.002(3) -0.004(2)
O1A 0.031(2) 0.0176(17) 0.0111(16) 0.0008(12) -0.0008(14) -0.0092(16)
O2A 0.0169(18) 0.0180(15) 0.0258(19) -0.0084(13) -0.0046(14) 0.0042(13)
O3A 0.0180(17) 0.035(3) 0.0172(15) 0.0074(14) 0.0089(13) 0.0068(14)
O1B 0.031(5) 0.020(4) 0.054(6) 0.007(4) 0.012(5) 0.001(4)
O2B 0.039(6) 0.024(5) 0.036(5) -0.004(4) 0.012(5) 0.011(4)
O3B 0.018(4) 0.028(7) 0.034(5) -0.011(4) 0.004(3) -0.004(4)
loop_
_atom_type_symbol
_atom_type_description
_atom_type_scat_dispersion_real
_atom_type_scat_dispersion_imag
_atom_type_scat_source
O O 0.0106 0.0060 'International Tables Vol C Tables 4.2.6.8 and 6.1.1.4'
H H 0.0000 0.0000 'International Tables Vol C Tables 4.2.6.8 and 6.1.1.4'
F F 0.0171 0.0103 'International Tables Vol C Tables 4.2.6.8 and 6.1.1.4'
Si Si 0.0817 0.0704 'International Tables Vol C Tables 4.2.6.8 and 6.1.1.4'
Mn Mn 0.3368 0.7283 'International Tables Vol C Tables 4.2.6.8 and 6.1.1.4'
loop_
_geom_angle_atom_site_label_1
_geom_angle_atom_site_label_2
_geom_angle_atom_site_label_3
_geom_angle
_geom_angle_site_symmetry_1
_geom_angle_site_symmetry_3
_geom_angle_publ_flag
O3B Mn1 O3B 180.0 . 3_566 ?
O1A Mn1 O1A 180.0 . 3_566 ?
O1A Mn1 O2A 89.00(15) . . ?
O1A Mn1 O2A 91.00(15) 3_566 . ?
O1A Mn1 O2A 91.00(15) . 3_566 ?
O1A Mn1 O2A 89.00(15) 3_566 3_566 ?
O2A Mn1 O2A 180.0 . 3_566 ?
O3B Mn1 O2B 89.4(4) . 3_566 ?
O3B Mn1 O2B 90.6(4) 3_566 3_566 ?
O3B Mn1 O2B 90.6(4) . . ?
O3B Mn1 O2B 89.4(4) 3_566 . ?
O2B Mn1 O2B 180.0 3_566 . ?
O1A Mn1 O3A 88.05(15) . 3_566 ?
O1A Mn1 O3A 91.95(15) 3_566 3_566 ?
O2A Mn1 O3A 89.19(14) . 3_566 ?
O2A Mn1 O3A 90.81(14) 3_566 3_566 ?
O1A Mn1 O3A 91.95(15) . . ?
O1A Mn1 O3A 88.05(15) 3_566 . ?
O2A Mn1 O3A 90.81(14) . . ?
O2A Mn1 O3A 89.19(14) 3_566 . ?
O3A Mn1 O3A 180.0 3_566 . ?
O3B Mn1 O1B 92.3(4) . . ?
O3B Mn1 O1B 87.7(4) 3_566 . ?
O2B Mn1 O1B 92.8(4) 3_566 . ?
O2B Mn1 O1B 87.2(4) . . ?
O3B Mn1 O1B 87.7(4) . 3_566 ?
O3B Mn1 O1B 92.3(4) 3_566 3_566 ?
O2B Mn1 O1B 87.2(4) 3_566 3_566 ?
O2B Mn1 O1B 92.8(4) . 3_566 ?
O1B Mn1 O1B 180.0(7) . 3_566 ?
F2B Si1 F2B 180.0 . 3_676 ?
F1A Si1 F1A 180.0 3_676 . ?
F1A Si1 F2A 89.98(9) 3_676 . ?
F1A Si1 F2A 90.01(9) . . ?
F1A Si1 F2A 90.01(9) 3_676 3_676 ?
F1A Si1 F2A 89.99(9) . 3_676 ?
F2A Si1 F2A 180.0 . 3_676 ?
F1A Si1 F3A 90.42(9) 3_676 . ?
F1A Si1 F3A 89.58(9) . . ?
F2A Si1 F3A 89.91(9) . . ?
F2A Si1 F3A 90.09(9) 3_676 . ?
F1A Si1 F3A 89.58(9) 3_676 3_676 ?
F1A Si1 F3A 90.42(9) . 3_676 ?
F2A Si1 F3A 90.09(9) . 3_676 ?
F2A Si1 F3A 89.91(9) 3_676 3_676 ?
F3A Si1 F3A 180.00(12) . 3_676 ?
F2B Si1 F1B 90.3(3) . . ?
F2B Si1 F1B 89.7(3) 3_676 . ?
F2B Si1 F1B 89.7(3) . 3_676 ?
F2B Si1 F1B 90.3(3) 3_676 3_676 ?
F1B Si1 F1B 180.0 . 3_676 ?
F2B Si1 F3B 90.2(3) . 3_676 ?
F2B Si1 F3B 89.8(3) 3_676 3_676 ?
F1B Si1 F3B 89.5(3) . 3_676 ?
F1B Si1 F3B 90.5(3) 3_676 3_676 ?
F2B Si1 F3B 89.8(3) . . ?
F2B Si1 F3B 90.2(3) 3_676 . ?
F1B Si1 F3B 90.5(3) . . ?
F1B Si1 F3B 89.5(3) 3_676 . ?
F3B Si1 F3B 180.0 3_676 . ?
Mn1 O1A H1A 119(3) . . ?
Mn1 O1A H1B 121(4) . . ?
H1A O1A H1B 113(5) . . ?
Mn1 O2A H2A 120(3) . . ?
Mn1 O2A H2B 121(3) . . ?
H2A O2A H2B 112(4) . . ?
Mn1 O3A H3A 121(3) . . ?
Mn1 O3A H3B 111(5) . . ?
H3A O3A H3B 122(5) . . ?
Mn1 O1B H1A 100(2) . . ?
Mn1 O1B H1B 112(4) . . ?
H1A O1B H1B 77(4) . . ?
Mn1 O2B H2A 104(2) . . ?
Mn1 O2B H2B 111(2) . . ?
H2A O2B H2B 80(3) . . ?
Mn1 O3B H3A 109(3) . . ?
Mn1 O3B H3B 97(4) . . ?
H3A O3B H3B 80(4) . . ?
loop_
_geom_bond_atom_site_label_1
_geom_bond_atom_site_label_2
_geom_bond_distance
_geom_bond_site_symmetry_2
_geom_bond_publ_flag
Mn1 O3B 2.153(8) . ?
Mn1 O3B 2.153(8) 3_566 ?
Mn1 O1A 2.154(3) . ?
Mn1 O1A 2.154(3) 3_566 ?
Mn1 O2A 2.157(3) . ?
Mn1 O2A 2.157(3) 3_566 ?
Mn1 O2B 2.157(8) 3_566 ?
Mn1 O2B 2.157(8) . ?
Mn1 O3A 2.158(3) 3_566 ?
Mn1 O3A 2.158(3) . ?
Mn1 O1B 2.170(9) . ?
Mn1 O1B 2.170(9) 3_566 ?
Si1 F2B 1.683(5) . ?
Si1 F2B 1.683(5) 3_676 ?
Si1 F1A 1.6878(19) 3_676 ?
Si1 F1A 1.6878(19) . ?
Si1 F2A 1.6916(18) . ?
Si1 F2A 1.6916(18) 3_676 ?
Si1 F3A 1.6926(19) . ?
Si1 F3A 1.6926(19) 3_676 ?
Si1 F1B 1.695(5) . ?
Si1 F1B 1.695(5) 3_676 ?
Si1 F3B 1.703(5) 3_676 ?
Si1 F3B 1.703(5) . ?
O1A H1A 0.74(4) . ?
O1A H1B 0.71(5) . ?
O2A H2A 0.85(5) . ?
O2A H2B 0.82(4) . ?
O3A H3A 0.71(4) . ?
O3A H3B 0.89(8) . ?
O1B H1A 1.10(4) . ?
O1B H1B 0.81(5) . ?
O2B H2A 1.17(4) . ?
O2B H2B 0.98(4) . ?
O3B H3A 0.90(4) . ?
O3B H3B 1.23(8) . ?
