#------------------------------------------------------------------------------
#$Date: 2020-08-29 08:23:25 +0300 (Sat, 29 Aug 2020) $
#$Revision: 255748 $
#$URL: file:///home/coder/svn-repositories/cod/cif/1/55/89/1558931.cif $
#------------------------------------------------------------------------------
#
# This file is available in the Crystallography Open Database (COD),
# http://www.crystallography.net/. The original data for this entry
# were provided by IUCr Journals, http://journals.iucr.org/.
#
# The file may be used within the scientific community so long as
# proper attribution is given to the journal article from which the
# data were obtained.
#
data_1558931
loop_
_publ_author_name
'Uppu, Sannihith N.'
'Agu, Ogad A.'
'Deere, Curtistine J.'
'Fronczek, Frank R.'
_publ_section_title
;
 <i>N</i>-(4-Ethoxy-2,5-dinitrophenyl)acetamide
;
_journal_coeditor_code           HB4359
_journal_issue                   8
_journal_name_full               IUCrData
_journal_page_first              x201121
_journal_paper_doi               10.1107/S2414314620011219
_journal_volume                  5
_journal_year                    2020
_chemical_formula_iupac          'C10 H11 N3 O6'
_chemical_formula_moiety         'C10 H11 N3 O6'
_chemical_formula_sum            'C10 H11 N3 O6'
_chemical_formula_weight         269.22
_chemical_name_systematic
;
<i>N</i>-(4-Ethoxy-2,5-dinitrophenyl)acetamide
;
_space_group_crystal_system      triclinic
_space_group_IT_number           2
_space_group_name_Hall           '-P 1'
_space_group_name_H-M_alt        'P -1'
_atom_sites_solution_hydrogens   mixed
_atom_sites_solution_primary     direct
_audit_creation_method           SHELXL-2017/1
_cell_angle_alpha                81.005(2)
_cell_angle_beta                 85.099(2)
_cell_angle_gamma                88.700(2)
_cell_formula_units_Z            2
_cell_length_a                   6.7463(3)
_cell_length_b                   9.0360(4)
_cell_length_c                   9.3954(4)
_cell_measurement_reflns_used    9965
_cell_measurement_temperature    90.0(5)
_cell_measurement_theta_max      40.23
_cell_measurement_theta_min      3.03
_cell_volume                     563.60(4)
_computing_cell_refinement
;
SAINT (Bruker, 2016)
;
_computing_data_collection
;
APEX3 (Bruker, 2016)
;
_computing_data_reduction
;
SAINT (Bruker, 2016)
;
_computing_molecular_graphics
;
Mercury (Macrae <i>et al.</i>, 2020)
;
_computing_publication_material
;
publCIF (Westrip, 2010)
;
_computing_structure_refinement
;
<i>SHELXL2017/1</i> (Sheldrick, 2015)
;
_computing_structure_solution
;
SHELXS97 (Sheldrick, 2008)
;
_diffrn_ambient_temperature      90.0(5)
_diffrn_measured_fraction_theta_full 0.998
_diffrn_measured_fraction_theta_max 0.993
_diffrn_measurement_device_type  'Bruker Kappa APEXII DUO CCD'
_diffrn_measurement_method       '\f and \w scans'
_diffrn_radiation_monochromator  'TRIUMPH curved graphite'
_diffrn_radiation_source         'fine-focus sealed tube'
_diffrn_radiation_type           MoK\a
_diffrn_radiation_wavelength     0.71073
_diffrn_reflns_av_R_equivalents  0.0427
_diffrn_reflns_av_unetI/netI     0.0407
_diffrn_reflns_limit_h_max       12
_diffrn_reflns_limit_h_min       -11
_diffrn_reflns_limit_k_max       16
_diffrn_reflns_limit_k_min       -15
_diffrn_reflns_limit_l_max       15
_diffrn_reflns_limit_l_min       -17
_diffrn_reflns_number            29518
_diffrn_reflns_theta_full        25.000
_diffrn_reflns_theta_max         40.373
_diffrn_reflns_theta_min         2.202
_exptl_absorpt_coefficient_mu    0.133
_exptl_absorpt_correction_T_max  0.988
_exptl_absorpt_correction_T_min  0.920
_exptl_absorpt_correction_type   multi-scan
_exptl_absorpt_process_details
;
(SADABS; Krause <i>et al.</i>, 2015)
;
_exptl_crystal_colour            yellow
_exptl_crystal_density_diffrn    1.586
_exptl_crystal_description       needle
_exptl_crystal_F_000             280
_exptl_crystal_size_max          0.300
_exptl_crystal_size_mid          0.100
_exptl_crystal_size_min          0.090
_refine_diff_density_max         0.755
_refine_diff_density_min         -0.278
_refine_ls_extinction_method     none
_refine_ls_goodness_of_fit_ref   1.041
_refine_ls_hydrogen_treatment    mixed
_refine_ls_matrix_type           full
_refine_ls_number_parameters     177
_refine_ls_number_reflns         7110
_refine_ls_number_restraints     0
_refine_ls_restrained_S_all      1.041
_refine_ls_R_factor_all          0.0481
_refine_ls_R_factor_gt           0.0375
_refine_ls_shift/su_max          0.001
_refine_ls_shift/su_mean         0.000
_refine_ls_structure_factor_coef Fsqd
_refine_ls_weighting_details
'w=1/[\s^2^(Fo^2^)+(0.0597P)^2^+0.0585P] where P=(Fo^2^+2Fc^2^)/3'
_refine_ls_weighting_scheme      calc
_refine_ls_wR_factor_gt          0.1043
_refine_ls_wR_factor_ref         0.1111
_reflns_number_gt                5824
_reflns_number_total             7110
_reflns_threshold_expression     'I > 2\s(I)'
_cod_data_source_file            hb4359sup1.cif
_cod_data_source_block           I
_cod_database_code               1558931
_shelx_space_group_comment
;
The symmetry employed for this shelxl refinement is uniquely defined
by the following loop, which should always be used as a source of
symmetry information in preference to the above space-group names.
They are only intended as comments.
;
_shelx_estimated_absorpt_t_min   0.961
_shelx_estimated_absorpt_t_max   0.988
_shelx_hkl_file
;
  -1   0   0   24.50    1.60
  -1   0   0   25.70    1.70
   1   0   0   21.30    1.70
   1   0   0   20.20    1.70
  -3   0   0   19.70    2.00
  -3   0   0   17.00    1.80
  -3   0   0   18.00    1.80
   3   0   0   22.80    2.10
   3   0   0   20.80    1.90
   3   0   0   23.60    2.10
  -4   0   0 4534.45  261.17
  -4   0   0 4274.37  261.17
   4   0   0 3742.23  261.17
   4   0   0 4222.28  261.47
   4   0   0 4369.76  261.17
   4   0   0 4283.57  261.27
   4   0   0 4384.76  261.17
  -5   0   0    3.60    1.30
  -5   0   0    3.90    1.60
  -5   0   0    3.90    1.40
   5   0   0    2.30    1.30
   5   0   0    3.60    1.70
   5   0   0    2.90    1.40
   5   0   0    6.70    1.30
  -6   0   0  106.59    7.50
  -6   0   0  103.39    7.30
  -6   0   0   96.29    7.60
   6   0   0  105.79    7.30
   6   0   0  100.99    8.00
   6   0   0  111.79    7.20
   6   0   0   97.69    7.50
   6   0   0  112.69    7.60
   7   0   0    1.10    2.20
   7   0   0    1.20    1.70
   7   0   0    0.30    1.70
   7   0   0    4.10    1.60
   8   0   0  123.99   10.00
   8   0   0  154.78   11.00
   8   0   0  141.69   10.10
  -9   0   0   30.90    3.30
   9   0   0   32.90    5.00
   9   0   0   29.90    4.00
   9   0   0   26.30    3.90
  10   0   0    4.90    3.70
  10   0   0    6.40    2.90
  10   0   0    4.60    2.70
  11   0   0   37.00    4.90
  11   0   0   28.90    5.50
  11   0   0   23.30    4.30
  12   0   0   69.29    9.70
  12   0   0   78.69    8.60
  12   0   0   40.70    6.00
  12  -1   0   -1.70    3.00
  12  -1   0   -3.90    3.70
  11  -1   0    0.20    3.70
  11  -1   0    5.90    3.30
  11  -1   0    4.90    3.10
  10  -1   0    1.50    2.60
  10  -1   0   -1.70    3.20
  10  -1   0    2.40    2.70
   9  -1   0   47.70    5.10
   9  -1   0   47.40    6.00
   9  -1   0   49.10    5.30
   8  -1   0  379.06   28.20
   8  -1   0  460.45   28.30
   8  -1   0  461.85   27.90
   8  -1   0  431.16   29.10
   8  -1   0  468.35   28.30
   7  -1   0   63.59    5.30
   7  -1   0   77.29    6.40
   7  -1   0   57.09    5.40
   7  -1   0   61.09    5.60
  -7   1   0   64.59    5.40
  -7   1   0   68.39    4.90
  -7   1   0   67.29    6.40
   6  -1   0 3180.38  228.18
   6  -1   0 3867.91  228.08
   6  -1   0 3770.82  227.78
   6  -1   0 3648.54  227.88
   6  -1   0 3480.45  227.88
   6  -1   0 3918.51  227.58
  -6   1   0 4065.69  227.98
  -6   1   0 3741.93  228.08
   5  -1   0    3.00    1.80
   5  -1   0    6.10    1.50
   5  -1   0    2.70    1.50
   5  -1   0    2.50    1.00
   5  -1   0    2.30    1.30
   5  -1   0    3.90    1.30
  -5   1   0    3.30    1.40
  -5   1   0    5.10    1.60
   4  -1   0 7564.84  448.76
   4  -1   0 7559.84  448.26
   4  -1   0 7273.87  448.46
   4  -1   0 6939.71  448.46
   4  -1   0 7454.05  448.36
  -4   1   0 7087.29  448.26
   3  -1   0    1.10    0.90
   3  -1   0   -0.90    0.60
   3  -1   0    0.70    0.90
   3  -1   0    0.70    1.00
  -3   1   0    0.70    0.80
   1  -1   0    1.70    0.50
   1  -1   0    1.30    0.60
  -1   1   0    0.60    0.50
   0  -1   0 1405.56   86.19
  -1  -1   0    4.60    0.60
   1   1   0    5.00    0.70
  -2  -1   0 2239.18  138.69
  -2  -1   0 2242.98  138.79
  -2  -1   0 2317.27  138.59
   2   1   0 2246.78  138.69
  -3  -1   0    7.30    1.10
  -3  -1   0    5.20    0.80
   3   1   0    4.90    1.10
   3   1   0    3.40    0.80
   3   1   0    6.40    1.20
   3   1   0    7.10    1.20
  -4  -1   0  746.63   45.40
  -4  -1   0  736.73   45.50
   4   1   0  669.53   45.60
   4   1   0  758.72   45.60
   4   1   0  752.02   45.50
   4   1   0  748.63   45.80
  -5  -1   0    2.30    1.50
  -5  -1   0    2.20    1.20
  -5  -1   0    2.50    1.00
   5   1   0    2.40    1.60
   5   1   0    0.70    1.20
   5   1   0   -0.30    1.00
   5   1   0    1.30    1.30
  -6  -1   0  857.01   54.19
  -6  -1   0  876.81   53.79
  -6  -1   0  796.92   53.99
   6   1   0  869.31   53.99
   6   1   0  888.51   54.19
   6   1   0  947.81   54.69
   6   1   0  852.31   54.09
  -7  -1   0   17.30    2.60
   7   1   0   22.80    3.40
   7   1   0   16.60    2.70
   7   1   0   17.30    2.40
   7   1   0   13.10    2.60
  -8  -1   0   -2.20    1.80
   8   1   0    4.40    2.20
   8   1   0   -0.80    1.80
   8   1   0   -2.90    2.10
   9   1   0    7.40    2.70
   9   1   0    7.50    3.40
   9   1   0    9.30    2.80
  10   1   0   65.19    6.90
  10   1   0   83.99    8.40
  10   1   0   72.59    7.20
  11   1   0   10.60    4.10
  11   1   0    1.00    3.00
  11   1   0    3.80    3.10
  12   1   0   35.50    5.20
  12   1   0   37.20    5.20
  12   1   0   24.60    5.60
  12  -2   0  122.09   12.30
  12  -2   0  138.59   11.10
  11  -2   0   27.10    5.60
  11  -2   0   36.40    5.20
  11  -2   0   24.80    4.60
  10  -2   0  596.14   38.50
  10  -2   0  604.74   37.70
  10  -2   0  544.25   37.30
   9  -2   0   18.00    4.20
   9  -2   0   14.50    3.20
   9  -2   0   13.60    3.00
   9  -2   0    9.80    2.20
   8  -2   0 2084.79  122.29
   8  -2   0 1958.30  122.59
   8  -2   0 1891.71  123.09
   8  -2   0 1978.30  122.29
   7  -2   0    6.40    1.80
   7  -2   0    2.80    2.50
   7  -2   0    5.50    1.80
   7  -2   0    1.30    2.00
  -7   2   0    2.50    1.80
  -7   2   0    4.70    2.30
   6  -2   0 1362.76   83.19
   6  -2   0 1371.26   83.89
   6  -2   0 1276.97   83.29
   6  -2   0 1287.57   83.19
   6  -2   0 1429.76   83.59
  -6   2   0 1297.87   83.39
  -6   2   0 1410.16   83.59
   5  -2   0   18.00    2.30
   5  -2   0   14.90    1.90
   5  -2   0    9.80    2.20
   5  -2   0   16.60    2.00
   5  -2   0   14.50    1.90
  -5   2   0   13.80    2.20
  -5   2   0   14.10    2.20
   4  -2   0 2351.96  161.38
   4  -2   0 2654.63  161.08
   4  -2   0 2623.14  161.08
   4  -2   0 2671.83  161.28
   4  -2   0 2628.84  161.08
  -4   2   0 2726.03  161.28
  -4   2   0 2706.53  161.28
   3  -2   0  451.95   26.40
   3  -2   0  436.96   26.30
   3  -2   0  438.66   26.30
   3  -2   0  397.46   26.20
  -3   2   0  392.06   26.20
   2  -2   0  788.12   54.09
   2  -2   0  968.60   54.09
   1  -2   0 1391.16   85.39
   0  -2   0 6223.28  381.76
  -1  -2   0  643.84   39.50
  -1  -2   0  659.73   39.40
   1   2   0  620.24   39.50
  -2  -2   0   43.40    3.30
   2   2   0   44.90    3.20
   2   2   0   47.90    3.60
   2   2   0   50.59    3.40
  -3  -2   0  511.45   31.70
   3   2   0  501.85   31.80
   3   2   0  505.95   31.80
   3   2   0  524.85   31.80
  -4  -2   0  192.88   12.10
  -4  -2   0  181.08   11.70
   4   2   0  188.38   12.00
   4   2   0  190.68   12.20
   4   2   0  182.08   12.10
   4   2   0  192.58   12.20
   4   2   0  186.28   12.40
  -5  -2   0  304.97   18.00
  -5  -2   0  291.57   18.40
  -5  -2   0  304.17   18.60
   5   2   0  281.67   18.50
   5   2   0  285.47   18.80
   5   2   0  268.77   18.40
   5   2   0  281.27   18.10
   5   2   0  285.67   18.30
  -6  -2   0  201.98   13.20
  -6  -2   0  205.28   13.40
   6   2   0  206.38   13.40
   6   2   0  186.58   13.30
   6   2   0  192.88   13.00
   6   2   0  210.48   13.80
  -7  -2   0   89.89    6.20
   7   2   0   64.39    6.10
   7   2   0   83.79    6.40
   7   2   0   80.29    6.00
   7   2   0   76.19    6.90
  -8  -2   0   32.50    3.70
   8   2   0   22.90    3.60
   8   2   0   35.50    3.90
   8   2   0   26.50    4.30
  -9  -2   0   39.40    4.30
   9   2   0   28.80    4.10
   9   2   0   30.20    4.90
   9   2   0   29.20    4.10
  10   2   0   75.49    7.20
  10   2   0   78.09    8.40
  10   2   0   77.09    7.40
  11   2   0   -4.20    3.20
  11   2   0   -1.80    2.80
  11   2   0    5.00    3.00
  12   2   0   -4.60    3.80
  12   2   0   -2.60    3.10
  12   2   0    2.60    3.20
  11  -3   0    1.20    3.10
  11  -3   0    9.20    4.20
  10  -3   0  233.58   17.70
  10  -3   0  276.77   17.60
   9  -3   0   41.10    5.30
   9  -3   0   50.79    6.40
   9  -3   0   51.19    5.10
   8  -3   0   -0.50    1.80
   8  -3   0   -1.70    1.80
   8  -3   0   -1.30    2.30
   8  -3   0    0.50    2.70
  -8   3   0    5.70    2.30
   7  -3   0   10.50    2.60
   7  -3   0    4.70    2.00
   7  -3   0   10.50    2.20
   7  -3   0    9.10    2.20
   7  -3   0    7.20    2.80
  -7   3   0    7.90    2.40
  -7   3   0    7.60    2.50
   6  -3   0    8.40    1.90
   6  -3   0    7.90    1.90
   6  -3   0    8.20    2.20
   6  -3   0    4.10    2.20
   6  -3   0   12.30    1.90
  -6   3   0   14.00    2.40
  -6   3   0    8.30    2.30
   5  -3   0   13.00    2.30
   5  -3   0   12.40    2.40
   5  -3   0   16.10    2.00
   5  -3   0   12.70    2.00
   5  -3   0   13.10    1.90
  -5   3   0   16.70    2.30
  -5   3   0   13.90    2.40
   4  -3   0  894.51   54.19
   4  -3   0  929.21   54.69
   4  -3   0  809.72   54.09
   4  -3   0  843.72   54.19
  -4   3   0  910.21   54.49
   3  -3   0   37.50    3.10
   3  -3   0   41.00    3.10
   3  -3   0   40.60    3.00
  -3   3   0   40.10    3.50
  -3   3   0   36.40    3.00
   2  -3   0 1974.30  118.49
   2  -3   0 1885.91  118.59
   1  -3   0   -0.70    0.50
   0  -3   0 2856.91  175.18
  -1  -3   0   23.70    2.00
  -1  -3   0   21.30    1.80
   1   3   0   21.80    1.90
  -2  -3   0    0.90    0.80
  -2  -3   0    1.70    0.70
   2   3   0    2.50    0.90
   2   3   0    0.80    0.60
  -3  -3   0   78.19    5.40
   3   3   0   73.89    5.50
   3   3   0   81.09    5.50
   3   3   0   70.49    5.60
   3   3   0   84.39    5.40
   3   3   0   85.59    5.60
  -4  -3   0  331.67   21.60
   4   3   0  327.37   21.40
   4   3   0  341.67   21.70
   4   3   0  373.76   22.00
   4   3   0  346.57   21.70
   4   3   0  325.97   21.50
   4   3   0  357.66   21.70
  -5  -3   0   33.70    3.40
  -5  -3   0   33.60    3.20
   5   3   0   31.00    3.20
   5   3   0   30.20    3.20
   5   3   0   34.80    2.90
   5   3   0   41.20    3.80
   5   3   0   26.50    3.10
   5   3   0   35.50    3.10
  -6  -3   0   49.20    3.90
   6   3   0   31.50    4.20
   6   3   0   37.30    3.90
   6   3   0   50.79    3.90
   6   3   0   43.40    4.00
  -7  -3   0   11.50    2.30
   7   3   0   21.10    2.90
   7   3   0   17.40    3.10
   7   3   0   12.90    2.60
   7   3   0   15.50    2.30
  -8  -3   0  117.49    8.70
   8   3   0  116.09    9.50
   8   3   0  115.89    9.10
   8   3   0  117.69    9.00
  -9  -3   0    5.30    2.40
   9   3   0   -0.40    2.30
   9   3   0    2.10    2.30
   9   3   0    1.80    2.80
 -10  -3   0   36.90    4.70
  10   3   0   38.30    5.00
  10   3   0   38.90    5.80
  10   3   0   28.70    4.40
  11   3   0    0.90    2.80
  11   3   0    2.40    3.80
  11   3   0    8.60    3.30
  12   3   0   13.70    3.70
  12   3   0    9.00    3.80
  12   3   0   12.00    4.60
  11  -4   0   15.10    5.00
  11  -4   0   22.90    4.40
  10  -4   0    0.80    3.60
  10  -4   0    1.60    2.90
   9  -4   0    7.10    3.60
   9  -4   0   12.70    3.50
   9  -4   0   10.00    2.80
   8  -4   0    0.50    2.30
   8  -4   0    0.90    2.00
   8  -4   0   -1.00    2.80
   8  -4   0   -1.80    1.90
  -8   4   0    1.40    2.30
  -8   4   0    1.10    1.80
   7  -4   0   90.39    7.70
   7  -4   0  103.59    7.40
   7  -4   0   94.49    7.30
   7  -4   0   89.59    8.20
  -7   4   0  107.59    8.00
  -7   4   0  100.39    8.00
   6  -4   0    5.80    2.00
   6  -4   0   -0.20    1.80
   6  -4   0    2.10    1.60
   6  -4   0    1.50    1.50
   6  -4   0    1.80    1.40
  -6   4   0    3.40    1.50
  -6   4   0    0.30    2.00
  -6   4   0    3.10    2.10
   5  -4   0  208.78   14.50
   5  -4   0  235.48   14.90
   5  -4   0  219.68   14.40
   5  -4   0  215.78   14.50
   5  -4   0  216.08   15.10
  -5   4   0  226.98   14.90
  -5   4   0  258.67   14.60
  -5   4   0  212.78   15.00
   4  -4   0   75.19    5.50
   4  -4   0   72.59    5.20
   4  -4   0   66.59    5.10
   4  -4   0   74.49    5.80
  -4   4   0   65.99    5.10
  -4   4   0   75.39    5.60
   3  -4   0  430.46   26.50
   3  -4   0  420.36   26.00
   3  -4   0  364.36   26.10
  -3   4   0  392.26   26.30
  -3   4   0  479.45   26.10
   2  -4   0 1562.24   94.59
  -2   4   0 1547.35   94.79
  -2   4   0 1505.65   94.59
   1  -4   0 1326.77   80.49
   1  -4   0 1323.57   80.49
  -1   4   0 1274.87   80.49
   0  -4   0  728.73   45.80
   0  -4   0  761.22   45.80
   0   4   0  737.23   45.90
  -1  -4   0 2840.92  182.88
  -1  -4   0 3087.89  182.78
   1   4   0 2799.52  182.98
   1   4   0 2961.90  182.88
   1   4   0 3218.88  183.08
  -2  -4   0  410.36   26.00
  -2  -4   0  408.46   26.20
   2   4   0  461.45   26.30
   2   4   0  419.76   26.40
   2   4   0  401.36   26.10
  -3  -4   0  879.91   55.69
   3   4   0  955.30   56.09
   3   4   0  888.21   55.69
   3   4   0  915.91   55.79
   3   4   0  866.91   55.79
  -4  -4   0  228.98   14.20
  -4  -4   0  217.68   14.00
   4   4   0  217.68   14.00
   4   4   0  203.18   14.10
   4   4   0  232.88   14.50
   4   4   0  205.88   14.20
  -5  -4   0  130.09    8.60
  -5  -4   0  122.79    8.70
   5   4   0  133.99    9.10
   5   4   0  123.09    8.40
   5   4   0  125.99    8.70
   5   4   0  116.69    8.60
   5   4   0  116.99    8.70
  -6  -4   0  195.88   12.70
   6   4   0  185.48   12.80
   6   4   0  191.08   12.90
   6   4   0  186.58   12.90
   6   4   0  197.08   13.40
   6   4   0  183.68   12.50
  -7  -4   0   -1.00    1.60
   7   4   0    1.30    1.90
   7   4   0   -1.00    1.70
   7   4   0    0.80    2.10
  -8  -4   0  222.88   14.00
   8   4   0  220.68   14.20
   8   4   0  191.28   14.70
   8   4   0  177.48   13.80
  -9  -4   0    4.70    2.40
   9   4   0    2.30    3.00
   9   4   0    7.70    2.80
   9   4   0    7.20    2.70
 -10  -4   0   31.60    4.40
  10   4   0   29.30    4.50
  10   4   0   35.30    4.60
  10   4   0   26.80    5.10
  11   4   0    1.80    2.90
  11   4   0    2.70    3.90
  11   4   0    3.20    2.90
  11  -5   0    7.50    3.60
  10  -5   0    3.60    3.90
  10  -5   0    2.50    3.30
   9  -5   0    8.20    3.80
   9  -5   0   13.20    3.60
  -9   5   0   13.20    3.50
   8  -5   0    0.80    2.40
   8  -5   0   -1.40    1.90
   8  -5   0    0.60    3.00
  -8   5   0    7.30    2.80
  -8   5   0   -2.90    2.20
   7  -5   0   -0.40    2.10
   7  -5   0    3.20    2.60
   7  -5   0    0.80    1.80
  -7   5   0   -0.70    2.20
  -7   5   0    2.90    1.80
  -7   5   0    1.90    2.30
   6  -5   0  100.69    7.30
   6  -5   0  114.59    8.30
   6  -5   0   97.09    7.60
  -6   5   0   96.59    7.80
  -6   5   0   92.19    7.10
  -6   5   0   85.99    7.60
   5  -5   0    1.50    1.70
   5  -5   0   -0.70    1.40
   5  -5   0    0.50    1.70
   5  -5   0   -0.10    1.10
  -5   5   0    1.00    1.30
  -5   5   0    0.80    1.80
   4  -5   0  168.38   11.70
   4  -5   0  165.48   11.20
   4  -5   0  181.58   11.00
  -4   5   0  166.08   11.40
  -4   5   0  158.58   11.00
   3  -5   0   29.20    2.40
   3  -5   0   23.10    2.50
   3  -5   0   21.20    3.00
  -3   5   0   21.90    2.60
  -3   5   0   24.60    2.40
   2  -5   0  256.37   16.10
  -2   5   0  248.38   16.00
  -2   5   0  253.37   16.20
   1  -5   0  339.87   20.90
   1  -5   0  346.97   20.80
  -1   5   0  312.87   20.90
  -1   5   0  327.17   20.80
   0  -5   0  159.88    9.60
   0  -5   0  151.28    9.70
   0   5   0  142.89    9.80
   0   5   0  142.99    9.70
  -1  -5   0   15.00    1.50
   1   5   0    8.60    1.70
   1   5   0   14.20    1.80
   1   5   0   13.00    1.60
  -2  -5   0  335.27   20.10
  -2  -5   0  336.27   20.30
   2   5   0  283.07   20.20
   2   5   0  325.17   20.60
   2   5   0  321.97   20.20
   2   5   0  325.17   20.40
  -3  -5   0   71.49    5.30
  -3  -5   0   71.29    5.40
   3   5   0   80.09    5.40
   3   5   0   67.89    5.60
   3   5   0   72.89    5.20
  -4  -5   0   19.90    2.50
  -4  -5   0   22.60    2.40
   4   5   0   14.80    2.30
   4   5   0   16.20    2.10
   4   5   0   17.50    2.40
   4   5   0   21.70    2.90
   4   5   0   18.60    2.30
  -5  -5   0  119.09    8.10
  -5  -5   0  120.29    8.30
   5   5   0  111.19    7.90
   5   5   0  107.59    8.20
   5   5   0  115.19    8.30
   5   5   0  114.89    8.60
   5   5   0  116.19    8.20
  -6  -5   0  878.61   53.19
   6   5   0  716.43   53.19
   6   5   0  918.61   53.39
   6   5   0  895.21   52.99
   6   5   0  892.71   53.89
   6   5   0  817.42   53.29
  -7  -5   0    4.90    2.00
   7   5   0    6.70    2.30
   7   5   0    1.10    2.40
   7   5   0   10.40    2.40
  -8  -5   0   65.89    5.80
   8   5   0   60.69    6.80
   8   5   0   64.59    6.00
   8   5   0   56.29    5.90
  -9  -5   0   52.19    5.60
   9   5   0   49.99    5.80
   9   5   0   55.09    5.70
   9   5   0   59.99    6.90
 -10  -5   0    2.50    2.40
  10   5   0    2.10    2.70
  10   5   0   -0.20    3.00
  10   5   0    4.40    3.60
  11   5   0   52.09    7.30
  11   5   0   44.70    6.10
  11   5   0   53.89    6.10
  11  -6   0   21.00    4.60
  10  -6   0    0.00    3.20
   9  -6   0    4.60    3.10
   9  -6   0    8.20    3.80
  -9   6   0    4.20    3.10
   8  -6   0   78.09    8.00
   8  -6   0   80.59    8.00
   8  -6   0   71.49    7.00
   8  -6   0   64.99    6.30
  -8   6   0   66.89    7.10
   7  -6   0   22.30    4.20
   7  -6   0   33.40    4.20
   7  -6   0   27.80    3.50
  -7   6   0   33.20    4.40
  -7   6   0   28.30    3.30
  -7   6   0   24.50    4.00
   6  -6   0    6.00    2.30
   6  -6   0    6.80    2.60
   6  -6   0    6.20    2.00
  -6   6   0    8.20    2.00
  -6   6   0    9.20    2.80
  -6   6   0    3.30    2.20
   5  -6   0   76.19    5.60
   5  -6   0   68.19    6.00
   5  -6   0   77.09    6.30
   5  -6   0   89.39    6.90
  -5   6   0   87.89    6.60
  -5   6   0   69.59    5.80
   4  -6   0   62.89    4.40
   4  -6   0   54.09    4.50
   4  -6   0   48.90    5.10
  -4   6   0   49.10    4.30
  -4   6   0   56.79    4.90
   3  -6   0  174.88   11.00
   3  -6   0  180.98   11.50
   3  -6   0  162.18   10.70
  -3   6   0  152.48   10.70
  -3   6   0  137.89   11.20
  -3   6   0  179.38   11.20
   2  -6   0  150.18    9.80
   2  -6   0  154.08    9.80
   2  -6   0  162.58   10.30
  -2   6   0  134.19    9.90
  -2   6   0  136.49    9.70
   1  -6   0   -0.10    0.90
   1  -6   0    0.70    1.10
  -1   6   0    4.10    1.30
  -1   6   0    0.50    1.20
  -1   6   0    0.00    1.10
   0  -6   0  347.57   21.20
   0  -6   0  339.77   21.10
   0   6   0  335.07   21.50
   0   6   0  311.47   21.30
   0   6   0  346.27   21.30
  -1  -6   0   29.40    2.90
  -1  -6   0   31.40    2.70
   1   6   0   29.60    3.00
   1   6   0   31.80    3.10
   1   6   0   37.20    3.30
  -2  -6   0   73.19    5.20
   2   6   0   76.79    5.70
   2   6   0   72.39    5.60
   2   6   0   78.89    5.40
  -3  -6   0    0.70    0.90
  -3  -6   0    1.10    1.20
  -3  -6   0   -0.20    1.20
   3   6   0    1.50    1.30
   3   6   0    0.30    1.40
   3   6   0   -0.10    1.50
   3   6   0    1.90    1.10
   3   6   0   -0.30    1.20
  -4  -6   0  134.69    9.70
  -4  -6   0  143.19    9.50
   4   6   0  135.39    9.60
   4   6   0  138.99    9.60
   4   6   0  135.19    9.60
   4   6   0  146.39   10.00
   4   6   0  141.49    9.40
  -5  -6   0  122.09    8.80
   5   6   0  129.29    8.70
   5   6   0  120.49    8.90
   5   6   0  128.49    9.10
   5   6   0  122.89    9.00
   5   6   0  130.69    9.40
  -6  -6   0   64.89    5.90
   6   6   0   75.19    6.20
   6   6   0   77.29    6.10
   6   6   0   72.49    5.60
   6   6   0   74.89    6.00
   6   6   0   63.99    6.50
  -7  -6   0  321.97   20.50
   7   6   0  319.57   20.70
   7   6   0  296.97   20.60
   7   6   0  316.47   21.30
   7   6   0  302.47   20.60
  -8  -6   0  229.08   14.20
   8   6   0  155.98   14.50
   8   6   0  220.68   14.30
   8   6   0  213.68   14.40
  -9  -6   0   97.29    8.00
   9   6   0   95.89    8.10
   9   6   0   82.79    8.70
   9   6   0   93.49    8.50
 -10  -6   0   11.40    3.20
  10   6   0   10.90    3.30
  10   6   0   14.90    4.40
  10   6   0   16.90    4.00
  11   6   0   11.10    4.00
  11   6   0   16.10    4.80
  11   6   0   12.00    3.50
  10  -7   0   -3.50    2.90
   9  -7   0   -3.60    2.40
  -9   7   0   -3.10    3.10
   8  -7   0   89.99    9.90
   8  -7   0  104.69   10.30
   8  -7   0  101.39    8.80
  -8   7   0  111.29    9.30
   7  -7   0    2.00    2.30
   7  -7   0    1.70    2.70
   7  -7   0   -0.90    2.10
  -7   7   0    1.20    2.60
  -7   7   0    3.30    3.00
   6  -7   0  104.49    9.40
   6  -7   0  118.09    8.70
   6  -7   0  134.09    9.20
  -6   7   0  111.09    8.40
  -6   7   0  121.19    9.20
  -6   7   0  113.09    9.50
   5  -7   0    1.00    2.20
   5  -7   0    0.10    1.70
  -5   7   0   -0.80    2.10
  -5   7   0    0.60    1.50
   4  -7   0    8.50    2.00
   4  -7   0    9.10    1.60
   4  -7   0    6.50    2.40
  -4   7   0   10.40    2.40
  -4   7   0    9.10    1.90
   3  -7   0   26.40    3.00
   3  -7   0   27.60    2.90
   3  -7   0   32.40    2.90
   3  -7   0   25.00    3.50
  -3   7   0   23.30    3.10
  -3   7   0   26.20    3.50
  -3   7   0   30.00    3.00
   2  -7   0  318.27   24.40
   2  -7   0  379.96   24.00
   2  -7   0  388.76   24.10
  -2   7   0  395.96   24.30
  -2   7   0  385.66   24.00
  -2   7   0  412.66   24.60
   1  -7   0   -0.90    1.10
   1  -7   0    1.10    1.20
  -1   7   0    0.90    1.50
  -1   7   0    1.10    1.40
  -1   7   0   -2.50    1.20
   0  -7   0  130.59    9.20
   0  -7   0  136.09    9.10
   0   7   0  140.89    9.50
   0   7   0  148.69    9.70
   0   7   0  130.79    9.30
  -1  -7   0  284.57   18.70
  -1  -7   0  298.17   18.90
  -1  -7   0  334.47   19.20
   1   7   0  297.97   19.30
   1   7   0  304.87   19.10
   1   7   0  264.47   19.00
  -2  -7   0    2.30    1.40
  -2  -7   0    1.50    1.20
  -2  -7   0    0.70    1.00
   2   7   0   -0.80    1.40
   2   7   0    1.00    1.20
   2   7   0    1.90    1.40
   2   7   0    0.80    1.50
  -3  -7   0  594.84   35.40
  -3  -7   0  596.94   36.00
  -3  -7   0  594.54   35.80
   3   7   0  586.04   35.90
   3   7   0  588.44   35.70
   3   7   0  609.54   35.90
   3   7   0  491.25   35.70
   3   7   0  500.45   36.10
  -4  -7   0  137.39    9.70
  -4  -7   0  141.09    9.50
   4   7   0  140.89    9.70
   4   7   0  127.39    9.60
   4   7   0  129.59    9.30
   4   7   0  132.99    9.60
   4   7   0  146.59   10.10
  -5  -7   0  486.25   31.70
   5   7   0  524.65   31.60
   5   7   0  496.55   31.80
   5   7   0  505.15   31.90
   5   7   0  477.65   32.20
   5   7   0  511.65   31.90
  -6  -7   0  273.87   18.10
   6   7   0  277.97   18.30
   6   7   0  217.38   18.40
   6   7   0  327.77   18.60
   6   7   0  286.07   18.20
  -7  -7   0   33.10    4.00
   7   7   0   35.40    4.40
   7   7   0   28.20    4.60
   7   7   0   35.30    4.20
   7   7   0   36.70    4.40
  -8  -7   0    6.60    2.50
   8   7   0    3.50    2.70
   8   7   0    7.30    3.20
   8   7   0    3.90    2.40
  -9  -7   0   -2.00    2.10
   9   7   0    2.50    2.80
   9   7   0    1.20    3.20
   9   7   0    1.30    2.50
  10   7   0   -3.50    2.40
  10   7   0   -1.80    3.00
  10   7   0    0.40    3.50
  11   7   0    5.40    4.00
  11   7   0   -4.10    3.00
  11   7   0   -2.00    2.60
  10  -8   0   20.60    4.50
   9  -8   0   19.20    4.20
  -9   8   0   16.20    4.50
   8  -8   0    2.20    2.80
  -8   8   0    6.00    3.30
   7  -8   0    1.30    2.40
   7  -8   0    5.80    2.50
  -7   8   0    4.40    3.10
  -7   8   0    1.30    2.90
   6  -8   0  258.97   16.90
   6  -8   0  229.08   17.20
  -6   8   0  280.27   17.60
  -6   8   0  238.58   17.60
  -6   8   0  252.37   16.70
   5  -8   0    0.70    1.80
   5  -8   0   -2.50    1.60
   5  -8   0   -1.00    2.20
  -5   8   0   -0.80    1.60
  -5   8   0    0.90    2.20
  -5   8   0   -2.30    2.40
   4  -8   0  202.48   13.10
   4  -8   0  174.98   12.10
   4  -8   0  155.58   12.10
  -4   8   0  174.48   12.00
  -4   8   0  186.08   12.60
   3  -8   0    2.50    1.70
   3  -8   0    4.20    1.50
   3  -8   0    1.60    2.20
   3  -8   0    1.50    1.60
  -3   8   0    1.10    1.60
  -3   8   0    2.70    1.80
  -3   8   0    3.70    2.30
   2  -8   0 1148.09   70.79
   2  -8   0 1156.28   70.79
  -2   8   0  968.70   70.89
  -2   8   0 1198.38   70.79
  -2   8   0 1237.78   71.39
   1  -8   0  131.19    9.20
   1  -8   0  139.79    9.30
  -1   8   0  134.39    9.60
  -1   8   0  133.39    9.40
  -1   8   0  135.99    9.80
   0  -8   0  535.75   34.20
   0  -8   0  522.55   34.30
   0   8   0  531.95   34.40
   0   8   0  571.64   34.90
   0   8   0  571.74   34.60
  -1  -8   0   41.40    3.40
  -1  -8   0   34.40    3.50
   1   8   0   39.10    3.60
   1   8   0   32.00    3.70
   1   8   0   47.90    4.40
   1   8   0   42.10    4.10
  -2  -8   0  163.38   11.30
  -2  -8   0  175.28   11.70
  -2  -8   0  184.18   12.00
   2   8   0  173.28   11.60
   2   8   0  181.18   12.20
   2   8   0  173.58   11.80
   2   8   0  170.18   11.90
  -3  -8   0    2.90    1.40
  -3  -8   0    3.90    1.20
  -3  -8   0    1.10    1.70
   3   8   0    6.10    1.60
   3   8   0    2.70    1.80
   3   8   0   -1.20    1.70
   3   8   0    4.70    2.00
   3   8   0    2.90    1.70
  -4  -8   0  329.57   21.30
   4   8   0  309.77   21.10
   4   8   0  324.67   21.50
   4   8   0  324.07   22.00
   4   8   0  370.06   21.70
   4   8   0  325.57   21.60
  -5  -8   0  201.78   13.20
   5   8   0  191.58   12.90
   5   8   0  178.68   13.20
   5   8   0  187.98   13.30
   5   8   0  194.58   13.40
   5   8   0  204.58   14.10
  -6  -8   0   45.00    4.50
   6   8   0   35.40    4.40
   6   8   0   44.60    4.60
   6   8   0   41.20    4.90
   6   8   0   36.90    5.10
  -7  -8   0  116.29    8.90
   7   8   0   97.79    9.50
   7   8   0  124.99    9.50
   7   8   0  119.69    9.20
   7   8   0  117.39    9.00
  -8  -8   0   -5.80    2.10
   8   8   0    3.30    3.00
   8   8   0   -1.40    2.30
   8   8   0    1.90    2.70
  -9  -8   0    1.00    2.40
   9   8   0    0.70    2.60
   9   8   0    0.70    3.30
   9   8   0   -0.50    2.80
  10   8   0    1.90    2.80
  10   8   0    4.30    3.50
  10   8   0    7.10    4.00
  10  -9   0    5.00    3.70
   9  -9   0    2.20    3.20
  -9   9   0    0.20    3.70
   8  -9   0  195.98   15.40
  -8   9   0  231.38   16.40
   7  -9   0    6.30    2.70
   7  -9   0    8.50    2.80
   7  -9   0   14.50    3.40
  -7   9   0   10.00    3.60
  -7   9   0   13.30    4.00
   6  -9   0   39.50    4.70
   6  -9   0   48.80    5.40
   6  -9   0   48.20    4.90
  -6   9   0   48.20    6.00
  -6   9   0   45.90    5.50
   5  -9   0   21.10    3.30
   5  -9   0   25.20    3.50
  -5   9   0   18.40    3.50
  -5   9   0   24.70    3.30
  -5   9   0   21.60    4.00
   4  -9   0  100.39    7.40
   4  -9   0   96.99    7.50
  -4   9   0   97.19    8.00
  -4   9   0   87.99    7.30
   3  -9   0    2.80    1.60
   3  -9   0   -0.10    1.70
   3  -9   0    1.50    1.60
  -3   9   0   -0.90    1.60
  -3   9   0   -1.40    1.80
   2  -9   0    6.20    1.90
   2  -9   0    9.30    2.10
  -2   9   0   11.10    2.60
  -2   9   0    4.90    2.30
  -2   9   0    6.50    2.10
   1  -9   0   51.99    4.40
   1  -9   0   51.09    4.70
  -1   9   0   52.59    4.80
  -1   9   0   43.20    4.80
  -1   9   0   59.19    5.40
   0  -9   0   83.49    5.80
   0  -9   0   80.09    6.20
   0   9   0   72.89    6.20
   0   9   0   79.89    6.40
   0   9   0   73.69    6.70
  -1  -9   0  132.19   10.10
  -1  -9   0  153.28    9.90
   1   9   0  154.58   10.50
   1   9   0  141.89   10.70
   1   9   0  151.18   10.10
   1   9   0  150.48   10.40
  -2  -9   0   61.19    5.30
  -2  -9   0   62.39    4.90
  -2  -9   0   71.49    5.70
   2   9   0   66.49    5.60
   2   9   0   63.39    5.60
   2   9   0   57.29    5.20
   2   9   0   67.49    6.10
  -3  -9   0  131.69    8.90
  -3  -9   0  133.89    9.70
  -3  -9   0  138.19    9.40
   3   9   0  134.89    9.30
   3   9   0  121.89    9.60
   3   9   0  135.99    9.70
   3   9   0  131.09    9.60
  -4  -9   0  103.49    7.90
   4   9   0  108.19    8.30
   4   9   0   95.99    8.00
   4   9   0  116.39    8.90
   4   9   0  101.99    8.20
   4   9   0  109.29    7.80
  -5  -9   0    1.80    1.90
   5   9   0    0.60    2.00
   5   9   0    1.40    2.50
   5   9   0   -2.40    2.10
   5   9   0    0.40    2.20
  -6  -9   0   -0.20    2.00
   6   9   0   -0.30    2.20
   6   9   0    0.80    2.30
   6   9   0    0.60    2.80
   6   9   0   -1.00    2.20
  -7  -9   0  211.78   14.50
   7   9   0  212.68   14.90
   7   9   0  208.98   14.60
   7   9   0  182.68   14.60
   7   9   0  213.18   15.70
  -8  -9   0    0.70    2.30
   8   9   0    1.60    3.40
   8   9   0    5.80    3.00
   8   9   0    1.20    2.60
   9   9   0  180.08   14.10
   9   9   0  151.28   12.70
   9   9   0  160.78   12.40
  10   9   0   20.80    4.10
  10   9   0   22.10    5.40
  10   9   0   10.70    4.10
   9 -10   0   69.59    7.70
   8 -10   0   13.20    4.00
  -8  10   0   20.50    4.80
   7 -10   0  175.58   13.70
   7 -10   0  212.38   13.80
   7 -10   0  166.08   14.00
  -7  10   0  189.98   14.50
  -7  10   0  221.68   15.40
   6 -10   0    1.70    2.30
   6 -10   0    4.10    2.50
   6 -10   0    0.90    2.50
  -6  10   0    4.50    3.00
  -6  10   0    0.80    3.30
   5 -10   0  196.38   14.10
   5 -10   0  214.98   14.10
  -5  10   0  209.48   14.70
  -5  10   0  203.78   14.00
  -5  10   0  191.08   15.00
   4 -10   0    4.00    2.20
   4 -10   0   -0.60    1.90
  -4  10   0    3.10    2.10
  -4  10   0   -2.20    2.50
   3 -10   0  331.27   21.50
   3 -10   0  330.77   21.60
  -3  10   0  351.06   21.70
  -3  10   0  308.57   22.00
   2 -10   0   45.20    4.30
   2 -10   0   56.59    4.90
  -2  10   0   35.30    4.70
  -2  10   0   44.90    4.60
   1 -10   0  269.57   18.30
   1 -10   0  288.27   18.20
  -1  10   0  288.17   18.50
  -1  10   0  246.58   18.80
  -1  10   0  305.67   18.80
   0 -10   0  115.69    8.20
   0 -10   0  121.79    8.60
   0  10   0  108.49    8.80
   0  10   0  119.39    9.30
   0  10   0  114.99    8.70
  -1 -10   0   25.80    3.30
  -1 -10   0   26.00    3.00
   1  10   0   26.70    3.60
   1  10   0   24.50    3.50
   1  10   0   37.50    3.60
   1  10   0   40.50    4.60
  -2 -10   0   31.00    3.60
  -2 -10   0   30.80    3.20
   2  10   0   32.10    3.50
   2  10   0   36.90    4.50
   2  10   0   33.60    4.00
   2  10   0   26.30    3.80
  -3 -10   0   73.59    6.10
   3  10   0   68.09    5.90
   3  10   0   94.49    7.40
   3  10   0   70.99    6.30
   3  10   0   64.69    6.40
   3  10   0   63.49    6.20
  -4 -10   0   16.20    2.80
   4  10   0   13.20    3.10
   4  10   0   16.50    3.20
   4  10   0   24.30    3.60
   4  10   0   12.50    3.40
  -5 -10   0  370.26   24.00
   5  10   0  380.16   24.20
   5  10   0  357.26   24.20
   5  10   0  353.96   24.10
  -6 -10   0    1.20    2.10
   6  10   0    4.00    2.60
   6  10   0    1.10    2.80
   6  10   0   -2.50    2.50
   6  10   0    4.70    2.60
  -7 -10   0   91.09    8.20
   7  10   0   88.89    8.70
   7  10   0  101.79    8.50
   7  10   0  100.49    8.70
   7  10   0  109.59    9.60
  -8 -10   0   82.59    7.70
   8  10   0   85.99    8.40
   8  10   0   95.69    9.60
   8  10   0   97.49    8.10
   8  10   0   73.29    8.00
   9  10   0    1.40    3.20
   9  10   0    1.70    3.70
   9  10   0    4.10    3.10
   8 -11   0   54.59    6.80
   7 -11   0   30.90    5.50
   7 -11   0   34.70    5.40
  -7  11   0   40.00    6.20
  -7  11   0   35.60    5.70
   6 -11   0   -0.10    2.70
   6 -11   0   -1.10    2.40
   6 -11   0   -0.20    2.30
  -6  11   0    5.30    3.30
  -6  11   0    0.20    3.50
   5 -11   0    3.80    2.40
   5 -11   0    3.90    2.40
  -5  11   0    3.70    3.50
  -5  11   0    7.90    3.20
   4 -11   0   19.00    3.40
   4 -11   0   24.20    3.40
  -4  11   0   14.40    3.90
  -4  11   0   22.10    3.40
  -4  11   0   25.30    4.30
   3 -11   0   19.20    3.10
   3 -11   0   22.60    3.40
  -3  11   0   18.90    3.30
  -3  11   0   21.90    3.70
   2 -11   0   55.79    5.70
   2 -11   0   62.59    5.50
  -2  11   0   62.39    6.50
  -2  11   0   66.59    6.00
   1 -11   0  257.07   16.60
   1 -11   0  250.67   16.20
  -1  11   0  239.48   16.60
  -1  11   0  212.48   17.00
  -1  11   0  267.97   17.00
   0 -11   0   30.10    3.90
   0 -11   0   37.20    3.70
   0  11   0   31.40    4.40
   0  11   0   45.90    5.40
   0  11   0   35.00    4.20
  -1 -11   0  429.76   27.30
  -1 -11   0  420.86   27.70
   1  11   0  425.96   28.60
   1  11   0  422.06   27.60
   1  11   0  434.76   28.00
   1  11   0  446.36   27.90
  -2 -11   0  102.39    7.70
   2  11   0  101.49    8.00
   2  11   0   97.09    7.50
   2  11   0   83.29    7.80
  -3 -11   0  417.96   26.90
   3  11   0  447.66   27.90
   3  11   0  412.16   27.20
   3  11   0  381.26   27.00
   3  11   0  419.16   27.10
  -4 -11   0    2.40    2.00
   4  11   0    2.80    2.50
   4  11   0    2.30    2.80
   4  11   0    2.00    2.50
   4  11   0    1.80    2.60
  -5 -11   0   22.60    3.50
   5  11   0   21.10    3.90
   5  11   0   24.90    4.00
   5  11   0   22.70    4.00
   5  11   0   18.80    4.40
  -6 -11   0   74.09    6.30
   6  11   0   49.40    6.80
   6  11   0   63.79    6.60
   6  11   0   55.89    6.10
   6  11   0   58.59    6.30
  -7 -11   0   11.80    3.00
   7  11   0    2.60    2.90
   7  11   0   11.60    3.40
   7  11   0    7.50    3.30
   7  11   0    3.60    3.50
   8  11   0    7.80    4.00
   8  11   0   11.60    3.90
   8  11   0   14.00    3.90
   8  11   0   12.00    3.60
   9  11   0    9.00    3.80
   9  11   0    6.10    3.30
   9  11   0    1.00    3.90
   8 -12   0    6.70    3.80
   7 -12   0    2.80    3.40
  -7  12   0    1.30    3.80
   6 -12   0    9.30    3.10
   6 -12   0    9.30    3.60
  -6  12   0    8.10    4.00
  -6  12   0    6.20    4.20
   5 -12   0    7.50    2.80
   5 -12   0   -2.50    2.10
  -5  12   0    1.30    3.50
  -5  12   0    4.70    3.30
   4 -12   0    8.70    2.50
   4 -12   0    6.10    2.60
  -4  12   0    5.70    2.70
  -4  12   0    0.60    3.50
  -4  12   0   -0.90    2.80
   3 -12   0   58.69    5.90
   3 -12   0   58.39    5.60
  -3  12   0   57.59    6.50
  -3  12   0   49.70    6.40
  -3  12   0   65.09    6.00
   2 -12   0  185.08   13.70
   2 -12   0  200.78   13.70
  -2  12   0  199.28   14.00
  -2  12   0  193.08   14.40
  -2  12   0  206.38   14.50
   1 -12   0   35.70    3.90
   1 -12   0   24.60    3.90
  -1  12   0   40.00    4.60
  -1  12   0   31.10    4.60
   0 -12   0  348.37   23.00
   0 -12   0  351.16   22.70
   0  12   0  385.66   23.50
   0  12   0  310.87   23.80
   0  12   0  345.97   22.90
   0  12   0  361.26   23.30
  -1 -12   0   19.10    3.10
   1  12   0   11.00    3.70
   1  12   0   11.10    2.60
   1  12   0    9.90    3.00
   1  12   0   12.50    3.10
  -2 -12   0    1.10    2.10
   2  12   0   -1.00    2.50
   2  12   0   -0.80    2.50
   2  12   0    5.30    2.70
  -3 -12   0   28.90    3.80
   3  12   0   20.40    4.20
   3  12   0   24.80    4.00
   3  12   0   17.70    3.70
   3  12   0   26.40    4.20
  -4 -12   0   28.80    4.00
   4  12   0   31.70    4.70
   4  12   0   34.00    4.60
   4  12   0   29.10    4.40
   4  12   0   34.60    5.30
  -5 -12   0   26.90    4.10
   5  12   0   27.30    4.60
   5  12   0   26.50    5.00
   5  12   0   25.90    4.50
   5  12   0   26.90    4.30
  -6 -12   0   20.30    3.60
   6  12   0   11.50    4.10
   6  12   0   22.70    4.30
   6  12   0   19.50    4.20
   6  12   0   18.00    3.90
   7  12   0    1.80    3.90
   7  12   0    8.80    3.40
   7  12   0    2.40    3.40
   7  12   0   10.40    3.60
   8  12   0    2.80    3.50
   8  12   0    6.10    3.60
   8  12   0    0.50    3.80
   8  12   0    2.90    3.20
   7 -13   0   38.60    6.10
  -7  13   0   46.10    6.70
   6 -13   0   30.60    5.30
  -6  13   0   36.20    6.00
   5 -13   0   84.39    8.00
  -5  13   0  103.69    9.60
  -5  13   0   83.99    9.00
   4 -13   0   81.09    7.70
   4 -13   0   93.99    7.90
  -4  13   0   92.79    8.70
  -4  13   0   80.29    8.70
   3 -13   0   42.60    5.00
   3 -13   0   41.60    5.10
  -3  13   0   47.60    6.40
  -3  13   0   46.80    5.50
  -3  13   0   56.19    6.40
   2 -13   0   83.89    7.30
   2 -13   0   95.99    7.80
  -2  13   0  102.09    8.60
  -2  13   0   88.99    7.90
  -2  13   0   79.79    8.40
   1 -13   0   28.30    4.00
   1 -13   0   23.30    3.40
  -1  13   0   24.10    4.10
  -1  13   0   31.20    4.80
  -1  13   0   31.00    4.70
   0 -13   0  112.79    9.00
   0  13   0  112.49    8.90
   0  13   0  109.19    9.40
   0  13   0  112.19    9.10
  -1 -13   0    5.40    2.60
   1  13   0    8.70    3.10
   1  13   0    5.00    2.90
  -2 -13   0   31.90    4.20
   2  13   0   30.90    4.60
   2  13   0   33.60    5.30
   2  13   0   22.40    4.40
  -3 -13   0   -3.00    2.20
   3  13   0    6.40    3.10
   3  13   0    3.20    2.80
   3  13   0    6.90    3.20
   3  13   0    6.50    3.40
  -4 -13   0   53.59    5.80
   4  13   0   58.39    6.30
   4  13   0   58.29    7.10
   4  13   0   50.79    6.30
   4  13   0   58.99    6.30
  -5 -13   0   46.20    5.60
   5  13   0   59.49    7.20
   5  13   0   60.09    6.50
   5  13   0   46.70    5.90
   5  13   0   51.09    6.20
   6  13   0   12.30    3.80
   6  13   0    4.40    3.40
   6  13   0    7.60    3.30
   6  13   0    4.40    3.70
   7  13   0   18.20    4.40
   7  13   0   13.70    4.20
   7  13   0   16.30    4.20
   7  13   0   18.20    5.10
   6 -14   0   60.49    7.60
  -6  14   0   71.99    8.20
  -5  14   0   17.30    4.70
   4 -14   0   43.60    6.50
  -4  14   0   50.79    8.00
  -4  14   0   49.90    6.60
   3 -14   0    6.40    3.10
  -3  14   0   14.40    4.40
  -3  14   0   20.10    4.50
   2 -14   0   58.69    5.70
  -2  14   0   46.40    6.20
  -2  14   0   40.00    5.90
  -2  14   0   48.20    5.70
   1 -14   0   12.30    3.40
  -1  14   0   17.90    4.20
  -1  14   0   23.00    4.10
  -1  14   0   19.90    4.90
   0 -14   0   -1.60    2.30
   0  14   0   -3.70    2.70
   0  14   0    0.80    3.20
  -1 -14   0    1.60    2.50
   1  14   0    5.20    3.20
   1  14   0    2.50    3.00
  -2 -14   0   36.80    4.70
   2  14   0   44.90    5.30
   2  14   0   23.90    4.60
   2  14   0   30.20    4.90
  -3 -14   0   15.40    3.50
   3  14   0   11.20    3.70
   3  14   0   14.60    4.00
   3  14   0   19.80    4.10
   4  14   0   54.39    6.40
   4  14   0   53.69    6.20
   4  14   0   51.19    6.40
   4  14   0   41.90    9.60
   5  14   0    6.50    3.60
   5  14   0    3.90    4.40
   5  14   0    5.70    3.50
   5  14   0    4.50    3.50
   6  14   0  175.38   13.90
   6  14   0  178.68   13.60
   6  14   0  169.88   13.80
  -4  15   0   87.19    9.20
  -3  15   0    1.90    3.70
  -2  15   0   -1.90    3.30
  -2  15   0   -1.50    3.40
  -2  15   0    3.50    4.10
  -1  15   0   27.60    5.10
  -1  15   0   28.80    4.80
   0  15   0   91.49    9.10
   0  15   0  110.29    9.80
   1  15   0   36.90    5.40
   1  15   0   27.50    4.80
   1  15   0   31.40    5.00
   2  15   0   47.90    6.20
   2  15   0   53.89    6.30
   2  15   0   49.30    6.30
   3  15   0   66.19    7.60
   3  15   0   79.39    8.10
   3  15   0   81.19    8.10
   4  15   0  136.39   11.30
   4  15   0  135.59   11.30
   4  15   0  122.49   11.30
  -1  16   0    6.70    3.70
  -1  16   0    8.30    4.30
   0  16   0   83.99    8.60
   0  16   0   72.69    7.90
   1  16   0   -1.70    3.50
   1  16   0    2.20    3.30
   1  16   0    1.40    3.10
   2  16   0  121.39   10.40
   2  16   0  111.99   10.50
   2  16   0  109.39   10.20
   1  16  -1   13.90    3.90
   1  16  -1   11.10    4.10
   0  16  -1   -1.80    3.60
   4  15  -1    2.20    3.30
   4  15  -1    1.90    3.30
   4  15  -1   -1.90    3.20
   4  15  -1   13.90    5.70
   3  15  -1    1.10    3.20
   3  15  -1    5.10    3.10
   3  15  -1    3.20    3.30
   2  15  -1   19.20    4.40
   2  15  -1   23.70    4.70
   2  15  -1   29.20    4.70
   1  15  -1    5.50    3.50
   1  15  -1    7.30    3.50
   1  15  -1    8.90    3.40
   0  15  -1   59.99    7.40
   0  15  -1   83.99    7.70
  -1  15  -1    0.30    3.30
  -2  15  -1   14.40    4.60
  -3  15  -1    3.20    3.70
  -4  15  -1  166.68   13.70
   5  14  -1   10.70    4.30
   5  14  -1   19.80    4.30
   5  14  -1   11.20    3.80
   5  14  -1   17.40    4.30
   4  14  -1   14.70    4.00
   4  14  -1   17.30    4.30
   4  14  -1   16.50    4.10
   4  14  -1   25.40    5.10
   3  14  -1   37.90    5.20
   3  14  -1   47.80    5.40
   3  14  -1   32.50    5.90
   3  14  -1   41.10    5.50
  -3 -14   1   35.80    4.90
   2  14  -1   86.59    8.10
   2  14  -1   74.09    7.60
   2  14  -1   74.39    7.50
   2  14  -1   71.79    8.60
  -2 -14   1   85.49    7.50
   1  14  -1   10.30    3.60
   1  14  -1   10.00    3.40
   1  14  -1   12.00    3.50
  -1 -14   1    2.60    2.60
   0  14  -1    6.80    3.40
   0  14  -1    5.50    3.10
   0 -14   1    2.60    2.70
  -1  14  -1    2.90    3.50
  -1  14  -1    7.00    3.10
   1 -14   1    2.90    2.70
  -2  14  -1   39.10    5.50
  -2  14  -1   33.80    5.40
   2 -14   1   37.40    4.90
  -3  14  -1   -4.30    3.20
  -3  14  -1   -1.50    3.00
   3 -14   1    1.50    2.60
  -4  14  -1    1.20    3.60
  -5  14  -1    7.10    4.20
   7  13  -1   12.70    3.90
   7  13  -1    7.30    3.90
   7  13  -1    7.60    4.30
   7  13  -1   14.50    3.60
   6  13  -1   25.60    4.50
   6  13  -1   19.20    4.80
   6  13  -1   18.20    4.20
   6  13  -1   12.90    3.80
   5  13  -1   17.00    3.90
   5  13  -1   21.40    4.30
   5  13  -1   10.30    4.10
   5  13  -1   15.40    3.80
  -5 -13   1   15.30    3.60
   4  13  -1   93.69    8.60
   4  13  -1  126.79   10.10
   4  13  -1   99.79    9.00
   4  13  -1   91.39    9.10
  -4 -13   1   97.79    8.50
   3  13  -1    5.30    3.10
   3  13  -1    1.30    2.90
   3  13  -1    3.00    2.70
   3  13  -1    1.00    3.00
  -3 -13   1    4.50    2.50
   2  13  -1    7.30    3.10
   2  13  -1    8.70    3.70
   2  13  -1    9.50    3.20
   2  13  -1    6.40    3.20
  -2 -13   1    8.50    2.70
   1  13  -1    3.60    3.00
   1  13  -1    6.70    3.50
   1  13  -1   -1.80    2.50
  -1 -13   1    6.40    2.50
   0  13  -1   13.00    3.80
   0  13  -1   23.10    3.90
   0  13  -1   30.70    5.00
   0 -13   1   16.30    3.40
  -1  13  -1   13.00    3.40
  -1  13  -1   15.90    3.70
  -1  13  -1   19.50    4.00
   1 -13   1   16.80    3.30
  -2  13  -1    4.90    3.10
  -2  13  -1    2.80    3.00
  -2  13  -1   -3.40    2.40
   2 -13   1   -1.20    2.30
   2 -13   1    2.10    2.40
  -3  13  -1  103.99    9.40
  -3  13  -1  101.29    9.40
   3 -13   1  109.29    8.30
   3 -13   1   90.39    8.50
  -4  13  -1   19.60    4.50
  -4  13  -1   18.10    4.20
   4 -13   1   24.30    4.00
   4 -13   1   17.10    3.50
  -5  13  -1  178.38   14.20
  -5  13  -1  190.08   14.70
   5 -13   1  171.28   13.20
  -6  13  -1    6.60    4.00
   6 -13   1    5.20    3.70
  -7  13  -1   57.99    7.40
   7 -13   1   46.10    6.50
   8  12  -1   21.20    4.10
   8  12  -1   22.40    5.10
   8  12  -1   28.20    4.90
   7  12  -1    0.50    3.20
   7  12  -1    6.00    2.80
   7  12  -1    2.30    3.00
   7  12  -1   -0.50    3.30
   6  12  -1    5.10    3.60
   6  12  -1    0.00    2.90
   6  12  -1   -3.30    2.90
   6  12  -1    3.40    2.80
  -6 -12   1    2.90    2.50
   5  12  -1   -0.40    2.70
   5  12  -1    1.00    3.00
   5  12  -1   -0.70    2.50
   5  12  -1    2.40    3.00
  -5 -12   1    1.10    2.20
   4  12  -1  155.68   12.50
   4  12  -1  175.18   13.60
   4  12  -1  194.28   12.90
   4  12  -1  168.48   12.80
  -4 -12   1  165.48   12.40
   3  12  -1    5.60    2.80
   3  12  -1    2.60    2.60
   3  12  -1    8.00    3.10
   3  12  -1    6.20    3.20
  -3 -12   1    4.60    2.40
   2  12  -1   24.70    4.00
   2  12  -1   24.60    3.90
   2  12  -1   19.60    3.70
   2  12  -1   24.10    4.60
  -2 -12   1   29.10    3.80
   1  12  -1   40.30    4.80
   1  12  -1   39.40    4.60
   1  12  -1   36.10    5.50
  -1 -12   1   33.20    4.30
   0  12  -1    5.40    2.10
   0  12  -1    1.40    2.60
   0  12  -1    4.60    2.50
   0  12  -1   -1.10    2.40
   0  12  -1    3.30    2.80
   0 -12   1    4.40    2.40
  -1  12  -1  107.09    9.10
  -1  12  -1  123.29    9.60
  -1  12  -1  110.79    9.50
  -1  12  -1  123.19   10.20
   1 -12   1  113.39    9.00
   1 -12   1  123.29    8.70
  -2  12  -1   47.50    5.80
  -2  12  -1   42.20    5.50
  -2  12  -1   46.30    5.00
   2 -12   1   41.90    4.90
   2 -12   1   48.50    4.80
  -3  12  -1   75.89    7.80
  -3  12  -1   86.59    7.60
  -3  12  -1   93.29    8.20
   3 -12   1   68.69    6.80
   3 -12   1   90.39    7.40
  -4  12  -1   27.70    4.70
  -4  12  -1   35.10    5.30
   4 -12   1   35.30    4.20
   4 -12   1   23.40    4.10
  -5  12  -1   -1.50    3.30
  -5  12  -1   -1.80    2.80
   5 -12   1    1.40    2.30
   5 -12   1    2.80    2.60
  -6  12  -1   -3.30    3.00
  -6  12  -1    3.60    3.50
   6 -12   1   -0.60    2.50
   6 -12   1    1.90    3.00
  -7  12  -1    8.40    4.20
   7 -12   1   10.30    3.90
  -8  12  -1   15.50    4.80
   8 -12   1    4.40    3.80
   8  11  -1    0.20    2.70
   8  11  -1    4.40    3.30
   8  11  -1   -0.90    3.40
   7  11  -1   -3.80    3.00
   7  11  -1    1.50    3.20
   7  11  -1    2.70    3.20
   7  11  -1    2.70    2.80
  -7 -11   1    1.50    2.30
   6  11  -1   41.60    6.30
   6  11  -1   44.00    5.50
   6  11  -1   56.09    5.90
   6  11  -1   49.60    5.50
  -6 -11   1   48.20    5.30
   5  11  -1    9.20    3.00
   5  11  -1    3.50    2.60
   5  11  -1    2.60    2.80
   5  11  -1    5.60    3.20
  -5 -11   1    3.70    2.40
   4  11  -1    1.30    2.60
   4  11  -1    3.20    2.40
   4  11  -1    1.90    2.70
   4  11  -1    2.80    2.50
  -4 -11   1    3.70    2.20
   3  11  -1  165.08   11.70
   3  11  -1  167.58   11.60
   3  11  -1  140.19   11.90
   3  11  -1  150.88   11.50
  -3 -11   1  159.88   11.30
   2  11  -1  102.69    8.10
   2  11  -1  104.99    8.30
   2  11  -1   99.39    8.00
   2  11  -1   86.29    8.30
  -2 -11   1  103.19    7.90
   1  11  -1  262.67   17.60
   1  11  -1  254.77   17.20
   1  11  -1  260.07   17.70
  -1 -11   1  266.77   17.50
   0  11  -1    3.00    2.30
   0  11  -1    2.70    2.50
   0  11  -1    1.20    2.20
   0  11  -1    3.10    2.40
   0 -11   1    4.20    2.10
   0 -11   1    2.30    1.60
  -1  11  -1  126.49    9.90
  -1  11  -1  122.39    9.60
  -1  11  -1  121.89    9.90
  -1  11  -1  152.58   10.80
   1 -11   1  128.19    9.20
   1 -11   1  124.99    9.60
  -2  11  -1  106.39    9.00
  -2  11  -1  110.69    8.60
  -2  11  -1  105.59    9.70
  -2  11  -1  130.79    9.40
   2 -11   1  112.49    8.30
   2 -11   1  106.99    8.60
  -3  11  -1    8.60    2.70
  -3  11  -1    9.50    3.10
  -3  11  -1    7.80    3.20
   3 -11   1    8.20    2.60
   3 -11   1   12.50    2.60
  -4  11  -1    2.30    2.70
  -4  11  -1   -3.40    2.80
   4 -11   1   -0.20    2.10
   4 -11   1    1.80    2.00
  -5  11  -1   -2.50    2.90
  -5  11  -1   -3.90    2.50
   5 -11   1    3.10    2.30
   5 -11   1    0.30    2.40
  -6  11  -1    1.90    3.50
  -6  11  -1    1.90    3.30
   6 -11   1    2.50    2.90
   6 -11   1    4.10    2.50
   6 -11   1    6.90    2.80
  -7  11  -1   13.10    4.10
  -7  11  -1   21.40    4.80
   7 -11   1   13.10    3.90
   7 -11   1   16.60    3.40
  -8  11  -1   15.70    4.50
   8 -11   1   15.30    4.10
   9  10  -1    3.70    4.10
   9  10  -1    7.70    2.90
   9  10  -1    3.90    3.50
   8  10  -1   28.20    5.50
   8  10  -1   29.60    4.30
   8  10  -1   20.90    4.30
  -8 -10   1   22.10    3.80
   7  10  -1    0.10    2.90
   7  10  -1   -0.70    3.10
   7  10  -1    1.10    2.40
   7  10  -1    3.10    2.70
  -7 -10   1    0.70    2.20
   6  10  -1    1.60    2.90
   6  10  -1    1.70    2.40
   6  10  -1    0.70    2.30
   6  10  -1    0.50    2.60
  -6 -10   1    3.60    2.20
   5  10  -1   26.30    4.80
   5  10  -1   31.90    4.60
   5  10  -1   50.79    5.00
   5  10  -1   44.30    4.90
  -5 -10   1   45.50    4.60
   4  10  -1   93.29    7.40
   4  10  -1   75.69    6.90
   4  10  -1   88.09    7.30
   4  10  -1   75.79    7.70
  -4 -10   1   86.29    7.00
   3  10  -1   29.80    4.10
   3  10  -1   32.10    4.40
   3  10  -1   30.60    3.80
   3  10  -1   37.00    4.10
  -3 -10   1   35.30    3.90
   2  10  -1   31.40    4.60
   2  10  -1   43.50    4.60
   2  10  -1   49.20    4.20
   2  10  -1   43.50    4.60
  -2 -10   1   43.90    4.30
   1  10  -1    3.70    1.70
   1  10  -1    0.60    2.20
   1  10  -1    0.70    1.90
   1  10  -1    1.50    2.00
   1  10  -1    2.00    2.10
  -1 -10   1    0.30    1.60
  -1 -10   1    1.10    1.40
   0  10  -1   57.59    5.60
   0  10  -1   48.40    5.10
   0  10  -1   74.59    6.40
   0  10  -1   51.29    5.10
   0 -10   1   60.99    4.70
   0 -10   1   47.90    5.00
  -1  10  -1   19.30    3.30
  -1  10  -1   20.00    3.30
  -1  10  -1   26.30    4.00
  -1  10  -1   21.90    3.10
   1 -10   1   17.60    2.90
   1 -10   1   21.90    2.70
  -2  10  -1    3.70    2.10
  -2  10  -1    1.60    2.20
  -2  10  -1    4.50    2.70
  -2  10  -1    6.00    2.60
   2 -10   1    3.80    1.80
   2 -10   1    4.80    2.10
  -3  10  -1   -1.80    2.50
  -3  10  -1   -1.80    2.20
  -3  10  -1    0.20    1.90
   3 -10   1    0.00    2.00
   3 -10   1    1.20    1.80
  -4  10  -1   23.60    4.10
  -4  10  -1   23.60    3.30
  -4  10  -1   20.40    4.00
   4 -10   1   21.50    3.30
   4 -10   1   20.20    3.30
  -5  10  -1   38.00    5.40
  -5  10  -1   45.60    5.40
   5 -10   1   39.30    4.70
   5 -10   1   42.20    4.60
  -6  10  -1  157.98   12.80
  -6  10  -1  132.09   11.80
   6 -10   1  152.98   11.40
   6 -10   1  174.98   12.10
   6 -10   1  156.48   11.50
  -7  10  -1   29.20    5.10
  -7  10  -1   24.90    5.10
   7 -10   1   23.90    4.20
   7 -10   1   28.20    4.60
   7 -10   1   35.70    4.40
  -8  10  -1   16.80    4.80
  -8  10  -1   22.30    4.60
   8 -10   1   13.30    4.10
   8 -10   1   24.70    5.90
   9 -10   1    6.60    3.70
  10   9  -1   -3.10    3.60
  10   9  -1    3.10    2.80
  10   9  -1    0.10    3.20
   9   9  -1    8.20    4.40
   9   9  -1   14.40    3.90
   9   9  -1   14.80    3.40
   8   9  -1    3.00    2.60
   8   9  -1   -0.50    3.40
   8   9  -1   -0.20    2.60
  -8  -9   1   -0.40    2.30
   7   9  -1   49.80    6.00
   7   9  -1   66.49    6.50
   7   9  -1   58.59    7.10
   7   9  -1   58.09    5.80
  -7  -9   1   48.30    5.50
   6   9  -1   53.69    6.90
   6   9  -1   81.09    6.60
   6   9  -1   63.19    6.40
   6   9  -1   77.29    6.90
  -6  -9   1   81.09    6.40
   5   9  -1   73.99    6.60
   5   9  -1   69.99    6.40
   5   9  -1   77.39    7.20
   5   9  -1   70.49    6.60
  -5  -9   1   71.09    6.20
   4   9  -1   91.89    6.90
   4   9  -1   77.39    7.00
   4   9  -1   80.49    7.00
   4   9  -1   96.79    7.60
  -4  -9   1   70.29    6.50
   3   9  -1   28.90    3.10
   3   9  -1   33.90    4.20
   3   9  -1   26.60    3.50
   3   9  -1   22.00    3.30
   3   9  -1   19.80    3.30
  -3  -9   1   29.90    3.40
   2   9  -1    6.70    1.80
   2   9  -1    8.00    2.10
   2   9  -1    5.10    2.30
   2   9  -1    7.00    2.30
  -2  -9   1    7.30    1.50
  -2  -9   1   10.80    2.10
   1   9  -1   80.69    6.60
   1   9  -1   63.99    6.70
   1   9  -1   91.69    6.80
  -1  -9   1   99.59    6.50
  -1  -9   1   91.49    6.10
   0   9  -1    5.60    2.30
   0   9  -1    6.80    2.10
   0   9  -1    8.80    2.10
   0  -9   1    8.80    1.90
   0  -9   1    8.40    1.70
  -1   9  -1  279.67   17.70
  -1   9  -1  258.77   17.80
  -1   9  -1  267.47   18.20
   1  -9   1  268.67   17.50
   1  -9   1  273.67   17.70
  -2   9  -1    0.80    2.00
  -2   9  -1   -0.60    1.70
  -2   9  -1    1.10    1.90
   2  -9   1    0.20    1.60
   2  -9   1   -1.70    1.30
  -3   9  -1  349.87   24.10
  -3   9  -1  368.46   23.80
  -3   9  -1  340.77   24.30
   3  -9   1  362.76   23.80
   3  -9   1  419.46   24.00
   3  -9   1  377.46   23.90
  -4   9  -1  170.88   12.10
  -4   9  -1  160.68   11.70
  -4   9  -1  163.38   11.10
   4  -9   1  158.88   11.30
   4  -9   1  149.29   11.20
  -5   9  -1  106.59    9.70
  -5   9  -1  118.69    9.50
   5  -9   1  120.29    8.90
   5  -9   1  123.19    9.00
  -6   9  -1   11.80    3.70
  -6   9  -1   11.70    3.30
   6  -9   1   13.50    2.90
   6  -9   1   10.70    2.80
   6  -9   1   15.60    3.50
  -7   9  -1    2.20    3.30
  -7   9  -1   11.20    3.60
   7  -9   1    8.30    2.80
   7  -9   1    4.70    2.70
   7  -9   1    5.90    2.90
  -8   9  -1   -0.90    3.00
  -8   9  -1   -2.40    3.40
   8  -9   1    5.60    2.70
   8  -9   1    1.30    3.00
  -9   9  -1    3.70    5.50
   9  -9   1    2.80    3.20
  10  -9   1    3.40    3.60
  10   8  -1    3.00    3.80
  10   8  -1   -0.90    2.60
  10   8  -1    0.40    3.20
   9   8  -1   -2.90    2.70
   9   8  -1    1.40    3.20
   9   8  -1   -4.90    2.20
  -9  -8   1    0.00    2.50
   8   8  -1   55.29    6.60
   8   8  -1   49.20    5.40
   8   8  -1   45.00    5.60
  -8  -8   1   54.19    5.50
   7   8  -1    0.90    2.50
   7   8  -1   -0.10    2.10
   7   8  -1   -2.30    2.60
   7   8  -1    3.90    2.60
  -7  -8   1   -0.20    2.00
   6   8  -1   27.40    4.40
   6   8  -1   28.30    3.80
   6   8  -1   24.10    3.70
   6   8  -1   36.50    4.20
  -6  -8   1   28.70    3.60
   5   8  -1    4.80    2.10
   5   8  -1    4.80    2.60
   5   8  -1   -0.80    2.10
   5   8  -1    6.50    2.30
  -5  -8   1    7.30    2.10
   4   8  -1   19.30    3.50
   4   8  -1   27.50    3.50
   4   8  -1   31.20    3.30
   4   8  -1   19.80    3.10
  -4  -8   1   24.40    3.00
   3   8  -1   15.90    2.60
   3   8  -1   16.30    2.10
   3   8  -1   15.70    2.80
   3   8  -1   15.80    2.50
   3   8  -1   12.00    2.50
  -3  -8   1   15.00    2.40
   2   8  -1  207.68   13.50
   2   8  -1  209.28   13.70
   2   8  -1  223.78   14.20
   2   8  -1  190.38   13.70
  -2  -8   1  192.68   13.70
  -2  -8   1  205.38   13.60
  -2  -8   1  207.58   13.20
   1   8  -1  155.48   10.30
   1   8  -1  155.88   10.00
   1   8  -1  137.49   10.20
   1   8  -1  137.09   10.50
  -1  -8   1  146.59    9.80
  -1  -8   1  161.58   10.20
   0   8  -1    5.00    1.80
   0   8  -1    9.40    2.30
   0   8  -1    9.60    2.10
   0  -8   1    8.20    1.50
   0  -8   1    9.70    1.80
  -1   8  -1  202.88   12.60
  -1   8  -1  186.48   13.10
  -1   8  -1  152.38   12.60
   1  -8   1  199.98   12.60
   1  -8   1  202.68   12.40
  -2   8  -1  319.57   20.10
  -2   8  -1  301.27   19.70
  -2   8  -1  291.67   19.40
   2  -8   1  290.97   19.30
   2  -8   1  304.77   19.50
  -3   8  -1   19.50    3.00
  -3   8  -1   23.70    2.70
  -3   8  -1   14.00    2.90
   3  -8   1   22.70    2.70
   3  -8   1   19.50    2.70
   3  -8   1   20.00    2.60
  -4   8  -1   57.19    5.30
  -4   8  -1   47.70    4.40
  -4   8  -1   38.60    5.00
   4  -8   1   55.19    4.80
   4  -8   1   51.29    4.40
  -5   8  -1   -0.60    2.50
  -5   8  -1    1.90    1.60
  -5   8  -1    3.40    2.40
   5  -8   1    5.40    2.20
  -6   8  -1   11.40    3.40
  -6   8  -1    5.50    2.70
   6  -8   1    6.00    2.60
   6  -8   1    4.00    2.30
  -7   8  -1   -1.70    2.60
  -7   8  -1    0.70    3.10
   7  -8   1   -0.20    2.30
   7  -8   1   -1.20    2.40
  -8   8  -1   -2.10    2.80
  -8   8  -1   -2.50    3.10
   8  -8   1    1.80    2.40
   8  -8   1   -1.50    2.70
  -9   8  -1   22.80    4.70
   9  -8   1   27.00    4.80
  10  -8   1   11.70    4.10
  10   7  -1    4.40    3.90
  10   7  -1    7.20    2.80
  10   7  -1    8.10    3.60
   9   7  -1   10.00    3.10
   9   7  -1   10.60    3.90
   9   7  -1   18.10    3.90
  -9  -7   1    8.50    2.90
   8   7  -1   29.30    4.90
   8   7  -1   34.20    4.60
   8   7  -1   28.30    4.10
  -8  -7   1   49.30    4.80
   7   7  -1   36.50    4.40
   7   7  -1   30.10    3.90
   7   7  -1   41.30    4.70
   7   7  -1   33.40    4.80
  -7  -7   1   34.90    4.10
   6   7  -1    4.60    2.20
   6   7  -1    5.40    2.10
   6   7  -1    6.00    2.30
   6   7  -1    6.80    2.60
  -6  -7   1   -0.40    1.70
   5   7  -1  158.78   11.70
   5   7  -1  155.58   11.30
   5   7  -1  162.98   11.10
   5   7  -1  152.38   11.30
  -5  -7   1  172.38   11.10
   4   7  -1   68.89    6.00
   4   7  -1   64.39    5.40
   4   7  -1   58.99    5.40
   4   7  -1   64.39    4.90
   4   7  -1   66.49    5.30
  -4  -7   1   58.19    5.10
   3   7  -1  362.06   23.80
   3   7  -1  362.06   23.70
   3   7  -1  378.76   23.40
   3   7  -1  387.26   23.70
  -3  -7   1  364.66   23.60
  -3  -7   1  368.76   23.20
   2   7  -1  286.27   18.00
   2   7  -1  236.68   18.10
   2   7  -1  291.57   17.70
   2   7  -1  278.67   17.90
  -2  -7   1  276.37   17.50
  -2  -7   1  297.17   18.10
  -2  -7   1  280.57   17.80
   1   7  -1  338.47   20.40
   1   7  -1  317.37   20.10
   1   7  -1  303.57   20.00
   1   7  -1  306.47   19.80
  -1  -7   1  294.47   20.10
  -1  -7   1  313.37   19.90
  -1  -7   1  313.57   19.70
   0   7  -1    5.50    1.60
   0   7  -1    9.10    1.90
   0   7  -1    7.00    1.90
   0  -7   1    6.00    1.40
   0  -7   1    8.40    1.40
  -1   7  -1   39.90    3.50
  -1   7  -1   25.40    3.60
  -1   7  -1   41.60    3.70
   1  -7   1   38.80    3.30
   1  -7   1   43.60    3.40
  -2   7  -1  798.72   49.60
  -2   7  -1  851.81   49.90
  -2   7  -1  774.32   49.30
   2  -7   1  804.22   49.30
   2  -7   1  736.83   49.30
  -3   7  -1    4.00    1.90
  -3   7  -1    5.10    1.50
  -3   7  -1   -0.50    1.70
   3  -7   1   -0.90    1.20
   3  -7   1   -1.50    1.30
  -4   7  -1  250.87   16.40
  -4   7  -1  280.27   17.30
  -4   7  -1  228.98   16.80
  -4   7  -1  270.27   17.30
   4  -7   1  242.78   16.60
   4  -7   1  254.77   16.50
  -5   7  -1   15.10    2.30
  -5   7  -1   16.60    2.90
  -5   7  -1   14.60    3.20
   5  -7   1   11.20    2.10
   5  -7   1   18.90    2.70
  -6   7  -1    5.30    2.60
  -6   7  -1    0.50    2.60
   6  -7   1    3.70    2.30
   6  -7   1    4.70    2.20
  -7   7  -1   36.90    5.30
  -7   7  -1   43.30    5.40
   7  -7   1   43.70    4.70
   7  -7   1   46.30    5.20
  -8   7  -1    1.30    2.90
  -8   7  -1   -1.50    3.00
   8  -7   1    6.20    2.50
   8  -7   1    6.50    3.00
  -9   7  -1   34.30    5.30
   9  -7   1   35.50    5.20
 -10   7  -1   51.19    6.70
  10  -7   1   47.70    6.30
  11   6  -1   15.30    3.50
  11   6  -1   12.40    4.60
  11   6  -1   18.70    4.40
  10   6  -1   -2.50    3.30
  10   6  -1    6.10    3.30
  10   6  -1    0.30    2.50
 -10  -6   1    2.10    2.60
   9   6  -1   29.50    5.00
   9   6  -1   23.80    3.80
   9   6  -1   21.30    4.20
  -9  -6   1   34.40    4.20
   8   6  -1   -0.40    2.40
   8   6  -1    2.30    2.10
   8   6  -1    4.40    2.90
  -8  -6   1    3.80    2.20
   7   6  -1   74.09    6.10
   7   6  -1   68.69    6.30
   7   6  -1   62.89    6.70
  -7  -6   1   73.49    6.00
   6   6  -1  197.08   13.30
   6   6  -1  194.18   13.10
   6   6  -1  177.48   13.50
   6   6  -1  200.98   13.40
  -6  -6   1  192.58   13.00
   5   6  -1  104.19    7.30
   5   6  -1  105.89    7.50
   5   6  -1  100.69    8.00
   5   6  -1  106.09    7.80
   5   6  -1   99.89    7.70
  -5  -6   1  100.49    7.50
   4   6  -1  111.99    8.50
   4   6  -1  106.89    8.30
   4   6  -1  115.89    8.50
   4   6  -1  121.09    8.20
   4   6  -1  139.99    9.00
  -4  -6   1  127.69    8.40
   3   6  -1   49.60    4.40
   3   6  -1   56.59    4.80
   3   6  -1   51.79    4.50
   3   6  -1   53.59    4.30
   3   6  -1   55.19    4.00
  -3  -6   1   48.90    4.10
  -3  -6   1   47.30    4.30
   2   6  -1    4.00    1.50
   2   6  -1    4.10    1.20
   2   6  -1    1.30    1.40
   2   6  -1    5.80    1.50
  -2  -6   1    2.50    1.40
  -2  -6   1    1.70    0.90
  -2  -6   1    4.30    1.30
   1   6  -1    1.90    1.20
   1   6  -1    1.50    1.30
   1   6  -1    3.10    1.30
   1   6  -1    3.40    1.10
  -1  -6   1    2.90    0.90
  -1  -6   1    2.50    1.20
  -1  -6   1    3.00    1.30
   0   6  -1  246.28   15.00
   0   6  -1  211.78   14.70
   0   6  -1  234.48   14.70
   0  -6   1  221.08   14.50
  -1   6  -1    9.10    1.60
  -1   6  -1    7.30    1.70
  -1   6  -1    5.60    1.60
   1  -6   1    8.80    1.40
  -2   6  -1   31.00    2.80
  -2   6  -1   31.20    3.40
  -2   6  -1   25.80    3.00
   2  -6   1   27.10    2.90
  -3   6  -1   88.19    7.50
  -3   6  -1  110.19    7.90
  -3   6  -1  101.89    7.10
   3  -6   1  111.49    7.90
   3  -6   1  111.59    7.40
   3  -6   1  100.99    7.30
  -4   6  -1  496.45   32.80
  -4   6  -1  448.16   32.90
  -4   6  -1  513.35   32.40
  -4   6  -1  565.04   33.10
   4  -6   1  532.05   32.50
   4  -6   1  529.15   33.10
   4  -6   1  542.95   32.60
  -5   6  -1  100.49    8.30
  -5   6  -1   98.29    7.40
  -5   6  -1  101.99    8.10
   5  -6   1  106.99    7.80
   5  -6   1   98.89    8.00
   5  -6   1  132.59    8.70
   5  -6   1  110.29    7.60
  -6   6  -1   34.70    4.40
  -6   6  -1   25.20    3.10
  -6   6  -1   46.20    4.60
   6  -6   1   26.30    4.20
   6  -6   1   29.60    3.50
   6  -6   1   41.60    4.10
  -7   6  -1   38.40    4.80
  -7   6  -1   31.10    4.20
   7  -6   1   18.90    4.10
   7  -6   1   29.00    3.70
   7  -6   1   35.70    4.20
  -8   6  -1  144.79   11.80
  -8   6  -1  147.79   11.90
   8  -6   1  163.78   11.80
   8  -6   1  160.38   11.30
  -9   6  -1    2.90    3.10
   9  -6   1    5.00    3.20
  10  -6   1   32.40    5.30
  11  -6   1   -1.40    3.30
  11   5  -1   15.40    4.10
  11   5  -1   14.60    4.60
  11   5  -1   15.10    3.50
  10   5  -1   -1.50    3.30
  10   5  -1    0.60    2.60
  10   5  -1    4.20    3.10
 -10  -5   1   -1.20    2.20
   9   5  -1   14.20    3.40
   9   5  -1   15.40    3.20
   9   5  -1   17.50    4.10
  -9  -5   1   13.60    3.10
   8   5  -1   50.19    5.20
   8   5  -1   49.80    6.00
   8   5  -1   49.00    5.40
  -8  -5   1   55.79    5.20
   7   5  -1    3.80    2.10
   7   5  -1    0.90    2.20
   7   5  -1    2.30    2.20
  -7  -5   1    0.30    1.80
   6   5  -1  237.08   18.60
   6   5  -1  302.27   19.00
   6   5  -1  290.47   19.00
   6   5  -1  324.47   19.50
  -6  -5   1  291.87   18.70
   5   5  -1   13.20    2.50
   5   5  -1    5.70    1.80
   5   5  -1   12.10    2.10
   5   5  -1   15.60    2.40
   5   5  -1   11.80    1.70
  -5  -5   1    9.00    1.90
   4   5  -1  232.18   15.40
   4   5  -1  235.08   15.60
   4   5  -1  232.98   15.40
   4   5  -1  242.78   15.00
   4   5  -1  233.88   15.20
  -4  -5   1  231.08   15.20
   3   5  -1  135.09    9.20
   3   5  -1  141.39    9.40
   3   5  -1  129.99    8.90
   3   5  -1  145.29    9.10
  -3  -5   1  125.89    9.00
   2   5  -1  321.97   20.40
   2   5  -1  316.37   20.00
   2   5  -1  306.97   20.20
   2   5  -1  300.77   20.10
   2   5  -1  326.47   20.20
  -2  -5   1  323.77   19.80
  -2  -5   1  334.07   20.10
   1   5  -1  223.28   16.20
   1   5  -1  273.47   16.30
   1   5  -1  218.18   16.30
   1   5  -1  268.87   16.10
  -1  -5   1  273.37   16.00
  -1  -5   1  273.77   16.20
   0   5  -1  225.68   13.80
   0   5  -1  183.98   13.90
   0   5  -1  228.48   13.90
   0  -5   1  228.68   13.70
   0  -5   1  216.98   13.80
  -1   5  -1   94.09    6.60
  -1   5  -1   93.99    6.40
   1  -5   1   95.19    6.30
  -2   5  -1  969.40   67.19
  -2   5  -1 1039.50   66.99
  -2   5  -1 1191.48   66.89
   2  -5   1 1133.39   66.99
  -3   5  -1   31.40    2.60
  -3   5  -1   28.30    3.00
   3  -5   1   26.60    2.70
   3  -5   1   24.00    2.60
  -4   5  -1    2.30    1.10
  -4   5  -1    1.30    1.70
  -4   5  -1    3.20    1.90
  -4   5  -1    2.50    1.90
   4  -5   1    3.70    1.40
   4  -5   1    0.70    1.40
   4  -5   1    2.20    1.70
  -5   5  -1   40.80    4.00
  -5   5  -1   54.49    4.80
  -5   5  -1   50.19    5.00
   5  -5   1   54.79    4.70
   5  -5   1   49.90    4.40
   5  -5   1   49.80    4.20
  -6   5  -1  157.38    9.20
  -6   5  -1  138.79   10.00
  -6   5  -1  141.09   10.10
   6  -5   1  105.19    9.60
   6  -5   1  126.29    9.30
   6  -5   1  136.29    9.50
  -7   5  -1   85.29    7.20
  -7   5  -1   82.09    7.20
   7  -5   1   70.39    6.90
   7  -5   1  106.29    8.10
   7  -5   1   77.49    6.70
   7  -5   1   72.59    7.60
  -8   5  -1   49.50    5.90
  -8   5  -1   69.09    6.60
   8  -5   1   62.89    5.70
   8  -5   1   50.29    5.80
   8  -5   1   55.79    6.60
  -9   5  -1    9.80    3.30
   9  -5   1   16.10    3.70
  10  -5   1    1.70    3.20
  11  -5   1    3.20    3.40
  11   4  -1    2.40    3.10
  11   4  -1    4.20    2.80
  11   4  -1   -0.40    3.60
  10   4  -1   57.29    6.20
  10   4  -1   49.30    6.80
  10   4  -1   56.29    5.80
 -10  -4   1   50.49    5.60
   9   4  -1    0.50    2.20
   9   4  -1    1.90    2.50
   9   4  -1   -0.90    2.90
  -9  -4   1    2.30    2.30
   8   4  -1   37.60    5.00
   8   4  -1   37.80    4.70
   8   4  -1   42.50    4.50
  -8  -4   1   36.80    4.20
   7   4  -1    0.90    2.00
   7   4  -1    0.80    1.90
   7   4  -1    3.00    2.20
  -7  -4   1    1.90    1.70
   6   4  -1    4.20    1.90
   6   4  -1    2.40    1.60
   6   4  -1    3.50    1.60
   6   4  -1    1.30    1.80
  -6  -4   1    0.20    1.40
   5   4  -1    8.80    1.50
   5   4  -1    7.90    1.90
   5   4  -1   10.30    1.80
   5   4  -1    5.30    1.60
   5   4  -1    6.90    2.00
   5   4  -1    6.00    2.00
  -5  -4   1    9.20    1.70
   4   4  -1  307.67   20.70
   4   4  -1  352.36   20.90
   4   4  -1  351.46   20.60
   4   4  -1  331.17   20.60
   4   4  -1  288.67   21.00
  -4  -4   1  338.87   20.80
   3   4  -1    3.40    0.90
   3   4  -1    2.00    1.20
   3   4  -1    1.90    1.20
   3   4  -1    1.40    1.00
  -3  -4   1    1.00    1.00
   2   4  -1  390.06   23.40
   2   4  -1  363.56   23.20
   2   4  -1  366.36   23.30
   2   4  -1  367.96   23.20
  -2  -4   1  354.36   22.90
  -2  -4   1  379.56   23.10
   1   4  -1   24.70    2.20
   1   4  -1   15.00    1.90
  -1  -4   1   21.30    1.70
  -1  -4   1   22.80    2.00
   0   4  -1 6683.33  399.66
   0   4  -1 6438.06  399.46
   0  -4   1 6399.56  399.56
   0  -4   1 6532.15  400.26
  -1   4  -1   54.29    4.30
  -1   4  -1   76.39    4.70
  -2   4  -1  492.75   29.60
  -2   4  -1  459.65   29.40
   2  -4   1  467.45   29.50
  -3   4  -1   21.00    2.00
  -3   4  -1   18.10    2.30
   3  -4   1   20.70    2.20
   3  -4   1   23.50    2.20
  -4   4  -1  287.87   20.70
  -4   4  -1  319.07   20.30
  -4   4  -1  333.77   20.70
   4  -4   1  319.87   20.50
   4  -4   1  319.07   20.40
   4  -4   1  335.87   20.90
   4  -4   1  342.37   20.70
  -5   4  -1    1.50    1.60
  -5   4  -1   -0.60    1.70
  -5   4  -1   -1.70    1.10
   5  -4   1    1.50    1.60
   5  -4   1    1.00    1.20
   5  -4   1    0.30    1.60
   5  -4   1   -0.30    1.40
  -6   4  -1  122.39    9.50
  -6   4  -1  120.49    8.70
  -6   4  -1  140.49    9.50
   6  -4   1  127.19    9.00
   6  -4   1  131.79    8.90
   6  -4   1  119.69    9.20
   6  -4   1  139.99    9.90
   6  -4   1  131.69    9.10
  -7   4  -1   27.10    3.10
  -7   4  -1   33.60    4.10
  -7   4  -1   26.40    3.90
   7  -4   1   29.10    4.30
   7  -4   1   32.00    4.00
   7  -4   1   29.60    4.40
   7  -4   1   32.00    3.40
   7  -4   1   37.40    3.70
  -8   4  -1   44.30    5.30
  -8   4  -1   57.19    5.60
   8  -4   1   42.90    5.20
   8  -4   1   42.40    5.80
   8  -4   1   47.60    4.60
   8  -4   1   48.40    4.80
  -9   4  -1  100.59    8.30
   9  -4   1   89.59    9.20
   9  -4   1   86.19    8.20
  10  -4   1   27.80    4.70
  11  -4   1   41.60    5.70
  11   3  -1    0.70    2.50
  11   3  -1    1.70    3.50
  11   3  -1    3.00    3.30
  10   3  -1   14.30    4.10
  10   3  -1    9.50    3.40
  10   3  -1   12.10    3.20
 -10  -3   1   14.30    3.10
   9   3  -1    2.50    2.30
   9   3  -1    1.60    2.40
   9   3  -1    0.40    2.60
  -9  -3   1    2.40    2.20
   8   3  -1   11.10    2.60
   8   3  -1    8.10    3.00
   8   3  -1    9.10    2.80
  -8  -3   1   10.90    2.40
   7   3  -1   39.50    4.70
   7   3  -1   44.70    4.30
   7   3  -1   41.00    4.40
  -7  -3   1   39.30    3.90
   6   3  -1  838.82   51.09
   6   3  -1  933.01   51.99
   6   3  -1  815.62   51.09
   6   3  -1  770.92   51.49
   6   3  -1  735.83   51.29
  -6  -3   1  855.41   51.39
   5   3  -1  154.88   10.30
   5   3  -1  166.88   10.40
   5   3  -1  164.88   11.00
   5   3  -1  166.18   10.60
   5   3  -1  154.78   10.70
  -5  -3   1  144.49   10.50
   4   3  -1  717.73   43.40
   4   3  -1  605.34   43.50
   4   3  -1  749.33   43.50
   4   3  -1  689.43   43.70
   4   3  -1  718.43   43.30
   4   3  -1  718.83   43.80
  -4  -3   1  709.03   43.50
   3   3  -1  273.87   17.50
   3   3  -1  278.67   17.50
   3   3  -1  299.27   17.70
   3   3  -1  257.77   17.40
  -3  -3   1  272.07   17.40
   2   3  -1 6074.79  378.36
   2   3  -1 5945.50  378.26
   2   3  -1 6564.34  378.26
   2   3  -1 6112.19  378.06
   2   3  -1 6143.29  378.46
  -2  -3   1 6167.58  378.76
   1   3  -1  584.14   35.90
  -1  -3   1  587.34   35.80
  -1  -3   1  573.94   35.90
   0  -3   1  410.66   25.30
   0  -3   1  404.66   25.20
  -2   3  -1    1.40    1.10
   2  -3   1    0.80    0.90
   2  -3   1    1.20    0.90
  -3   3  -1  428.76   26.60
  -3   3  -1  425.96   26.60
   3  -3   1  407.06   26.40
   3  -3   1  428.26   26.40
  -4   3  -1   38.90    3.60
  -4   3  -1   41.90    2.90
  -4   3  -1   48.30    4.00
   4  -3   1   41.00    3.50
   4  -3   1   34.10    3.80
   4  -3   1   37.00    3.30
   4  -3   1   47.40    3.70
   4  -3   1   45.20    3.50
  -5   3  -1    1.00    1.60
  -5   3  -1    0.00    1.40
   5  -3   1    1.10    1.30
   5  -3   1   -0.30    1.20
   5  -3   1    2.20    1.30
   5  -3   1    0.20    1.50
   5  -3   1    0.80    1.70
  -6   3  -1  705.43   46.90
  -6   3  -1  791.42   47.10
   6  -3   1  743.13   46.70
   6  -3   1  738.33   47.00
   6  -3   1  689.83   47.20
   6  -3   1  770.42   46.60
   6  -3   1  798.02   46.80
  -7   3  -1   71.89    6.80
  -7   3  -1   80.29    6.80
   7  -3   1   77.59    6.40
   7  -3   1   69.79    6.60
   7  -3   1  101.29    7.60
   7  -3   1   93.09    6.50
   7  -3   1   74.69    6.20
  -8   3  -1  433.96   27.00
  -8   3  -1  420.16   26.70
   8  -3   1  408.56   26.40
   8  -3   1  393.06   26.80
   8  -3   1  388.76   26.20
   8  -3   1  413.16   27.40
   9  -3   1   52.69    6.90
   9  -3   1   70.89    6.70
   9  -3   1   64.69    5.90
  10  -3   1  658.53   41.60
  10  -3   1  626.14   42.20
  11  -3   1   49.30    6.20
  12  -3   1  250.77   18.20
  12   2  -1   28.70    4.30
  12   2  -1   13.10    5.00
  12   2  -1   17.80    4.50
  11   2  -1   -3.30    2.40
  11   2  -1    3.90    3.80
  11   2  -1   -2.90    2.80
  10   2  -1   89.89    8.60
  10   2  -1  123.99   10.20
  10   2  -1  109.99    9.00
   9   2  -1   10.20    2.80
   9   2  -1    7.30    3.30
   9   2  -1    4.80    2.60
  -9  -2   1    8.10    2.60
   8   2  -1  904.41   58.69
   8   2  -1  856.91   58.09
   8   2  -1 1024.50   58.19
  -8  -2   1  920.61   57.99
   7   2  -1   10.00    2.40
   7   2  -1   12.30    2.40
   7   2  -1   12.10    2.80
  -7  -2   1   10.00    2.00
   6   2  -1  358.16   23.00
   6   2  -1  354.86   22.60
   6   2  -1  424.56   23.50
   6   2  -1  307.67   22.80
   6   2  -1  366.26   22.50
  -6  -2   1  338.77   22.70
   5   2  -1    5.10    1.40
   5   2  -1    5.50    1.70
   5   2  -1    6.90    1.30
   5   2  -1    7.20    2.00
   5   2  -1    5.30    1.50
  -5  -2   1    6.00    1.40
   4   2  -1 1212.08   73.09
   4   2  -1 1101.09   73.39
   4   2  -1 1173.28   73.29
   4   2  -1 1271.37   73.29
  -4  -2   1 1175.28   73.09
   3   2  -1   11.40    1.40
   3   2  -1    8.80    1.50
   3   2  -1   10.40    1.20
   3   2  -1   10.70    1.30
   3   2  -1   11.90    1.60
  -3  -2   1    9.30    1.30
   2   2  -1  132.59    8.20
   2   2  -1  130.49    8.40
   2   2  -1  125.49    8.40
  -2  -2   1  128.39    8.20
   1   2  -1    7.80    0.90
   1   2  -1    9.60    0.90
  -1  -2   1    6.60    0.90
   0   2  -1 5268.27  324.97
   0  -2   1 5315.87  324.77
  -1   2  -1   24.60    2.20
   1  -2   1   24.30    1.70
  -2   2  -1 1369.56   82.79
  -2   2  -1 1452.35   83.19
   2  -2   1 1319.87   82.99
   2  -2   1 1264.17   83.09
  -3   2  -1  300.87   18.50
  -3   2  -1  327.27   18.50
   3  -2   1  274.07   18.30
   3  -2   1  274.97   18.40
   3  -2   1  286.57   18.30
   3  -2   1  284.77   18.20
  -4   2  -1 6036.00  376.66
  -4   2  -1 6389.06  376.66
   4  -2   1 6312.37  376.56
   4  -2   1 6069.29  376.66
   4  -2   1 5915.71  377.06
   4  -2   1 6064.99  376.86
   4  -2   1 6203.38  376.46
  -5   2  -1  489.35   30.50
  -5   2  -1  561.04   30.60
   5  -2   1  527.95   30.40
   5  -2   1  449.46   30.20
   5  -2   1  472.35   30.30
   5  -2   1  451.05   30.70
   5  -2   1  431.36   30.40
  -6   2  -1 1511.65  105.49
  -6   2  -1 1837.52  105.59
   6  -2   1 1779.92  105.49
   6  -2   1 1771.62  105.29
   6  -2   1 1507.45  105.49
   6  -2   1 1747.93  105.99
   6  -2   1 1796.42  105.39
  -7   2  -1  154.28   11.80
  -7   2  -1  191.48   12.20
   7  -2   1  177.18   11.80
   7  -2   1  165.78   11.60
   7  -2   1  171.08   11.70
   7  -2   1  174.78   12.60
   7  -2   1  173.98   12.10
  -8   2  -1  975.00   64.49
  -8   2  -1 1086.19   64.89
   8  -2   1 1091.79   64.39
   8  -2   1  983.90   64.49
   8  -2   1  880.61   64.59
   8  -2   1 1050.49   64.29
   8  -2   1 1167.18   65.59
   9  -2   1   72.19    7.60
   9  -2   1   59.39    6.00
   9  -2   1   75.69    6.90
  10  -2   1  308.67   21.70
  10  -2   1  294.17   20.70
  11  -2   1    8.90    3.50
  12  -2   1   -0.30    3.20
  12   1  -1   50.19    7.60
  12   1  -1   70.09    6.80
  12   1  -1   64.79    7.00
  11   1  -1   39.40    5.20
  11   1  -1   33.20    4.60
  11   1  -1   27.70    5.60
  10   1  -1  403.46   24.00
  10   1  -1  295.77   24.40
  10   1  -1  354.86   23.90
 -10  -1   1  375.96   23.20
   9   1  -1   31.90    4.30
   9   1  -1   36.70    4.50
   9   1  -1   39.90    5.40
   8   1  -1   40.40    4.30
   8   1  -1   38.40    4.40
   8   1  -1   39.50    5.00
  -8  -1   1   34.20    4.00
   7   1  -1    9.60    2.30
   7   1  -1    7.80    2.00
   7   1  -1    7.40    2.50
  -7  -1   1    3.20    1.90
   6   1  -1   13.50    2.50
   6   1  -1   12.70    1.80
   6   1  -1   11.50    2.20
   6   1  -1   11.50    2.10
   6   1  -1   14.00    1.90
  -6  -1   1   11.40    1.90
   5   1  -1   67.79    5.50
   5   1  -1   63.09    5.90
   5   1  -1   75.69    5.80
   5   1  -1   76.29    5.40
   5   1  -1   88.69    5.50
   5   1  -1   90.99    5.40
  -5  -1   1   73.19    5.50
  -5  -1   1   77.29    5.20
   4   1  -1  251.77   14.00
   4   1  -1  186.88   14.00
   4   1  -1  212.88   13.70
   4   1  -1  223.08   13.70
   4   1  -1  214.18   13.80
  -4  -1   1  207.78   13.60
  -4  -1   1  228.98   13.80
   3   1  -1  396.06   26.90
   3   1  -1  441.46   27.00
   3   1  -1  449.56   26.90
   3   1  -1  443.46   27.00
  -3  -1   1  444.06   26.70
  -3  -1   1  428.06   26.90
   2   1  -1 5360.66  305.27
   2   1  -1 4412.56  305.27
  -2  -1   1 5161.98  305.47
   1   1  -1   91.09    5.80
   1   1  -1   93.59    5.90
  -1  -1   1   96.99    5.90
   0   1  -1  735.93   45.00
   0  -1   1  728.63   44.90
  -1   1  -1  480.65   31.00
   1  -1   1  530.85   30.90
   1  -1   1  494.25   31.00
  -2   1  -1 7049.89  438.36
  -2   1  -1 7383.96  438.36
   2  -1   1 6990.40  438.66
  -3   1  -1  686.63   44.00
  -3   1  -1  724.93   43.70
   3  -1   1  750.32   44.00
   3  -1   1  693.43   43.90
   3  -1   1  695.73   43.90
  -4   1  -1  985.70   58.59
  -4   1  -1  984.40   58.59
   4  -1   1  876.71   58.49
   4  -1   1  915.41   58.79
   4  -1   1  903.81   58.49
   4  -1   1  959.60   58.39
   4  -1   1  998.30   58.49
  -5   1  -1   75.09    5.50
  -5   1  -1   81.39    6.00
  -5   1  -1   77.39    6.10
   5  -1   1   86.29    5.80
   5  -1   1   83.39    6.00
   5  -1   1   89.19    6.50
   5  -1   1   80.89    5.80
   5  -1   1   80.69    6.10
  -6   1  -1   84.99    6.70
  -6   1  -1   80.89    6.00
  -6   1  -1   84.89    6.60
   6  -1   1   86.89    7.20
   6  -1   1   92.19    6.50
   6  -1   1   91.89    6.60
   6  -1   1   96.39    6.40
   6  -1   1   85.89    6.70
  -7   1  -1    4.10    2.00
  -7   1  -1    3.90    1.90
   7  -1   1    4.70    1.90
   7  -1   1    5.70    1.80
   7  -1   1    4.70    2.20
   7  -1   1    6.20    2.50
   7  -1   1    5.50    1.90
  -8   1  -1   12.10    3.00
   8  -1   1    9.70    2.30
   8  -1   1   11.80    2.90
   8  -1   1   12.00    2.50
   8  -1   1   10.20    3.20
   9  -1   1    8.10    2.50
   9  -1   1    6.20    3.30
   9  -1   1   10.20    2.90
  10  -1   1  129.99    9.90
  10  -1   1  110.39   10.80
  10  -1   1  119.49    9.50
  11  -1   1   13.40    4.50
  11  -1   1    8.20    3.60
  12  -1   1   12.40    4.10
  12   0  -1   57.99    6.30
  12   0  -1   60.89    6.80
  12   0  -1   50.09    7.60
  11   0  -1    3.70    3.80
  11   0  -1   -1.20    2.90
  11   0  -1   -2.00    2.70
  10   0  -1   10.00    3.10
  10   0  -1    9.00    3.90
  10   0  -1    8.80    3.30
   9   0  -1   31.10    4.10
   9   0  -1   37.80    4.40
   9   0  -1   39.90    5.30
  -9   0   1   30.40    3.50
   8   0  -1   92.09    7.60
   8   0  -1   85.49    7.40
   8   0  -1  108.59    8.50
   7   0  -1   11.00    2.10
   7   0  -1    8.60    2.30
   7   0  -1    8.80    2.20
   7   0  -1   11.20    2.70
   7   0  -1   11.70    1.90
   6   0  -1  175.88   11.30
   6   0  -1  150.48   12.00
   6   0  -1  173.28   11.40
   6   0  -1  178.58   11.60
   6   0  -1  183.08   11.70
  -6   0   1  169.38   11.40
  -6   0   1  186.88   11.60
   5   0  -1    7.20    1.60
   5   0  -1    8.30    1.40
   5   0  -1    4.80    1.50
   5   0  -1    4.00    1.80
   5   0  -1    6.20    1.30
  -5   0   1    7.10    1.40
  -5   0   1    8.20    1.50
   4   0  -1 2244.88  139.29
   4   0  -1 2310.37  139.09
   4   0  -1 2343.07  139.29
   4   0  -1 2254.87  139.39
  -4   0   1 2173.18  139.09
  -4   0   1 2268.67  139.19
   3   0  -1   35.70    2.80
   3   0  -1   29.30    2.40
   3   0  -1   28.10    2.60
  -3   0   1   33.80    2.60
  -3   0   1   35.20    2.50
   2   0  -1   68.79    4.50
  -2   0   1   72.79    4.60
  -2   0   1   68.49    4.60
  -1   0   1 1339.37   82.09
   0   0  -1 6505.55  383.56
   0   0  -1 6065.39  383.76
   0   0   1 6204.48  383.46
  -1   0  -1 1946.01  116.69
  -1   0  -1 1988.60  116.89
  -1   0  -1 1763.42  116.79
   1   0   1 1922.41  117.29
  -2   0  -1 2239.18  131.19
  -2   0  -1 2230.98  131.19
   2   0   1 2153.88  131.09
   2   0   1 1927.41  131.19
  -3   0  -1    0.90    0.90
  -3   0  -1    2.00    0.80
   3   0   1    1.30    1.00
   3   0   1    1.50    0.90
  -4   0  -1    0.90    0.80
  -4   0  -1    2.30    1.10
  -4   0  -1    0.40    1.20
   4   0   1    1.90    1.10
   4   0   1   -1.00    1.10
   4   0   1   -1.10    0.90
   4   0   1   -0.50    1.30
   4   0   1    0.80    1.00
  -5   0  -1  141.29    9.40
  -5   0  -1  136.39    9.60
   5   0   1  138.39    9.30
   5   0   1  142.59    9.40
   5   0   1  144.39    9.50
   5   0   1  163.98   10.00
   5   0   1  119.99    9.40
  -6   0  -1   59.89    4.50
  -6   0  -1   49.99    4.40
  -6   0  -1   47.20    4.70
   6   0   1   51.49    4.60
   6   0   1   53.09    4.40
   6   0   1   58.29    5.20
   6   0   1   54.79    4.50
   6   0   1   52.69    4.70
   6   0   1   56.89    4.10
  -7   0  -1  161.38   10.80
  -7   0  -1  170.08   11.20
   7   0   1  152.78   11.10
   7   0   1  141.29   11.50
   7   0   1  164.08   10.90
   7   0   1  164.38   10.90
  -8   0  -1  110.69    7.70
   8   0   1  115.59    8.70
   8   0   1  105.89    8.20
   8   0   1  109.99    8.20
   8   0   1  112.79    9.20
   9   0   1   94.49    7.20
   9   0   1   70.99    7.30
   9   0   1   90.59    8.30
  10   0   1    2.00    2.80
  10   0   1    4.70    3.70
  10   0   1    5.00    2.70
  11   0   1   15.80    3.70
  11   0   1   10.30    3.60
  11   0   1   11.80    4.40
  12   0   1    4.10    3.50
  12  -1  -1    8.10    3.30
  12  -1  -1    7.00    4.30
  12  -1  -1    1.20    3.50
  11  -1  -1    0.50    3.00
  11  -1  -1    3.90    3.90
  11  -1  -1   -1.20    2.70
  10  -1  -1   29.90    4.30
  10  -1  -1   30.10    4.30
  10  -1  -1   23.30    5.00
   9  -1  -1    4.80    2.60
   9  -1  -1   10.20    2.80
   9  -1  -1    7.50    3.40
   8  -1  -1    4.60    2.70
   8  -1  -1    3.50    2.10
   8  -1  -1    2.80    1.50
   8  -1  -1    4.40    2.20
   7  -1  -1   20.50    3.10
   7  -1  -1   31.20    4.10
   7  -1  -1   31.20    3.00
   7  -1  -1   27.50    3.30
  -7   1   1   27.00    2.90
  -7   1   1   31.10    4.40
   6  -1  -1   96.39    6.60
   6  -1  -1   81.19    6.20
   6  -1  -1   75.49    6.10
   6  -1  -1   88.59    6.50
   6  -1  -1   88.09    7.10
  -6   1   1   97.19    6.50
   5  -1  -1   41.70    3.40
   5  -1  -1   45.90    3.50
   5  -1  -1   39.60    3.70
   5  -1  -1   39.90    4.00
   5  -1  -1   42.00    3.70
  -5   1   1   44.40    3.70
   4  -1  -1  541.15   32.60
   4  -1  -1  503.65   32.20
   4  -1  -1  499.65   32.30
   4  -1  -1  531.35   32.40
   3  -1  -1  636.34   39.70
   3  -1  -1  649.34   39.80
   3  -1  -1  617.34   39.70
  -3   1   1  669.53   39.70
   2  -1  -1    1.50    0.70
   2  -1  -1    0.80    0.60
  -2   1   1    0.70    0.60
   1  -1  -1 1067.59   65.69
   1  -1  -1 1074.89   65.59
   0  -1  -1    0.20    0.40
   0  -1  -1   -0.30    0.40
   0  -1  -1   -0.30    0.40
   0  -1  -1    0.80    0.40
   0   1   1    0.20    0.40
   0   1   1    0.00    0.40
  -1  -1  -1  354.86   21.60
   1   1   1  351.46   21.60
   1   1   1  345.57   21.70
  -2  -1  -1 3034.60  184.48
  -2  -1  -1 2940.01  184.48
   2   1   1 2873.31  184.68
   2   1   1 3180.38  184.38
  -3  -1  -1  724.73   49.99
   3   1   1  810.12   50.09
   3   1   1  823.12   49.99
   3   1   1  825.62   50.19
   3   1   1  859.81   50.19
   3   1   1  828.02   50.09
  -4  -1  -1    0.50    0.90
  -4  -1  -1    1.30    1.10
  -4  -1  -1    0.10    0.20
   4   1   1    0.60    1.30
   4   1   1    0.30    0.90
   4   1   1   -0.60    1.10
   4   1   1    0.80    1.20
   4   1   1    2.20    1.10
  -5  -1  -1  177.68   12.50
  -5  -1  -1  221.38   12.30
   5   1   1  184.68   12.40
   5   1   1  200.78   12.60
   5   1   1  195.48   12.40
   5   1   1  160.98   12.70
   5   1   1  188.58   12.60
  -6  -1  -1  281.37   17.50
  -6  -1  -1  275.47   17.70
  -6  -1  -1  246.38   17.20
   6   1   1  270.17   17.50
   6   1   1  279.27   17.70
   6   1   1  290.47   18.10
   6   1   1  260.87   17.40
  -7  -1  -1   15.70    2.80
  -7  -1  -1   16.40    2.60
   7   1   1   23.00    2.80
   7   1   1   22.00    2.80
   7   1   1   20.80    3.00
   7   1   1   19.30    3.40
  -8  -1  -1    0.10    1.80
   8   1   1    0.40    1.80
   8   1   1   -0.80    2.00
   8   1   1    1.90    1.70
   8   1   1    1.80    2.60
   9   1   1    6.90    3.20
   9   1   1    3.00    2.40
   9   1   1    5.90    2.50
  10   1   1   -3.90    2.40
  10   1   1   -0.90    2.60
  10   1   1    0.90    3.20
  11   1   1    2.10    3.50
  11   1   1    3.30    3.10
  11   1   1   -1.40    2.80
  12   1   1   49.00    6.20
  12  -2  -1   16.80    5.30
  12  -2  -1   26.00    4.60
  11  -2  -1    2.90    2.90
  11  -2  -1    5.10    3.10
  11  -2  -1    2.80    3.90
  10  -2  -1    0.90    2.70
  10  -2  -1   -0.70    3.10
  10  -2  -1   -1.80    2.40
   9  -2  -1    3.60    2.60
   9  -2  -1   -0.90    1.50
   9  -2  -1   -2.60    2.70
   9  -2  -1   -2.90    2.20
   8  -2  -1   63.69    6.00
   8  -2  -1   63.49    6.10
   8  -2  -1   73.09    7.10
   7  -2  -1  103.19    7.20
   7  -2  -1   98.89    8.30
   7  -2  -1   94.29    7.40
   7  -2  -1  105.19    7.60
  -7   2   1   91.89    7.40
   6  -2  -1   15.00    2.00
   6  -2  -1   12.60    2.60
   6  -2  -1   10.50    2.10
   6  -2  -1    6.30    2.00
   6  -2  -1   13.00    2.00
  -6   2   1    9.70    2.50
  -6   2   1   12.80    2.30
   5  -2  -1  183.98   12.30
   5  -2  -1  191.98   12.00
   5  -2  -1  189.48   12.60
   5  -2  -1  190.68   12.30
   5  -2  -1  194.58   12.10
  -5   2   1  162.78   12.20
   4  -2  -1   57.89    4.70
   4  -2  -1   54.09    4.30
   4  -2  -1   57.89    4.40
   4  -2  -1   58.99    4.20
   4  -2  -1   68.79    4.60
   3  -2  -1    5.20    1.20
   3  -2  -1    4.60    1.10
   3  -2  -1    5.40    1.50
   3  -2  -1    5.70    0.90
  -3   2   1    6.70    0.90
   2  -2  -1 1034.00   62.79
   2  -2  -1 1011.00   62.59
   2  -2  -1 1017.00   62.79
   1  -2  -1 2251.47  144.69
   1  -2  -1 2419.86  144.59
  -1   2   1 2404.06  144.59
   0  -2  -1 1612.74   98.29
   0  -2  -1 1593.24   98.29
  -1  -2  -1 4039.10  257.07
  -1  -2  -1 4248.88  257.07
  -1  -2  -1 4193.88  257.27
   1   2   1 4282.77  257.57
   2   2   1  225.38   14.10
  -3  -2  -1  383.46   21.70
   3   2   1  333.37   21.90
   3   2   1  363.86   22.00
   3   2   1  339.27   21.90
   3   2   1  327.87   21.90
  -4  -2  -1  193.48   13.30
  -4  -2  -1  222.58   13.70
   4   2   1  222.98   13.60
   4   2   1  180.58   13.60
   4   2   1  227.08   13.90
   4   2   1  214.68   13.50
   4   2   1  224.58   13.60
  -5  -2  -1    3.30    1.40
  -5  -2  -1    2.60    1.00
   5   2   1    3.20    1.70
   5   2   1    2.00    1.20
   5   2   1    2.00    1.30
   5   2   1    3.00    1.50
  -6  -2  -1    8.10    1.70
  -6  -2  -1   15.00    2.30
   6   2   1    9.20    1.90
   6   2   1    8.10    2.40
   6   2   1   14.10    2.00
   6   2   1    7.40    2.00
  -7  -2  -1   21.70    2.80
  -7  -2  -1   17.80    3.10
   7   2   1   19.10    2.80
   7   2   1   19.50    2.90
   7   2   1   19.30    2.60
   7   2   1   20.40    3.50
  -8  -2  -1   -0.70    1.80
   8   2   1    1.30    2.40
   8   2   1    0.50    2.20
   8   2   1   -0.90    1.60
   8   2   1   -2.80    1.80
  -9  -2  -1   -2.70    2.00
   9   2   1    0.90    2.90
   9   2   1    0.90    2.40
   9   2   1   -0.90    2.10
  10   2   1  112.89   10.00
  10   2   1  109.69    9.20
  10   2   1  115.09    9.50
  11   2   1    0.10    2.80
  11   2   1    2.90    3.70
  11   2   1    1.90    2.90
  12   2   1    5.20    3.40
  12   2   1   -0.20    4.10
  12   2   1   -2.50    4.10
  11  -3  -1   12.60    3.60
  11  -3  -1   10.50    3.60
  11  -3  -1   19.00    4.90
  10  -3  -1   -1.60    2.50
  10  -3  -1    0.40    2.60
  10  -3  -1    2.50    3.50
   9  -3  -1  156.18   11.20
   9  -3  -1  131.69   12.20
   9  -3  -1  165.18   11.40
   8  -3  -1   54.79    5.40
   8  -3  -1   51.89    5.60
   8  -3  -1   59.89    6.40
  -8   3   1   56.89    5.70
   7  -3  -1  138.39    9.70
   7  -3  -1  138.89   10.70
   7  -3  -1  146.19    9.60
   7  -3  -1  159.88   10.90
   7  -3  -1  131.79    9.90
   7  -3  -1  127.69   10.00
  -7   3   1  137.89   10.10
   6  -3  -1  116.99    8.30
   6  -3  -1  114.79    7.80
   6  -3  -1  110.79    8.80
   6  -3  -1  113.79    8.20
   6  -3  -1  111.09    8.00
  -6   3   1  106.19    8.40
  -6   3   1  130.39    8.50
   5  -3  -1   11.10    1.90
   5  -3  -1    7.00    1.60
   5  -3  -1    9.60    1.50
   5  -3  -1    9.70    2.20
   5  -3  -1    6.90    1.80
  -5   3   1    9.90    2.00
   4  -3  -1    0.80    1.10
   4  -3  -1    0.70    0.90
   4  -3  -1   -0.80    1.20
   4  -3  -1    9.90    1.60
   4  -3  -1    0.30    1.40
  -4   3   1    2.40    0.90
  -4   3   1    1.10    1.20
   3  -3  -1  145.19    8.80
   3  -3  -1  114.09    9.00
   3  -3  -1  137.39    8.80
   3  -3  -1  141.49    8.60
   2  -3  -1 3541.25  210.98
  -2   3   1 3340.67  211.08
   1  -3  -1   46.20    3.60
   1  -3  -1   55.29    3.40
   0  -3  -1  166.18   10.70
   0  -3  -1  174.38   10.70
  -1  -3  -1 1843.22  109.99
   1   3   1 1739.43  109.99
  -2  -3  -1  625.04   37.90
  -2  -3  -1  609.04   37.80
   2   3   1  612.74   37.90
   2   3   1  601.14   37.80
   3   3   1 1584.74   93.49
   3   3   1 1394.36   93.49
   3   3   1 1541.05   93.49
   3   3   1 1556.54   93.49
  -4  -3  -1  244.68   15.80
   4   3   1  251.17   15.70
   4   3   1  243.28   15.70
   4   3   1  236.48   15.80
   4   3   1  255.47   15.60
   4   3   1  238.38   16.00
  -5  -3  -1  485.85   29.50
   5   3   1  469.55   29.50
   5   3   1  459.25   29.40
   5   3   1  407.26   29.50
   5   3   1  515.45   29.90
   5   3   1  474.05   29.50
  -6  -3  -1   18.80    2.40
  -6  -3  -1   19.60    2.80
   6   3   1   20.20    3.10
   6   3   1   17.40    2.40
   6   3   1   17.60    2.70
   6   3   1   21.90    2.70
  -7  -3  -1   13.30    2.70
  -7  -3  -1   16.10    2.40
   7   3   1    8.70    2.50
   7   3   1   12.80    2.90
   7   3   1   15.80    2.40
   7   3   1   14.80    2.50
  -8  -3  -1   84.59    6.90
   8   3   1   85.49    7.90
   8   3   1   98.59    7.10
   8   3   1   84.69    7.20
   8   3   1   87.39    7.30
  -9  -3  -1   -1.10    2.10
   9   3   1   -1.50    2.20
   9   3   1    0.20    2.30
   9   3   1   -1.60    2.50
 -10  -3  -1   12.00    3.20
  10   3   1   20.80    3.60
  10   3   1   12.60    3.40
  10   3   1   18.20    4.40
  11   3   1    8.40    4.20
  11   3   1    6.90    3.30
  11   3   1    3.00    3.00
  12   3   1   15.80    4.10
  12   3   1   15.90    4.10
  12   3   1   11.70    4.80
  11  -4  -1   42.30    5.70
  11  -4  -1   50.79    7.00
  10  -4  -1    3.60    2.70
  10  -4  -1    5.40    3.80
  10  -4  -1   -1.50    2.60
   9  -4  -1   -0.50    2.50
   9  -4  -1    5.00    2.60
   9  -4  -1   -3.60    2.80
   8  -4  -1    5.80    2.60
   8  -4  -1    5.10    3.20
   8  -4  -1    5.80    2.40
  -8   4   1    7.00    2.70
   7  -4  -1   52.09    5.10
   7  -4  -1   54.99    4.80
   7  -4  -1   53.99    5.80
   7  -4  -1   50.39    4.90
  -7   4   1   58.09    5.40
   6  -4  -1   81.29    6.70
   6  -4  -1   74.29    7.00
   6  -4  -1   91.69    6.60
   6  -4  -1   94.09    6.50
  -6   4   1   93.19    6.90
  -6   4   1   85.69    7.00
   5  -4  -1   80.29    6.40
   5  -4  -1   68.59    5.80
   5  -4  -1   78.89    6.00
   5  -4  -1   82.89    5.80
   5  -4  -1   75.19    5.40
  -5   4   1   81.39    6.10
   4  -4  -1  290.57   18.80
   4  -4  -1  279.27   19.40
   4  -4  -1  311.17   19.00
  -4   4   1  299.67   19.00
  -4   4   1  321.47   19.30
   3  -4  -1   22.90    2.30
   3  -4  -1   32.70    3.10
   3  -4  -1   20.90    2.00
  -3   4   1   24.80    2.60
  -3   4   1   24.20    2.40
   2  -4  -1   43.10    3.60
  -2   4   1   54.89    3.70
   1  -4  -1 1895.71  123.19
   1  -4  -1 2062.69  123.39
   1  -4  -1 2058.69  123.39
  -1   4   1 2024.70  123.49
   0  -4  -1   98.09    6.80
   0   4   1  111.19    6.90
  -1  -4  -1  952.10   57.99
  -1  -4  -1  928.91   57.89
  -2  -4  -1  203.38   13.00
  -2  -4  -1  208.48   13.10
   2   4   1  205.78   13.20
   2   4   1  207.08   13.20
   2   4   1  202.18   13.10
  -3  -4  -1    0.40    1.10
  -3  -4  -1   -0.10    0.20
   3   4   1   -0.10    1.10
   3   4   1    1.60    1.20
   3   4   1   -1.80    1.00
   3   4   1   -1.50    0.80
   3   4   1    1.20    1.10
  -4  -4  -1  121.59    8.80
   4   4   1  138.99    8.90
   4   4   1  126.79    9.10
   4   4   1  136.69    8.80
   4   4   1  121.19    8.70
   4   4   1  125.49    8.60
  -5  -4  -1  210.78   14.10
  -5  -4  -1  225.88   14.40
   5   4   1  218.98   14.10
   5   4   1  245.08   14.80
   5   4   1  201.38   14.30
   5   4   1  211.88   14.30
   5   4   1  206.58   14.20
  -6  -4  -1  174.38   12.40
  -6  -4  -1  184.28   12.70
   6   4   1  209.88   13.30
   6   4   1  174.48   12.50
   6   4   1  172.18   12.50
   6   4   1  182.78   12.30
   6   4   1  205.98   12.70
  -7  -4  -1   99.39    7.70
   7   4   1   99.99    8.60
   7   4   1  103.09    7.60
   7   4   1   99.39    7.80
   7   4   1  114.39    8.10
  -8  -4  -1    3.40    1.90
   8   4   1    3.60    2.80
   8   4   1   -0.70    2.00
   8   4   1    2.80    2.20
  -9  -4  -1    0.20    2.00
   9   4   1    1.10    2.50
   9   4   1    2.10    3.00
   9   4   1    1.50    2.30
 -10  -4  -1    3.00    2.50
  10   4   1   -0.10    3.30
  10   4   1   -0.60    2.60
  10   4   1    1.50    2.70
  11   4   1   -0.60    3.60
  11   4   1    3.10    3.00
  11   4   1   -2.50    2.60
  11  -5  -1   -0.60    2.90
  11  -5  -1    3.00    4.00
  10  -5  -1   -4.30    3.30
  10  -5  -1   -5.60    2.40
   9  -5  -1    2.90    3.30
   9  -5  -1   -2.10    2.60
  -9   5   1   -3.50    2.30
   8  -5  -1   97.69    8.00
   8  -5  -1   92.79    8.70
   8  -5  -1  107.09    9.10
  -8   5   1   85.59    8.00
  -8   5   1   91.49    7.50
   7  -5  -1   90.79    7.90
   7  -5  -1   98.69    7.40
   7  -5  -1   84.49    6.90
  -7   5   1   74.29    6.70
  -7   5   1   97.09    7.60
   6  -5  -1    4.90    2.10
   6  -5  -1    5.60    2.40
   6  -5  -1    5.80    1.80
  -6   5   1    8.80    2.50
  -6   5   1    9.90    2.10
   5  -5  -1  481.15   32.20
   5  -5  -1  524.75   32.70
   5  -5  -1  512.75   31.70
   5  -5  -1  540.75   32.00
  -5   5   1  498.05   32.00
  -5   5   1  490.95   32.20
   4  -5  -1   45.10    4.70
   4  -5  -1   48.70    3.50
   4  -5  -1   45.00    3.90
  -4   5   1   47.80    4.30
   3  -5  -1 1671.83  101.99
   3  -5  -1 1835.32  101.79
   3  -5  -1 1758.52  102.49
  -3   5   1 1506.85  102.09
  -3   5   1 1503.15  101.99
   2  -5  -1  327.77   21.00
   2  -5  -1  339.57   21.30
   2  -5  -1  321.57   20.90
  -2   5   1  347.77   21.00
  -2   5   1  326.67   21.10
   1  -5  -1  412.06   24.90
   1  -5  -1  396.56   24.90
  -1   5   1  389.36   25.00
  -1   5   1  391.96   24.90
   0  -5  -1  138.09    8.80
   0  -5  -1  137.69    8.80
   0  -5  -1  123.69    8.90
   0   5   1  130.09    8.90
   0   5   1  145.09    9.00
  -1  -5  -1  145.59    9.60
  -1  -5  -1  146.29    9.70
   1   5   1  148.59    9.70
   1   5   1  153.58    9.80
  -2  -5  -1  309.67   19.60
  -2  -5  -1  311.47   19.80
  -2  -5  -1  305.87   19.70
   2   5   1  308.47   19.80
   2   5   1  341.27   20.10
   2   5   1  284.47   20.20
   2   5   1  318.67   19.70
  -3  -5  -1  290.77   19.50
  -3  -5  -1  304.47   19.20
   3   5   1  316.67   19.70
   3   5   1  297.47   19.30
   3   5   1  309.27   19.50
   3   5   1  310.77   19.50
  -4  -5  -1  267.07   18.10
  -4  -5  -1  277.17   18.00
   4   5   1  317.57   18.60
   4   5   1  255.57   18.10
   4   5   1  272.47   18.10
   4   5   1  296.97   18.00
  -5  -5  -1   53.49    4.50
  -5  -5  -1   51.69    4.80
   5   5   1   56.09    4.80
   5   5   1   57.69    4.50
   5   5   1   56.99    4.80
   5   5   1   49.30    4.70
   5   5   1   58.59    5.30
  -6  -5  -1   24.90    2.90
  -6  -5  -1   20.10    3.10
   6   5   1   25.80    3.70
   6   5   1   17.60    2.80
   6   5   1   23.30    3.10
   6   5   1   27.40    3.20
   6   5   1   20.50    2.70
  -7  -5  -1   62.79    5.60
   7   5   1   64.39    5.50
   7   5   1   66.99    5.80
   7   5   1   69.19    6.00
   7   5   1   63.29    6.60
   7   5   1   73.89    6.10
  -8  -5  -1    1.20    1.90
   8   5   1    2.50    2.30
   8   5   1    1.00    2.40
   8   5   1    3.40    2.80
  -9  -5  -1   25.40    3.70
   9   5   1   25.60    4.00
   9   5   1   17.90    4.40
   9   5   1   15.10    3.50
 -10  -5  -1   79.09    7.40
  10   5   1   91.09    9.10
  10   5   1   75.39    7.70
  10   5   1   76.59    7.60
  11   5   1   17.40    3.90
  11   5   1   11.40    3.80
  11   5   1    6.80    4.30
  11  -6  -1   -4.10    2.90
  10  -6  -1   47.80    6.30
  10  -6  -1   61.89    7.80
   9  -6  -1   16.50    3.90
   9  -6  -1   24.60    5.10
  -9   6   1   25.40    4.40
   8  -6  -1   -0.50    2.80
   8  -6  -1   -3.40    2.20
  -8   6   1    0.60    2.00
  -8   6   1    2.20    2.90
   7  -6  -1   22.10    4.00
   7  -6  -1   14.30    2.70
   7  -6  -1   17.50    3.30
  -7   6   1   18.40    2.80
  -7   6   1   19.10    3.70
   6  -6  -1    1.50    2.20
   6  -6  -1    3.00    2.00
   6  -6  -1   -1.20    1.60
  -6   6   1    4.40    2.30
  -6   6   1    2.50    1.70
   5  -6  -1    0.10    1.50
   5  -6  -1    1.60    1.70
   5  -6  -1    0.20    1.90
  -5   6   1    1.30    1.90
  -5   6   1    3.00    1.60
   4  -6  -1   14.50    2.20
   4  -6  -1   17.50    1.80
   4  -6  -1   15.50    2.80
  -4   6   1   14.30    2.20
  -4   6   1   15.90    2.60
   3  -6  -1  538.85   35.20
   3  -6  -1  558.84   35.20
   3  -6  -1  539.65   34.90
   3  -6  -1  509.05   35.60
  -3   6   1  626.94   35.50
  -3   6   1  607.14   35.20
   2  -6  -1  783.92   51.09
   2  -6  -1  802.52   50.69
   2  -6  -1  840.62   50.69
  -2   6   1  836.62   50.69
  -2   6   1  822.72   50.89
   1  -6  -1 1511.55   97.49
   1  -6  -1 1601.24   97.49
  -1   6   1 1658.93   97.69
  -1   6   1 1558.34   97.49
   0  -6  -1  179.88   11.10
   0  -6  -1  166.38   11.20
   0   6   1  168.28   11.30
  -1  -6  -1  273.17   17.30
  -1  -6  -1  266.77   17.20
   1   6   1  268.67   17.40
   1   6   1  252.47   17.40
   1   6   1  297.97   17.70
  -2  -6  -1 1556.14   98.29
  -2  -6  -1 1531.05   97.89
   2   6   1 1559.24   98.09
   2   6   1 1497.05   98.19
   2   6   1 1817.42   98.59
  -3  -6  -1   24.80    2.80
  -3  -6  -1   30.50    2.70
  -3  -6  -1   27.70    3.10
   3   6   1   29.50    2.80
   3   6   1   32.40    3.20
   3   6   1   32.70    3.10
   3   6   1   24.10    3.30
  -4  -6  -1  661.93   40.50
  -4  -6  -1  634.44   40.30
   4   6   1  696.73   40.50
   4   6   1  634.94   40.20
   4   6   1  633.64   40.40
   4   6   1  643.34   40.40
   4   6   1  605.94   40.60
  -5  -6  -1  584.64   35.50
  -5  -6  -1  569.74   35.70
   5   6   1  539.95   35.60
   5   6   1  555.74   35.30
   5   6   1  543.05   35.50
   5   6   1  580.64   35.60
   5   6   1  563.94   35.90
  -6  -6  -1   57.49    5.00
  -6  -6  -1   51.69    5.60
   6   6   1   54.59    4.90
   6   6   1   60.09    5.40
   6   6   1   61.19    5.40
   6   6   1   61.99    5.40
   6   6   1   56.19    6.00
  -7  -6  -1  245.08   16.30
   7   6   1  262.37   17.10
   7   6   1  227.08   16.40
   7   6   1  230.48   16.10
   7   6   1  232.08   16.40
   7   6   1  252.77   16.50
  -8  -6  -1  229.88   16.70
   8   6   1  234.28   17.60
   8   6   1  251.67   17.00
   8   6   1  275.77   17.10
  -9  -6  -1   88.59    7.90
   9   6   1   81.69    8.00
   9   6   1  101.39    8.30
   9   6   1  101.29    9.30
 -10  -6  -1   18.30    3.60
  10   6   1   16.80    4.80
  10   6   1   22.90    4.20
  10   6   1   12.90    3.70
  11   6   1   55.79    6.40
  11   6   1   56.39    6.30
  11   6   1   43.70    7.00
  10  -7  -1    0.20    3.30
   9  -7  -1    1.90    2.60
   9  -7  -1   -0.10    2.90
   9  -7  -1    3.50    3.70
  -9   7   1    5.70    3.40
   8  -7  -1    1.80    2.60
   8  -7  -1   -1.00    2.90
  -8   7   1    0.30    2.90
  -8   7   1    0.70    2.60
   7  -7  -1   38.30    5.80
   7  -7  -1   58.49    5.80
   7  -7  -1   56.29    5.20
  -7   7   1   54.49    5.20
  -7   7   1   59.89    6.30
   6  -7  -1   47.50    5.50
   6  -7  -1   47.60    4.60
   6  -7  -1   52.69    5.20
  -6   7   1   52.69    5.40
  -6   7   1   39.70    4.40
   5  -7  -1  161.38   12.40
   5  -7  -1  171.18   11.60
  -5   7   1  162.38   12.00
  -5   7   1  186.58   11.70
   4  -7  -1  117.09    8.30
   4  -7  -1  122.99    9.20
   4  -7  -1  119.59    8.30
  -4   7   1  108.39    8.30
  -4   7   1  119.79    8.70
   3  -7  -1   61.59    5.60
   3  -7  -1   65.59    4.60
   3  -7  -1   57.79    4.90
   3  -7  -1   63.59    5.00
  -3   7   1   67.79    5.30
  -3   7   1   53.89    4.90
   2  -7  -1    1.70    1.30
   2  -7  -1    0.80    1.40
   2  -7  -1    0.00    1.60
  -2   7   1   -0.40    1.50
  -2   7   1    0.20    1.30
  -2   7   1    0.00    1.60
   1  -7  -1  703.93   43.90
   1  -7  -1  694.63   43.80
   1  -7  -1  727.83   44.30
  -1   7   1  632.94   44.00
  -1   7   1  672.43   43.90
  -1   7   1  794.52   44.40
   0  -7  -1  177.08   12.20
   0  -7  -1  186.38   12.80
   0  -7  -1  185.78   12.20
   0   7   1  181.08   12.40
   0   7   1  206.48   12.80
   0   7   1  183.38   12.40
  -1  -7  -1 1763.02  112.39
  -1  -7  -1 1818.62  112.29
  -1  -7  -1 1940.51  112.59
   1   7   1 1745.03  112.49
   1   7   1 1989.70  112.89
   1   7   1 1688.03  112.49
  -2  -7  -1  159.28   11.20
  -2  -7  -1  169.38   10.80
  -2  -7  -1  165.28   11.00
   2   7   1  175.88   11.20
   2   7   1  163.58   11.10
   2   7   1  145.49   11.30
   2   7   1  177.08   11.00
  -3  -7  -1 2015.10  128.79
  -3  -7  -1 2159.48  129.29
  -3  -7  -1 2057.39  129.09
   3   7   1 2077.89  128.99
   3   7   1 2007.20  129.19
   3   7   1 2255.57  129.29
  -4  -7  -1   67.89    5.30
  -4  -7  -1   74.79    5.70
   4   7   1   66.69    5.60
   4   7   1   69.29    5.70
   4   7   1   73.09    5.40
   4   7   1   60.79    5.50
   4   7   1   61.09    5.90
  -5  -7  -1  593.04   37.00
  -5  -7  -1  584.44   36.80
   5   7   1  572.34   36.90
   5   7   1  548.65   36.90
   5   7   1  599.94   37.40
   5   7   1  595.34   36.60
  -6  -7  -1  103.79    7.60
   6   7   1  103.39    7.90
   6   7   1   77.69    8.10
   6   7   1  103.29    7.80
   6   7   1  100.99    7.80
   6   7   1  107.49    7.50
  -7  -7  -1   94.59    8.10
   7   7   1   96.49    8.20
   7   7   1  100.39    8.40
   7   7   1  125.49    9.40
   7   7   1  108.29    8.40
  -8  -7  -1   -0.60    1.90
   8   7   1    0.10    2.80
   8   7   1   -1.10    2.40
   8   7   1   -2.90    2.10
  -9  -7  -1   62.39    6.40
   9   7   1   59.89    7.30
   9   7   1   55.89    6.40
   9   7   1   76.09    6.70
  10   7   1   -2.10    3.10
  10   7   1   -5.50    3.00
  10   7   1    0.80    2.80
  11   7   1    7.60    4.00
  11   7   1   -1.80    3.00
  11   7   1    3.70    3.00
  10  -8  -1   12.00    4.00
   9  -8  -1   60.39    6.70
  -9   8   1   52.99    6.80
   8  -8  -1   -0.80    3.00
   8  -8  -1    1.70    2.90
   8  -8  -1    2.00    2.40
  -8   8   1    5.60    3.50
   7  -8  -1    1.70    2.20
   7  -8  -1   -4.80    2.00
   7  -8  -1    3.50    3.20
   7  -8  -1    3.10    2.50
  -7   8   1   -6.30    2.70
  -7   8   1   -2.20    2.00
   6  -8  -1  168.08   11.60
   6  -8  -1  166.68   11.70
   6  -8  -1  148.49   11.90
   6  -8  -1  157.28   12.60
  -6   8   1  176.08   12.30
  -6   8   1  173.38   12.60
  -6   8   1  166.08   11.60
   5  -8  -1  176.28   12.40
   5  -8  -1  185.68   13.40
   5  -8  -1  175.08   12.40
  -5   8   1  182.38   12.90
  -5   8   1  185.38   12.40
   4  -8  -1  150.78   10.50
   4  -8  -1  157.98   10.50
   4  -8  -1  151.78   11.30
  -4   8   1  143.79   10.90
  -4   8   1  149.29   10.50
   3  -8  -1 1824.82  110.69
   3  -8  -1 1784.92  110.09
   3  -8  -1 1780.22  110.09
   3  -8  -1 1653.23  109.79
  -3   8   1 1847.92  110.09
  -3   8   1 1808.92  110.39
   2  -8  -1  276.57   18.10
   2  -8  -1  290.27   18.70
   2  -8  -1  276.47   18.10
  -2   8   1  312.57   18.50
  -2   8   1  233.98   18.80
  -2   8   1  288.77   18.20
   1  -8  -1 2289.67  141.89
   1  -8  -1 2341.37  142.49
   1  -8  -1 2258.97  141.99
  -1   8   1 2248.58  142.09
  -1   8   1 2389.26  142.29
   0  -8  -1  562.94   35.40
   0  -8  -1  582.24   35.30
   0  -8  -1  526.85   35.80
   0   8   1  600.94   35.70
   0   8   1  549.15   35.50
  -1  -8  -1 1662.33  102.19
  -1  -8  -1 1635.34  102.39
  -1  -8  -1 1800.82  102.69
   1   8   1 1635.64  102.49
   1   8   1 1497.45  102.49
   1   8   1 1719.73  102.89
  -2  -8  -1    0.00    1.10
  -2  -8  -1   -1.30    1.30
  -2  -8  -1    0.80    1.60
   2   8   1    1.40    1.70
   2   8   1    3.50    1.90
   2   8   1    2.10    1.40
   2   8   1    0.20    1.60
  -3  -8  -1  406.26   26.50
  -3  -8  -1  445.56   26.80
  -3  -8  -1  426.16   26.20
   3   8   1  397.66   26.60
   3   8   1  401.36   26.40
   3   8   1  388.16   26.60
   3   8   1  444.96   27.10
  -4  -8  -1  317.07   20.20
  -4  -8  -1  303.27   19.90
   4   8   1  336.27   20.20
   4   8   1  298.37   20.10
   4   8   1  306.47   20.10
   4   8   1  320.77   19.80
   4   8   1  270.37   20.40
  -5  -8  -1   37.40    4.50
  -5  -8  -1   35.70    4.20
   5   8   1   54.09    4.40
   5   8   1   51.99    5.50
   5   8   1   44.20    4.70
   5   8   1   50.09    4.80
   5   8   1   44.10    4.70
  -6  -8  -1   35.10    3.70
   6   8   1   26.80    3.90
   6   8   1   22.10    4.20
   6   8   1   38.00    3.70
   6   8   1   25.30    3.70
   6   8   1   24.40    3.80
  -7  -8  -1   67.49    5.60
   7   8   1   46.60    5.50
   7   8   1   52.09    5.60
   7   8   1   46.40    6.10
   7   8   1   57.59    5.70
  -8  -8  -1   -0.30    2.20
   8   8   1    1.10    2.70
   8   8   1   -3.00    2.20
   8   8   1   -2.20    2.80
   8   8   1    0.80    2.40
  -9  -8  -1    3.30    2.50
   9   8   1    0.60    2.80
   9   8   1   -2.60    2.40
   9   8   1    1.40    3.20
  10   8   1    2.30    3.00
  10   8   1    7.80    3.50
  10   8   1    3.60    3.80
  10  -9  -1    4.40    3.60
   9  -9  -1  139.89   12.00
  -9   9   1  158.98   12.90
   8  -9  -1   41.70    5.60
  -8   9   1   48.40    6.40
   7  -9  -1  390.96   27.70
   7  -9  -1  401.16   27.40
  -7   9   1  476.75   28.70
   6  -9  -1   50.29    5.20
   6  -9  -1   52.49    5.40
   6  -9  -1   56.09    6.50
   6  -9  -1   48.80    5.70
  -6   9   1   59.49    6.10
  -6   9   1   61.79    5.50
  -6   9   1   47.50    6.10
   5  -9  -1 1019.80   66.59
   5  -9  -1 1005.10   66.49
   5  -9  -1 1098.49   67.59
  -5   9   1 1098.09   67.09
  -5   9   1 1113.79   66.59
   4  -9  -1   15.90    2.80
   4  -9  -1   17.30    2.80
   4  -9  -1   19.70    3.60
  -4   9   1   15.00    3.10
  -4   9   1   12.80    2.60
   3  -9  -1  711.43   46.00
   3  -9  -1  746.43   46.00
   3  -9  -1  755.52   46.70
  -3   9   1  744.43   46.30
  -3   9   1  706.33   46.00
   2  -9  -1  109.69    7.30
   2  -9  -1   99.09    7.30
   2  -9  -1   96.29    8.00
  -2   9   1   97.89    7.40
  -2   9   1   88.09    7.60
   1  -9  -1  191.48   13.60
   1  -9  -1  199.78   13.40
  -1   9   1  207.18   13.80
  -1   9   1  223.88   14.00
  -1   9   1  197.18   14.10
   0  -9  -1   81.89    6.40
   0  -9  -1   85.09    6.20
   0   9   1   77.69    6.50
   0   9   1   84.19    6.70
  -1  -9  -1    4.10    1.70
  -1  -9  -1    3.70    1.50
   1   9   1    3.00    1.90
   1   9   1    4.80    1.90
   1   9   1    2.50    1.60
   1   9   1    2.50    2.00
  -2  -9  -1   67.79    5.80
  -2  -9  -1   78.19    5.70
  -2  -9  -1   66.39    5.20
   2   9   1   68.69    5.90
   2   9   1   67.49    6.10
   2   9   1   64.99    5.80
   2   9   1   63.99    5.40
  -3  -9  -1   35.10    3.70
  -3  -9  -1   31.50    3.10
  -3  -9  -1   30.70    3.80
   3   9   1   33.00    3.90
   3   9   1   29.90    3.70
   3   9   1   21.80    3.80
   3   9   1   31.40    3.40
  -4  -9  -1   -1.20    1.60
  -4  -9  -1    0.90    2.00
   4   9   1    0.20    2.00
   4   9   1   -1.80    1.90
   4   9   1    0.10    2.10
   4   9   1    0.60    1.60
   4   9   1    2.10    2.10
  -5  -9  -1    5.90    2.10
   5   9   1    6.90    2.00
   5   9   1    5.50    2.50
   5   9   1    7.00    2.60
   5   9   1    5.00    2.80
   5   9   1    2.90    2.10
  -6  -9  -1  136.59   10.30
   6   9   1  129.59   10.40
   6   9   1  143.59   10.60
   6   9   1  151.98   11.70
   6   9   1  138.49   10.70
  -7  -9  -1   18.50    3.40
   7   9   1   21.10    3.70
   7   9   1   19.30    3.70
   7   9   1   25.50    4.00
   7   9   1   19.40    4.50
  -8  -9  -1   60.09    6.60
   8   9   1   72.79    7.20
   8   9   1   79.89    7.30
   8   9   1   80.09    7.10
   8   9   1   65.69    8.10
  -9  -9  -1   36.60    5.10
   9   9   1   31.80    4.80
   9   9   1   35.50    6.10
   9   9   1   25.80    4.60
  10   9   1  222.38   17.30
  10   9   1  216.48   16.00
  10   9   1  206.18   15.60
   9 -10  -1  206.38   15.50
   8 -10  -1  135.69   12.00
  -8  10   1  173.38   13.20
   7 -10  -1  330.57   22.00
   7 -10  -1  294.77   22.20
  -7  10   1  362.66   23.30
   6 -10  -1   60.49    5.80
   6 -10  -1   60.99    6.30
   6 -10  -1   53.29    5.40
  -6  10   1   46.40    6.50
  -6  10   1   60.39    6.40
  -6  10   1   46.00    5.20
   5 -10  -1  233.88   16.10
   5 -10  -1  232.08   16.00
  -5  10   1  233.28   16.00
  -5  10   1  244.28   16.60
   4 -10  -1  116.49    9.20
   4 -10  -1  127.49    9.40
  -4  10   1  118.29    9.70
  -4  10   1  134.19    9.40
   3 -10  -1   69.39    5.90
   3 -10  -1   68.19    5.60
  -3  10   1   62.39    5.80
  -3  10   1   59.89    6.30
   2 -10  -1   10.60    2.30
   2 -10  -1   14.70    2.60
  -2  10   1   14.20    2.80
  -2  10   1   18.30    3.30
   1 -10  -1   53.19    5.20
   1 -10  -1   60.39    5.10
  -1  10   1   61.39    5.60
  -1  10   1   58.79    5.40
   0 -10  -1    6.90    1.90
   0 -10  -1    7.30    2.00
   0  10   1    7.70    2.60
   0  10   1    5.70    2.10
   0  10   1    5.70    2.30
  -1 -10  -1   11.80    2.50
  -1 -10  -1   12.10    2.10
   1  10   1   12.40    2.40
   1  10   1   13.30    2.70
   1  10   1   14.00    2.90
   1  10   1   17.30    3.40
  -2 -10  -1   40.40    3.80
  -2 -10  -1   42.50    4.40
  -2 -10  -1   49.20    5.10
   2  10   1   41.90    4.50
   2  10   1   49.30    5.20
   2  10   1   40.20    4.20
   2  10   1   33.60    4.30
  -3 -10  -1   88.39    6.70
  -3 -10  -1   82.39    7.20
  -3 -10  -1   90.79    7.50
   3  10   1   94.39    7.50
   3  10   1   87.99    7.10
   3  10   1   85.89    7.40
   3  10   1  111.19    8.20
  -4 -10  -1  681.53   42.10
  -4 -10  -1  617.04   41.20
   4  10   1  662.73   41.10
   4  10   1  636.44   41.40
   4  10   1  640.74   41.50
   4  10   1  706.83   42.20
   4  10   1  614.94   41.40
  -5 -10  -1    1.30    2.00
   5  10   1    4.00    2.60
   5  10   1    0.70    2.20
   5  10   1    0.40    2.30
   5  10   1    0.20    2.60
  -6 -10  -1  270.17   18.00
   6  10   1  268.57   18.20
   6  10   1  240.08   18.00
   6  10   1  273.67   19.00
   6  10   1  266.67   18.20
  -7 -10  -1   36.30    4.60
   7  10   1   33.10    4.80
   7  10   1   30.20    4.60
   7  10   1   34.00    5.50
   7  10   1   35.10    4.90
  -8 -10  -1  334.97   23.40
   8  10   1  354.36   23.80
   8  10   1  362.86   25.00
   8  10   1  366.66   24.00
   8  10   1  332.37   23.70
   9  10   1    8.60    3.60
   9  10   1    8.90    4.60
   9  10   1   10.80    3.60
   8 -11  -1   -0.60    3.10
   7 -11  -1   18.60    4.10
  -7  11   1   12.20    4.70
   6 -11  -1   -4.50    2.20
   6 -11  -1    3.10    2.40
   6 -11  -1    1.40    2.70
  -6  11   1   -0.40    3.60
  -6  11   1    6.20    3.40
   5 -11  -1    5.50    2.40
   5 -11  -1    3.80    2.50
  -5  11   1    0.80    3.40
  -5  11   1    8.00    2.70
  -5  11   1    4.40    3.00
   4 -11  -1   96.69    7.90
   4 -11  -1   91.79    7.70
  -4  11   1   88.09    7.90
  -4  11   1  115.09    8.80
   3 -11  -1    7.10    2.40
   3 -11  -1   11.70    2.70
  -3  11   1    6.20    2.60
  -3  11   1    8.50    3.00
   2 -11  -1  104.59    7.60
   2 -11  -1   84.59    7.30
  -2  11   1   93.09    7.80
  -2  11   1   95.19    8.10
   1 -11  -1   70.29    6.20
   1 -11  -1   68.39    5.90
  -1  11   1   76.79    6.70
  -1  11   1   74.59    6.60
   0 -11  -1  203.08   14.00
   0 -11  -1  202.38   13.70
   0  11   1  202.78   14.20
   0  11   1  209.58   14.40
  -1 -11  -1   48.50    4.90
  -1 -11  -1   49.70    4.50
   1  11   1   46.90    5.10
   1  11   1   53.09    4.90
   1  11   1   40.60    5.00
   1  11   1   48.80    5.80
  -2 -11  -1 1044.00   64.09
  -2 -11  -1 1043.90   64.49
   2  11   1  998.00   64.29
   2  11   1 1026.70   64.79
   2  11   1 1041.00   64.69
  -3 -11  -1  164.18   14.00
  -3 -11  -1  193.18   13.90
   3  11   1  209.18   13.80
   3  11   1  233.08   15.10
   3  11   1  199.68   14.20
   3  11   1  203.58   14.20
  -4 -11  -1  232.68   15.00
   4  11   1  223.68   15.30
   4  11   1  170.08   15.40
   4  11   1  223.98   15.30
   4  11   1  219.48   15.20
   4  11   1  233.98   15.00
  -5 -11  -1  219.38   13.90
   5  11   1  213.78   14.20
   5  11   1  149.09   14.40
   5  11   1  203.28   14.10
   5  11   1  199.88   14.20
  -6 -11  -1  111.39    9.40
   6  11   1  129.89   10.90
   6  11   1  108.89    9.70
   6  11   1  117.19    9.90
   6  11   1  136.89    9.90
  -7 -11  -1   25.00    4.10
   7  11   1   30.50    4.70
   7  11   1   31.20    4.70
   7  11   1   20.20    4.80
   7  11   1   31.70    4.70
   8  11   1    2.90    3.20
   8  11   1    0.80    3.20
   8  11   1    5.50    3.90
   8  11   1   -2.20    2.90
   9  11   1    8.50    4.30
   9  11   1   14.50    3.90
   9  11   1    8.10    3.80
   8 -12  -1    2.40    3.30
   7 -12  -1    0.60    3.20
   6 -12  -1   59.89    7.10
  -6  12   1   63.99    7.90
  -6  12   1   68.59    7.60
   5 -12  -1    2.30    2.50
   5 -12  -1    5.90    2.80
  -5  12   1    4.90    3.30
  -5  12   1   10.10    4.10
  -5  12   1    8.60    3.10
   4 -12  -1  146.89   11.30
   4 -12  -1  161.08   11.30
  -4  12   1  145.79   12.00
  -4  12   1  158.58   11.60
   3 -12  -1   62.19    5.80
   3 -12  -1   62.19    5.90
  -3  12   1   51.19    6.20
  -3  12   1   65.09    6.20
   2 -12  -1  225.58   15.40
   2 -12  -1  223.28   15.20
  -2  12   1  213.28   15.40
  -2  12   1  224.98   15.80
   1 -12  -1   48.30    5.10
   1 -12  -1   50.99    4.90
  -1  12   1   49.00    5.80
  -1  12   1   49.90    5.40
   0 -12  -1  812.42   52.89
   0 -12  -1  872.21   53.29
   0  12   1  889.71   53.29
   0  12   1  777.92   53.49
   0  12   1  876.21   53.49
  -1 -12  -1   71.89    6.70
  -1 -12  -1   73.89    6.20
   1  12   1   77.59    7.10
   1  12   1   73.19    6.60
   1  12   1   82.19    7.20
  -2 -12  -1   86.19    8.10
   2  12   1  113.39    8.70
   2  12   1   99.39    8.10
   2  12   1  105.79    8.60
   2  12   1  111.29    9.40
  -3 -12  -1   52.69    5.50
   3  12   1   52.79    5.90
   3  12   1   51.79    5.80
   3  12   1   48.40    6.30
   3  12   1   61.19    5.50
   3  12   1   59.09    6.10
  -4 -12  -1    5.20    2.50
   4  12   1    6.70    2.90
   4  12   1    4.30    3.20
   4  12   1    5.40    3.00
   4  12   1   10.00    3.30
  -5 -12  -1   21.60    3.60
   5  12   1   11.80    3.50
   5  12   1   18.90    4.40
   5  12   1   20.00    3.90
   5  12   1   15.40    3.70
  -6 -12  -1    5.60    2.70
   6  12   1   -0.30    2.80
   6  12   1    3.10    3.00
   6  12   1    3.60    3.00
   6  12   1    3.60    3.40
   7  12   1   23.50    4.50
   7  12   1   27.50    5.40
   7  12   1   24.40    4.70
   7  12   1   23.90    4.50
   8  12   1   24.80    4.80
   8  12   1   22.70    4.70
   8  12   1   18.50    4.30
   7 -13  -1   92.49    9.30
   6 -13  -1   77.19    8.10
  -6  13   1   77.39    8.60
   5 -13  -1  124.79    9.90
  -5  13   1  112.19   10.80
  -5  13   1  131.79   11.50
   4 -13  -1   31.40    4.60
   4 -13  -1   39.70    4.90
  -4  13   1   44.90    6.30
  -4  13   1   43.30    6.00
  -4  13   1   36.50    5.00
   3 -13  -1   56.79    6.30
   3 -13  -1   65.89    6.30
  -3  13   1   72.79    7.30
  -3  13   1   70.39    6.80
   2 -13  -1  173.58   11.70
   2 -13  -1  144.99   11.20
  -2  13   1  145.29   12.20
  -2  13   1  159.68   11.90
   1 -13  -1   10.00    3.00
   1 -13  -1    7.30    2.50
  -1  13   1    9.20    3.50
  -1  13   1    8.90    3.20
   0 -13  -1   12.30    2.60
   0 -13  -1   12.30    3.00
   0  13   1   14.00    3.00
   0  13   1   14.70    3.60
   0  13   1   16.20    3.60
  -1 -13  -1    2.20    2.40
   1  13   1    5.90    2.90
   1  13   1    2.10    2.30
   1  13   1   -3.30    2.60
  -2 -13  -1   72.79    6.60
   2  13   1   77.79    7.00
   2  13   1   70.89    7.00
   2  13   1   56.49    6.70
  -3 -13  -1  112.19    9.20
   3  13   1  121.49    9.70
   3  13   1  109.69    9.50
   3  13   1  116.99    9.70
  -4 -13  -1    3.10    2.50
   4  13   1    2.80    3.20
   4  13   1    6.00    3.20
   4  13   1    4.90    3.20
  -5 -13  -1   66.59    6.70
   5  13   1   61.49    7.10
   5  13   1   72.89    7.20
   5  13   1   67.39    7.10
   6  13   1    2.70    3.30
   6  13   1    2.70    3.10
   6  13   1    1.30    3.30
   7  13   1   49.30    6.50
   7  13   1   60.29    6.90
   7  13   1   62.69    6.90
   6 -14  -1   20.00    4.70
  -6  14   1   26.00    5.30
  -5  14   1   21.50    4.90
   4 -14  -1   55.29    6.10
  -4  14   1   53.49    7.50
  -4  14   1   58.29    7.20
   3 -14  -1   62.89    6.70
  -3  14   1   73.99    7.20
  -3  14   1   74.89    8.10
  -3  14   1   71.59    7.80
   2 -14  -1    1.80    2.60
   2 -14  -1    2.10    2.20
  -2  14   1   -1.30    3.30
  -2  14   1    0.90    2.90
  -2  14   1    4.70    3.40
   1 -14  -1   26.90    4.10
   1 -14  -1   23.20    3.60
  -1  14   1   21.90    4.70
  -1  14   1   28.30    4.50
  -1  14   1   18.90    4.50
  -1  14   1   23.60    4.00
   0 -14  -1    1.10    2.40
   0  14   1   -2.10    3.00
   0  14   1    0.40    2.30
   0  14   1   -4.70    2.60
  -1 -14  -1   75.09    7.30
   1  14   1   77.99    7.90
   1  14   1   81.29    7.90
  -2 -14  -1  141.59   11.90
   2  14   1  159.88   12.50
   2  14   1  174.18   12.50
  -3 -14  -1   15.50    3.60
   3  14   1   16.80    4.00
   3  14   1   14.30    3.90
   3  14   1   12.60    3.80
  -4 -14  -1  139.29   11.70
   4  14   1  126.89   10.90
   4  14   1  113.19   10.50
   4  14   1  129.09   10.60
   5  14   1    4.70    3.70
   5  14   1    0.30    3.20
   5  14   1    0.90    3.30
   6  14   1  288.77   20.70
   6  14   1  275.57   20.60
   6  14   1  311.17   20.80
  -4  15   1   11.60    4.50
  -3  15   1   10.40    4.20
  -3  15   1    7.80    4.20
  -2  15   1    2.90    3.80
  -2  15   1   -1.70    3.00
  -2  15   1   -0.80    3.60
   1 -15  -1   -1.00    3.70
  -1  15   1   -2.30    2.80
  -1  15   1   -4.70    3.10
   0 -15  -1  138.69   11.30
   0  15   1  127.09   11.70
   0  15   1  149.69   11.50
   1  15   1    1.30    3.10
   1  15   1    3.50    3.40
   2  15   1   55.99    7.00
   2  15   1   64.09    6.80
   2  15   1   54.99    6.80
   3  15   1    6.40    3.50
   3  15   1    5.00    3.50
   3  15   1   -1.80    3.20
   4  15   1   75.99    8.00
   4  15   1   64.69    7.70
   4  15   1   77.09    7.70
   5  15   1   -5.60    3.10
   5  15   1   -2.60    3.40
   5  15   1   -4.60    3.00
  -2  16   1  193.38   14.60
  -2  16   1  160.98   13.40
  -1  16   1   -1.50    3.60
  -1  16   1    3.40    3.40
   0  16   1   35.90    5.40
   0  16   1   34.30    5.70
   1  16   1   30.70    5.40
   1  16   1   25.60    4.90
   2  16   1    8.00    3.90
   2  16   1   10.60    4.00
   2  16   1    7.20    3.70
   3  15  -2   10.50    4.60
   3  15  -2   15.30    3.90
   3  15  -2   13.70    3.90
   3  15  -2   11.80    3.80
   2  15  -2    1.70    3.00
   2  15  -2    4.70    3.30
   2  15  -2   -1.40    3.50
   2  15  -2   -1.70    2.80
   1  15  -2    5.30    3.50
   1  15  -2    0.90    2.90
   0  15  -2   10.00    3.80
  -1  15  -2   15.10    4.40
  -2  15  -2   95.89    9.50
  -3  15  -2   10.60    4.10
   5  14  -2    5.90    3.30
   5  14  -2    3.40    3.30
   5  14  -2    0.20    3.50
   5  14  -2   -2.10    2.80
   4  14  -2  170.28   15.60
   4  14  -2  197.18   14.70
   4  14  -2  213.98   14.70
   4  14  -2  215.78   15.10
   3  14  -2   28.10    4.50
   3  14  -2   26.60    4.40
   3  14  -2   17.70    4.10
   3  14  -2   29.40    5.70
   2  14  -2   79.59    7.70
   2  14  -2   83.89    7.60
   2  14  -2   72.89    8.60
   2  14  -2   70.49    7.40
  -2 -14   2   72.29    7.30
   1  14  -2   61.79    6.40
   1  14  -2   61.79    7.60
   1  14  -2   71.69    6.80
   1  14  -2   52.69    6.40
  -1 -14   2   60.49    6.40
   0  14  -2  244.38   17.90
   0  14  -2  269.87   17.70
   0 -14   2  239.38   17.50
  -1  14  -2   10.10    3.60
   1 -14   2    7.80    2.90
  -2  14  -2   49.00    6.70
  -2  14  -2   66.79    7.20
   2 -14   2   60.39    6.40
  -3  14  -2   16.20    4.30
  -3  14  -2   12.90    4.10
  -4  14  -2    2.10    3.60
  -5  14  -2   28.40    5.40
   6  13  -2  113.49   10.40
   6  13  -2  125.49   11.40
   6  13  -2  124.09   10.60
   6  13  -2  113.29    9.70
   5  13  -2    4.90    3.60
   5  13  -2    3.20    3.00
   5  13  -2   -2.80    2.50
   5  13  -2    0.60    3.00
   4  13  -2    0.70    2.70
   4  13  -2    1.30    2.70
   4  13  -2   10.60    3.60
   4  13  -2   -1.10    2.80
  -4 -13   2    1.00    2.40
   3  13  -2    1.60    2.60
   3  13  -2    2.80    2.90
   3  13  -2    0.10    2.90
   3  13  -2    0.30    2.70
  -3 -13   2    2.70    2.40
   2  13  -2    4.90    3.40
   2  13  -2   -2.10    2.40
   2  13  -2    0.60    2.70
   2  13  -2    0.80    2.70
  -2 -13   2    4.50    2.40
   1  13  -2   21.70    4.80
   1  13  -2   22.80    4.00
   1  13  -2   35.40    4.70
   1  13  -2   25.90    4.20
  -1 -13   2   24.30    3.70
   0  13  -2   -0.90    2.80
   0  13  -2    4.70    2.70
   0  13  -2    3.90    3.10
   0 -13   2    6.60    2.60
  -1  13  -2   67.69    6.70
  -1  13  -2   82.99    7.70
  -1  13  -2   79.69    8.10
   1 -13   2   58.99    6.50
  -2  13  -2   95.49    9.30
  -2  13  -2  109.79    9.50
   2 -13   2  116.79    9.00
  -3  13  -2   20.50    4.30
  -3  13  -2   18.00    4.20
   3 -13   2   13.00    3.40
  -4  13  -2    1.70    3.30
  -4  13  -2   -2.90    3.10
   4 -13   2   -1.70    2.40
  -5  13  -2    8.90    4.10
  -5  13  -2   14.10    4.60
  -6  13  -2    7.40    4.10
   6 -13   2    6.50    3.50
   7  12  -2    4.80    3.40
   7  12  -2    3.30    3.40
   7  12  -2    3.30    3.50
   7  12  -2    0.90    2.80
   6  12  -2    3.50    3.50
   6  12  -2    2.80    3.10
   6  12  -2    5.70    3.30
   6  12  -2    4.50    2.90
  -6 -12   2    4.70    2.80
   5  12  -2   18.40    4.30
   5  12  -2   12.20    3.50
   5  12  -2    7.00    3.30
   5  12  -2   16.70    3.50
  -5 -12   2   19.00    3.40
   4  12  -2    8.50    3.30
   4  12  -2    6.30    2.90
   4  12  -2    9.00    3.70
   4  12  -2    0.40    2.60
  -4 -12   2   10.30    2.80
   3  12  -2   83.89    7.10
   3  12  -2   52.39    7.10
   3  12  -2   71.19    6.90
   3  12  -2   83.39    7.10
  -3 -12   2   77.19    6.70
   2  12  -2  107.89    8.70
   2  12  -2  117.99    9.70
   2  12  -2  105.29    8.80
   2  12  -2   91.39    8.60
  -2 -12   2  101.69    8.40
   1  12  -2   89.89    7.90
   1  12  -2  110.89    9.20
   1  12  -2   91.79    7.80
   1  12  -2   87.99    7.90
  -1 -12   2   85.89    7.60
   0  12  -2    0.60    2.60
   0  12  -2    3.80    3.00
   0  12  -2    3.60    2.50
   0 -12   2    1.90    2.10
  -1  12  -2   12.80    3.80
  -1  12  -2   11.40    2.90
  -1  12  -2    7.10    3.10
  -1  12  -2   10.30    3.10
   1 -12   2    8.30    2.60
  -2  12  -2  190.78   14.10
  -2  12  -2  171.28   14.70
  -2  12  -2  207.98   14.30
   2 -12   2  198.38   13.40
   2 -12   2  196.18   13.70
  -3  12  -2    2.70    3.10
  -3  12  -2    2.40    3.00
   3 -12   2    3.30    2.50
   3 -12   2    8.60    2.40
  -4  12  -2   30.30    4.90
  -4  12  -2   32.70    5.10
   4 -12   2   32.10    4.20
   4 -12   2   42.40    4.80
  -5  12  -2    0.30    3.50
  -5  12  -2    1.20    3.30
   5 -12   2    2.50    2.30
   5 -12   2   -2.60    2.30
  -6  12  -2   14.80    4.40
  -6  12  -2   25.10    5.20
   6 -12   2   26.00    4.70
   6 -12   2   17.00    3.80
  -7  12  -2   13.50    4.40
   7 -12   2   13.60    4.10
   8  11  -2    1.90    3.20
   8  11  -2    0.90    2.60
   8  11  -2    6.60    3.80
   7  11  -2   16.10    4.10
   7  11  -2   23.20    4.30
   7  11  -2   20.40    4.70
   7  11  -2   23.80    3.80
  -7 -11   2    9.40    3.20
   6  11  -2   21.90    4.60
   6  11  -2   19.80    4.10
   6  11  -2   18.70    3.50
   6  11  -2   15.20    3.90
  -6 -11   2   19.90    3.50
   5  11  -2   33.20    4.60
   5  11  -2   43.20    5.10
   5  11  -2   33.20    4.40
   5  11  -2   24.30    4.70
  -5 -11   2   29.40    4.10
   4  11  -2  190.28   16.50
   4  11  -2  229.18   16.00
   4  11  -2  253.87   16.30
   4  11  -2  247.48   16.40
  -4 -11   2  249.88   16.00
   3  11  -2   21.50    4.00
   3  11  -2   13.50    3.10
   3  11  -2   15.00    3.20
   3  11  -2   18.10    3.40
  -3 -11   2   21.50    3.30
   2  11  -2    6.00    2.50
   2  11  -2    7.80    2.60
   2  11  -2    7.00    2.90
   2  11  -2   10.90    2.90
  -2 -11   2    2.40    2.10
   1  11  -2    2.80    2.30
   1  11  -2    2.30    2.80
   1  11  -2    2.40    2.20
  -1 -11   2    1.00    1.90
   0  11  -2  185.18   12.40
   0  11  -2  166.78   12.60
   0  11  -2  172.98   12.50
   0 -11   2  180.98   12.40
  -1  11  -2   12.10    3.00
  -1  11  -2   12.20    3.40
  -1  11  -2    9.70    3.00
  -1  11  -2   15.20    2.90
   1 -11   2    8.40    2.50
   1 -11   2   12.40    2.40
  -2  11  -2   14.00    3.20
  -2  11  -2   17.40    3.00
  -2  11  -2   14.90    3.30
  -2  11  -2   10.30    3.70
   2 -11   2   11.40    2.40
   2 -11   2   13.30    2.80
  -3  11  -2    3.00    2.70
  -3  11  -2    3.30    2.90
  -3  11  -2    0.10    3.20
   3 -11   2    1.10    2.10
   3 -11   2    3.80    2.00
  -4  11  -2   -0.40    2.60
  -4  11  -2    0.00    2.80
   4 -11   2    0.60    2.10
   4 -11   2    1.70    2.30
  -5  11  -2    5.70    3.50
  -5  11  -2    5.80    3.30
   5 -11   2    3.30    2.40
   5 -11   2    7.20    2.70
  -6  11  -2    0.50    3.10
  -6  11  -2   -5.70    3.10
   6 -11   2   -1.80    2.40
   6 -11   2   -2.60    2.40
   6 -11   2    3.70    3.10
  -7  11  -2    3.10    3.60
  -7  11  -2    2.30    3.70
   7 -11   2    5.50    2.90
   7 -11   2    2.40    3.20
  -8  11  -2   58.09    7.50
   8 -11   2   65.29    7.50
   9  10  -2   31.20    6.10
   9  10  -2   33.60    5.40
   9  10  -2   36.70    4.70
   8  10  -2  128.29   10.00
   8  10  -2  116.09   10.80
   8  10  -2  133.09   11.60
   7  10  -2   53.29    7.60
   7  10  -2   93.19    7.80
   7  10  -2   90.19    7.30
   7  10  -2   83.39    7.90
  -7 -10   2   81.19    7.10
   6  10  -2  408.06   26.60
   6  10  -2  440.36   26.30
   6  10  -2  394.36   26.50
   6  10  -2  341.17   26.80
  -6 -10   2  417.96   26.20
   5  10  -2  167.48   11.60
   5  10  -2  133.89   10.60
   5  10  -2  137.29   10.80
   5  10  -2  139.99   10.50
  -5 -10   2  130.19   10.30
   4  10  -2    5.40    2.90
   4  10  -2    4.80    2.30
   4  10  -2    8.10    2.80
   4  10  -2    4.30    2.60
  -4 -10   2    7.20    2.20
   3  10  -2  162.98   11.70
   3  10  -2  148.79   11.10
   3  10  -2  155.28   11.00
   3  10  -2  139.59   10.90
  -3 -10   2  152.28   10.80
   2  10  -2   66.89    6.00
   2  10  -2   68.99    5.80
   2  10  -2   62.49    6.00
  -2 -10   2   63.39    5.70
   1  10  -2  164.88   11.20
   1  10  -2  164.98   11.20
   1  10  -2  123.09   11.50
  -1 -10   2  181.68   11.20
   0  10  -2    6.60    2.30
   0  10  -2    7.50    2.30
   0  10  -2    9.20    2.40
   0  10  -2    8.20    3.00
   0 -10   2   10.00    1.90
   0 -10   2    9.10    2.30
  -1  10  -2  188.78   13.00
  -1  10  -2  199.68   12.70
  -1  10  -2  184.38   12.90
  -1  10  -2  179.78   13.30
   1 -10   2  182.18   12.30
   1 -10   2  169.18   12.50
  -2  10  -2   45.60    5.40
  -2  10  -2   37.00    4.70
  -2  10  -2   43.50    5.00
  -2  10  -2   46.80    4.50
   2 -10   2   40.80    4.10
   2 -10   2   43.90    4.60
  -3  10  -2   36.70    4.80
  -3  10  -2   48.80    5.50
  -3  10  -2   38.70    5.00
  -3  10  -2   47.70    5.00
   3 -10   2   45.20    4.60
   3 -10   2   37.90    4.20
   3 -10   2   39.30    4.50
  -4  10  -2    4.90    2.90
  -4  10  -2   -0.20    2.40
   4 -10   2   -0.80    1.80
   4 -10   2    4.40    2.40
  -5  10  -2   20.10    4.10
  -5  10  -2   16.10    3.70
   5 -10   2   13.40    3.10
   5 -10   2   27.80    3.60
  -6  10  -2  125.09   11.00
  -6  10  -2  121.29   10.60
   6 -10   2  133.09    9.90
   6 -10   2  127.19   10.60
   6 -10   2  132.79   10.00
  -7  10  -2   44.00    6.40
  -7  10  -2   44.00    6.20
   7 -10   2   62.09    6.60
   7 -10   2   50.59    5.60
   7 -10   2   52.79    6.60
  -8  10  -2    9.50    4.20
  -8  10  -2   12.20    4.30
   8 -10   2   15.70    4.20
   8 -10   2   15.70    3.60
  -9  10  -2   37.70    6.10
   9 -10   2   39.20    5.90
   9   9  -2   76.89    7.90
   9   9  -2   78.49    8.80
   9   9  -2   66.29    6.70
   8   9  -2  103.89    8.20
   8   9  -2   90.69    8.80
   8   9  -2  107.49    9.90
  -8  -9   2   88.59    8.10
   7   9  -2   97.59    8.10
   7   9  -2   94.69    8.60
   7   9  -2  110.19    9.70
  -7  -9   2   98.59    8.10
   6   9  -2   51.99    5.90
   6   9  -2   26.70    3.90
   6   9  -2   37.80    4.70
   6   9  -2   31.20    4.40
  -6  -9   2   30.90    4.00
   5   9  -2   37.50    5.40
   5   9  -2   51.79    5.40
   5   9  -2   53.99    5.20
   5   9  -2   57.29    5.40
  -5  -9   2   60.89    5.10
   4   9  -2   -0.80    2.00
   4   9  -2   -0.60    2.00
   4   9  -2    1.40    1.90
   4   9  -2    3.80    2.40
  -4  -9   2    2.20    1.80
   3   9  -2    0.70    1.80
   3   9  -2    1.10    2.20
   3   9  -2    0.10    1.80
   3   9  -2    1.60    2.00
  -3  -9   2    1.60    1.70
   2   9  -2   16.70    3.30
   2   9  -2   26.10    3.40
   2   9  -2   27.20    3.20
   2   9  -2   27.80    3.30
  -2  -9   2   30.50    3.20
   1   9  -2   31.40    3.70
   1   9  -2   36.90    4.30
   1   9  -2   33.60    3.70
   1   9  -2   36.30    3.40
   1   9  -2   37.50    3.70
  -1  -9   2   37.40    3.70
  -1  -9   2   30.10    3.50
   0   9  -2   48.70    4.90
   0   9  -2   68.89    5.80
   0   9  -2   50.29    4.90
   0   9  -2   48.50    4.70
   0  -9   2   53.69    4.80
   0  -9   2   51.89    4.30
  -1   9  -2  219.98   15.60
  -1   9  -2  241.38   15.70
  -1   9  -2  240.58   16.10
  -1   9  -2  220.18   15.30
   1  -9   2  236.38   15.20
   1  -9   2  235.68   15.40
  -2   9  -2   26.60    4.40
  -2   9  -2   45.40    4.10
  -2   9  -2   44.10    4.60
  -2   9  -2   45.00    4.70
   2  -9   2   38.10    3.80
   2  -9   2   42.40    4.10
  -3   9  -2  407.56   26.70
  -3   9  -2  434.06   26.90
  -3   9  -2  410.36   26.00
   3  -9   2  419.16   26.20
   3  -9   2  390.96   26.30
   3  -9   2  394.36   26.30
  -4   9  -2   72.29    6.50
  -4   9  -2   70.39    6.80
  -4   9  -2   67.29    6.80
   4  -9   2   69.59    6.10
   4  -9   2   62.89    5.80
   4  -9   2   68.89    5.80
  -5   9  -2  142.29   11.80
  -5   9  -2  157.28   11.60
   5  -9   2  151.58   10.90
   5  -9   2  159.48   11.20
  -6   9  -2    1.60    3.00
  -6   9  -2    3.20    3.10
   6  -9   2    1.80    2.50
   6  -9   2    1.00    2.30
  -7   9  -2   14.00    3.60
  -7   9  -2   14.10    4.00
   7  -9   2   14.60    3.30
   7  -9   2    2.90    3.00
  -8   9  -2   14.80    4.30
  -8   9  -2   14.80    4.10
   8  -9   2   18.40    4.20
   8  -9   2   13.30    3.50
  -9   9  -2   12.70    4.20
   9  -9   2   20.70    4.60
  10   8  -2   12.60    4.60
  10   8  -2   17.00    3.40
  10   8  -2   19.00    4.50
   9   8  -2   64.39    7.80
   9   8  -2   66.99    7.10
   9   8  -2   64.59    6.40
  -9  -8   2   68.99    6.60
   8   8  -2   19.60    3.30
   8   8  -2   13.80    4.00
   8   8  -2   12.60    3.50
  -8  -8   2   22.80    3.50
   7   8  -2   15.50    3.10
   7   8  -2    9.40    3.00
   7   8  -2   15.60    3.70
  -7  -8   2   13.90    2.90
   6   8  -2    1.90    2.50
   6   8  -2    4.50    2.40
   6   8  -2   -1.50    1.80
   6   8  -2   -1.00    2.10
  -6  -8   2    1.30    1.90
   5   8  -2   23.60    3.40
   5   8  -2   20.30    3.10
   5   8  -2   26.40    3.60
   5   8  -2   18.40    3.60
  -5  -8   2   17.80    2.80
   4   8  -2   71.39    5.70
   4   8  -2   64.99    6.20
   4   8  -2   86.79    6.80
   4   8  -2   66.39    6.00
  -4  -8   2   63.29    5.70
   3   8  -2   58.29    5.40
   3   8  -2   70.19    5.80
   3   8  -2   62.69    5.20
   3   8  -2   57.39    5.20
  -3  -8   2   52.89    5.00
   2   8  -2  190.38   13.50
   2   8  -2  214.88   13.20
   2   8  -2  202.18   13.50
   2   8  -2  203.08   13.60
   2   8  -2  188.08   13.90
  -2  -8   2  215.78   13.50
   1   8  -2   46.10    3.90
   1   8  -2   45.10    4.20
   1   8  -2   48.80    4.10
   1   8  -2   48.80    4.30
  -1  -8   2   49.80    4.30
  -1  -8   2   45.90    3.70
   0   8  -2    6.50    2.30
   0   8  -2    7.90    1.90
   0   8  -2    6.40    1.90
   0   8  -2    6.10    1.90
   0  -8   2    3.20    1.60
   0  -8   2    5.10    1.40
  -1   8  -2    5.60    2.10
  -1   8  -2    8.60    2.10
  -1   8  -2    5.00    2.10
  -1   8  -2    7.30    1.80
   1  -8   2    4.90    1.60
   1  -8   2    5.00    1.50
  -2   8  -2  310.57   20.90
  -2   8  -2  311.67   20.40
  -2   8  -2  315.37   20.80
  -2   8  -2  333.37   21.20
   2  -8   2  317.97   20.40
   2  -8   2  323.37   20.60
  -3   8  -2   79.19    6.60
  -3   8  -2   74.49    6.80
  -3   8  -2   81.59    6.00
   3  -8   2   74.39    6.00
   3  -8   2   81.09    6.30
   3  -8   2   80.89    6.30
  -4   8  -2   69.99    6.70
  -4   8  -2   74.39    6.40
  -4   8  -2   74.49    6.70
   4  -8   2   62.29    5.90
   4  -8   2   71.79    5.80
  -5   8  -2  180.28   13.10
  -5   8  -2  172.08   12.80
   5  -8   2  182.38   12.50
  -6   8  -2    9.30    3.30
  -6   8  -2    6.30    3.00
   6  -8   2    3.40    2.60
   6  -8   2    7.40    2.50
  -7   8  -2  140.09   11.80
  -7   8  -2  167.88   11.80
   7  -8   2  134.59   11.20
   7  -8   2  150.08   11.00
  -8   8  -2   49.90    6.30
  -8   8  -2   36.60    5.60
   8  -8   2   38.20    4.80
   8  -8   2   45.60    5.80
  -9   8  -2   63.29    7.10
  -9   8  -2   62.69    7.30
   9  -8   2   50.39    6.40
   9  -8   2   53.49    6.70
  10  -8   2   12.80    4.30
  10   7  -2    1.50    2.50
  10   7  -2   -1.30    3.10
  10   7  -2   -0.10    3.40
   9   7  -2   38.80    4.60
   9   7  -2   40.30    5.80
   9   7  -2   43.60    5.60
  -9  -7   2   40.80    4.80
   8   7  -2    1.60    2.60
   8   7  -2   -1.50    2.00
   8   7  -2    1.20    2.80
  -8  -7   2   -1.90    2.00
   7   7  -2  115.89    9.20
   7   7  -2  120.89   10.10
   7   7  -2  126.79    9.70
  -7  -7   2  137.99    9.40
   6   7  -2   41.60    4.70
   6   7  -2   56.79    5.40
   6   7  -2   55.79    5.70
   6   7  -2   49.50    5.40
  -6  -7   2   53.69    4.90
   5   7  -2   48.70    5.30
   5   7  -2   52.79    5.20
   5   7  -2   63.99    5.00
   5   7  -2   50.89    5.20
  -5  -7   2   60.49    4.90
   4   7  -2  308.57   20.50
   4   7  -2  320.17   20.30
   4   7  -2  313.97   20.50
   4   7  -2  310.87   20.80
  -4  -7   2  314.77   20.20
   3   7  -2   22.70    2.30
   3   7  -2   18.40    2.90
   3   7  -2   19.60    2.70
   3   7  -2   16.90    2.50
   3   7  -2   20.00    2.80
  -3  -7   2   18.90    2.40
   2   7  -2    5.60    1.80
   2   7  -2    9.60    1.80
   2   7  -2   12.40    1.70
   2   7  -2   10.80    2.20
   2   7  -2    8.20    1.80
   2   7  -2   11.40    1.60
  -2  -7   2    8.40    1.70
  -2  -7   2    6.50    1.20
   1   7  -2  205.08   13.30
   1   7  -2  205.58   13.10
   1   7  -2  173.48   13.20
   1   7  -2  216.48   13.20
  -1  -7   2  204.38   13.20
  -1  -7   2  204.88   12.90
   0   7  -2   37.50    3.60
   0   7  -2   37.70    3.30
   0   7  -2   32.60    3.30
   0   7  -2   28.20    3.60
   0  -7   2   34.60    3.30
   0  -7   2   33.40    2.90
  -1   7  -2  605.84   39.80
  -1   7  -2  632.94   40.00
  -1   7  -2  703.83   40.40
  -1   7  -2  656.43   40.10
   1  -7   2  630.24   39.70
   1  -7   2  603.14   39.90
  -2   7  -2    1.70    1.70
  -2   7  -2    3.50    1.80
  -2   7  -2    4.10    2.00
  -2   7  -2    2.10    1.30
   2  -7   2    0.80    1.20
   2  -7   2   -0.60    1.10
  -3   7  -2  362.76   23.80
  -3   7  -2  355.06   24.00
  -3   7  -2  377.06   23.30
  -3   7  -2  414.66   24.10
   3  -7   2  365.36   23.60
   3  -7   2  344.67   23.60
  -4   7  -2  223.48   14.20
  -4   7  -2  210.98   14.80
  -4   7  -2  195.98   15.00
  -4   7  -2  264.07   15.50
   4  -7   2  207.38   14.50
   4  -7   2  217.88   14.60
  -5   7  -2  137.09    9.80
  -5   7  -2  121.89    9.90
   5  -7   2  130.29    9.30
   5  -7   2  126.89    9.30
   5  -7   2  133.09    9.70
  -6   7  -2   65.99    6.60
  -6   7  -2   79.99    7.20
   6  -7   2   68.79    6.40
   6  -7   2   62.29    6.00
  -7   7  -2   30.00    4.60
  -7   7  -2   31.80    4.60
   7  -7   2   25.40    3.70
   7  -7   2   29.60    4.20
  -8   7  -2   23.30    4.40
  -8   7  -2   29.40    4.90
   8  -7   2   18.50    4.00
   8  -7   2   20.80    3.70
  -9   7  -2    0.60    3.00
  -9   7  -2    1.10    3.20
   9  -7   2    2.40    3.10
   9  -7   2   -2.70    2.50
 -10   7  -2   61.39    7.60
  10  -7   2   61.39    7.40
  11   6  -2   11.30    4.00
  11   6  -2    5.10    4.10
  11   6  -2   13.60    3.20
  10   6  -2   43.60    6.60
  10   6  -2   46.80    5.30
  10   6  -2   66.49    6.80
 -10  -6   2   58.79    8.10
   9   6  -2    0.30    2.70
   9   6  -2    0.70    2.90
   9   6  -2    2.00    2.10
  -9  -6   2    2.00    2.30
   8   6  -2   35.00    5.10
   8   6  -2   31.10    4.40
   8   6  -2   30.90    3.80
  -8  -6   2   33.90    4.00
   7   6  -2   97.89    7.60
   7   6  -2   90.49    8.10
   7   6  -2  128.39    9.00
  -7  -6   2   90.69    7.70
   6   6  -2  874.31   52.09
   6   6  -2  819.52   51.59
   6   6  -2  881.61   52.09
   6   6  -2  750.72   52.19
  -6  -6   2  814.82   51.59
   5   6  -2  521.55   32.30
   5   6  -2  498.75   32.10
   5   6  -2  498.45   31.80
   5   6  -2  483.25   32.00
  -5  -6   2  512.15   31.80
   4   6  -2  370.26   24.80
   4   6  -2  382.76   25.00
   4   6  -2  403.96   24.70
   4   6  -2  377.36   24.80
  -4  -6   2  401.36   24.60
   3   6  -2  529.15   33.80
   3   6  -2  537.75   33.80
   3   6  -2  526.35   33.60
   3   6  -2  549.54   33.40
  -3  -6   2  541.65   33.60
   2   6  -2  150.98    9.70
   2   6  -2  160.88   10.40
   2   6  -2  151.18   10.20
   2   6  -2  154.28   10.10
   2   6  -2  137.29   10.10
   2   6  -2  148.79    9.80
  -2  -6   2  148.59    9.60
  -2  -6   2  154.98   10.00
   1   6  -2  400.96   24.90
   1   6  -2  409.96   24.80
   1   6  -2  382.76   24.70
   1   6  -2  374.66   24.90
  -1  -6   2  408.06   24.60
  -1  -6   2  391.46   24.80
   0   6  -2  278.87   18.00
   0   6  -2  282.17   18.40
   0   6  -2  296.37   18.40
   0   6  -2  285.57   18.30
   0  -6   2  288.17   18.10
   0  -6   2  294.27   18.30
  -1   6  -2   20.90    2.50
  -1   6  -2   15.80    2.50
  -1   6  -2   28.00    2.40
  -1   6  -2   22.90    2.70
   1  -6   2   15.50    2.10
   1  -6   2   21.70    2.10
  -2   6  -2   10.90    2.40
  -2   6  -2   22.10    2.70
  -2   6  -2   24.50    2.30
  -2   6  -2   24.90    2.90
   2  -6   2   21.40    1.70
  -3   6  -2    3.90    1.90
  -3   6  -2    3.20    1.70
  -3   6  -2    4.50    1.30
  -3   6  -2    4.70    2.00
   3  -6   2    2.50    1.50
   3  -6   2    4.30    1.40
  -4   6  -2  862.01   53.39
  -4   6  -2  891.31   53.79
  -4   6  -2  891.31   52.89
  -4   6  -2  811.82   53.49
   4  -6   2  848.92   53.19
   4  -6   2  813.92   53.09
  -5   6  -2    8.10    2.60
  -5   6  -2    1.40    2.10
  -5   6  -2    9.00    2.50
   5  -6   2    1.50    1.60
   5  -6   2    4.10    1.90
   5  -6   2    6.30    2.20
  -6   6  -2  346.77   22.20
  -6   6  -2  298.67   22.10
   6  -6   2  347.07   21.80
   6  -6   2  340.77   21.60
   6  -6   2  335.87   22.10
  -7   6  -2    3.30    2.70
  -7   6  -2    2.80    2.70
   7  -6   2    3.50    2.20
   7  -6   2    4.40    2.60
  -8   6  -2  150.78   11.60
  -8   6  -2  156.18   11.80
   8  -6   2  144.29   11.50
   8  -6   2  150.28   11.00
  -9   6  -2   50.09    6.20
  -9   6  -2   46.10    5.90
   9  -6   2   38.30    5.50
   9  -6   2   39.40    4.80
  10  -6   2   57.49    6.90
  11  -6   2   28.10    5.10
  11   5  -2   19.60    5.00
  11   5  -2   12.30    3.20
  11   5  -2   19.50    4.40
  10   5  -2   34.90    5.90
  10   5  -2   40.70    5.50
  10   5  -2   37.20    4.60
 -10  -5   2   40.80    4.80
   9   5  -2  105.59    9.30
   9   5  -2   92.39    7.70
   9   5  -2   93.29    8.80
  -9  -5   2  100.79    8.00
   8   5  -2  274.67   17.30
   8   5  -2  225.18   17.90
   8   5  -2  282.77   17.90
  -8  -5   2  254.67   17.30
   7   5  -2  125.29   10.40
   7   5  -2  142.29   10.10
   7   5  -2  134.99    9.70
  -7  -5   2  140.09    9.70
   6   5  -2   39.60    4.50
   6   5  -2   35.60    3.80
   6   5  -2   44.70    4.30
  -6  -5   2   37.50    3.80
   5   5  -2    2.80    1.80
   5   5  -2    1.30    1.40
   5   5  -2    3.70    1.80
   5   5  -2   -1.40    1.60
   5   5  -2    2.10    1.60
  -5  -5   2    2.90    1.40
   4   5  -2  124.69    8.90
   4   5  -2  119.09    8.60
   4   5  -2  112.79    8.30
   4   5  -2  130.19    8.40
   4   5  -2  119.99    8.70
   4   5  -2  127.59    8.20
  -4  -5   2  128.69    8.40
   3   5  -2   21.10    2.00
   3   5  -2   20.10    2.60
   3   5  -2   22.40    2.40
   3   5  -2   22.40    2.60
   3   5  -2   23.70    2.60
  -3  -5   2   21.20    2.30
   2   5  -2   56.19    4.30
   2   5  -2   54.69    3.70
   2   5  -2   53.89    4.20
   2   5  -2   55.89    4.00
   2   5  -2   46.00    4.30
  -2  -5   2   56.79    4.00
  -2  -5   2   51.79    3.60
   1   5  -2   18.90    2.00
   1   5  -2   17.60    2.00
   1   5  -2   21.00    2.40
   1   5  -2   18.80    2.10
   1   5  -2   19.60    2.10
   1   5  -2   20.60    1.90
  -1  -5   2   21.20    2.10
  -1  -5   2   19.40    1.70
   0   5  -2  168.88   10.80
   0   5  -2  157.48   10.60
   0   5  -2  169.88   10.50
   0   5  -2  164.38   10.60
   0   5  -2  156.08   10.40
   0  -5   2  162.48   10.50
   0  -5   2  157.88   10.30
  -1   5  -2  123.79    8.30
  -1   5  -2  123.79    8.20
  -1   5  -2  115.89    8.00
   1  -5   2  125.09    8.10
  -2   5  -2 1366.16   87.89
  -2   5  -2 1199.78   87.89
  -2   5  -2 1470.45   87.49
  -2   5  -2 1427.16   87.79
   2  -5   2 1631.04   87.19
  -3   5  -2  981.80   58.49
  -3   5  -2  891.71   59.09
  -3   5  -2 1031.30   58.99
  -3   5  -2  849.41   59.09
   3  -5   2 1032.00   58.89
   3  -5   2  909.11   58.79
  -4   5  -2  500.35   30.80
  -4   5  -2  489.35   31.40
  -4   5  -2  538.35   31.70
   4  -5   2  482.95   31.20
   4  -5   2  490.45   31.20
   4  -5   2  472.95   31.60
  -5   5  -2  522.75   32.20
  -5   5  -2  507.45   32.00
  -5   5  -2  477.75   32.00
  -5   5  -2  517.25   31.30
   5  -5   2  494.35   31.70
   5  -5   2  522.15   32.30
   5  -5   2  472.15   31.90
   5  -5   2  493.45   31.70
  -6   5  -2   23.30    3.60
  -6   5  -2   21.80    3.50
   6  -5   2   22.40    2.90
   6  -5   2   26.90    4.80
   6  -5   2   22.80    3.00
   6  -5   2   24.60    3.40
  -7   5  -2  264.97   17.90
  -7   5  -2  252.17   17.90
   7  -5   2  256.07   17.80
   7  -5   2  270.77   17.50
  -8   5  -2   37.70    4.90
  -8   5  -2   35.10    4.70
   8  -5   2   30.20    4.30
   8  -5   2   30.30    4.10
  -9   5  -2   59.09    6.30
  -9   5  -2   58.69    6.60
   9  -5   2   42.00    5.80
   9  -5   2   43.50    5.20
  10  -5   2   19.20    4.40
  11  -5   2    3.10    3.50
  11   4  -2   13.90    4.60
  11   4  -2   12.20    3.00
  11   4  -2   13.30    3.90
  10   4  -2   74.09    7.70
  10   4  -2   88.09    9.00
  10   4  -2   77.39    7.20
 -10  -4   2   89.29    7.40
   9   4  -2    3.40    2.70
   9   4  -2    2.00    2.10
   9   4  -2    4.10    3.20
  -9  -4   2   -0.80    2.00
   8   4  -2   33.60    4.70
   8   4  -2   28.10    4.00
   8   4  -2   33.00    3.80
  -8  -4   2   28.70    3.70
   7   4  -2  122.69    8.90
   7   4  -2  123.09    9.30
   7   4  -2  130.89    9.70
  -7  -4   2  119.09    8.90
   6   4  -2   10.00    2.00
   6   4  -2    6.90    1.90
   6   4  -2    7.40    2.10
   6   4  -2    7.80    2.30
  -6  -4   2    5.00    1.70
   5   4  -2  115.89    7.70
   5   4  -2   88.09    7.80
   5   4  -2  111.09    7.50
   5   4  -2  105.39    7.80
   5   4  -2  103.89    7.50
  -5  -4   2  123.39    7.50
   4   4  -2  953.40   58.89
   4   4  -2  942.61   59.09
   4   4  -2  937.31   58.79
   4   4  -2  946.41   59.09
   4   4  -2  948.71   59.19
   4   4  -2  977.80   58.89
  -4  -4   2  949.60   58.79
   3   4  -2   38.60    3.30
   3   4  -2   28.30    3.10
   3   4  -2   41.80    3.30
   3   4  -2   33.10    2.70
   3   4  -2   31.20    3.10
   3   4  -2   37.80    2.90
  -3  -4   2   31.50    2.90
   2   4  -2  588.14   34.40
   2   4  -2  577.14   34.00
   2   4  -2  571.84   34.40
   2   4  -2  548.75   34.40
   2   4  -2  536.85   34.20
   2   4  -2  539.55   34.10
   2   4  -2  531.15   34.30
   2   4  -2  531.05   34.30
  -2  -4   2  541.55   34.20
  -2  -4   2  546.95   33.90
   1   4  -2  635.64   41.10
   1   4  -2  663.13   41.30
   1   4  -2  655.73   41.20
   1   4  -2  646.34   41.10
   1   4  -2  640.24   41.20
   1   4  -2  702.53   41.20
   1   4  -2  768.42   41.50
  -1  -4   2  640.14   41.00
  -1  -4   2  645.54   41.20
   0   4  -2 5064.59  303.17
   0   4  -2 4861.91  303.17
   0   4  -2 4977.10  303.07
   0   4  -2 4765.62  303.77
   0  -4   2 4991.00  303.67
   0  -4   2 5010.50  303.37
  -1   4  -2 2511.85  134.49
  -1   4  -2 2138.79  134.29
  -1   4  -2 2014.10  134.29
   1  -4   2 2074.89  134.19
  -2   4  -2 1931.11  118.79
  -2   4  -2 2234.58  119.09
  -2   4  -2 1644.34  118.79
   2  -4   2 1913.21  118.29
  -3   4  -2  220.18   15.40
  -3   4  -2  236.68   15.40
  -3   4  -2  241.98   15.20
   3  -4   2  232.68   15.10
   3  -4   2  243.48   15.10
  -4   4  -2   15.30    2.40
  -4   4  -2   18.70    2.70
  -4   4  -2   14.80    1.70
  -4   4  -2   14.60    2.50
   4  -4   2   20.30    2.80
   4  -4   2   18.50    2.30
   4  -4   2   17.30    2.40
   4  -4   2   16.40    2.20
  -5   4  -2   -0.20    1.70
  -5   4  -2    1.00    1.70
  -5   4  -2    2.60    1.80
  -5   4  -2   -0.90    0.90
   5  -4   2   -0.30    1.40
   5  -4   2   -1.60    1.60
   5  -4   2    0.70    1.20
   5  -4   2   -0.20    1.60
  -6   4  -2   53.09    4.70
  -6   4  -2   47.20    4.80
   6  -4   2   50.29    4.50
   6  -4   2   49.30    5.20
   6  -4   2   44.90    4.50
   6  -4   2   38.50    4.40
  -7   4  -2   36.90    4.70
  -7   4  -2   46.20    5.00
   7  -4   2   48.60    4.60
   7  -4   2   48.40    5.40
   7  -4   2   43.70    4.90
   7  -4   2   43.10    4.40
  -8   4  -2   28.70    4.40
  -8   4  -2   27.40    4.10
   8  -4   2   33.30    3.80
   8  -4   2   19.30    3.70
  -9   4  -2  137.49   11.60
  -9   4  -2  153.28   11.90
   9  -4   2  155.28   11.30
   9  -4   2  170.08   12.10
  10  -4   2    1.50    3.20
  11  -4   2   63.99    7.30
  11   3  -2   14.80    3.30
  11   3  -2   14.20    4.70
  11   3  -2   13.70    3.90
  10   3  -2    9.60    3.80
  10   3  -2   11.40    2.90
  10   3  -2    3.70    3.10
 -10  -3   2    6.60    2.70
   9   3  -2   29.30    4.30
   9   3  -2   31.70    3.90
   9   3  -2   22.70    4.30
  -9  -3   2   28.20    3.80
   8   3  -2    3.60    2.20
   8   3  -2    5.90    2.80
   8   3  -2    1.20    2.40
  -8  -3   2   10.20    2.20
   7   3  -2   20.70    3.10
   7   3  -2   23.90    3.60
   7   3  -2   18.30    2.80
  -7  -3   2   19.10    2.70
   6   3  -2  541.15   31.80
   6   3  -2  442.56   32.10
   6   3  -2  510.25   32.00
   6   3  -2  516.25   31.70
  -6  -3   2  512.75   31.80
   5   3  -2  749.92   52.29
   5   3  -2  784.12   52.09
   5   3  -2  880.51   52.09
   5   3  -2  891.91   51.99
   5   3  -2  834.32   52.29
  -5  -3   2  895.41   52.09
   4   3  -2  287.87   16.60
   4   3  -2  222.28   17.00
   4   3  -2  285.27   16.90
   4   3  -2  260.17   17.00
   4   3  -2  241.08   16.80
   4   3  -2  284.07   16.70
  -4  -3   2  273.97   16.80
   3   3  -2 2212.58  133.79
   3   3  -2 2200.08  133.69
   3   3  -2 2400.86  133.59
   3   3  -2 2178.68  133.39
   3   3  -2 2041.40  133.69
   3   3  -2 2163.38  133.59
   3   3  -2 2001.50  133.69
  -3  -3   2 2201.68  133.59
   2   3  -2 1830.52  114.89
   2   3  -2 1885.11  114.89
   2   3  -2 1848.22  114.89
   2   3  -2 1877.21  114.99
   2   3  -2 2012.90  114.79
   2   3  -2 1915.61  114.69
   2   3  -2 1846.62  114.49
  -2  -3   2 1735.63  114.69
   1   3  -2 3363.96  202.98
   1   3  -2 3430.86  203.18
   1   3  -2 3233.88  203.18
   1   3  -2 3395.86  203.08
   1   3  -2 3247.38  203.18
   1   3  -2 3159.78  203.18
  -1  -3   2 3381.56  203.08
  -1  -3   2 3284.87  202.98
   0   3  -2 2411.56  150.68
   0  -3   2 2500.15  150.58
  -1   3  -2   65.89    4.90
  -1   3  -2   68.59    5.00
   1  -3   2   78.49    4.90
  -2   3  -2  378.16   22.70
  -2   3  -2  328.47   22.80
   2  -3   2  374.86   22.40
   2  -3   2  364.26   22.80
  -3   3  -2  124.29    8.10
  -3   3  -2  117.69    8.20
  -3   3  -2  118.59    7.50
   3  -3   2  119.39    8.00
   3  -3   2  117.09    7.90
  -4   3  -2  247.78   16.70
  -4   3  -2  243.78   16.80
  -4   3  -2  267.47   16.10
  -4   3  -2  247.18   16.90
   4  -3   2  259.17   16.70
   4  -3   2  263.07   16.60
   4  -3   2  271.37   16.30
   4  -3   2  263.87   16.60
  -5   3  -2   38.90    3.80
  -5   3  -2   31.80    2.90
  -5   3  -2   39.30    2.80
  -5   3  -2   36.70    3.90
  -5   3  -2   40.30    4.20
   5  -3   2   34.00    3.40
   5  -3   2   31.10    3.40
   5  -3   2   40.20    4.10
   5  -3   2   34.10    3.20
   5  -3   2   37.60    3.70
   5  -3   2   42.90    4.30
  -6   3  -2   -2.20    1.70
  -6   3  -2    0.70    1.80
   6  -3   2   -0.60    2.00
   6  -3   2    1.20    2.00
   6  -3   2    2.70    1.70
   6  -3   2    0.20    1.50
   6  -3   2    1.40    1.30
  -7   3  -2   48.50    5.10
  -7   3  -2   52.39    5.20
   7  -3   2   55.89    4.80
   7  -3   2   47.60    4.30
   7  -3   2   46.50    5.50
   7  -3   2   44.30    4.90
   7  -3   2   47.80    4.60
  -8   3  -2   -0.30    2.40
  -8   3  -2    4.00    2.40
   8  -3   2    0.70    2.10
   8  -3   2    1.80    2.60
   8  -3   2    1.50    2.80
   8  -3   2    5.30    2.70
  -9   3  -2    0.90    2.90
  -9   3  -2   -2.00    2.30
   9  -3   2    0.80    2.70
   9  -3   2    1.10    2.30
  10  -3   2    2.50    2.90
  11  -3   2   -0.80    3.20
  11   2  -2    4.20    3.80
  11   2  -2    4.80    2.80
  11   2  -2    9.60    3.60
  10   2  -2   12.80    3.10
  10   2  -2    3.90    3.20
   9   2  -2   18.80    3.10
   9   2  -2   10.80    3.60
   9   2  -2   12.70    3.30
  -9  -2   2   12.00    2.80
   8   2  -2  326.47   20.40
   8   2  -2  263.77   19.70
   8   2  -2  336.27   20.90
  -8  -2   2  297.77   19.90
   7   2  -2  142.39    9.50
   7   2  -2  149.88    9.90
   7   2  -2  134.69   10.10
  -7  -2   2  116.09    9.30
   6   2  -2  140.39   10.90
   6   2  -2  162.88   11.50
   6   2  -2  177.68   10.90
   6   2  -2  167.48   11.30
  -6  -2   2  171.18   10.90
   5   2  -2    1.40    1.40
   5   2  -2    1.30    1.00
   5   2  -2    1.10    1.50
   5   2  -2    6.50    1.50
   5   2  -2    2.70    1.20
  -5  -2   2    3.00    1.30
   4   2  -2  147.29    9.80
   4   2  -2  170.18   10.10
   4   2  -2  146.79    9.90
   4   2  -2  161.28   10.00
   4   2  -2  155.28   10.30
  -4  -2   2  146.49   10.00
   3   2  -2  652.93   40.10
   3   2  -2  634.94   40.10
   3   2  -2  638.94   40.00
   3   2  -2  611.44   39.90
   3   2  -2  655.43   39.80
   3   2  -2  660.73   39.90
  -3  -2   2  665.13   39.90
   2   2  -2 1137.69   72.89
   2   2  -2 1151.58   72.79
   2   2  -2 1151.28   72.79
   2   2  -2 1205.48   72.89
   2   2  -2 1197.78   72.59
   2   2  -2 1237.48   72.89
  -2  -2   2 1200.48   72.69
   1   2  -2 4721.93  300.77
   1   2  -2 4889.61  300.57
  -1  -2   2 5101.59  300.87
   0   2  -2 1216.28   75.69
   0   2  -2 1212.08   75.49
   0  -2   2 1268.47   75.59
  -1   2  -2 3194.78  201.08
   1  -2   2 3277.37  201.08
   1  -2   2 3361.66  200.98
  -2   2  -2  650.23   40.60
  -2   2  -2  720.23   40.30
   2  -2   2  590.94   40.50
  -3   2  -2   39.70    3.00
  -3   2  -2   48.70    3.60
  -3   2  -2   37.80    3.60
   3  -2   2   44.10    3.40
   3  -2   2   47.80    3.40
  -4   2  -2   -0.40    0.70
  -4   2  -2   -1.50    1.20
  -4   2  -2   -0.20    1.10
   4  -2   2   -0.20    1.10
   4  -2   2    1.20    0.90
   4  -2   2    0.40    1.10
   4  -2   2   -1.60    1.20
  -5   2  -2    5.90    1.90
  -5   2  -2    6.30    1.90
  -5   2  -2    4.60    1.90
   5  -2   2    4.80    1.60
   5  -2   2    6.80    1.60
   5  -2   2    8.60    1.50
   5  -2   2    6.30    1.90
   5  -2   2    4.50    1.90
  -6   2  -2   27.80    3.40
  -6   2  -2   30.10    3.60
   6  -2   2   27.50    3.50
   6  -2   2   29.10    3.20
   6  -2   2   33.70    3.10
   6  -2   2   31.10    3.90
   6  -2   2   34.20    3.40
  -7   2  -2   16.60    3.40
  -7   2  -2   22.40    3.20
   7  -2   2   22.40    3.80
   7  -2   2   23.60    3.00
   7  -2   2   24.30    3.50
   7  -2   2   25.30    3.20
   7  -2   2   27.40    2.90
  -8   2  -2    9.50    3.10
  -8   2  -2    7.80    2.60
   8  -2   2    8.20    2.20
   8  -2   2    5.90    2.30
   8  -2   2    8.70    3.20
   8  -2   2    9.80    2.40
   8  -2   2    8.30    2.80
  -9   2  -2   -2.90    2.50
   9  -2   2    2.30    2.20
   9  -2   2    3.00    2.70
   9  -2   2   -1.30    2.80
  10  -2   2  104.79    9.10
  11  -2   2    1.30    3.30
  12  -2   2    9.00    4.10
  11   1  -2   17.40    4.70
  11   1  -2    9.40    3.70
  11   1  -2    8.50    3.00
  10   1  -2   45.90    5.30
  10   1  -2   46.20    5.80
  10   1  -2   60.79    6.90
 -10  -1   2   53.09    6.60
   9   1  -2   34.40    4.50
   9   1  -2   28.60    3.90
   9   1  -2   31.20    4.90
   8   1  -2   24.80    4.10
   8   1  -2   24.30    3.60
   8   1  -2   24.10    3.40
  -8  -1   2   32.00    3.60
   7   1  -2   20.00    3.30
   7   1  -2   21.80    3.20
   7   1  -2   20.70    3.60
   7   1  -2   18.80    2.70
  -7  -1   2   18.00    2.70
   6   1  -2    1.50    1.70
   6   1  -2   -3.10    1.20
   6   1  -2    5.10    1.80
   6   1  -2   -0.10    1.40
  -6  -1   2   -1.60    1.20
   5   1  -2  144.29    9.30
   5   1  -2  127.69    9.30
   5   1  -2  138.49    9.00
   5   1  -2  141.89    9.50
   5   1  -2  130.99    9.60
   5   1  -2  141.89    9.30
  -5  -1   2  143.69    9.30
  -5  -1   2  146.89    9.00
   4   1  -2  629.04   40.30
   4   1  -2  682.73   40.50
   4   1  -2  646.14   40.70
   4   1  -2  760.42   40.60
   4   1  -2  648.84   40.40
   4   1  -2  597.24   40.50
  -4  -1   2  607.54   40.40
  -4  -1   2  654.63   40.20
   3   1  -2   97.29    5.90
   3   1  -2   96.29    6.20
   3   1  -2   89.99    6.10
   3   1  -2   90.89    6.20
   3   1  -2   77.49    6.10
   3   1  -2   87.99    6.00
   3   1  -2   96.49    6.30
  -3  -1   2   94.09    6.00
   2   1  -2  284.37   17.30
   2   1  -2  247.68   17.20
  -2  -1   2  295.37   17.10
  -1  -1   2  873.31   53.49
   0   1  -2 2743.43  171.18
   0  -1   2 2700.63  171.08
   0  -1   2 2927.91  171.08
  -1   1  -2 5913.51  362.56
  -1   1  -2 6020.60  362.96
   1  -1   2 6385.96  362.46
   1  -1   2 5309.37  362.46
  -2   1  -2  970.20   57.99
  -2   1  -2  930.61   57.69
  -2   1  -2  960.60   57.49
   2  -1   2  879.41   57.69
  -3   1  -2  440.86   30.00
  -3   1  -2  458.45   30.00
   3  -1   2  547.25   30.10
   3  -1   2  481.55   29.90
  -4   1  -2   -1.70    1.20
  -4   1  -2    1.20    1.30
   4  -1   2    3.00    1.00
   4  -1   2    3.10    1.10
   4  -1   2    0.80    1.10
   4  -1   2    2.90    1.20
  -5   1  -2   37.40    3.70
  -5   1  -2   46.90    4.00
   5  -1   2   41.40    3.60
   5  -1   2   38.50    3.80
   5  -1   2   41.50    3.90
   5  -1   2   44.70    3.40
   5  -1   2   34.80    4.00
  -6   1  -2  160.48   11.00
  -6   1  -2  160.48   11.10
   6  -1   2  162.18   11.40
   6  -1   2  150.88   10.60
   6  -1   2  168.68   10.90
   6  -1   2  166.98   11.00
   6  -1   2  155.48   11.10
  -7   1  -2   14.20    2.70
  -7   1  -2   15.00    2.60
   7  -1   2   11.60    1.70
   7  -1   2   11.70    2.30
   7  -1   2   10.70    2.90
   7  -1   2   12.90    2.10
   7  -1   2    9.50    2.30
   7  -1   2   12.40    2.80
  -8   1  -2    7.50    2.50
  -8   1  -2   14.50    3.20
   8  -1   2   16.40    3.50
   8  -1   2   11.30    2.70
   8  -1   2   14.20    2.70
   8  -1   2   11.80    2.60
   8  -1   2    7.70    2.10
  -9   1  -2   25.10    4.30
   9  -1   2   25.20    3.60
   9  -1   2   29.90    3.70
   9  -1   2   25.30    4.70
   9  -1   2   25.10    4.00
  10  -1   2   36.30    9.10
  10  -1   2   62.09    6.40
  11  -1   2    1.40    3.00
  12  -1   2   32.20    5.40
  12   0  -2   -3.60    2.40
  12   0  -2    0.60    3.40
  12   0  -2   -6.30    3.70
  11   0  -2   -0.90    2.40
  11   0  -2   -6.20    2.60
  11   0  -2   -1.60    3.30
  10   0  -2    1.90    3.30
  10   0  -2    8.10    3.20
  10   0  -2    2.80    2.60
   9   0  -2   30.90    4.20
   9   0  -2   29.90    4.70
   9   0  -2   25.10    3.60
  -9   0   2   24.40    3.20
   8   0  -2   13.80    2.60
   8   0  -2   12.40    2.80
   8   0  -2   12.10    3.30
   7   0  -2   26.20    2.90
   7   0  -2   20.90    3.60
   7   0  -2   20.50    2.90
   7   0  -2   24.20    3.30
   7   0  -2   30.50    2.90
   6   0  -2   98.89    6.50
   6   0  -2   80.69    6.60
   6   0  -2   77.19    6.80
   6   0  -2   82.99    6.30
   6   0  -2   93.99    6.60
  -6   0   2   94.29    6.40
   5   0  -2   17.70    2.70
   5   0  -2   26.40    2.40
   5   0  -2   25.80    3.00
   5   0  -2   26.80    2.70
   5   0  -2   34.40    3.10
   5   0  -2   29.70    2.80
  -5   0   2   29.60    2.70
  -5   0   2   28.70    2.60
   4   0  -2  391.16   24.20
   4   0  -2  355.86   24.60
   4   0  -2  381.16   24.40
   4   0  -2  410.66   24.60
   4   0  -2  384.36   24.30
   4   0  -2  406.56   24.40
  -4   0   2  401.56   24.30
   3   0  -2  339.57   20.60
   3   0  -2  333.77   20.50
   3   0  -2  328.17   20.70
   3   0  -2  291.17   20.60
   3   0  -2  333.27   20.40
  -3   0   2  334.47   20.50
  -3   0   2  345.07   20.50
   2   0  -2   46.20    3.30
   1   0  -2 2561.14  157.08
   0   0  -2  260.87   16.10
   0   0  -2  265.37   16.20
   0   0   2  257.77   16.00
  -1   0  -2  524.05   31.50
  -1   0  -2  488.85   31.40
   1   0   2  519.95   31.40
   1   0   2  505.95   31.50
   1   0   2  509.65   31.40
  -2   0  -2  732.63   46.20
  -2   0  -2  718.73   46.20
  -2   0  -2  772.32   46.10
   2   0   2  770.62   46.30
  -3   0  -2  712.63   44.80
  -3   0  -2  800.22   45.20
  -3   0  -2  812.62   45.00
   3   0   2  692.93   44.80
   3   0   2  661.23   44.90
   3   0   2  682.93   44.60
  -4   0  -2  397.16   25.10
  -4   0  -2  425.76   25.30
  -4   0  -2  376.26   25.10
   4   0   2  408.56   25.10
   4   0   2  386.86   25.20
   4   0   2  413.66   24.80
   4   0   2  377.66   25.20
   4   0   2  418.46   25.00
  -5   0  -2  191.78   12.50
  -5   0  -2  181.78   12.50
  -5   0  -2  189.88   12.40
   5   0   2  191.18   12.40
   5   0   2  178.88   12.50
   5   0   2  185.28   12.20
   5   0   2  200.98   12.90
   5   0   2  195.38   12.60
  -6   0  -2   24.60    2.90
  -6   0  -2   32.10    3.40
   6   0   2   25.80    3.50
   6   0   2   26.10    3.10
   6   0   2   29.90    3.40
   6   0   2   26.70    2.80
   6   0   2   29.80    3.00
  -7   0  -2   65.29    5.90
  -7   0  -2   62.19    5.40
   7   0   2   68.59    5.50
   7   0   2   71.49    5.90
   7   0   2   68.49    5.50
   7   0   2   67.89    5.80
   7   0   2   73.09    6.40
  -8   0  -2   38.20    4.80
  -8   0  -2   49.70    3.80
   8   0   2   42.00    4.40
   8   0   2   37.40    4.60
   8   0   2   48.50    4.50
   8   0   2   45.40    5.60
  -9   0  -2    3.10    3.10
   9   0   2    7.00    2.90
   9   0   2    7.00    2.30
   9   0   2    2.10    2.30
   9   0   2    3.00    2.90
  10   0   2   34.10    5.80
  10   0   2   42.10    6.00
  10   0   2   34.10    5.00
  11   0   2    2.70    3.30
  12   0   2    1.60    3.40
  11  -1  -2   11.20    3.30
  11  -1  -2    5.20    4.10
  11  -1  -2   10.60    3.70
  10  -1  -2   -1.10    3.00
  10  -1  -2   -0.60    2.30
  10  -1  -2    3.30    2.70
   9  -1  -2   27.00    3.90
   9  -1  -2   29.70    4.90
   9  -1  -2   38.70    4.50
   8  -1  -2  100.39    7.90
   8  -1  -2   97.49    8.40
   8  -1  -2   92.49    7.60
   8  -1  -2   93.79    7.20
  -8   1   2  103.19    7.20
   7  -1  -2  149.88   12.50
   7  -1  -2  212.48   13.50
   7  -1  -2  195.08   12.90
   7  -1  -2  190.08   12.50
  -7   1   2  199.98   12.50
   6  -1  -2   -1.30    1.40
   6  -1  -2    2.50    1.50
   6  -1  -2   -0.10    1.20
   6  -1  -2   -0.70    1.50
   6  -1  -2   -0.60    1.80
  -6   1   2    0.90    1.40
   5  -1  -2   86.39    6.60
   5  -1  -2   86.09    6.50
   5  -1  -2   88.29    6.30
   5  -1  -2   94.19    6.10
   5  -1  -2   87.99    6.40
   4  -1  -2  488.75   30.20
   4  -1  -2  461.95   30.10
   4  -1  -2  512.85   30.00
   4  -1  -2  455.65   30.30
   4  -1  -2  480.95   30.30
   4  -1  -2  500.75   30.00
   3  -1  -2    0.30    0.90
   3  -1  -2    1.50    1.00
   3  -1  -2    0.50    0.80
   3  -1  -2    3.00    1.10
   3  -1  -2    2.30    0.80
   3  -1  -2    2.60    0.90
  -3   1   2    1.50    0.70
   2  -1  -2 4360.16  270.87
  -2   1   2 4478.35  270.87
   1  -1  -2 5427.66  337.17
  -1   1   2 5564.94  337.27
   0  -1  -2   43.10    3.00
   0  -1  -2   48.90    3.10
   0  -1  -2   42.50    2.90
   0  -1  -2   45.30    3.00
   0   1   2   44.80    3.10
   0   1   2   44.60    3.00
  -1  -1  -2 6213.68  371.26
  -1  -1  -2 6131.29  370.76
  -1  -1  -2 5779.92  370.86
   1   1   2 5749.62  371.56
   1   1   2 6346.06  370.86
  -2  -1  -2 3214.48  212.48
  -2  -1  -2 3650.73  212.48
   2   1   2 3534.85  212.98
  -3  -1  -2  509.85   33.30
  -3  -1  -2  590.04   33.40
   3   1   2  533.35   33.30
   3   1   2  514.45   33.20
  -4  -1  -2   41.80    4.00
  -4  -1  -2   51.79    3.90
  -4  -1  -2   45.20    3.80
   4   1   2   52.09    4.10
   4   1   2   55.59    3.80
   4   1   2   53.99    3.80
   4   1   2   51.79    3.90
   4   1   2   53.29    4.00
  -5  -1  -2  132.09    9.60
  -5  -1  -2  142.29    9.80
  -5  -1  -2  154.98   10.00
   5   1   2  150.78   10.00
   5   1   2  140.09   10.30
   5   1   2  148.69    9.80
   5   1   2  149.79    9.70
   5   1   2  154.28    9.90
  -6  -1  -2   76.79    5.60
  -6  -1  -2   74.89    6.00
  -6  -1  -2   75.09    5.80
   6   1   2   68.09    5.90
   6   1   2   78.99    6.40
   6   1   2   71.59    5.90
   6   1   2   72.79    5.60
   6   1   2   79.79    5.60
  -7  -1  -2   -1.10    1.50
  -7  -1  -2   -0.90    1.50
  -7  -1  -2    1.60    2.00
   7   1   2   -0.20    2.10
   7   1   2   -0.30    1.90
   7   1   2    0.90    1.60
   7   1   2   -0.20    1.50
  -8  -1  -2  104.29    8.00
   8   1   2   88.79    7.30
   8   1   2  105.49    8.50
   8   1   2   87.39    7.40
   8   1   2   99.99    7.80
   9   1   2   27.20    4.50
   9   1   2   25.00    3.50
   9   1   2   17.10    3.10
   9   1   2   19.90    3.60
  10   1   2    2.00    2.60
  10   1   2    0.10    2.90
  10   1   2    7.00    3.20
  11   1   2   11.60    3.70
  12   1   2   16.00    4.30
  11  -2  -2   -0.70    2.60
  11  -2  -2    1.70    3.10
  11  -2  -2   -1.50    3.60
  10  -2  -2    6.10    3.40
  10  -2  -2    5.20    2.60
  10  -2  -2   -1.30    2.80
   9  -2  -2   10.00    3.70
   9  -2  -2   11.40    2.30
   9  -2  -2    7.10    2.60
   9  -2  -2   13.50    3.20
   8  -2  -2   23.40    4.10
   8  -2  -2   20.10    3.20
   8  -2  -2   19.80    3.30
   7  -2  -2   38.10    3.70
   7  -2  -2   34.70    4.00
   7  -2  -2   43.50    4.80
   7  -2  -2   42.10    4.20
  -7   2   2   37.50    4.00
   6  -2  -2    3.30    1.80
   6  -2  -2    3.30    1.70
   6  -2  -2    1.10    1.80
   6  -2  -2    3.70    1.30
   6  -2  -2    2.30    1.40
   5  -2  -2  192.08   14.20
   5  -2  -2  213.68   14.40
   5  -2  -2  235.18   14.10
   5  -2  -2  242.98   14.80
   4  -2  -2  366.96   23.00
   4  -2  -2  363.16   23.00
   4  -2  -2  349.87   23.20
  -4   2   2  378.16   22.70
   3  -2  -2 1365.46   82.99
   3  -2  -2 1283.87   83.09
   3  -2  -2 1437.76   83.39
   3  -2  -2 1457.75   83.19
   3  -2  -2 1303.17   83.19
  -3   2   2 1262.17   82.89
   2  -2  -2 1567.24   96.19
   1  -2  -2  951.70   58.79
   1  -2  -2  952.40   58.89
  -1   2   2  969.10   58.79
   0  -2  -2   26.20    2.10
   0  -2  -2   27.70    2.20
   0  -2  -2   27.20    2.10
   0   2   2   29.10    2.10
  -1  -2  -2  378.36   23.10
  -1  -2  -2  363.56   22.90
  -1  -2  -2  377.66   23.00
   1   2   2  362.56   23.00
   2   2   2  909.11   55.59
   2   2   2  896.61   55.79
  -3  -2  -2   -0.60    0.70
  -3  -2  -2    0.90    0.90
  -3  -2  -2    1.20    1.10
   3   2   2    0.00    1.00
   3   2   2    1.30    0.90
   3   2   2    0.20    0.80
   3   2   2    0.80    0.90
   3   2   2   -0.40    1.10
  -4  -2  -2  241.78   14.80
  -4  -2  -2  229.68   15.10
  -4  -2  -2  228.68   14.90
   4   2   2  235.98   14.80
   4   2   2  248.48   15.30
   4   2   2  231.68   14.90
   4   2   2  222.98   15.00
   4   2   2  233.18   14.90
   4   2   2  224.28   15.10
  -5  -2  -2   16.50    2.20
  -5  -2  -2   22.50    2.70
  -5  -2  -2   19.00    2.10
   5   2   2   20.60    2.80
   5   2   2   17.30    2.40
   5   2   2   19.10    2.20
   5   2   2   14.50    2.30
   5   2   2   21.40    2.30
   5   2   2   15.60    2.20
  -6  -2  -2   90.39    6.60
  -6  -2  -2   76.39    5.90
   6   2   2   83.99    6.20
   6   2   2   78.79    6.20
   6   2   2   84.39    6.50
   6   2   2   95.79    7.00
  -7  -2  -2   23.10    3.40
  -7  -2  -2   24.50    2.90
   7   2   2   22.30    3.70
   7   2   2   21.00    2.80
   7   2   2   29.20    3.10
   7   2   2   14.90    2.90
  -8  -2  -2   32.60    4.00
  -8  -2  -2   29.90    4.20
   8   2   2   36.60    4.40
   8   2   2   39.00    4.00
   8   2   2   35.40    3.90
   8   2   2   36.20    4.90
  -9  -2  -2    0.20    2.20
   9   2   2    2.50    2.90
   9   2   2    3.30    2.30
   9   2   2    0.20    2.50
   9   2   2    4.00    2.70
  10   2   2   10.20    3.10
  10   2   2    8.90    3.30
  10   2   2    6.20    3.40
  11   2   2   33.40    4.90
  11   2   2   37.80    5.30
  12   2   2    4.40    3.50
  11  -3  -2   -3.50    2.50
  11  -3  -2    0.10    3.00
  11  -3  -2    7.10    4.10
  10  -3  -2    2.10    1.90
  10  -3  -2   -0.80    2.50
  10  -3  -2    3.30    3.50
  10  -3  -2   -1.30    2.60
   9  -3  -2   30.60    4.40
   9  -3  -2   40.30    5.60
   9  -3  -2   27.50    4.00
   8  -3  -2    3.20    2.40
   8  -3  -2    5.70    3.10
   8  -3  -2    4.20    2.40
   7  -3  -2   95.39    7.60
   7  -3  -2   84.99    7.90
   7  -3  -2  101.29    7.20
   7  -3  -2  104.59    7.50
  -7   3   2   98.79    7.70
   6  -3  -2  213.58   13.50
   6  -3  -2  197.08   13.50
   6  -3  -2  188.78   13.10
   6  -3  -2  208.98   14.00
   5  -3  -2  181.68   13.50
   5  -3  -2  209.98   13.20
   5  -3  -2  210.18   12.90
   5  -3  -2  184.18   13.10
  -5   3   2  221.98   14.20
   4  -3  -2  402.96   25.80
   4  -3  -2  414.86   25.80
   4  -3  -2  412.26   25.60
   3  -3  -2  327.37   21.30
   3  -3  -2  335.97   20.90
   3  -3  -2  319.87   21.50
  -3   3   2  369.86   21.10
   2  -3  -2   35.80    2.90
   2  -3  -2   36.50    2.80
  -2   3   2   35.30    2.60
  -2   3   2   46.60    3.10
   1  -3  -2   32.40    2.60
   1  -3  -2   33.60    2.60
   1  -3  -2   35.80    2.40
   0  -3  -2    7.70    1.00
   0  -3  -2    6.60    0.90
   0  -3  -2    6.60    1.00
   0   3   2    6.30    1.10
  -1  -3  -2 2234.88  136.69
   1   3   2 2221.58  136.79
  -2  -3  -2   52.79    3.70
  -2  -3  -2   47.70    3.70
   2   3   2   57.09    3.80
  -3  -3  -2  560.24   36.10
  -3  -3  -2  571.14   36.20
   3   3   2  575.04   36.10
   3   3   2  588.74   36.10
   3   3   2  609.54   36.10
  -4  -3  -2  694.53   42.10
  -4  -3  -2  688.73   41.90
   4   3   2  563.24   42.10
   4   3   2  696.23   41.90
   4   3   2  676.73   41.90
   4   3   2  723.63   42.10
   4   3   2  678.33   41.90
  -5  -3  -2  183.38   11.70
  -5  -3  -2  180.28   11.80
   5   3   2  171.88   12.10
   5   3   2  179.38   11.60
   5   3   2  144.09   11.70
   5   3   2  184.18   11.60
   5   3   2  185.48   11.60
  -6  -3  -2   47.40    4.00
   6   3   2   40.80    4.30
   6   3   2   44.10    4.00
   6   3   2   43.00    4.60
   6   3   2   44.40    4.10
   6   3   2   47.50    4.10
  -7  -3  -2   -2.50    1.40
  -7  -3  -2   -2.00    1.90
   7   3   2    2.00    2.00
   7   3   2   -0.10    2.20
   7   3   2    0.20    1.70
   7   3   2    2.30    1.80
  -8  -3  -2    1.60    2.30
  -8  -3  -2   -1.60    1.70
   8   3   2   -0.20    2.40
   8   3   2    0.00    2.40
   8   3   2    2.80    1.90
   8   3   2   -3.20    1.70
  -9  -3  -2   72.29    7.10
   9   3   2   73.19    7.30
   9   3   2   88.59    7.40
   9   3   2   99.59    8.30
  10   3   2    0.10    3.20
  10   3   2   -2.10    2.30
  10   3   2   -0.40    2.80
  11   3   2    6.50    3.40
  11   3   2    3.90    3.10
  12   3   2    2.00    3.40
  11  -4  -2   -1.50    3.50
  11  -4  -2    0.80    2.90
  10  -4  -2    0.70    3.70
  10  -4  -2    5.20    2.80
  10  -4  -2    1.40    2.70
 -10   4   2    2.20    2.60
   9  -4  -2    0.50    2.60
   9  -4  -2    2.90    3.40
   9  -4  -2    1.10    2.50
   8  -4  -2    2.30    2.30
   8  -4  -2    2.20    2.20
   8  -4  -2    4.50    3.00
  -8   4   2    5.20    2.60
   7  -4  -2    1.30    2.20
   7  -4  -2    3.10    2.00
   7  -4  -2    3.00    2.10
  -7   4   2    0.00    2.10
   6  -4  -2  429.76   28.00
   6  -4  -2  456.25   27.80
   6  -4  -2  450.85   28.10
   6  -4  -2  422.16   28.50
   5  -4  -2    6.30    1.50
   5  -4  -2    3.00    1.60
   5  -4  -2    5.40    1.80
   5  -4  -2    5.90    2.10
  -5   4   2    6.00    1.90
   4  -4  -2  269.77   18.90
   4  -4  -2  292.97   18.80
   4  -4  -2  285.67   18.50
   4  -4  -2  304.67   19.00
   4  -4  -2  302.27   19.40
  -4   4   2  295.57   18.40
  -4   4   2  299.97   19.10
  -4   4   2  330.57   19.00
   3  -4  -2  312.67   19.60
   3  -4  -2  331.77   20.10
   3  -4  -2  304.27   19.30
  -3   4   2  300.77   19.80
  -3   4   2  312.27   19.30
   2  -4  -2    6.00    1.40
   2  -4  -2    4.30    0.70
   2  -4  -2    3.90    1.10
   2  -4  -2    4.50    1.00
  -2   4   2    3.90    1.10
   1  -4  -2    3.70    0.70
   1  -4  -2    4.60    1.00
  -1   4   2    3.80    1.00
   0  -4  -2  101.69    6.90
   0  -4  -2  103.89    6.90
   0  -4  -2  109.79    7.00
  -1  -4  -2  195.08   12.40
  -1  -4  -2  190.28   12.40
  -1  -4  -2  202.78   12.60
   1   4   2  195.28   12.50
  -2  -4  -2  765.22   47.50
  -2  -4  -2  766.52   47.60
  -2  -4  -2  777.22   47.50
   2   4   2  766.02   47.60
   2   4   2  788.42   47.60
   2   4   2  745.13   47.50
  -3  -4  -2  456.15   27.50
  -3  -4  -2  448.26   27.40
   3   4   2  465.15   27.40
   3   4   2  374.66   27.40
   3   4   2  441.56   27.30
  -4  -4  -2  324.97   21.60
  -4  -4  -2  353.86   21.80
   4   4   2  322.17   21.70
   4   4   2  343.07   21.60
   4   4   2  350.96   22.10
   4   4   2  356.16   21.70
   4   4   2  338.27   21.60
  -5  -4  -2  237.88   15.40
  -5  -4  -2  226.38   15.60
   5   4   2  229.08   15.50
   5   4   2  237.38   15.30
   5   4   2  268.97   16.00
   5   4   2  226.78   15.40
   5   4   2  227.58   15.40
  -6  -4  -2   49.10    4.50
  -6  -4  -2   37.30    3.70
   6   4   2   37.30    3.80
   6   4   2   33.60    3.60
   6   4   2   39.90    3.90
   6   4   2   40.50    4.20
   6   4   2   42.80    4.70
  -7  -4  -2  211.38   15.40
  -7  -4  -2  230.78   15.10
   7   4   2  230.68   15.00
   7   4   2  196.78   15.70
   7   4   2  255.87   15.50
   7   4   2  233.78   15.20
  -8  -4  -2   17.70    3.00
   8   4   2   13.50    3.00
   8   4   2   20.00    4.00
   8   4   2   23.50    3.60
   8   4   2   19.90    3.00
  -9  -4  -2   17.60    3.30
   9   4   2   14.80    3.50
   9   4   2   19.50    4.30
   9   4   2   20.70    3.60
 -10  -4  -2   24.90    4.10
  10   4   2   26.60    5.20
  10   4   2   28.00    4.30
  10   4   2   30.80    4.70
  11   4   2  125.39   10.50
  11   4   2  134.99   11.10
  11  -5  -2    5.20    4.40
  11  -5  -2   10.60    3.40
  10  -5  -2   -3.20    2.60
  10  -5  -2   -2.20    3.50
   9  -5  -2    1.20    3.30
   9  -5  -2   -0.10    2.70
  -9   5   2   -1.00    2.30
   8  -5  -2  100.19    9.30
   8  -5  -2  103.39    8.50
  -8   5   2  117.99    8.90
  -8   5   2   99.09    8.30
   7  -5  -2    6.80    2.80
   7  -5  -2    9.50    2.60
  -7   5   2    8.30    2.80
  -7   5   2   11.30    2.50
   6  -5  -2   61.99    5.40
   6  -5  -2   59.99    5.00
   6  -5  -2   68.29    6.20
  -6   5   2   60.09    5.40
   5  -5  -2   18.80    3.00
   5  -5  -2   16.40    2.60
   5  -5  -2   16.80    2.30
  -5   5   2   16.90    2.80
  -5   5   2   18.30    2.60
   4  -5  -2   46.20    3.70
   4  -5  -2   45.30    3.10
   4  -5  -2   41.70    4.40
  -4   5   2   44.60    4.10
  -4   5   2   40.30    4.00
   3  -5  -2    5.60    0.90
   3  -5  -2    7.50    1.40
   3  -5  -2    6.00    1.80
   3  -5  -2    4.30    1.30
  -3   5   2    5.20    1.40
  -3   5   2    7.20    1.70
   2  -5  -2  491.65   32.50
   2  -5  -2  515.25   32.90
  -2   5   2  549.05   32.70
  -2   5   2  536.05   32.70
   1  -5  -2   63.49    4.50
   1  -5  -2   69.09    4.20
   1  -5  -2   60.89    4.80
   1  -5  -2   62.49    4.50
  -1   5   2   60.79    4.60
  -1   5   2   54.89    4.60
   0  -5  -2   58.59    4.30
   0  -5  -2   54.69    4.50
   0  -5  -2   60.49    4.30
   0   5   2   66.69    4.50
  -1  -5  -2  492.35   30.90
  -1  -5  -2  520.35   31.10
  -1  -5  -2  484.95   30.90
   1   5   2  490.35   31.00
   1   5   2  492.95   31.00
  -2  -5  -2 1947.21  120.79
  -2  -5  -2 1939.31  120.59
  -2  -5  -2 1987.70  120.69
   2   5   2 1920.21  120.59
   2   5   2 1963.30  120.69
   2   5   2 2011.20  120.79
  -3  -5  -2    4.70    1.40
  -3  -5  -2    6.00    1.70
  -3  -5  -2    4.70    1.20
   3   5   2    6.00    1.60
   3   5   2    6.10    1.70
   3   5   2    3.30    1.30
   3   5   2    4.60    1.60
  -4  -5  -2  436.76   26.20
  -4  -5  -2  410.26   25.90
   4   5   2  409.96   26.00
   4   5   2  416.36   26.10
   4   5   2  401.36   25.90
   4   5   2  391.06   26.00
  -5  -5  -2   49.10    4.50
  -5  -5  -2   47.70    4.20
   5   5   2   43.20    4.40
   5   5   2   38.60    4.60
   5   5   2   46.50    4.30
   5   5   2   50.69    4.30
   5   5   2   49.10    4.20
  -6  -5  -2  203.38   14.10
  -6  -5  -2  180.08   13.70
   6   5   2  203.88   13.90
   6   5   2  215.18   14.60
   6   5   2  225.28   14.20
   6   5   2  206.68   13.70
   6   5   2  211.48   13.90
  -7  -5  -2  670.83   44.40
  -7  -5  -2  700.83   44.80
   7   5   2  710.93   44.60
   7   5   2  722.53   45.30
   7   5   2  705.63   44.30
   7   5   2  665.83   44.50
   7   5   2  767.82   44.80
  -8  -5  -2  180.58   12.80
   8   5   2  183.88   12.60
   8   5   2  174.78   12.90
   8   5   2  183.28   13.80
   8   5   2  180.68   12.80
  -9  -5  -2  589.64   34.80
   9   5   2  522.35   35.00
   9   5   2  473.05   35.40
   9   5   2  573.74   34.90
 -10  -5  -2  417.36   27.70
  10   5   2  414.26   28.00
  10   5   2  443.76   27.90
  10   5   2  406.06   28.90
  11   5   2  143.39   10.90
  11   5   2  120.89   10.90
  11  -6  -2   17.40    5.30
  11  -6  -2   32.00    4.70
  10  -6  -2   62.39    7.00
  10  -6  -2   77.29    8.70
   9  -6  -2   65.29    6.60
   9  -6  -2   76.09    8.30
   9  -6  -2   67.09    7.00
  -9   6   2   76.29    6.80
   8  -6  -2   53.99    6.70
   8  -6  -2   64.19    6.00
  -8   6   2   57.39    5.70
  -8   6   2   58.09    6.40
   7  -6  -2  281.47   20.60
   7  -6  -2  318.07   21.50
  -7   6   2  334.87   20.50
  -7   6   2  309.97   21.10
   6  -6  -2    5.00    2.20
   6  -6  -2    5.70    2.50
   6  -6  -2    6.80    1.90
  -6   6   2    2.10    1.90
   5  -6  -2  445.06   27.80
   5  -6  -2  421.76   28.40
   5  -6  -2  442.06   27.60
   5  -6  -2  412.16   27.90
  -5   6   2  462.35   28.10
   4  -6  -2  337.47   25.20
   4  -6  -2  402.56   24.80
   4  -6  -2  406.96   24.70
  -4   6   2  407.76   25.00
  -4   6   2  394.36   24.80
   3  -6  -2  343.87   20.80
   3  -6  -2  326.67   20.80
   3  -6  -2  330.27   21.30
   3  -6  -2  339.87   20.40
  -3   6   2  317.37   20.80
  -3   6   2  296.97   20.90
   2  -6  -2  133.49    8.70
   2  -6  -2  125.99    9.10
  -2   6   2  128.39    8.90
  -2   6   2  131.39    8.80
   1  -6  -2  351.96   22.00
   1  -6  -2  343.97   22.10
   1  -6  -2  390.16   22.50
   1  -6  -2  333.47   21.70
  -1   6   2  362.36   22.20
  -1   6   2  319.07   22.10
   0  -6  -2  317.07   19.50
   0  -6  -2  308.77   19.10
   0  -6  -2  309.57   19.10
   0   6   2  276.87   19.30
   0   6   2  298.17   19.20
  -1  -6  -2  318.17   21.50
  -1  -6  -2  355.16   21.10
  -1  -6  -2  312.57   20.80
  -1  -6  -2  330.17   20.80
   1   6   2  334.77   21.00
  -2  -6  -2   57.89    4.60
  -2  -6  -2   60.89    4.60
  -2  -6  -2   62.09    4.40
   2   6   2   69.19    4.60
   2   6   2   60.19    4.60
   2   6   2   47.40    4.70
  -3  -6  -2  609.84   40.00
  -3  -6  -2  651.93   39.90
  -3  -6  -2  643.74   39.70
   3   6   2  634.54   40.00
   3   6   2  636.14   39.90
   3   6   2  655.53   40.00
  -4  -6  -2 2711.53  168.88
  -4  -6  -2 2615.84  168.98
   4   6   2 2665.13  168.88
   4   6   2 2631.74  168.98
   4   6   2 2792.12  168.98
   4   6   2 2815.82  168.78
   4   6   2 2976.00  169.38
  -5  -6  -2 1262.77   82.39
  -5  -6  -2 1329.47   82.19
   5   6   2 1386.76   82.49
   5   6   2 1367.36   82.19
   5   6   2 1278.67   82.29
   5   6   2 1394.16   82.39
   5   6   2 1272.77   82.69
  -6  -6  -2 1025.10   66.19
  -6  -6  -2 1069.49   66.49
   6   6   2 1067.99   66.29
   6   6   2 1069.59   66.49
   6   6   2 1071.19   66.09
   6   6   2 1019.20   66.29
   6   6   2 1118.99   66.89
  -7  -6  -2  629.04   38.10
  -7  -6  -2  562.24   38.20
   7   6   2  533.35   38.60
   7   6   2  610.44   38.10
   7   6   2  638.24   37.90
   7   6   2  641.74   38.20
   7   6   2  579.74   38.20
  -8  -6  -2  804.32   49.99
   8   6   2  833.72   50.99
   8   6   2  796.12   50.09
   8   6   2  731.63   50.09
  -9  -6  -2   36.60    4.50
   9   6   2   40.20    4.90
   9   6   2   32.60    5.60
   9   6   2   38.30    4.90
 -10  -6  -2  131.09   10.30
  10   6   2  126.79   10.50
  10   6   2  119.99   11.60
  10   6   2  134.99   10.70
  11   6   2    5.00    3.50
  11   6   2    4.10    3.20
  10  -7  -2   25.60    5.70
  10  -7  -2   34.20    5.00
   9  -7  -2   61.69    6.70
   9  -7  -2   76.19    8.50
   9  -7  -2   73.69    8.40
   9  -7  -2   77.99    7.50
  -9   7   2   85.89    8.20
   8  -7  -2    3.20    2.50
   8  -7  -2   -2.80    2.80
   8  -7  -2    1.90    2.30
  -8   7   2   -1.30    2.70
  -8   7   2   -2.10    2.00
   7  -7  -2   26.10    4.60
   7  -7  -2   32.80    3.90
   7  -7  -2   30.10    4.00
  -7   7   2   28.00    3.80
  -7   7   2   25.30    4.50
   6  -7  -2  219.38   14.70
   6  -7  -2  234.58   14.60
   6  -7  -2  200.78   14.80
   6  -7  -2  230.48   15.70
  -6   7   2  202.38   14.70
   5  -7  -2   82.09    6.30
   5  -7  -2   78.39    6.30
   5  -7  -2   87.29    7.40
  -5   7   2   73.19    6.30
  -5   7   2   81.59    6.70
   4  -7  -2   57.69    4.80
   4  -7  -2   56.39    5.60
   4  -7  -2   59.79    4.80
  -4   7   2   59.89    5.30
  -4   7   2   56.89    4.90
   3  -7  -2  244.68   15.30
   3  -7  -2  220.18   15.80
   3  -7  -2  241.38   15.40
   3  -7  -2  229.28   14.90
  -3   7   2  219.38   15.30
  -3   7   2  260.17   15.70
   2  -7  -2   32.10    3.00
   2  -7  -2   33.40    2.90
   2  -7  -2   24.60    3.20
   2  -7  -2   25.40    2.00
  -2   7   2   32.10    3.10
  -2   7   2   22.70    3.00
   1  -7  -2 1455.55   89.29
   1  -7  -2 1327.37   88.49
   1  -7  -2 1380.66   88.79
  -1   7   2 1401.46   88.89
  -1   7   2 1642.94   89.19
   0  -7  -2  457.75   27.80
   0  -7  -2  417.36   28.10
   0  -7  -2  465.55   27.70
   0   7   2  467.75   28.00
   0   7   2  455.15   27.90
   0   7   2  384.16   28.40
  -1  -7  -2 1188.58   69.19
  -1  -7  -2 1115.09   68.79
  -1  -7  -2 1095.49   68.89
  -1  -7  -2 1072.39   69.19
   1   7   2 1097.89   68.99
   1   7   2 1109.89   68.99
  -2  -7  -2 3443.26  220.88
  -2  -7  -2 3766.92  221.18
  -2  -7  -2 3441.76  220.78
  -2  -7  -2 3600.74  221.28
   2   7   2 3925.61  221.48
   2   7   2 3402.36  220.88
   2   7   2 3723.03  221.18
   2   7   2 3469.05  220.98
  -3  -7  -2  765.32   47.40
  -3  -7  -2  738.73   47.00
  -3  -7  -2  755.62   47.20
   3   7   2  816.52   47.70
   3   7   2  761.52   47.20
   3   7   2  738.13   47.30
   3   7   2  719.43   47.30
  -4  -7  -2  591.04   37.00
  -4  -7  -2  565.54   37.10
   4   7   2  560.64   37.10
   4   7   2  648.04   37.20
   4   7   2  586.34   37.10
   4   7   2  574.94   36.90
  -5  -7  -2  170.98   13.00
  -5  -7  -2  202.68   13.40
   5   7   2  191.08   13.20
   5   7   2  194.58   13.20
   5   7   2  208.68   13.30
   5   7   2  192.98   13.00
  -6  -7  -2  133.89   10.00
  -6  -7  -2  139.29    9.70
   6   7   2  123.99    9.50
   6   7   2  149.49   10.50
   6   7   2  122.09    9.70
   6   7   2  131.29    9.90
   6   7   2  131.79    9.90
  -7  -7  -2   23.90    3.50
   7   7   2   17.20    3.40
   7   7   2   25.00    4.20
   7   7   2   32.30    3.90
   7   7   2   25.60    3.90
   7   7   2   24.60    3.30
  -8  -7  -2    0.80    2.10
   8   7   2    3.20    2.80
   8   7   2    4.40    2.70
   8   7   2    2.10    2.40
   8   7   2    0.00    3.00
  -9  -7  -2    4.10    2.50
   9   7   2    6.30    3.00
   9   7   2    5.80    3.00
   9   7   2    4.60    3.40
 -10  -7  -2  100.19   11.00
  10   7   2   91.19    9.40
  10   7   2   79.09    8.20
  10   7   2   91.09    8.40
  11   7   2    4.40    3.20
  11   7   2   -1.20    3.00
  10  -8  -2    4.40    3.50
  10  -8  -2    2.80    4.30
   9  -8  -2    1.50    2.90
   9  -8  -2   -1.00    3.40
  -9   8   2    2.00    3.50
   8  -8  -2    0.00    3.10
   8  -8  -2   -0.60    2.50
   8  -8  -2   -0.70    2.30
  -8   8   2   -5.10    2.70
  -8   8   2    0.30    2.40
   7  -8  -2  190.08   14.00
   7  -8  -2  173.78   12.70
   7  -8  -2  184.38   13.00
  -7   8   2  183.08   12.70
  -7   8   2  150.58   13.40
   6  -8  -2  115.79    8.90
   6  -8  -2  108.79    9.10
   6  -8  -2  127.59   10.00
   6  -8  -2  119.59    8.80
  -6   8   2  117.29    9.00
   5  -8  -2  157.68   13.40
   5  -8  -2  206.88   12.80
   5  -8  -2  200.28   13.00
  -5   8   2  188.48   12.80
  -5   8   2  183.18   13.20
   4  -8  -2 1082.99   70.39
   4  -8  -2 1117.29   69.59
   4  -8  -2 1084.19   69.69
  -4   8   2 1152.08   69.99
  -4   8   2 1167.68   69.79
   3  -8  -2  505.05   29.90
   3  -8  -2  443.06   29.10
   3  -8  -2  426.76   29.10
  -3   8   2  459.85   29.20
  -3   8   2  464.95   29.50
   2  -8  -2 1677.93  102.69
   2  -8  -2 1614.94  102.69
   2  -8  -2 1734.63  103.39
  -2   8   2 1680.63  102.99
  -2   8   2 1609.94  102.79
   1  -8  -2  180.98   14.50
   1  -8  -2  231.88   14.20
   1  -8  -2  217.78   14.00
   1  -8  -2  216.78   13.60
  -1   8   2  216.18   14.20
  -1   8   2  224.18   14.30
   0  -8  -2 3288.97  200.98
   0  -8  -2 3244.28  200.48
   0  -8  -2 3233.08  200.38
   0   8   2 3163.78  200.58
   0   8   2 3378.06  200.78
  -1  -8  -2   55.79    5.00
  -1  -8  -2   54.09    4.70
  -1  -8  -2   53.79    5.10
  -1  -8  -2   58.09    4.50
   1   8   2   58.09    5.00
   1   8   2   60.49    4.90
  -2  -8  -2  177.68   12.00
  -2  -8  -2  175.98   11.80
  -2  -8  -2  181.38   12.30
   2   8   2  185.28   12.10
   2   8   2  167.88   12.10
   2   8   2  176.38   11.90
   2   8   2  185.18   12.50
  -3  -8  -2   23.30    3.10
  -3  -8  -2   23.40    2.60
  -3  -8  -2   20.10    2.80
   3   8   2   23.30    3.00
   3   8   2   27.00    3.20
   3   8   2   27.00    2.90
   3   8   2   17.70    3.10
  -4  -8  -2   22.20    3.00
  -4  -8  -2   24.70    3.30
   4   8   2   25.10    3.00
   4   8   2   22.60    3.20
   4   8   2   16.20    3.30
   4   8   2   28.60    3.50
   4   8   2   31.60    3.60
  -5  -8  -2   60.99    5.50
  -5  -8  -2   67.79    6.00
   5   8   2   69.29    6.00
   5   8   2   60.69    6.40
   5   8   2   65.09    5.60
   5   8   2   66.49    5.90
   5   8   2   69.69    5.90
  -6  -8  -2   63.79    5.90
  -6  -8  -2   52.99    5.20
   6   8   2   50.19    5.40
   6   8   2   57.39    5.30
   6   8   2   48.40    5.40
   6   8   2   63.59    5.70
   6   8   2   63.39    6.40
  -7  -8  -2    2.70    2.10
   7   8   2    2.50    2.40
   7   8   2   -0.40    2.70
   7   8   2    1.50    2.40
   7   8   2    2.80    2.40
  -8  -8  -2  193.18   13.70
   8   8   2  193.28   14.70
   8   8   2  180.18   13.70
   8   8   2  191.38   13.80
   8   8   2  198.98   14.00
  -9  -8  -2    1.70    2.50
   9   8   2   -2.30    2.60
   9   8   2    7.40    3.60
   9   8   2    8.00    3.20
  10   8   2   23.00    4.30
  10   8   2   26.00    4.70
  10  -9  -2    0.70    3.30
   9  -9  -2  127.79   11.10
  -9   9   2  143.09   12.10
   8  -9  -2   72.09    7.50
   8  -9  -2   74.09    8.40
  -8   9   2   77.69    8.30
   7  -9  -2   57.99    7.00
   7  -9  -2   44.10    5.70
   7  -9  -2   55.79    5.70
  -7   9   2   64.29    7.00
  -7   9   2   56.99    5.70
   6  -9  -2  536.25   33.70
   6  -9  -2  507.05   32.70
   6  -9  -2  485.15   32.60
   6  -9  -2  503.85   32.90
  -6   9   2  501.55   32.50
   5  -9  -2   13.30    2.70
   5  -9  -2   15.10    3.70
   5  -9  -2   11.50    2.60
  -5   9   2    7.70    2.60
  -5   9   2   12.30    3.10
   4  -9  -2  272.57   18.20
   4  -9  -2  289.37   18.40
   4  -9  -2  267.07   19.20
  -4   9   2  274.67   18.30
  -4   9   2  284.57   18.70
   3  -9  -2    2.80    1.80
   3  -9  -2    2.30    2.30
   3  -9  -2    4.50    1.80
  -3   9   2    1.50    2.10
  -3   9   2    4.10    2.00
   2  -9  -2  294.77   18.90
   2  -9  -2  294.27   19.60
   2  -9  -2  303.97   18.90
  -2   9   2  301.37   19.00
  -2   9   2  256.47   19.00
   1  -9  -2   84.79    6.90
   1  -9  -2   82.39    6.20
   1  -9  -2   77.49    6.10
  -1   9   2   79.79    6.40
  -1   9   2   75.59    6.40
   0  -9  -2  227.78   15.70
   0  -9  -2  222.88   15.70
   0  -9  -2  286.07   16.70
   0   9   2  233.38   15.10
   0   9   2  245.88   16.90
   0   9   2  233.48   16.00
   0   9   2  241.88   16.10
  -1  -9  -2    8.00    2.00
  -1  -9  -2   10.20    2.00
   1   9   2   11.00    2.50
   1   9   2   12.90    2.60
   1   9   2   14.70    2.20
   1   9   2    9.10    2.40
  -2  -9  -2  676.43   42.80
  -2  -9  -2  653.33   43.00
  -2  -9  -2  611.74   43.20
   2   9   2  686.83   43.20
   2   9   2  677.33   43.00
   2   9   2  749.42   43.60
   2   9   2  739.93   43.30
  -3  -9  -2  169.88   12.60
  -3  -9  -2  189.78   12.40
  -3  -9  -2  177.88   12.10
   3   9   2  211.48   13.30
   3   9   2  173.68   12.50
   3   9   2  180.58   12.30
   3   9   2  169.18   12.60
  -4  -9  -2  135.89    9.80
  -4  -9  -2  125.19    9.40
   4   9   2  120.69    9.20
   4   9   2  142.09    9.70
   4   9   2  134.19   10.10
   4   9   2  123.19    9.60
   4   9   2  125.79    9.50
  -5  -9  -2   18.30    2.90
  -5  -9  -2   15.70    3.30
   5   9   2   14.00    3.10
   5   9   2   15.20    3.10
   5   9   2   19.50    2.90
   5   9   2   10.60    2.80
   5   9   2   16.50    3.60
  -6  -9  -2  251.17   16.50
   6   9   2  243.38   16.80
   6   9   2  266.97   16.50
   6   9   2  247.78   16.80
   6   9   2  223.78   17.50
   6   9   2  226.48   16.70
  -7  -9  -2    8.70    2.70
   7   9   2    8.20    3.00
   7   9   2    7.50    3.60
   7   9   2    9.10    3.00
   7   9   2    8.10    3.00
  -8  -9  -2   36.80    4.50
   8   9   2   33.30    4.60
   8   9   2   22.10    5.00
   8   9   2   31.20    4.60
   8   9   2   22.60    4.30
  -9  -9  -2   26.10    4.20
   9   9   2   20.10    5.10
   9   9   2   14.20    3.90
  10   9   2   86.29    8.40
  10   9   2   87.29    8.50
   9 -10  -2    0.10    3.30
   8 -10  -2  454.75   29.00
  -8  10   2  409.96   29.40
   7 -10  -2   12.90    3.60
   7 -10  -2   15.60    3.30
  -7  10   2   11.80    4.50
  -7  10   2   17.90    3.50
   6 -10  -2  156.78   12.90
   6 -10  -2  154.18   11.80
   6 -10  -2  160.08   12.20
  -6  10   2  175.28   12.00
   5 -10  -2    4.20    2.20
   5 -10  -2    1.70    2.10
   5 -10  -2    3.60    3.00
  -5  10   2   -1.50    2.40
  -5  10   2    3.30    2.30
   4 -10  -2   93.59    7.80
   4 -10  -2  103.79    7.90
   4 -10  -2  108.69    9.10
  -4  10   2   92.49    7.80
  -4  10   2  101.19    8.40
   3 -10  -2   17.40    2.90
   3 -10  -2   16.60    3.70
   3 -10  -2   17.60    2.80
  -3  10   2   15.90    2.90
  -3  10   2   12.40    3.20
   2 -10  -2   59.99    5.30
   2 -10  -2   66.39    6.20
   2 -10  -2   51.99    5.10
  -2  10   2   51.39    5.30
  -2  10   2   70.09    5.90
   1 -10  -2    2.90    1.80
   1 -10  -2    1.30    1.80
  -1  10   2    0.00    2.10
  -1  10   2    0.20    2.10
   0 -10  -2  243.78   15.60
   0 -10  -2  239.58   15.40
   0  10   2  234.68   15.70
   0  10   2  212.48   15.80
  -1 -10  -2   69.69    5.30
  -1 -10  -2   56.89    5.40
   1  10   2   64.59    5.50
   1  10   2   54.39    5.70
   1  10   2   63.89    5.80
   1  10   2   76.69    7.20
  -2 -10  -2    1.40    1.80
  -2 -10  -2    1.20    1.50
  -2 -10  -2    0.60    2.00
   2  10   2    4.10    2.30
   2  10   2    1.40    2.10
   2  10   2    2.20    1.90
   2  10   2    2.10    2.10
  -3 -10  -2   15.60    2.30
  -3 -10  -2   12.00    2.60
  -3 -10  -2    9.50    2.80
   3  10   2   15.90    3.40
   3  10   2   18.60    3.10
   3  10   2   17.60    2.70
   3  10   2    8.10    2.60
  -4 -10  -2  104.19    8.40
  -4 -10  -2  113.99    8.80
   4  10   2  103.09    8.60
   4  10   2  105.39    8.60
   4  10   2  122.69    8.30
   4  10   2  118.09    8.70
   4  10   2   96.39    9.10
  -5 -10  -2    0.70    2.00
  -5 -10  -2   -1.30    2.00
   5  10   2    0.40    2.60
   5  10   2   -1.20    2.30
   5  10   2   -1.90    2.30
   5  10   2    1.90    2.00
   5  10   2    2.30    2.50
  -6 -10  -2   28.10    4.10
   6  10   2   31.00    4.50
   6  10   2   28.70    4.50
   6  10   2   47.60    5.80
   6  10   2   34.10    4.70
  -7 -10  -2    9.60    2.90
   7  10   2   17.30    4.30
   7  10   2   14.90    3.60
   7  10   2   15.50    3.70
   7  10   2   15.50    3.60
  -8 -10  -2   60.79    6.50
   8  10   2   73.79    7.30
   8  10   2   62.59    7.00
   8  10   2   77.79    8.50
   8  10   2   63.79    7.00
   9  10   2    3.90    3.30
   9  10   2    0.30    3.20
   8 -11  -2   -3.20    3.00
   7 -11  -2    4.50    3.20
  -7  11   2    6.30    4.50
   6 -11  -2    3.10    2.50
   6 -11  -2    3.60    2.80
  -6  11   2    2.70    3.80
  -6  11   2    2.50    2.60
   5 -11  -2   63.29    6.10
   5 -11  -2   75.79    6.20
  -5  11   2   61.09    6.70
  -5  11   2   51.69    6.00
   4 -11  -2   66.59    5.90
   4 -11  -2   56.59    5.60
  -4  11   2   61.19    5.90
  -4  11   2   52.49    6.10
   3 -11  -2   65.79    6.00
   3 -11  -2   58.29    5.70
  -3  11   2   58.69    6.00
  -3  11   2   75.09    6.90
   2 -11  -2  155.98   10.70
   2 -11  -2  143.19   10.80
  -2  11   2  157.18   11.40
  -2  11   2  142.99   11.00
   1 -11  -2  238.78   16.20
   1 -11  -2  239.38   16.40
  -1  11   2  268.67   17.00
  -1  11   2  230.88   16.60
   0 -11  -2   18.70    3.00
   0 -11  -2   18.40    2.80
   0  11   2   15.10    3.20
   0  11   2   25.30    3.80
  -1 -11  -2  130.69    9.20
  -1 -11  -2  131.29    9.50
   1  11   2  132.99    9.40
   1  11   2  123.69    9.80
   1  11   2  122.89    9.80
  -2 -11  -2   56.69    4.90
  -2 -11  -2   57.89    5.20
   2  11   2   58.19    5.40
   2  11   2   44.00    5.40
   2  11   2   58.69    5.70
  -3 -11  -2    1.10    2.30
  -3 -11  -2   -1.20    2.00
  -3 -11  -2    1.50    1.60
   3  11   2   -3.40    2.10
   3  11   2   -0.50    2.30
   3  11   2    2.10    2.70
   3  11   2   -0.70    1.90
  -4 -11  -2   26.80    3.60
  -4 -11  -2   22.10    3.90
   4  11   2   27.60    4.00
   4  11   2   26.60    4.10
   4  11   2   20.90    3.30
   4  11   2   25.50    4.00
   4  11   2   19.20    4.20
  -5 -11  -2   15.30    3.10
   5  11   2   14.40    3.40
   5  11   2   12.60    3.30
   5  11   2   14.40    3.80
   5  11   2    6.70    3.00
   5  11   2   13.10    2.90
  -6 -11  -2   -0.20    2.30
   6  11   2    4.50    3.00
   6  11   2    1.00    3.10
   6  11   2    6.80    3.10
   6  11   2    7.50    3.00
  -7 -11  -2   11.30    3.10
   7  11   2    2.30    3.10
   7  11   2   10.80    3.50
   7  11   2   12.00    3.50
   8  11   2   -1.20    3.00
   8  11   2    3.10    3.30
   8  11   2    1.20    3.00
   9  11   2    1.00    3.20
   9  11   2   -2.50    3.20
   8 -12  -2    1.90    3.30
   7 -12  -2   -5.10    2.80
   6 -12  -2   -1.00    2.90
  -6  12   2   -0.90    2.70
  -6  12   2   -2.10    3.70
   5 -12  -2    1.80    2.70
   5 -12  -2    3.00    2.40
  -5  12   2   -0.50    3.10
  -5  12   2   -2.90    2.50
   4 -12  -2   20.10    3.40
   4 -12  -2   19.90    3.40
  -4  12   2   18.30    3.80
  -4  12   2   21.50    4.20
   3 -12  -2   -1.70    2.00
   3 -12  -2    0.50    1.90
  -3  12   2   -1.10    2.50
  -3  12   2    5.40    3.00
   2 -12  -2   39.60    4.40
   2 -12  -2   33.50    4.10
  -2  12   2   42.30    4.90
  -2  12   2   36.40    4.90
   1 -12  -2   15.70    3.10
   1 -12  -2   13.50    2.80
  -1  12   2   12.30    3.20
  -1  12   2   21.10    3.70
   0 -12  -2   11.70    2.60
   0 -12  -2   12.80    2.50
   0  12   2   11.40    3.10
   0  12   2   12.60    3.40
  -1 -12  -2  203.68   13.80
  -1 -12  -2  196.58   14.10
   1  12   2  201.18   14.60
   1  12   2  200.68   14.10
   1  12   2  214.48   14.60
  -2 -12  -2   13.80    2.60
  -2 -12  -2   16.10    3.10
   2  12   2   16.10    3.10
   2  12   2   20.90    3.70
   2  12   2   15.20    3.40
  -3 -12  -2   33.90    4.20
   3  12   2   33.90    4.60
   3  12   2   24.10    3.70
   3  12   2   22.70    4.10
  -4 -12  -2    8.80    3.20
  -4 -12  -2   12.60    3.00
   4  12   2    9.00    2.70
   4  12   2   11.20    3.30
   4  12   2   13.40    3.40
   4  12   2    9.60    3.30
  -5 -12  -2   30.10    4.20
   5  12   2   32.40    4.60
   5  12   2   23.00    4.30
   5  12   2   31.70    4.80
  -6 -12  -2   -2.30    2.30
   6  12   2   -1.30    2.90
   6  12   2   -0.80    2.90
   6  12   2    3.20    3.10
   7  12   2    1.10    3.00
   7  12   2   -0.80    2.90
   7  12   2    4.10    3.20
   8  12   2   41.90    5.90
   8  12   2   37.60    5.60
   8  12   2   40.50    5.70
   7 -13  -2    3.70    3.60
   6 -13  -2    0.50    3.20
  -5  13   2   -1.50    3.20
  -5  13   2   -4.00    2.80
  -5  13   2    2.70    3.90
   4 -13  -2   78.69    7.50
   4 -13  -2   69.29    8.30
  -4  13   2   91.79    8.10
  -4  13   2   92.29    8.50
   3 -13  -2    9.70    2.90
   3 -13  -2    9.20    2.60
  -3  13   2   11.00    3.40
  -3  13   2   11.20    3.80
   2 -13  -2   18.50    3.40
   2 -13  -2   24.70    3.50
  -2  13   2   18.60    4.10
  -2  13   2   16.80    3.80
   1 -13  -2   69.89    6.60
   1 -13  -2   73.59    6.40
  -1  13   2   76.39    7.50
  -1  13   2   65.59    6.90
   0 -13  -2    6.50    2.70
   0 -13  -2    9.50    2.50
   0  13   2    6.20    2.50
   0  13   2    5.30    3.10
   0  13   2    4.30    3.10
  -1 -13  -2   14.30    2.80
  -1 -13  -2   16.00    3.20
   1  13   2   11.30    3.40
   1  13   2   12.50    3.60
   1  13   2   12.60    3.00
  -2 -13  -2   97.09    8.20
   2  13   2   93.49    8.50
   2  13   2   96.59    8.00
   2  13   2   97.69    8.60
  -3 -13  -2   42.80    4.90
   3  13   2   32.40    5.10
   3  13   2   36.20    4.60
   3  13   2   42.80    5.30
  -4 -13  -2    1.30    2.30
   4  13   2   -3.70    2.70
   4  13   2   -1.20    2.70
   4  13   2    5.20    3.00
  -5 -13  -2   40.60    5.30
   5  13   2   53.89    6.10
   5  13   2   49.90    5.90
   5  13   2   41.30    5.70
   6  13   2   26.50    4.80
   6  13   2   15.30    4.10
   6  13   2   18.50    4.30
   7  13   2   29.80    5.00
   7  13   2   25.90    5.00
   7  13   2   19.90    4.70
   6 -14  -2   15.30    4.40
  -5  14   2   50.59    6.90
  -4  14   2   -3.00    3.60
  -4  14   2   -1.60    3.40
  -4  14   2    0.40    3.00
  -3  14   2   42.90    6.00
  -3  14   2   43.00    5.60
   2 -14  -2   16.30    3.50
   2 -14  -2   30.40    4.30
  -2  14   2   26.40    4.50
  -2  14   2   33.50    5.30
   1 -14  -2   25.90    4.10
   1 -14  -2   36.40    4.70
  -1  14   2   49.00    5.70
  -1  14   2   45.70    5.80
   0 -14  -2   -0.80    2.30
   0 -14  -2    0.30    2.00
   0  14   2    3.40    2.40
   0  14   2   -0.20    3.00
   0  14   2    5.40    3.20
  -1 -14  -2   90.99    7.60
   1  14   2   89.29    8.30
   1  14   2   78.09    7.60
   1  14   2   78.39    8.10
  -2 -14  -2   44.40    5.50
   2  14   2   56.79    6.00
   2  14   2   51.49    6.30
   2  14   2   50.49    6.20
  -3 -14  -2   21.10    4.00
   3  14   2   28.00    4.80
   3  14   2   23.40    4.40
   3  14   2   29.90    4.80
  -4 -14  -2    8.20    3.10
   4  14   2    7.40    3.60
   4  14   2   16.40    4.10
   4  14   2   15.00    4.00
   5  14   2    9.70    3.70
   5  14   2    2.30    3.40
   5  14   2    9.20    3.80
   6  14   2   19.50    4.70
   6  14   2   20.10    4.70
   6  14   2   21.60    4.60
  -4  15   2    7.10    4.10
  -4  15   2    2.00    5.50
  -3  15   2   70.99    7.60
  -3  15   2   78.09    8.50
   2 -15  -2   17.20    4.40
  -2  15   2   21.30    4.80
  -2  15   2   20.10    4.30
  -2  15   2   23.50    5.00
   1 -15  -2   65.89    7.00
  -1  15   2   81.19    8.30
  -1  15   2   66.99    7.00
  -1  15   2   73.39    7.70
   0 -15  -2   -3.40    2.40
   0  15   2   -2.10    2.50
   0  15   2   -2.40    3.20
   0  15   2    0.80    3.20
  -1 -15  -2    2.60    2.70
   1  15   2   -1.60    3.10
   1  15   2    1.10    3.20
   2  15   2   10.90    3.90
   2  15   2    6.00    3.60
   3  15   2   -1.50    3.30
   3  15   2    6.30    3.80
   3  15   2    1.60    3.50
   4  15   2   19.60    4.50
   4  15   2   20.20    4.60
   4  15   2   17.70    4.70
   5  15   2    8.20    3.80
   5  15   2    3.00    3.40
   5  15   2    6.20    3.80
  -2  16   2    0.40    3.60
  -2  16   2   -1.70    3.10
  -1  16   2    2.30    3.70
  -1  16   2    1.10    3.30
   0  16   2   -0.80    3.30
   0  16   2    8.60    4.20
   1  16   2   25.30    4.90
   1  16   2   26.10    5.20
   2  16   2   28.10    5.00
   2  16   2   18.50    4.50
   2  16   2   27.90    5.20
   3  16   2   30.00    5.40
   3  15  -3   12.70    3.80
   3  15  -3    9.60    3.60
   2  15  -3  111.19    9.90
   2  15  -3  114.19   10.10
   2  15  -3  122.89   11.40
   1  15  -3   24.30    5.60
   1  15  -3   24.50    4.60
   0  15  -3    4.10    3.30
   0  15  -3   -2.60    3.70
  -1  15  -3    7.10    3.70
  -2  15  -3    4.80    3.50
  -3  15  -3    0.20    3.40
   5  14  -3    7.00    3.40
   5  14  -3    0.90    3.30
   5  14  -3    1.50    3.70
   5  14  -3    0.10    2.70
   4  14  -3   35.80    5.30
   4  14  -3   36.20    5.00
   4  14  -3   36.60    5.10
   4  14  -3   50.59    7.10
   3  14  -3    1.60    2.90
   3  14  -3    0.30    3.10
   3  14  -3    0.20    2.90
   3  14  -3    3.10    3.80
   2  14  -3   12.20    3.50
   2  14  -3   13.00    4.60
   2  14  -3   16.40    3.70
   2  14  -3   11.60    4.40
   1  14  -3   -0.50    2.60
   1  14  -3   -0.40    3.40
   1  14  -3    0.60    2.90
  -1 -14   3    1.70    3.20
   0  14  -3   14.90    4.70
   0  14  -3   13.00    3.70
   0 -14   3   12.10    3.40
  -1  14  -3   -3.40    3.50
  -1  14  -3    1.30    3.10
   1 -14   3   -1.10    2.70
  -2  14  -3   51.39    6.40
  -3  14  -3   36.80    6.50
  -3  14  -3   43.70    6.00
  -4  14  -3   51.19    6.70
  -5  14  -3  108.79   10.20
   6  13  -3    2.10    3.10
   6  13  -3    0.40    3.50
   6  13  -3   11.20    3.10
   6  13  -3    5.40    3.50
   5  13  -3    5.60    3.00
   5  13  -3   11.40    3.60
   5  13  -3   11.10    3.70
   5  13  -3   10.80    4.00
   4  13  -3   61.29    7.40
   4  13  -3   60.29    6.70
   4  13  -3   64.59    6.70
   4  13  -3   71.99    6.70
  -4 -13   3   53.39    6.20
   3  13  -3   31.70    5.40
   3  13  -3   22.90    4.20
   3  13  -3   27.00    4.50
   3  13  -3   25.40    4.20
  -3 -13   3   25.30    4.00
   2  13  -3   41.30    5.10
   2  13  -3   37.70    5.00
   2  13  -3   43.40    4.90
   2  13  -3   37.00    6.00
  -2 -13   3   40.00    4.80
   1  13  -3   46.10    5.60
   1  13  -3   49.30    5.60
   1  13  -3   65.99    7.10
   1  13  -3   44.10    5.40
  -1 -13   3   42.30    5.20
   0  13  -3  243.08   16.80
   0  13  -3  198.58   15.20
   0  13  -3  220.78   15.60
   0 -13   3  207.58   15.20
  -1  13  -3  102.29   10.90
  -1  13  -3  131.09   10.20
   1 -13   3  138.19   10.00
  -2  13  -3  161.58   12.50
  -2  13  -3  150.38   12.30
  -2  13  -3  169.28   13.40
   2 -13   3  154.98   11.90
  -3  13  -3  167.58   13.20
  -3  13  -3  160.48   13.30
   3 -13   3  180.38   12.70
  -4  13  -3  329.47   23.20
  -4  13  -3  320.07   23.00
   4 -13   3  344.27   22.50
  -5  13  -3   18.70    4.60
  -6  13  -3  110.49   10.60
   7  12  -3    6.20    4.00
   7  12  -3    6.70    2.70
   7  12  -3    3.70    3.40
   6  12  -3    7.10    3.40
   6  12  -3    4.40    3.60
   6  12  -3    7.90    3.40
   6  12  -3    2.70    2.60
   5  12  -3   26.30    4.60
   5  12  -3   30.00    4.20
   5  12  -3   24.30    5.00
   5  12  -3   38.20    5.00
  -5 -12   3   36.40    4.40
   4  12  -3   48.90    5.90
   4  12  -3   53.89    5.70
   4  12  -3   52.69    5.50
   4  12  -3   47.50    6.30
  -4 -12   3   47.50    5.30
   3  12  -3   88.19    7.80
   3  12  -3   85.19    8.50
   3  12  -3   81.79    7.60
   3  12  -3   89.19    8.00
  -3 -12   3   91.99    7.60
   2  12  -3  952.40   60.79
   2  12  -3  991.40   60.89
   2  12  -3  939.11   60.59
  -2 -12   3  981.10   60.79
   1  12  -3  202.88   13.90
   1  12  -3  199.28   13.70
   1  12  -3  167.08   14.40
   1  12  -3  196.38   13.80
  -1 -12   3  199.28   13.70
   0  12  -3  627.14   38.80
   0  12  -3  585.34   39.00
   0  12  -3  628.54   38.60
   0 -12   3  568.14   38.50
  -1  12  -3  174.08   14.10
  -1  12  -3  196.58   13.40
  -1  12  -3  181.98   13.30
   1 -12   3  175.28   13.00
  -2  12  -3  470.85   30.80
  -2  12  -3  461.35   30.80
   2 -12   3  471.65   30.40
  -3  12  -3   15.60    4.40
  -3  12  -3   16.80    3.80
  -3  12  -3   16.60    3.90
   3 -12   3   10.20    3.00
  -4  12  -3  123.69   10.60
  -4  12  -3  132.99   11.10
   4 -12   3  133.19    9.70
   4 -12   3  120.19   10.00
  -5  12  -3   -0.30    3.10
  -5  12  -3   -4.30    3.10
   5 -12   3    0.50    2.60
  -6  12  -3   -2.80    3.10
   6 -12   3    2.30    3.10
  -7  12  -3   -2.90    3.40
   7 -12   3    2.80    3.30
   8  11  -3   39.00    5.80
   8  11  -3   46.80    5.00
   8  11  -3   40.20    6.40
   7  11  -3   45.00    6.40
   7  11  -3   38.30    4.60
   7  11  -3   39.50    5.40
   6  11  -3   98.59    9.20
   6  11  -3   68.19    8.00
   6  11  -3   84.99    8.30
   6  11  -3   93.29    7.60
  -6 -11   3   93.89    7.80
   5  11  -3   57.59    6.80
   5  11  -3   59.09    5.60
   5  11  -3   45.30    5.80
   5  11  -3   54.09    5.90
  -5 -11   3   52.49    5.50
   4  11  -3  846.42   53.39
   4  11  -3  840.72   52.69
   4  11  -3  824.32   52.69
   4  11  -3  824.62   52.39
  -4 -11   3  820.92   52.39
   3  11  -3   34.30    5.40
   3  11  -3   48.90    5.00
   3  11  -3   55.29    5.40
   3  11  -3   48.10    5.20
  -3 -11   3   54.39    5.20
   2  11  -3  242.08   16.20
   2  11  -3  234.38   16.10
   2  11  -3  266.67   16.40
   2  11  -3  206.08   16.60
  -2 -11   3  238.78   16.00
   1  11  -3   12.00    3.10
   1  11  -3   19.20    4.10
   1  11  -3   17.40    3.00
   1  11  -3   16.40    3.20
  -1 -11   3   16.20    2.90
   0  11  -3   46.30    5.00
   0  11  -3   42.60    4.70
   0  11  -3   47.10    5.80
   0 -11   3   38.40    4.60
  -1  11  -3   28.30    5.00
  -1  11  -3   42.90    4.90
  -1  11  -3   48.70    5.10
  -1  11  -3   51.99    4.70
   1 -11   3   37.90    4.40
  -2  11  -3    6.20    3.20
  -2  11  -3   10.00    3.00
  -2  11  -3    4.00    2.70
   2 -11   3    7.40    2.50
   2 -11   3    4.80    2.30
  -3  11  -3   57.49    7.20
  -3  11  -3   67.49    6.80
  -3  11  -3   64.39    6.80
   3 -11   3   72.09    6.40
   3 -11   3   65.99    5.80
   3 -11   3   71.09    7.80
  -4  11  -3   68.59    6.90
  -4  11  -3   51.99    6.20
   4 -11   3   49.40    5.60
   4 -11   3   66.59    5.80
  -5  11  -3   21.10    4.40
  -5  11  -3   17.20    4.30
   5 -11   3   22.50    3.70
   5 -11   3   19.80    3.60
  -6  11  -3    3.70    3.90
  -6  11  -3    0.50    3.30
   6 -11   3   -0.40    2.50
   6 -11   3    5.30    3.10
  -7  11  -3    6.30    3.70
   7 -11   3    3.00    3.20
   7 -11   3    7.00    3.40
  -8  11  -3   18.60    5.00
   8 -11   3   15.80    4.50
   8  10  -3  242.58   16.80
   8  10  -3  263.47   15.70
   8  10  -3  172.68   16.60
   7  10  -3   17.00    3.80
   7  10  -3   15.50    3.10
   7  10  -3   10.40    3.90
  -7 -10   3   15.70    3.20
   6  10  -3  821.92   50.59
   6  10  -3  742.13   49.30
   6  10  -3  764.82   49.99
   6  10  -3  813.62   49.99
  -6 -10   3  777.02   49.50
   5  10  -3    3.60    3.00
   5  10  -3    5.40    2.80
   5  10  -3    4.70    2.30
   5  10  -3    1.60    2.70
  -5 -10   3    6.00    2.30
   4  10  -3  217.58   15.50
   4  10  -3  211.18   15.00
   4  10  -3  225.38   14.90
   4  10  -3  217.78   14.60
  -4 -10   3  197.28   14.60
   3  10  -3    0.90    2.00
   3  10  -3    0.70    2.20
   3  10  -3    3.00    2.40
   3  10  -3    2.30    2.20
  -3 -10   3    0.30    1.70
   2  10  -3    0.20    2.00
   2  10  -3    1.50    2.30
   2  10  -3    1.80    1.90
   2  10  -3   -0.80    1.80
  -2 -10   3    1.70    1.70
   1  10  -3   24.20    4.00
   1  10  -3   17.90    3.10
   1  10  -3   21.60    3.20
   1  10  -3   22.80    3.20
  -1 -10   3   22.10    3.10
   0  10  -3   18.30    2.90
   0  10  -3   22.80    3.70
   0  10  -3   17.30    2.90
   0  10  -3   16.60    3.10
   0 -10   3   12.20    2.50
  -1  10  -3   -1.20    2.10
  -1  10  -3   -1.10    1.80
  -1  10  -3    1.60    2.30
  -1  10  -3    4.80    2.40
   1 -10   3    3.20    1.50
   1 -10   3   -0.20    1.80
  -2  10  -3   76.49    8.40
  -2  10  -3  112.39    8.20
  -2  10  -3  113.79    8.40
   2 -10   3   89.99    7.20
   2 -10   3   96.69    7.60
  -3  10  -3   56.89    5.70
  -3  10  -3   52.69    6.10
  -3  10  -3   40.80    5.40
   3 -10   3   47.80    5.00
   3 -10   3   58.89    5.00
   3 -10   3   51.79    5.30
  -4  10  -3   -1.20    2.50
  -4  10  -3    1.00    2.80
  -4  10  -3    0.40    2.70
   4 -10   3    0.40    2.20
   4 -10   3   -1.20    1.80
  -5  10  -3   73.29    7.80
  -5  10  -3   77.49    7.60
   5 -10   3   75.19    6.60
   5 -10   3   69.19    6.80
  -6  10  -3   68.69    7.60
  -6  10  -3   67.49    7.70
   6 -10   3   77.59    6.70
   6 -10   3   81.19    6.90
   6 -10   3   56.69    6.80
  -7  10  -3  116.39   10.50
  -7  10  -3  110.79   10.00
   7 -10   3  106.19    9.80
   7 -10   3  113.69    9.30
  -8  10  -3  101.19    9.80
   8 -10   3  103.39    9.70
   8 -10   3  107.79   11.00
  -9  10  -3   39.90    6.10
   9 -10   3   45.10    6.20
   9   9  -3   17.10    3.20
   9   9  -3   22.40    5.30
   9   9  -3   24.00    4.70
   8   9  -3  215.28   16.60
   8   9  -3  228.28   17.60
   8   9  -3  300.17   19.00
  -8  -9   3  259.17   17.10
   7   9  -3   36.60    5.00
   7   9  -3   43.90    4.70
   7   9  -3   33.00    5.50
  -7  -9   3   45.80    4.80
   6   9  -3   19.10    3.80
   6   9  -3   20.80    3.30
   6   9  -3   19.20    3.80
   6   9  -3   22.70    4.20
  -6  -9   3   19.70    3.20
   5   9  -3   33.40    4.60
   5   9  -3   26.40    3.60
   5   9  -3   28.20    4.10
   5   9  -3   31.50    4.10
  -5  -9   3   31.10    3.70
   4   9  -3  130.09    9.60
   4   9  -3  137.59    9.80
   4   9  -3  126.59    9.30
   4   9  -3  121.99   10.00
  -4  -9   3  124.99    9.30
   3   9  -3   53.39    4.90
   3   9  -3   46.20    4.60
   3   9  -3   52.99    5.40
   3   9  -3   46.40    4.90
  -3  -9   3   43.20    4.40
   2   9  -3    2.20    1.80
   2   9  -3    0.40    1.80
   2   9  -3    1.70    1.90
   2   9  -3    1.20    2.10
  -2  -9   3    2.40    1.60
   1   9  -3    2.80    2.10
   1   9  -3   -2.10    1.60
   1   9  -3   -1.00    1.50
   1   9  -3   -2.70    1.70
   1   9  -3   -1.20    1.70
  -1  -9   3   -1.70    1.40
   0   9  -3  284.07   18.20
   0   9  -3  297.77   18.40
   0   9  -3  236.78   18.60
   0   9  -3  281.27   18.10
   0  -9   3  287.17   18.20
  -1   9  -3  156.98    9.90
  -1   9  -3  120.89    9.10
  -1   9  -3  118.79    9.20
  -1   9  -3  116.29    8.70
   1  -9   3  116.79    8.90
   1  -9   3  117.39    8.50
  -2   9  -3   56.49    5.70
  -2   9  -3   54.39    4.80
  -2   9  -3   74.79    6.30
  -2   9  -3   54.29    5.30
   2  -9   3   48.70    4.70
   2  -9   3   50.09    5.00
  -3   9  -3  132.39    9.50
  -3   9  -3  104.79    9.50
  -3   9  -3  156.48   10.20
   3  -9   3  122.29    9.10
   3  -9   3  113.19    9.20
   3  -9   3  121.29    8.90
  -4   9  -3  158.68   11.90
  -4   9  -3  159.38   12.20
  -4   9  -3  193.78   12.70
   4  -9   3  159.18   11.60
   4  -9   3  148.89   11.50
   4  -9   3  162.98   11.40
  -5   9  -3  146.29   10.90
  -5   9  -3  127.39   10.40
   5  -9   3  127.49   10.00
  -6   9  -3  219.38   16.20
  -6   9  -3  243.78   16.10
   6  -9   3  211.08   15.40
   6  -9   3  210.18   15.70
  -7   9  -3   45.30    5.80
  -7   9  -3   31.30    5.40
   7  -9   3   37.30    5.30
   7  -9   3   41.40    5.00
  -8   9  -3   -3.20    3.10
  -8   9  -3   -0.20    3.70
   8  -9   3    7.90    3.20
   8  -9   3    1.00    3.10
  -9   9  -3    9.70    4.20
   9  -9   3   10.40    4.00
  10   8  -3   43.60    6.50
  10   8  -3   38.30    5.80
  10   8  -3   36.80    4.30
   9   8  -3    0.70    2.20
   9   8  -3    4.40    3.30
   9   8  -3    2.20    3.50
   8   8  -3    2.70    3.10
   8   8  -3    0.10    2.00
   8   8  -3    4.30    3.00
  -8  -8   3    1.10    2.30
   7   8  -3   33.30    4.50
   7   8  -3   31.70    3.70
   7   8  -3   26.60    4.60
  -7  -8   3   28.40    3.80
   6   8  -3  270.97   18.60
   6   8  -3  237.98   18.80
   6   8  -3  271.17   18.60
   6   8  -3  302.77   18.10
  -6  -8   3  275.07   18.00
   5   8  -3   93.29    7.10
   5   8  -3   93.69    7.50
   5   8  -3   90.49    7.60
   5   8  -3   94.69    8.10
   5   8  -3   92.79    7.40
  -5  -8   3   84.89    7.00
   4   8  -3   38.90    4.10
   4   8  -3   31.70    4.00
   4   8  -3   30.70    4.20
   4   8  -3   37.20    3.80
  -4  -8   3   41.00    3.80
   3   8  -3  244.88   15.90
   3   8  -3  208.58   16.10
   3   8  -3  227.08   15.60
   3   8  -3  260.77   16.00
  -3  -8   3  254.47   15.70
   2   8  -3  575.24   36.30
   2   8  -3  604.64   36.80
   2   8  -3  561.24   36.20
   2   8  -3  544.75   36.30
  -2  -8   3  590.74   36.20
   1   8  -3  601.84   38.10
   1   8  -3  540.45   38.00
   1   8  -3  642.64   38.00
   1   8  -3  616.34   38.00
   1   8  -3  625.04   38.00
  -1  -8   3  610.24   38.00
   0   8  -3  386.46   23.90
   0   8  -3  371.76   24.00
   0   8  -3  346.97   24.40
   0   8  -3  379.26   24.00
   0  -8   3  372.06   23.90
   0  -8   3  387.36   23.60
  -1   8  -3  296.57   20.50
  -1   8  -3  319.37   20.80
  -1   8  -3  322.57   20.10
  -1   8  -3  324.47   20.40
   1  -8   3  300.67   20.20
   1  -8   3  319.37   20.00
  -2   8  -3  283.27   18.20
  -2   8  -3  222.88   18.20
  -2   8  -3  276.67   17.50
  -2   8  -3  275.07   18.00
   2  -8   3  293.97   17.70
   2  -8   3  287.27   17.80
  -3   8  -3  178.78   12.00
  -3   8  -3  156.18   11.50
  -3   8  -3  175.88   11.90
   3  -8   3  146.29   11.30
   3  -8   3  160.18   11.30
  -4   8  -3  398.36   26.50
  -4   8  -3  376.76   26.80
  -4   8  -3  441.86   26.80
   4  -8   3  389.66   26.10
   4  -8   3  426.86   26.30
  -5   8  -3    7.40    3.00
  -5   8  -3   11.50    3.10
  -5   8  -3    5.90    3.10
   5  -8   3   10.50    2.40
   5  -8   3    4.10    2.50
   5  -8   3   10.30    2.40
  -6   8  -3    3.90    3.00
  -6   8  -3    6.30    3.20
   6  -8   3    5.20    2.40
   6  -8   3    2.40    2.50
  -7   8  -3    0.20    3.00
  -7   8  -3    2.90    3.00
   7  -8   3    1.10    2.60
   7  -8   3    7.50    2.60
  -8   8  -3    6.70    3.60
  -8   8  -3    1.60    3.40
   8  -8   3    1.50    2.50
   8  -8   3    0.60    2.90
  -9   8  -3    1.30    3.60
  -9   8  -3   -0.20    3.30
   9  -8   3    5.30    3.00
   9  -8   3    2.40    3.40
 -10   8  -3   -6.50    3.20
  10  -8   3   -0.90    3.20
  10   7  -3    6.90    3.50
  10   7  -3    6.90    2.50
  10   7  -3    8.40    3.90
   9   7  -3   41.40    5.80
   9   7  -3   40.20    4.50
   9   7  -3   39.90    5.50
  -9  -7   3   37.90    4.60
   8   7  -3  219.28   15.10
   8   7  -3  228.68   16.40
   8   7  -3  225.28   16.10
  -8  -7   3  221.18   15.40
   7   7  -3   42.00    4.30
   7   7  -3   40.20    4.80
   7   7  -3   29.80    4.80
  -7  -7   3   54.49    4.80
   6   7  -3   10.80    2.40
   6   7  -3   16.60    3.10
   6   7  -3   15.10    3.20
  -6  -7   3   13.60    2.50
   5   7  -3   27.50    3.00
   5   7  -3   21.70    2.80
   5   7  -3   19.90    3.20
   5   7  -3   15.70    3.10
   5   7  -3   23.00    3.50
  -5  -7   3   23.30    2.90
   4   7  -3  181.38   11.60
   4   7  -3  148.29   12.00
   4   7  -3  180.18   11.70
   4   7  -3  168.28   11.80
   4   7  -3  169.08   11.90
  -4  -7   3  178.58   11.60
   3   7  -3   38.10    4.20
   3   7  -3   49.00    4.20
   3   7  -3   41.00    4.10
   3   7  -3   35.10    3.70
  -3  -7   3   43.30    3.80
   2   7  -3   89.29    6.20
   2   7  -3   67.69    6.50
   2   7  -3   87.49    6.30
   2   7  -3   95.89    6.50
  -2  -7   3   84.79    6.10
   1   7  -3   45.30    3.70
   1   7  -3   40.40    3.80
   1   7  -3   30.70    3.80
   1   7  -3   44.80    3.70
   1   7  -3   44.20    3.40
   1   7  -3   33.40    3.50
  -1  -7   3   43.10    3.70
  -1  -7   3   42.10    3.10
   0   7  -3   37.50    3.30
   0   7  -3   41.40    4.10
   0   7  -3   36.20    3.70
   0   7  -3   39.00    3.60
   0   7  -3   38.10    3.40
   0  -7   3   38.80    3.60
   0  -7   3   38.30    3.10
  -1   7  -3   94.99    6.70
  -1   7  -3  101.19    7.30
  -1   7  -3   82.69    7.20
  -1   7  -3   96.99    7.00
   1  -7   3   99.99    6.70
   1  -7   3  101.39    7.00
  -2   7  -3   21.30    2.70
  -2   7  -3   17.70    2.80
  -2   7  -3   14.70    2.90
  -2   7  -3   19.30    2.20
   2  -7   3   17.10    2.30
  -3   7  -3  133.39    9.20
  -3   7  -3  118.19    9.00
  -3   7  -3  102.39    8.90
  -3   7  -3  119.49    8.70
   3  -7   3  130.29    8.70
   3  -7   3  116.69    8.40
  -4   7  -3  362.56   21.80
  -4   7  -3  272.37   21.10
  -4   7  -3  367.96   21.70
   4  -7   3  295.57   21.00
   4  -7   3  332.87   21.10
  -5   7  -3   54.29    6.00
  -5   7  -3   62.49    6.10
  -5   7  -3   56.49    5.70
   5  -7   3   58.69    5.20
   5  -7   3   61.99    5.30
   5  -7   3   50.39    5.40
  -6   7  -3   11.20    3.40
  -6   7  -3   16.30    3.50
   6  -7   3   11.90    2.60
   6  -7   3   15.30    2.80
   6  -7   3   12.10    3.20
  -7   7  -3   11.20    3.50
  -7   7  -3   20.40    4.10
   7  -7   3   16.40    3.60
   7  -7   3   21.10    3.50
  -8   7  -3   10.20    3.60
  -8   7  -3   18.70    4.10
   8  -7   3    9.00    3.30
   8  -7   3   13.30    3.20
  -9   7  -3   27.50    4.90
  -9   7  -3   28.50    5.00
   9  -7   3   23.10    4.10
   9  -7   3   28.40    4.90
 -10   7  -3   27.40    5.20
  10  -7   3   19.90    4.90
  10   6  -3  134.89   11.40
  10   6  -3  120.29   10.70
  10   6  -3  117.89    9.30
   9   6  -3   12.40    2.70
   9   6  -3    6.70    3.30
   9   6  -3    8.50    3.60
  -9  -6   3   10.60    2.80
   8   6  -3   10.10    3.40
   8   6  -3    9.30    2.40
   8   6  -3   11.50    3.30
  -8  -6   3    9.40    2.50
   7   6  -3    1.50    2.20
   7   6  -3   -0.10    2.30
   7   6  -3    0.30    1.70
  -7  -6   3   -0.90    1.60
   6   6  -3   53.49    4.70
   6   6  -3   49.70    5.10
   6   6  -3   51.29    5.40
  -6  -6   3   49.30    4.60
   5   6  -3   -2.30    1.40
   5   6  -3    2.80    1.60
   5   6  -3    1.70    1.80
   5   6  -3    0.20    1.90
   5   6  -3    2.60    2.00
  -5  -6   3   -0.40    1.30
   4   6  -3  132.69    8.80
   4   6  -3  126.59    8.50
   4   6  -3  109.09    8.50
   4   6  -3  105.39    8.20
   4   6  -3  130.39    8.80
  -4  -6   3  119.29    8.30
   3   6  -3   79.09    5.90
   3   6  -3   77.49    5.90
   3   6  -3   73.69    5.60
   3   6  -3   72.79    6.10
  -3  -6   3   77.69    5.60
   2   6  -3   46.70    3.60
   2   6  -3   45.30    4.10
   2   6  -3   46.40    4.10
   2   6  -3   44.50    3.80
   2   6  -3   48.30    4.20
   2   6  -3   54.99    4.30
  -2  -6   3   44.50    3.80
   1   6  -3  140.09    9.20
   1   6  -3  137.29    8.90
   1   6  -3  107.19    9.30
   1   6  -3  138.49    9.10
   1   6  -3  142.39    9.10
   1   6  -3  149.79    9.30
   1   6  -3  141.39    9.20
  -1  -6   3  138.89    8.70
  -1  -6   3  134.09    9.10
   0   6  -3  374.86   24.20
   0   6  -3  367.26   23.90
   0   6  -3  425.76   24.50
   0   6  -3  379.36   24.00
   0   6  -3  375.96   24.10
   0  -6   3  372.56   24.10
   0  -6   3  380.76   23.80
  -1   6  -3   57.59    4.70
  -1   6  -3   47.90    4.60
  -1   6  -3   54.59    4.00
  -1   6  -3   50.19    4.30
  -1   6  -3   58.29    4.10
   1  -6   3   57.29    4.40
  -2   6  -3    3.30    1.20
  -2   6  -3    1.10    1.60
  -2   6  -3    2.10    1.60
  -2   6  -3    2.80    1.80
   2  -6   3    0.00    1.20
  -3   6  -3   11.90    2.20
  -3   6  -3    6.60    1.40
  -3   6  -3    9.00    2.30
  -3   6  -3   11.70    2.50
   3  -6   3   10.40    2.00
   3  -6   3    8.50    1.80
  -4   6  -3  210.48   14.90
  -4   6  -3  212.68   14.70
  -4   6  -3  209.98   15.00
   4  -6   3  244.98   14.60
   4  -6   3  210.38   14.40
  -5   6  -3  134.49   10.30
  -5   6  -3  121.89   10.30
  -5   6  -3  137.79   10.20
   5  -6   3  147.89    9.90
   5  -6   3  129.09    9.80
   5  -6   3  157.48   10.20
  -6   6  -3  479.65   29.80
  -6   6  -3  396.36   29.70
   6  -6   3  479.15   29.70
   6  -6   3  475.35   29.40
   6  -6   3  457.55   29.30
  -7   6  -3   48.60    6.00
  -7   6  -3   77.39    7.00
   7  -6   3   64.19    6.50
   7  -6   3   71.29    6.20
  -8   6  -3   78.19    8.20
  -8   6  -3   92.69    8.30
   8  -6   3   91.09    8.20
   8  -6   3   95.19    7.80
  -9   6  -3   23.30    4.40
  -9   6  -3   18.30    4.20
   9  -6   3   16.60    3.90
   9  -6   3   13.30    3.30
 -10   6  -3   70.39    7.70
 -10   6  -3   69.79    7.80
  10  -6   3   65.79    7.70
  11  -6   3   -0.70    3.40
  11   5  -3    5.20    4.00
  11   5  -3    2.10    2.30
  11   5  -3   -3.10    3.00
  10   5  -3    2.60    3.30
  10   5  -3    1.90    2.20
  10   5  -3    4.30    3.70
 -10  -5   3    7.70    2.70
   9   5  -3   20.50    4.30
   9   5  -3   15.20    3.80
   9   5  -3   22.60    3.10
  -9  -5   3   15.30    3.10
   8   5  -3   16.90    3.50
   8   5  -3   19.30    2.90
   8   5  -3   27.10    4.30
  -8  -5   3   22.40    3.30
   7   5  -3    3.50    2.20
   7   5  -3    2.90    2.40
   7   5  -3    1.40    1.60
   7   5  -3    1.20    2.20
  -7  -5   3    3.80    1.90
   6   5  -3   -1.90    1.80
   6   5  -3    0.50    1.40
   6   5  -3    1.20    2.10
   6   5  -3    1.60    2.00
  -6  -5   3   -2.10    1.30
   5   5  -3   40.00    3.70
   5   5  -3   37.70    4.10
   5   5  -3   50.89    4.40
   5   5  -3   38.80    3.60
   5   5  -3   38.00    4.20
  -5  -5   3   41.90    3.70
   4   5  -3  333.27   21.00
   4   5  -3  339.47   21.10
   4   5  -3  320.67   20.90
   4   5  -3  336.47   20.80
   4   5  -3  280.37   20.60
   4   5  -3  349.07   21.10
  -4  -5   3  327.07   20.70
   3   5  -3   90.29    6.50
   3   5  -3   84.09    6.40
   3   5  -3   82.99    6.30
   3   5  -3   88.29    6.40
   3   5  -3   84.59    6.00
  -3  -5   3   92.29    6.10
   2   5  -3  164.78    9.90
   2   5  -3  150.68    9.70
   2   5  -3  149.19   10.10
   2   5  -3  160.48   10.10
   2   5  -3  131.19   10.10
   2   5  -3  159.78    9.70
   2   5  -3  151.58   10.10
  -2  -5   3  142.39    9.80
  -2  -5   3  152.88    9.40
   1   5  -3   -0.50    0.90
   1   5  -3   -0.20    1.00
   1   5  -3    0.40    1.20
   1   5  -3    1.70    1.20
   1   5  -3   -1.00    1.00
   1   5  -3   -1.30    1.00
   1   5  -3   -0.80    0.70
  -1  -5   3   -0.50    0.60
  -1  -5   3   -0.90    0.90
   0   5  -3    4.70    1.40
   0   5  -3    2.90    1.20
   0   5  -3    3.50    1.20
   0   5  -3    9.20    1.40
   0   5  -3    4.50    1.40
   0  -5   3    4.30    1.00
   0  -5   3    6.60    1.30
  -1   5  -3    7.60    1.30
  -1   5  -3    8.10    1.60
  -1   5  -3    7.50    1.60
  -1   5  -3   12.80    1.40
  -1   5  -3    6.40    1.60
   1  -5   3    8.30    1.50
  -2   5  -3  152.98   10.20
  -2   5  -3  151.68   10.30
  -2   5  -3  150.88   10.60
  -2   5  -3  159.98   10.80
   2  -5   3  155.28   10.50
   2  -5   3  181.88   10.20
  -3   5  -3  314.77   17.90
  -3   5  -3  229.98   18.00
  -3   5  -3  251.97   17.90
  -3   5  -3  298.67   17.40
   3  -5   3  272.97   17.80
   3  -5   3  280.17   17.60
  -4   5  -3  510.55   35.40
  -4   5  -3  556.44   35.40
   4  -5   3  558.04   35.30
   4  -5   3  607.14   35.40
   4  -5   3  567.74   35.20
  -5   5  -3   57.59    5.00
  -5   5  -3   59.19    5.30
  -5   5  -3   35.20    4.50
   5  -5   3   46.10    4.40
   5  -5   3   44.70    4.40
   5  -5   3   48.30    4.70
  -6   5  -3    0.20    2.30
  -6   5  -3   -1.70    2.00
   6  -5   3    3.40    1.90
   6  -5   3   -0.10    1.60
   6  -5   3    1.90    2.10
  -7   5  -3   -2.30    2.30
  -7   5  -3   -1.10    2.50
   7  -5   3   -1.40    2.00
   7  -5   3   -2.20    1.60
   7  -5   3    0.80    2.30
  -8   5  -3    3.30    3.10
  -8   5  -3    5.40    3.00
   8  -5   3    2.90    2.30
   8  -5   3    8.90    3.00
  -9   5  -3    3.60    3.30
  -9   5  -3   -0.20    2.80
   9  -5   3    1.80    3.00
   9  -5   3    4.30    2.60
 -10   5  -3   19.70    4.60
 -10   5  -3   22.40    5.20
  10  -5   3   21.70    5.40
  10  -5   3   19.30    4.70
  11  -5   3    3.20    3.60
  11   4  -3    1.00    2.10
  11   4  -3   -0.40    3.40
  11   4  -3    1.70    3.70
  10   4  -3   16.20    4.40
  10   4  -3   22.70    3.30
  10   4  -3   26.10    4.50
 -10  -4   3   28.40    3.90
   9   4  -3   -1.00    1.80
   9   4  -3    2.60    2.80
   9   4  -3    0.20    2.80
  -9  -4   3   -2.00    1.90
   8   4  -3   24.80    4.30
   8   4  -3   35.40    3.60
   8   4  -3   23.10    3.90
  -8  -4   3   35.70    3.80
   7   4  -3   30.90    3.50
   7   4  -3   22.40    3.50
   7   4  -3   28.20    3.80
   7   4  -3   29.50    3.20
  -7  -4   3   22.10    3.00
   6   4  -3    2.80    2.00
   6   4  -3    4.40    1.60
   6   4  -3    5.40    2.00
   6   4  -3    3.90    1.90
  -6  -4   3    4.00    1.60
   5   4  -3  229.38   15.00
   5   4  -3  215.38   14.50
   5   4  -3  219.78   14.80
   5   4  -3  239.68   15.10
   5   4  -3  229.18   14.50
  -5  -4   3  217.98   14.50
   4   4  -3  585.24   36.40
   4   4  -3  586.04   36.30
   4   4  -3  577.94   36.40
   4   4  -3  546.75   36.40
   4   4  -3  589.94   36.20
   4   4  -3  571.74   36.00
  -4  -4   3  598.84   36.10
   3   4  -3  151.48   10.10
   3   4  -3  161.58   10.10
   3   4  -3  152.78   10.00
   3   4  -3  145.09   10.00
   3   4  -3  155.18    9.50
   3   4  -3  140.59    9.70
   3   4  -3  147.59   10.10
   3   4  -3  145.89   10.20
  -3  -4   3  150.58    9.80
   2   4  -3  559.84   34.70
   2   4  -3  513.65   35.00
   2   4  -3  590.44   35.00
   2   4  -3  549.35   35.00
   2   4  -3  614.34   35.10
   2   4  -3  539.25   34.80
   2   4  -3  567.14   35.10
   2   4  -3  561.94   34.70
  -2  -4   3  558.74   34.80
   1   4  -3  264.37   16.20
   1   4  -3  247.98   16.30
   1   4  -3  247.58   16.50
   1   4  -3  248.08   16.10
   1   4  -3  257.47   16.30
   1   4  -3  258.17   16.40
   1   4  -3  263.97   16.20
   1   4  -3  276.97   16.40
  -1  -4   3  260.37   16.00
  -1  -4   3  250.67   16.20
   0   4  -3  166.68   10.90
   0   4  -3  162.18   11.00
   0   4  -3  166.68   11.10
   0   4  -3  164.88   11.00
   0   4  -3  203.08   11.20
   0  -4   3  163.88   10.90
  -1   4  -3   22.00    2.20
  -1   4  -3   20.30    2.00
  -1   4  -3   16.80    2.20
  -1   4  -3   29.70    2.50
   1  -4   3   20.00    2.00
  -2   4  -3  863.61   58.49
  -2   4  -3  918.21   58.49
  -2   4  -3  996.20   58.39
   2  -4   3  989.10   57.99
   2  -4   3  943.21   58.19
  -3   4  -3  251.67   16.20
  -3   4  -3  227.18   16.40
  -3   4  -3  265.67   16.40
   3  -4   3  258.77   16.20
  -4   4  -3  149.19   10.00
  -4   4  -3  137.19    9.70
   4  -4   3  130.39    9.60
   4  -4   3  143.29    9.70
   4  -4   3  142.39    9.60
  -5   4  -3  256.87   18.10
  -5   4  -3  254.47   18.20
  -5   4  -3  290.17   18.50
   5  -4   3  314.17   18.10
   5  -4   3  242.98   17.80
   5  -4   3  297.67   18.20
  -6   4  -3    3.10    2.20
  -6   4  -3    1.20    2.00
  -6   4  -3    2.90    2.30
   6  -4   3    5.00    2.00
   6  -4   3   -0.50    1.60
   6  -4   3    1.60    1.90
  -7   4  -3    3.90    2.40
  -7   4  -3    2.70    2.30
   7  -4   3    2.20    2.00
   7  -4   3    2.00    1.90
   7  -4   3    1.60    2.30
  -8   4  -3    6.80    3.20
  -8   4  -3   15.80    3.40
   8  -4   3   15.30    3.50
   8  -4   3   17.70    3.10
  -9   4  -3    2.40    2.90
  -9   4  -3   -0.30    2.70
   9  -4   3    2.80    2.50
   9  -4   3    1.60    3.00
 -10   4  -3    0.20    3.20
  10  -4   3    2.60    2.80
  10  -4   3    2.50    3.10
  11  -4   3   15.80    4.20
  11   3  -3    6.30    4.00
  11   3  -3    1.40    3.10
  11   3  -3    0.80    2.20
  10   3  -3   16.50    3.10
  10   3  -3   18.90    4.40
  10   3  -3   16.60    3.90
   9   3  -3   31.10    4.70
   9   3  -3   44.90    4.40
   9   3  -3   41.30    5.40
  -9  -3   3   37.20    4.40
   8   3  -3    4.70    2.10
   8   3  -3    4.50    2.50
   8   3  -3    4.80    2.60
  -8  -3   3    2.90    1.90
   7   3  -3  180.78   12.40
   7   3  -3  163.38   12.00
   7   3  -3  161.88   11.60
   7   3  -3  178.78   11.60
  -7  -3   3  166.18   11.60
   6   3  -3   37.90    3.60
   6   3  -3   38.90    3.80
   6   3  -3   38.40    4.00
   6   3  -3   35.30    4.10
  -6  -3   3   39.80    3.60
   5   3  -3   22.10    2.80
   5   3  -3   21.10    2.80
   5   3  -3   25.80    2.50
   5   3  -3   17.60    2.80
   5   3  -3   30.10    2.60
  -5  -3   3   30.10    2.60
   4   3  -3    1.40    1.40
   4   3  -3   -1.10    1.20
   4   3  -3    1.50    1.20
   4   3  -3   -0.50    1.20
   4   3  -3    0.50    0.90
  -4  -3   3    1.10    1.00
   3   3  -3    7.90    1.40
   3   3  -3    7.30    0.90
   3   3  -3    6.60    1.60
   3   3  -3    6.60    1.50
   3   3  -3    6.70    1.40
   3   3  -3   10.50    1.80
   3   3  -3    9.10    1.90
   3   3  -3    5.70    1.10
  -3  -3   3    7.30    1.10
   2   3  -3  970.70   59.59
   2   3  -3  942.31   59.89
   2   3  -3  976.30   59.99
   2   3  -3 1004.20   59.89
   2   3  -3  947.51   59.69
   2   3  -3  926.81   59.89
   2   3  -3 1031.60   59.99
   2   3  -3  961.50   59.99
  -2  -3   3  972.90   59.69
   1   3  -3  145.89    9.50
   1   3  -3  145.89    9.60
   1   3  -3  152.78    9.50
   1   3  -3  153.28    9.60
   1   3  -3  155.18    9.20
   1   3  -3  141.99    9.40
   1   3  -3  127.89    9.50
   1   3  -3  151.48    9.40
  -1  -3   3  153.18    9.10
  -1  -3   3  149.09    9.40
   0   3  -3   11.80    1.50
   0   3  -3   12.10    1.50
   0   3  -3   14.30    1.80
   0   3  -3   11.50    1.40
   0  -3   3   14.00    1.40
  -1   3  -3   47.30    3.60
  -1   3  -3   44.90    3.60
  -1   3  -3   43.90    3.70
  -1   3  -3   47.40    3.50
   1  -3   3   47.60    3.40
   1  -3   3   51.59    3.50
  -2   3  -3 1059.79   68.49
  -2   3  -3 1104.49   68.39
  -2   3  -3 1109.79   68.49
   2  -3   3 1141.99   68.29
   2  -3   3 1012.60   68.39
   2  -3   3 1213.18   68.09
  -3   3  -3    3.60    0.80
  -3   3  -3    0.90    1.40
  -3   3  -3    2.90    1.50
  -3   3  -3    1.80    1.40
   3  -3   3    2.40    1.20
   3  -3   3    3.90    1.30
  -4   3  -3    2.00    1.70
  -4   3  -3    6.20    2.00
  -4   3  -3    5.30    1.00
  -4   3  -3    2.10    1.60
   4  -3   3    5.70    1.60
   4  -3   3    4.20    1.60
   4  -3   3    3.80    1.40
  -5   3  -3  366.36   25.40
  -5   3  -3  444.66   24.70
  -5   3  -3  396.56   25.40
   5  -3   3  375.46   25.20
   5  -3   3  398.96   24.80
   5  -3   3  409.56   25.70
   5  -3   3  385.06   25.20
   5  -3   3  384.16   25.40
  -6   3  -3   15.80    3.20
  -6   3  -3   16.30    2.90
  -6   3  -3   23.80    3.20
   6  -3   3   18.40    2.90
   6  -3   3   22.10    2.80
   6  -3   3   27.40    3.10
  -7   3  -3  221.18   13.80
  -7   3  -3  185.48   13.60
   7  -3   3  177.88   13.20
   7  -3   3  187.68   13.40
   7  -3   3  197.38   13.20
  -8   3  -3   -1.00    2.20
  -8   3  -3    1.30    2.50
   8  -3   3    5.80    2.80
   8  -3   3    0.20    2.00
   8  -3   3   -4.70    1.70
  -9   3  -3   86.69    7.70
  -9   3  -3   81.49    7.90
   9  -3   3   90.89    7.40
   9  -3   3   71.19    7.70
 -10   3  -3   41.90    5.70
  10  -3   3   31.10    4.50
  10  -3   3   30.60    5.00
  11  -3   3    6.00    3.60
  11   2  -3   55.29    6.30
  11   2  -3   44.50    4.90
  11   2  -3   40.70    6.40
  10   2  -3   10.00    2.60
  10   2  -3    6.80    3.40
  10   2  -3    5.50    3.60
   9   2  -3  110.39    8.10
   9   2  -3   95.69    9.20
   9   2  -3  101.99    8.80
  -9  -2   3  110.29    8.30
   8   2  -3    1.40    2.30
   8   2  -3    2.90    1.90
   8   2  -3    0.60    2.50
  -8  -2   3    4.30    1.90
   7   2  -3    1.50    2.10
   7   2  -3    4.00    1.70
   7   2  -3    2.70    1.80
   7   2  -3    2.20    2.20
  -7  -2   3    3.40    1.60
   6   2  -3    8.30    1.80
   6   2  -3    9.80    2.00
   6   2  -3    8.00    2.20
   6   2  -3    7.40    2.00
  -6  -2   3    8.00    1.70
   5   2  -3   -0.70    1.00
   5   2  -3    0.50    1.40
   5   2  -3   -1.00    1.10
   5   2  -3    2.00    1.50
   5   2  -3    1.70    1.60
  -5  -2   3    1.50    1.10
   4   2  -3  880.81   55.89
   4   2  -3  914.31   56.09
   4   2  -3  942.11   56.19
   4   2  -3  928.41   55.69
   4   2  -3  890.51   56.19
   4   2  -3  901.21   55.99
  -4  -2   3  881.71   55.89
   3   2  -3    0.40    1.00
   3   2  -3   -0.60    0.90
   3   2  -3    1.00    0.70
   3   2  -3    2.00    1.10
   3   2  -3   -0.10    1.10
  -3  -2   3   -0.40    0.60
   2   2  -3   63.89    4.20
   2   2  -3   57.49    4.30
   2   2  -3   59.89    4.20
   2   2  -3   55.99    4.30
   2   2  -3   56.19    4.20
  -2  -2   3   54.69    3.80
   1   2  -3   50.99    3.90
   1   2  -3   54.29    3.90
   1   2  -3   52.09    3.70
  -1  -2   3   53.59    3.50
   0   2  -3  768.02   47.80
   0   2  -3  794.92   47.80
   0   2  -3  752.32   47.70
   0  -2   3  779.02   47.60
  -1   2  -3  549.05   33.70
   1  -2   3  581.24   33.40
   1  -2   3  494.25   33.40
  -2   2  -3    0.50    0.90
  -2   2  -3    0.60    0.70
  -2   2  -3    1.50    1.20
   2  -2   3   -1.30    0.80
   2  -2   3    0.60    0.70
   2  -2   3   -1.10    1.00
  -3   2  -3  110.09    7.80
  -3   2  -3  116.99    8.10
  -3   2  -3  120.49    8.10
  -3   2  -3  135.89    7.60
   3  -2   3  104.99    8.30
   3  -2   3  104.19    7.90
  -4   2  -3  224.98   13.90
  -4   2  -3  210.18   13.80
  -4   2  -3  218.68   13.20
  -4   2  -3  212.88   13.70
   4  -2   3  218.78   13.20
   4  -2   3  199.78   13.50
   4  -2   3  189.58   13.60
   4  -2   3  189.78   13.60
  -5   2  -3    4.80    1.80
  -5   2  -3    5.60    1.90
  -5   2  -3    4.70    1.20
  -5   2  -3    2.90    1.80
   5  -2   3    3.50    2.10
   5  -2   3    3.20    1.10
   5  -2   3    3.40    1.50
   5  -2   3    4.10    1.80
   5  -2   3    7.70    1.70
  -6   2  -3   43.70    5.00
  -6   2  -3   57.09    5.00
  -6   2  -3   50.79    4.00
  -6   2  -3   52.39    4.90
   6  -2   3   51.19    4.70
   6  -2   3   48.90    4.80
   6  -2   3   55.49    4.10
   6  -2   3   42.30    4.30
   6  -2   3   48.70    5.10
  -7   2  -3   18.60    3.00
  -7   2  -3   19.90    3.30
   7  -2   3   13.00    2.70
   7  -2   3   15.80    2.80
   7  -2   3   16.80    3.20
   7  -2   3   20.70    3.60
  -8   2  -3    7.20    2.60
  -8   2  -3    7.00    2.90
   8  -2   3    5.20    2.40
   8  -2   3    8.10    2.40
   8  -2   3    6.80    2.70
  -9   2  -3   48.20    5.60
   9  -2   3   43.60    5.50
   9  -2   3   50.79    5.10
 -10   2  -3   41.30    5.50
  10  -2   3   33.50    4.80
  10  -2   3   40.70    5.40
  11  -2   3  102.79    9.70
  12  -2   3   11.20    4.20
  11   1  -3    2.10    2.50
  11   1  -3    1.00    3.60
  11   1  -3   -0.60    3.10
  10   1  -3   46.80    5.60
  10   1  -3   45.30    4.90
  10   1  -3   46.10    6.20
   9   1  -3   71.49    7.30
   9   1  -3   70.69    5.90
   9   1  -3   53.39    6.30
   8   1  -3   22.70    3.10
   8   1  -3   23.30    3.90
   8   1  -3   25.80    3.80
  -8  -1   3   18.50    2.90
   7   1  -3  156.18   10.40
   7   1  -3  149.59    9.90
   7   1  -3  138.69    9.80
   7   1  -3  130.09   10.40
  -7  -1   3  138.99    9.80
   6   1  -3  281.47   18.30
   6   1  -3  307.77   18.30
   6   1  -3  263.47   18.50
  -6  -1   3  279.47   18.20
   5   1  -3   70.09    5.10
   5   1  -3   74.39    5.60
   5   1  -3   77.69    5.20
   5   1  -3   84.39    5.80
   5   1  -3   63.89    5.30
   5   1  -3   64.69    5.20
  -5  -1   3   70.59    5.20
   4   1  -3  379.56   22.70
   4   1  -3  418.36   23.30
   4   1  -3  368.66   23.40
   4   1  -3  368.06   23.00
   4   1  -3  371.86   23.10
   4   1  -3  315.27   23.00
   4   1  -3  351.86   23.20
  -4  -1   3  367.56   23.00
   3   1  -3   93.89    5.90
   3   1  -3   91.69    6.10
   3   1  -3   83.39    6.10
   3   1  -3   91.99    6.30
   3   1  -3   91.29    6.20
   3   1  -3   94.19    6.40
  -3  -1   3   90.99    5.90
   2   1  -3   57.39    4.20
   2   1  -3   55.59    3.70
   2   1  -3   63.09    4.30
   2   1  -3   58.09    4.20
  -2  -1   3   59.19    3.80
   1   1  -3   66.69    4.50
   1   1  -3   66.59    4.70
   1   1  -3   70.99    4.70
  -1  -1   3   66.89    4.20
   0   1  -3    1.30    0.90
   0  -1   3    1.90    0.80
   0  -1   3    1.60    0.50
  -1   1  -3  597.14   36.20
  -1   1  -3  559.04   36.30
   1  -1   3  568.74   36.30
   1  -1   3  611.34   36.10
   1  -1   3  588.64   36.10
  -2   1  -3  706.23   45.80
  -2   1  -3  722.33   46.00
  -2   1  -3  763.92   45.80
   2  -1   3  767.82   46.00
   2  -1   3  748.63   45.80
  -3   1  -3   68.79    4.60
  -3   1  -3   59.09    4.90
  -3   1  -3   70.29    4.80
   3  -1   3   66.19    4.90
  -4   1  -3  435.36   26.90
  -4   1  -3  438.96   26.60
  -4   1  -3  430.66   27.10
  -4   1  -3  441.46   26.90
   4  -1   3  402.06   26.80
   4  -1   3  412.26   26.40
   4  -1   3  421.86   26.70
   4  -1   3  427.06   26.90
  -5   1  -3   68.39    5.70
  -5   1  -3   73.19    5.90
  -5   1  -3   61.29    5.90
   5  -1   3   85.29    5.90
   5  -1   3   79.79    6.10
   5  -1   3   72.19    5.60
   5  -1   3   80.69    5.20
   5  -1   3   74.39    5.70
  -6   1  -3   11.40    2.60
  -6   1  -3    8.20    2.20
  -6   1  -3    6.10    2.00
   6  -1   3   11.60    2.20
   6  -1   3    4.00    2.10
   6  -1   3    7.00    1.80
   6  -1   3    7.70    1.60
   6  -1   3    8.00    2.40
  -7   1  -3   67.29    5.70
  -7   1  -3   68.39    5.90
   7  -1   3   61.69    5.70
   7  -1   3   62.19    5.50
   7  -1   3   49.30    5.60
   7  -1   3   73.59    6.40
   7  -1   3   58.99    4.90
  -8   1  -3   15.40    3.30
  -8   1  -3   18.80    3.20
   8  -1   3   17.40    3.00
   8  -1   3   14.50    3.30
   8  -1   3   14.50    2.90
   8  -1   3   17.40    4.30
  -9   1  -3   67.19    6.70
   9  -1   3   64.79    6.20
   9  -1   3   69.39    6.20
   9  -1   3   54.09    6.10
 -10   1  -3    7.50    3.30
  10  -1   3    2.20    3.00
  10  -1   3    1.60    2.90
  11  -1   3   -1.60    2.80
  12  -1   3   16.40    4.40
  11   0  -3    3.20    2.60
  11   0  -3    5.60    3.30
  11   0  -3    4.30    3.90
  10   0  -3   -0.70    3.20
  10   0  -3    1.00    2.20
  10   0  -3    3.20    3.00
   9   0  -3    3.00    3.00
   9   0  -3    2.10    2.00
   9   0  -3    1.40    2.50
  -9   0   3    0.10    1.60
   8   0  -3   26.40    3.80
   8   0  -3   23.50    4.00
   8   0  -3   23.70    3.20
   7   0  -3   44.00    4.20
   7   0  -3   52.69    4.50
   7   0  -3   49.99    5.30
   7   0  -3   53.39    4.90
   7   0  -3   46.70    4.30
   6   0  -3   79.89    7.00
   6   0  -3   97.89    6.70
   6   0  -3   99.19    7.00
   6   0  -3   89.49    6.50
  -6   0   3   90.59    6.50
   5   0  -3   37.80    3.20
   5   0  -3   46.10    3.80
   5   0  -3   35.60    3.20
   5   0  -3   34.90    3.50
   5   0  -3   36.10    3.50
  -5   0   3   35.70    3.20
   4   0  -3   50.19    3.30
   4   0  -3   52.19    3.70
   4   0  -3   46.60    3.90
   4   0  -3   50.99    4.00
   4   0  -3   46.30    3.50
   4   0  -3   41.20    3.80
  -4   0   3   45.70    3.50
   3   0  -3  244.68   14.50
   3   0  -3  222.78   14.60
   3   0  -3  243.88   14.80
   3   0  -3  233.58   14.70
   3   0  -3  214.18   14.60
   3   0  -3  225.58   14.70
  -3   0   3  233.38   14.40
   2   0  -3 3012.10  187.38
   2   0  -3 3055.39  187.38
   2   0  -3 3044.60  187.38
   2   0  -3 3153.48  187.38
   2   0  -3 3078.79  187.18
  -2   0   3 2982.10  187.08
   1   0  -3   43.10    2.80
   1   0  -3   40.20    3.10
   0   0   3  675.53   39.90
   0   0   3  639.64   40.00
   0   0   3  632.34   40.10
  -1   0  -3    2.60    1.10
  -1   0  -3    0.60    0.80
   1   0   3    0.70    0.60
   1   0   3    2.00    0.80
   1   0   3    1.90    0.90
  -2   0  -3 5916.41  379.76
  -2   0  -3 6275.87  379.86
   2   0   3 6262.87  379.26
   2   0   3 6276.17  380.26
  -3   0  -3  269.17   16.90
  -3   0  -3  291.17   17.00
  -3   0  -3  258.47   17.10
  -3   0  -3  255.57   17.00
  -4   0  -3  367.46   24.70
  -4   0  -3  455.45   25.20
  -4   0  -3  395.26   24.90
  -4   0  -3  446.36   24.90
   4   0   3  362.86   24.90
   4   0   3  353.76   24.50
   4   0   3  379.86   24.70
   4   0   3  396.36   25.00
  -5   0  -3    4.70    1.50
  -5   0  -3    2.10    1.60
  -5   0  -3    5.40    1.90
   5   0   3    3.80    1.60
   5   0   3    3.30    1.70
   5   0   3    2.90    1.20
   5   0   3    1.00    1.60
   5   0   3    4.20    1.50
  -6   0  -3   93.69    7.60
  -6   0  -3   99.99    7.10
  -6   0  -3  104.49    7.30
   6   0   3   91.29    6.90
   6   0   3   72.39    6.90
   6   0   3   96.29    7.30
   6   0   3  107.09    6.70
   6   0   3   96.89    7.60
  -7   0  -3    4.80    1.90
  -7   0  -3    1.60    1.10
  -7   0  -3    2.00    2.10
   7   0   3    3.40    2.40
   7   0   3    4.60    1.60
   7   0   3    5.50    2.20
   7   0   3    2.90    1.80
   7   0   3    4.30    2.00
  -8   0  -3   86.69    7.30
  -8   0  -3   65.59    6.40
   8   0   3   65.89    5.50
   8   0   3   69.39    6.10
   8   0   3   61.89    6.10
   8   0   3   56.79    6.60
   8   0   3   65.29    5.90
  -9   0  -3   75.39    7.00
   9   0   3   68.89    6.70
   9   0   3   60.49    6.10
 -10   0  -3    1.20    3.30
  10   0   3   -1.90    2.70
  11   0   3   26.00    4.80
  12   0   3   10.80    4.30
  11  -1  -3   -0.80    3.30
  11  -1  -3    9.70    4.20
  11  -1  -3    1.30    2.50
  10  -1  -3   -0.30    3.10
  10  -1  -3    0.00    2.80
  10  -1  -3   -0.20    2.20
   9  -1  -3    1.10    2.10
   9  -1  -3   -0.20    2.90
   9  -1  -3   -0.70    2.50
   8  -1  -3   15.00    2.50
   8  -1  -3   15.80    2.70
   8  -1  -3   15.60    3.10
   8  -1  -3   13.50    3.40
  -8   1   3   17.80    2.50
   7  -1  -3   76.09    6.10
   7  -1  -3   50.99    5.00
   7  -1  -3   63.39    5.60
   7  -1  -3   62.69    5.20
  -7   1   3   58.69    4.90
   6  -1  -3   53.69    4.80
   6  -1  -3   44.30    4.40
   6  -1  -3   59.49    5.10
   6  -1  -3   52.29    4.40
   6  -1  -3   57.29    5.00
   5  -1  -3  238.48   14.10
   5  -1  -3  195.08   13.70
   5  -1  -3  198.68   13.60
   5  -1  -3  211.18   14.00
   5  -1  -3  208.48   13.70
   5  -1  -3  221.68   13.80
   4  -1  -3 1808.82  109.19
   4  -1  -3 1701.33  109.59
   4  -1  -3 1810.52  109.39
   4  -1  -3 1788.52  109.39
   4  -1  -3 1773.12  109.49
   4  -1  -3 1665.03  109.49
  -4   1   3 1897.21  109.29
   3  -1  -3 1364.16   79.89
   3  -1  -3 1336.07   79.69
   3  -1  -3 1380.56   79.89
   3  -1  -3 1289.97   79.89
   3  -1  -3 1106.29   79.79
   3  -1  -3 1305.57   79.49
   3  -1  -3 1257.97   79.79
  -3   1   3 1331.17   79.59
   2  -1  -3   28.80    2.50
   2  -1  -3   31.50    2.60
   2  -1  -3   29.40    2.30
   2  -1  -3   31.20    2.60
   2  -1  -3   29.40    2.60
   1  -1  -3 1760.42  106.49
   1  -1  -3 1714.73  106.59
  -1   1   3 1730.53  106.49
   0  -1  -3 1208.68   74.39
   0  -1  -3 1206.58   74.39
   0  -1  -3 1238.28   74.39
   0   1   3 1189.78   74.39
  -1  -1  -3    7.50    1.20
  -1  -1  -3    7.30    0.90
  -1  -1  -3    8.50    1.10
   1   1   3    6.30    1.10
   1   1   3    8.50    1.00
  -2  -1  -3  220.88   14.00
  -2  -1  -3  215.48   13.90
  -2  -1  -3  220.58   14.10
   2   1   3  230.08   14.00
  -3  -1  -3   30.30    2.90
  -3  -1  -3   37.50    2.90
  -3  -1  -3   33.70    3.00
   3   1   3   37.90    3.20
   3   1   3   36.90    2.90
  -4  -1  -3  228.88   13.10
  -4  -1  -3  172.48   12.30
  -4  -1  -3  194.68   12.30
  -4  -1  -3  180.38   12.20
   4   1   3  187.58   12.00
   4   1   3  188.78   12.30
   4   1   3  183.48   12.20
   4   1   3  187.48   12.50
   4   1   3  185.78   12.10
  -5  -1  -3    9.40    2.20
  -5  -1  -3   11.10    2.10
  -5  -1  -3   14.00    1.90
  -5  -1  -3   10.80    1.90
   5   1   3   11.70    2.10
   5   1   3    8.90    1.60
   5   1   3   11.80    1.90
   5   1   3   12.60    2.10
   5   1   3    8.10    2.20
  -6  -1  -3   84.49    6.60
  -6  -1  -3   95.29    6.30
  -6  -1  -3   79.59    6.30
   6   1   3   73.69    6.00
   6   1   3   92.99    6.50
   6   1   3   72.19    6.70
   6   1   3   91.39    6.60
   6   1   3   72.99    6.20
  -7  -1  -3   30.20    3.80
  -7  -1  -3   29.80    3.30
  -7  -1  -3   30.40    3.60
   7   1   3   30.60    3.70
   7   1   3   29.40    3.60
   7   1   3   29.40    3.20
   7   1   3   30.20    4.20
   7   1   3   23.30    3.10
  -8  -1  -3   -0.30    2.10
   8   1   3   -1.70    2.40
   8   1   3   -0.40    1.70
   8   1   3   -1.50    2.10
   8   1   3    0.10    1.90
  -9  -1  -3    2.20    2.80
   9   1   3    6.40    4.40
   9   1   3    8.50    2.60
   9   1   3   10.80    3.00
   9   1   3   12.60    2.60
  10   1   3   72.49    7.30
  11   1   3    7.80    3.70
  12   1   3   40.40    6.00
  11  -2  -3    8.70    4.10
  11  -2  -3    5.10    3.50
  11  -2  -3    5.20    2.80
  10  -2  -3   54.59    5.80
  10  -2  -3   40.80    6.10
  10  -2  -3   44.00    5.00
   9  -2  -3   96.89    8.50
   9  -2  -3   85.89    7.60
   9  -2  -3  101.09    7.50
   9  -2  -3  100.49    9.10
   8  -2  -3  190.98   13.60
   8  -2  -3  204.28   14.60
   8  -2  -3  207.38   14.10
   7  -2  -3  179.38   13.50
   7  -2  -3  212.98   13.00
   7  -2  -3  186.28   12.80
   7  -2  -3  180.68   13.10
   6  -2  -3 1186.28   69.09
   6  -2  -3 1110.59   69.09
   6  -2  -3 1048.80   69.19
   6  -2  -3 1107.69   69.49
   5  -2  -3  311.97   19.30
   5  -2  -3  309.07   19.50
   5  -2  -3  298.07   19.70
   5  -2  -3  293.87   19.40
   4  -2  -3   18.40    1.90
   4  -2  -3   12.30    2.00
   4  -2  -3   14.00    1.90
   4  -2  -3   12.90    1.50
  -4   2   3   13.20    1.40
   3  -2  -3  306.57   19.50
   3  -2  -3  333.47   19.50
   3  -2  -3  322.47   19.60
   3  -2  -3  313.47   19.60
   3  -2  -3  268.07   19.60
   3  -2  -3  310.57   19.30
  -3   2   3  321.07   19.20
   2  -2  -3  244.88   15.10
   2  -2  -3  235.58   15.10
   2  -2  -3  230.68   14.70
   2  -2  -3  240.78   14.90
   1  -2  -3  271.07   16.70
   1  -2  -3  271.97   17.00
  -1   2   3  272.17   16.70
  -1   2   3  266.57   16.90
   0  -2  -3   15.30    1.40
   0  -2  -3   16.50    1.50
   0  -2  -3   16.00    1.60
   0   2   3   16.80    1.50
   0   2   3   15.00    1.50
  -1  -2  -3  153.28   10.60
  -1  -2  -3  170.88   10.50
  -1  -2  -3  164.98   10.60
   1   2   3  176.68   10.60
   1   2   3  166.18   10.50
  -2  -2  -3   46.40    3.60
   2   2   3   51.19    3.40
   2   2   3   43.50    3.60
  -3  -2  -3   43.90    3.90
  -3  -2  -3   52.49    3.80
   3   2   3   51.89    3.80
   3   2   3   51.59    4.10
   3   2   3   53.29    3.70
   3   2   3   56.59    4.00
   3   2   3   47.70    3.70
  -4  -2  -3 2389.96  145.99
  -4  -2  -3 2145.99  146.09
   4   2   3 2462.05  145.99
   4   2   3 2451.75  146.19
   4   2   3 2430.76  146.09
   4   2   3 2355.56  146.29
   4   2   3 2391.96  145.89
  -5  -2  -3  160.58   10.10
  -5  -2  -3  129.09   10.50
  -5  -2  -3  162.98   10.50
   5   2   3  151.78   10.50
   5   2   3  146.09   10.20
   5   2   3  138.89   10.00
   5   2   3  162.48   10.40
   5   2   3  157.68   10.10
   5   2   3  166.18   10.70
  -6  -2  -3  308.47   18.40
  -6  -2  -3  305.47   18.80
   6   2   3  292.77   18.40
   6   2   3  273.57   18.50
   6   2   3  285.57   18.80
   6   2   3  248.78   18.60
  -7  -2  -3  115.99    8.30
  -7  -2  -3  117.49    8.70
   7   2   3  114.69    8.10
   7   2   3  106.69    8.50
   7   2   3  115.49    9.00
   7   2   3  104.89    8.20
  -8  -2  -3  408.76   25.60
  -8  -2  -3  392.96   25.90
   8   2   3  383.46   26.20
   8   2   3  398.56   25.40
   8   2   3  382.06   25.80
   8   2   3  399.36   25.40
  -9  -2  -3    0.70    2.40
   9   2   3   -1.80    2.60
   9   2   3   -1.40    2.00
   9   2   3   -2.30    2.40
   9   2   3    4.30    2.30
  10   2   3  138.49   11.20
  10   2   3  145.49   12.60
  11   2   3   24.10    4.60
  12   2   3    2.10    3.60
  11  -3  -3   59.09    6.40
  11  -3  -3   55.99    5.80
  11  -3  -3   42.90    6.90
  10  -3  -3   22.30    4.30
  10  -3  -3   24.90    3.80
  10  -3  -3   21.00    4.90
   9  -3  -3   78.49    8.20
   9  -3  -3   91.99    7.80
   9  -3  -3   73.99    6.90
   8  -3  -3   48.20    6.40
   8  -3  -3   34.80    4.40
   8  -3  -3   50.49    5.10
   8  -3  -3   45.80    5.60
   7  -3  -3   22.20    3.30
   7  -3  -3   19.10    3.60
   7  -3  -3   27.60    3.30
   7  -3  -3   28.50    3.40
   6  -3  -3  336.67   21.10
   6  -3  -3  311.77   20.70
   6  -3  -3  316.07   20.60
   6  -3  -3  311.67   20.60
   5  -3  -3   16.50    1.80
   5  -3  -3   16.30    2.20
   5  -3  -3   14.50    2.50
   5  -3  -3   13.00    2.20
   4  -3  -3  163.38   11.20
   4  -3  -3  169.38   11.30
   4  -3  -3  164.78   11.40
   4  -3  -3  194.88   11.80
   3  -3  -3  337.07   20.90
   3  -3  -3  328.27   20.80
   3  -3  -3  330.27   21.10
   3  -3  -3  342.37   20.80
   3  -3  -3  326.87   21.10
   2  -3  -3  170.78   10.80
   2  -3  -3  168.78   10.50
   2  -3  -3  160.58   10.60
  -2   3   3  178.48   10.80
  -2   3   3  154.38   10.50
   1  -3  -3   93.79    6.30
   1  -3  -3  101.99    6.10
   1  -3  -3   96.79    6.50
   1  -3  -3   99.39    6.40
  -1   3   3   97.29    6.40
   0  -3  -3  806.32   46.60
   0  -3  -3  703.83   46.70
   0  -3  -3  752.72   46.60
   0  -3  -3  775.32   46.70
   0   3   3  744.73   46.70
  -1  -3  -3  413.06   26.50
   1   3   3  432.96   26.50
   1   3   3  415.06   26.40
   1   3   3  440.06   26.40
  -2  -3  -3 7780.02  485.25
  -2  -3  -3 7816.42  485.25
  -2  -3  -3 8196.78  485.05
   2   3   3 7740.23  484.85
   2   3   3 8006.20  485.65
  -3  -3  -3  217.98   13.90
   3   3   3  214.88   14.10
   3   3   3  221.88   14.10
   3   3   3  211.58   13.90
   3   3   3  222.48   13.90
  -4  -3  -3  709.93   48.30
  -4  -3  -3  771.82   47.60
  -4  -3  -3  802.02   47.80
   4   3   3  779.82   47.60
   4   3   3  838.02   47.60
   4   3   3  744.53   47.80
   4   3   3  822.42   48.50
   4   3   3  791.12   47.60
   4   3   3  646.04   47.70
  -5  -3  -3  222.88   14.10
  -5  -3  -3  193.08   14.30
  -5  -3  -3  198.98   13.80
   5   3   3  227.38   13.90
   5   3   3  208.68   14.20
   5   3   3  170.38   14.10
   5   3   3  224.88   13.80
   5   3   3  218.28   13.80
   5   3   3  251.37   14.20
  -6  -3  -3  440.26   27.00
  -6  -3  -3  415.96   26.70
   6   3   3  417.76   27.20
   6   3   3  415.36   26.70
   6   3   3  433.26   26.90
   6   3   3  400.96   26.60
   6   3   3  414.26   26.60
  -7  -3  -3    1.80    1.70
  -7  -3  -3   -2.30    1.70
   7   3   3   -0.40    1.70
   7   3   3    0.60    2.00
   7   3   3   -1.70    2.10
   7   3   3   -0.90    1.50
  -8  -3  -3  103.19    8.00
  -8  -3  -3  103.79    8.20
   8   3   3   93.89    7.80
   8   3   3  104.59    8.30
   8   3   3  106.39    8.80
   8   3   3   96.69    7.80
  -9  -3  -3   30.90    4.40
  -9  -3  -3   22.00    3.60
   9   3   3   24.80    4.00
   9   3   3   20.60    3.40
   9   3   3   22.00    3.40
   9   3   3   16.00    4.20
  10   3   3   25.50    4.50
  10   3   3   31.00    4.20
  11   3   3   -0.90    3.00
  12   3   3   35.40    5.60
  11  -4  -3   27.50    4.30
  11  -4  -3   29.80    5.80
 -11   4   3   24.80    4.60
  10  -4  -3    0.70    2.60
  10  -4  -3    4.10    3.10
  10  -4  -3    3.20    3.90
 -10   4   3    8.80    3.10
   9  -4  -3    6.90    3.70
   9  -4  -3   15.50    3.20
   9  -4  -3   16.00    3.50
   8  -4  -3   28.20    4.70
   8  -4  -3   30.70    3.90
   8  -4  -3   36.30    4.20
   8  -4  -3   30.80    4.20
   7  -4  -3   94.39    7.20
   7  -4  -3   81.59    7.70
   7  -4  -3   89.59    7.40
   7  -4  -3   99.89    7.30
   6  -4  -3   60.59    5.60
   6  -4  -3   58.29    6.00
   6  -4  -3   76.19    5.50
   5  -4  -3   56.49    5.30
   5  -4  -3   67.69    5.20
   5  -4  -3   70.49    5.80
   5  -4  -3   67.79    4.90
   4  -4  -3 1884.01  117.19
   4  -4  -3 1939.71  117.09
   4  -4  -3 1736.73  117.29
   4  -4  -3 1909.41  117.39
   4  -4  -3 2052.39  117.69
   3  -4  -3 1236.28   74.49
   3  -4  -3 1133.99   74.89
   3  -4  -3 1254.77   74.69
  -3   4   3 1214.68   74.79
   2  -4  -3 2688.83  156.08
   2  -4  -3 2266.27  156.18
  -2   4   3 2670.73  155.88
   1  -4  -3 4136.19  246.88
   1  -4  -3 3836.12  247.18
   1  -4  -3 4166.08  247.08
   1  -4  -3 3960.70  246.58
   0  -4  -3 9428.96  583.84
   0  -4  -3 9186.08  585.24
   0  -4  -3 9478.15  584.24
   0   4   3 9999.00  584.94
  -1  -4  -3 2418.66  150.78
  -1  -4  -3 2507.55  150.78
  -1  -4  -3 2413.66  150.88
   1   4   3 2404.46  150.78
   1   4   3 2535.85  150.78
  -2  -4  -3  751.72   48.00
  -2  -4  -3  791.52   48.10
  -2  -4  -3  767.72   48.20
   2   4   3  747.23   48.00
   2   4   3  823.92   48.10
  -3  -4  -3 1426.66   89.29
  -3  -4  -3 1518.55   89.49
   3   4   3 1363.86   89.39
   3   4   3 1474.85   89.29
   3   4   3 1462.05   89.29
  -4  -4  -3    4.00    1.40
  -4  -4  -3    3.90    1.80
  -4  -4  -3    6.80    1.60
   4   4   3    3.70    1.40
   4   4   3    3.90    1.60
   4   4   3    3.70    1.40
   4   4   3    2.80    1.70
   4   4   3    6.40    1.50
  -5  -4  -3    8.50    2.30
  -5  -4  -3   13.60    2.00
  -5  -4  -3    8.80    2.20
   5   4   3    7.70    2.20
   5   4   3   10.90    2.20
   5   4   3    9.80    1.90
   5   4   3   10.30    2.00
   5   4   3    9.70    1.90
  -6  -4  -3    0.90    1.90
  -6  -4  -3    3.30    1.70
   6   4   3    3.00    2.00
   6   4   3    0.40    1.50
   6   4   3    2.20    1.50
   6   4   3    3.40    2.20
   6   4   3    0.20    1.50
  -7  -4  -3   16.20    3.10
  -7  -4  -3   13.70    2.60
   7   4   3   18.90    2.80
   7   4   3   20.20    2.90
   7   4   3   14.80    2.90
   7   4   3   15.80    3.40
  -8  -4  -3  409.26   25.40
  -8  -4  -3  429.46   25.90
   8   4   3  411.66   25.30
   8   4   3  341.77   25.50
   8   4   3  397.86   25.30
   8   4   3  357.96   26.10
  -9  -4  -3    1.50    3.10
  -9  -4  -3    0.40    2.30
   9   4   3    2.00    2.70
   9   4   3   -1.00    2.00
   9   4   3    0.80    2.20
   9   4   3   -1.60    3.00
 -10  -4  -3  240.48   16.60
  10   4   3  230.18   16.40
  10   4   3  234.38   16.80
  11   4   3   22.10    6.40
  11   4   3   21.30    4.60
  11  -5  -3    6.10    3.10
  11  -5  -3   11.60    4.70
  10  -5  -3   -1.00    3.40
  10  -5  -3    1.40    2.50
 -10   5   3    1.80    3.00
   9  -5  -3   45.10    5.50
   9  -5  -3   55.99    6.90
   9  -5  -3   48.70    5.10
  -9   5   3   52.49    5.70
   8  -5  -3  100.39    9.50
   8  -5  -3  103.19    8.40
   8  -5  -3  112.99    8.70
   8  -5  -3  121.79    8.60
  -8   5   3  108.29    8.80
  -8   5   3  108.79    9.00
   7  -5  -3   28.50    3.70
   7  -5  -3   44.20    4.40
   7  -5  -3   36.80    4.90
  -7   5   3   36.10    4.10
   6  -5  -3  829.62   53.69
   6  -5  -3  772.02   53.09
   6  -5  -3  935.71   53.09
  -6   5   3  866.01   53.19
   5  -5  -3  184.68   11.30
   5  -5  -3  134.79   11.90
   5  -5  -3  183.98   11.60
   5  -5  -3  172.08   11.70
  -5   5   3  184.48   11.80
   4  -5  -3  311.67   20.60
   4  -5  -3  328.87   21.10
   4  -5  -3  318.37   20.40
  -4   5   3  331.87   20.70
   3  -5  -3  502.55   30.40
   3  -5  -3  479.55   29.80
   3  -5  -3  483.25   30.00
  -3   5   3  470.55   30.00
  -3   5   3  451.65   30.30
   2  -5  -3  614.24   38.40
   2  -5  -3  629.34   38.20
   2  -5  -3  617.04   38.60
  -2   5   3  603.64   38.40
   1  -5  -3    8.50    1.10
   1  -5  -3   11.30    1.40
   1  -5  -3    9.30    1.00
   1  -5  -3    8.80    1.70
   1  -5  -3    3.80    1.00
  -1   5   3   10.40    1.90
   0  -5  -3  169.18   10.50
   0  -5  -3  172.28   10.40
   0  -5  -3  176.28   10.60
   0  -5  -3  147.99   10.30
   0  -5  -3  139.79   10.70
   0   5   3  167.38   10.60
  -1  -5  -3   19.20    2.00
  -1  -5  -3   18.20    2.10
  -1  -5  -3   19.50    1.90
  -1  -5  -3   15.60    2.20
   1   5   3   15.90    2.00
   1   5   3   15.10    2.00
  -2  -5  -3  801.52   49.60
  -2  -5  -3  853.41   49.80
  -2  -5  -3  762.32   49.60
   2   5   3  782.92   49.60
   2   5   3  782.82   49.60
   2   5   3  819.62   49.70
  -3  -5  -3  606.54   38.40
  -3  -5  -3  600.94   38.50
  -3  -5  -3  675.73   38.80
  -3  -5  -3  630.64   38.30
   3   5   3  565.94   38.50
   3   5   3  624.54   38.40
   3   5   3  602.24   38.40
  -4  -5  -3   50.89    4.40
  -4  -5  -3   49.80    4.70
  -4  -5  -3   55.09    4.20
   4   5   3   41.20    4.50
   4   5   3   51.59    4.30
   4   5   3   47.00    4.20
   4   5   3   55.59    4.30
   4   5   3   49.00    4.30
  -5  -5  -3   77.49    6.10
  -5  -5  -3   81.89    6.30
   5   5   3   83.79    6.40
   5   5   3   70.69    6.50
   5   5   3   77.89    6.10
   5   5   3   89.39    6.10
   5   5   3   79.39    6.00
  -6  -5  -3  722.93   46.20
  -6  -5  -3  764.22   46.50
   6   5   3  708.63   46.10
   6   5   3  745.43   46.50
   6   5   3  752.32   46.90
   6   5   3  742.43   46.20
   6   5   3  722.33   46.20
  -7  -5  -3    0.00    2.30
  -7  -5  -3    6.00    2.10
   7   5   3    5.30    2.20
   7   5   3    1.80    2.20
   7   5   3    4.10    2.70
   7   5   3    2.30    2.00
   7   5   3    1.00    1.80
  -8  -5  -3  274.27   19.60
  -8  -5  -3  287.77   19.30
   8   5   3  310.67   20.40
   8   5   3  299.47   19.20
   8   5   3  290.07   19.60
   8   5   3  269.67   19.20
  -9  -5  -3   15.60    3.20
   9   5   3   19.20    3.80
   9   5   3   14.30    4.10
   9   5   3   12.80    3.20
 -10  -5  -3  214.98   14.60
  10   5   3  204.78   14.40
  10   5   3  177.98   14.60
  11   5   3    7.50    3.20
  11   5   3   13.60    3.90
  11  -6  -3   22.30    4.10
  11  -6  -3   24.10    5.70
  10  -6  -3   76.49    7.50
  10  -6  -3   81.89    9.00
 -10   6   3   68.69    7.10
   9  -6  -3   29.90    5.40
   9  -6  -3   26.10    4.00
   9  -6  -3   32.00    4.60
  -9   6   3   34.20    4.60
   8  -6  -3  259.87   16.90
   8  -6  -3  237.08   16.50
   8  -6  -3  252.27   16.60
   8  -6  -3  242.58   17.70
  -8   6   3  233.98   17.10
  -8   6   3  232.68   16.80
   7  -6  -3   57.19    5.70
   7  -6  -3   61.59    5.50
   7  -6  -3   57.99    6.50
  -7   6   3   59.29    5.80
   6  -6  -3   10.60    2.90
   6  -6  -3    7.60    2.10
   6  -6  -3    6.10    2.30
  -6   6   3    9.90    2.50
   5  -6  -3  180.58   12.40
   5  -6  -3  214.58   13.30
   5  -6  -3  170.58   12.40
   5  -6  -3  178.88   12.10
  -5   6   3  173.98   12.40
   4  -6  -3   91.29    7.00
   4  -6  -3  105.09    6.90
   4  -6  -3   96.39    7.60
  -4   6   3   99.39    7.50
  -4   6   3   92.89    7.10
   3  -6  -3    4.80    1.40
   3  -6  -3    5.10    1.90
   3  -6  -3    1.90    1.40
  -3   6   3    7.30    1.80
  -3   6   3    4.60    1.70
   2  -6  -3  612.84   38.10
   2  -6  -3  621.74   38.60
  -2   6   3  590.94   38.30
  -2   6   3  625.74   38.40
   1  -6  -3   10.50    1.30
   1  -6  -3    9.90    2.00
   1  -6  -3   10.30    1.50
  -1   6   3    8.10    1.70
  -1   6   3    9.20    1.70
   0  -6  -3 1286.27   78.89
   0  -6  -3 1252.17   78.99
   0  -6  -3 1265.07   78.69
   0  -6  -3 1213.78   79.19
   0  -6  -3 1324.87   78.89
   0   6   3 1327.77   78.99
  -1  -6  -3   42.50    3.70
  -1  -6  -3   51.19    4.10
  -1  -6  -3   49.70    4.20
  -1  -6  -3   44.80    3.80
   1   6   3   46.90    4.00
   1   6   3   50.89    4.00
  -2  -6  -3   53.29    4.50
  -2  -6  -3   76.99    5.20
  -2  -6  -3   51.19    4.40
  -2  -6  -3   62.99    4.80
   2   6   3   53.99    4.60
   2   6   3   57.79    4.60
   2   6   3   51.49    4.60
  -3  -6  -3   69.49    5.10
  -3  -6  -3   66.99    5.20
  -3  -6  -3   69.69    5.50
   3   6   3   63.89    5.30
   3   6   3   62.59    5.10
   3   6   3   75.39    5.50
   3   6   3   68.59    5.70
  -4  -6  -3 1002.00   60.19
  -4  -6  -3 1045.60   60.49
   4   6   3  967.90   60.19
   4   6   3  850.81   60.19
   4   6   3  976.20   60.09
  -5  -6  -3  332.27   21.60
  -5  -6  -3  349.57   21.90
   5   6   3  334.97   21.60
   5   6   3  320.47   21.60
   5   6   3  345.27   21.80
   5   6   3  324.87   22.00
   5   6   3  334.97   21.50
  -6  -6  -3  397.76   26.60
  -6  -6  -3  440.06   27.00
   6   6   3  393.56   26.70
   6   6   3  418.06   26.60
   6   6   3  440.46   27.30
   6   6   3  392.46   26.60
   6   6   3  427.26   27.00
  -7  -6  -3   48.30    5.40
  -7  -6  -3   45.10    4.90
   7   6   3   45.80    4.80
   7   6   3   56.49    5.00
   7   6   3   44.80    4.90
   7   6   3   50.09    5.80
   7   6   3   49.40    5.30
  -8  -6  -3  148.09   11.00
  -8  -6  -3  146.89   11.40
   8   6   3  159.58   11.30
   8   6   3  150.48   10.90
   8   6   3  145.29   12.10
   8   6   3  154.88   11.40
  -9  -6  -3  109.49    8.70
   9   6   3  103.39    8.80
   9   6   3   98.69    8.80
 -10  -6  -3   28.20    4.40
  10   6   3   25.40    4.50
  10   6   3   42.80    5.30
  11   6   3    8.60    3.40
  11   6   3   11.90    4.00
  10  -7  -3   21.90    4.30
  10  -7  -3   24.20    5.60
   9  -7  -3    5.20    3.30
   9  -7  -3   11.30    3.40
   9  -7  -3    7.30    4.10
  -9   7   3    4.90    2.90
   8  -7  -3   40.50    5.00
   8  -7  -3   43.50    4.80
   8  -7  -3   37.70    5.80
  -8   7   3   41.30    5.70
  -8   7   3   46.30    5.10
   7  -7  -3    1.10    2.30
   7  -7  -3    1.60    2.00
   7  -7  -3    1.30    2.80
  -7   7   3   -0.10    2.10
   6  -7  -3   53.69    5.20
   6  -7  -3   51.39    6.00
   6  -7  -3   59.49    5.50
  -6   7   3   52.19    5.30
   5  -7  -3  132.69   10.90
   5  -7  -3  155.38   10.00
   5  -7  -3  152.68   10.20
  -5   7   3  134.49   10.30
   4  -7  -3    7.70    2.00
   4  -7  -3   14.10    2.10
   4  -7  -3    9.90    2.60
  -4   7   3    9.90    2.40
  -4   7   3   10.70    2.30
   3  -7  -3   33.20    3.20
   3  -7  -3   30.50    3.00
   3  -7  -3   24.20    3.60
  -3   7   3   30.20    3.40
  -3   7   3   32.40    3.40
   2  -7  -3   97.59    7.30
   2  -7  -3  110.99    7.40
   2  -7  -3  114.49    8.00
  -2   7   3  109.89    7.60
  -2   7   3   91.79    7.50
   1  -7  -3    2.30    1.30
   1  -7  -3    0.70    0.90
   1  -7  -3    0.10    1.50
   1  -7  -3    2.10    1.30
  -1   7   3   -0.30    1.30
  -1   7   3    1.00    1.50
   0  -7  -3   61.79    4.40
   0  -7  -3   45.80    4.90
   0  -7  -3   57.49    4.60
   0  -7  -3   62.39    4.60
   0   7   3   60.29    4.80
   0   7   3   68.59    5.00
  -1  -7  -3  214.68   14.70
  -1  -7  -3  225.48   15.00
  -1  -7  -3  224.98   14.50
  -1  -7  -3  226.48   14.50
   1   7   3  222.08   14.70
   1   7   3  229.28   14.70
  -2  -7  -3  441.66   28.90
  -2  -7  -3  456.65   28.80
  -2  -7  -3  469.25   29.30
  -2  -7  -3  427.36   29.00
   2   7   3  463.95   28.90
   2   7   3  473.45   29.10
   2   7   3  474.35   29.10
  -3  -7  -3  917.81   56.99
  -3  -7  -3  914.71   57.29
  -3  -7  -3  974.30   57.59
  -3  -7  -3  910.61   57.09
   3   7   3  908.51   57.29
   3   7   3  880.61   57.09
   3   7   3  922.41   57.19
  -4  -7  -3  236.28   15.20
  -4  -7  -3  217.68   15.30
   4   7   3  262.67   15.50
   4   7   3  198.28   15.60
   4   7   3  234.68   15.30
   4   7   3  230.88   15.10
  -5  -7  -3   91.19    7.30
  -5  -7  -3   91.69    7.10
   5   7   3   93.49    7.30
   5   7   3   89.89    7.30
   5   7   3   93.89    7.10
   5   7   3   83.19    7.10
   5   7   3  104.69    8.00
  -6  -7  -3    7.50    2.60
  -6  -7  -3    4.80    2.10
   6   7   3    6.60    2.60
   6   7   3    4.20    2.20
   6   7   3    1.80    2.30
   6   7   3    2.70    2.20
   6   7   3    3.20    2.00
  -7  -7  -3   87.39    7.30
  -7  -7  -3   90.19    7.00
   7   7   3   84.89    6.80
   7   7   3   77.99    7.20
   7   7   3   86.79    7.00
   7   7   3   70.09    6.80
   7   7   3   69.39    7.60
  -8  -7  -3    3.20    2.30
   8   7   3    5.40    2.60
   8   7   3    4.10    3.20
   8   7   3    1.50    2.60
   8   7   3    2.20    2.60
   8   7   3    1.80    2.10
  -9  -7  -3   -1.90    2.40
   9   7   3    1.50    2.60
   9   7   3    5.30    3.10
 -10  -7  -3   67.99    9.30
  10   7   3   68.89    7.20
  10   7   3   70.59    7.60
  11   7   3   -3.20    2.90
  11   7   3    4.40    3.40
  10  -8  -3   14.90    5.20
  10  -8  -3   14.80    3.80
   9  -8  -3    7.70    4.10
   9  -8  -3   13.50    3.50
  -9   8   3    7.30    3.80
  -9   8   3   10.40    3.30
   8  -8  -3   18.50    4.70
   8  -8  -3   18.00    3.50
   8  -8  -3   26.10    4.10
  -8   8   3   18.40    4.40
  -8   8   3   19.90    3.70
   7  -8  -3    0.80    2.30
   7  -8  -3    1.60    2.40
   7  -8  -3    1.30    2.80
  -7   8   3    0.30    2.30
   6  -8  -3    3.00    2.20
   6  -8  -3    4.80    3.00
   6  -8  -3    6.70    2.60
  -6   8   3    3.00    2.20
   5  -8  -3   28.30    3.30
   5  -8  -3   27.90    3.50
   5  -8  -3   31.60    4.50
  -5   8   3   26.00    3.50
   4  -8  -3  285.67   18.80
   4  -8  -3  269.27   17.80
   4  -8  -3  277.77   18.00
  -4   8   3  280.87   18.30
  -4   8   3  257.67   18.10
   3  -8  -3  304.97   19.80
   3  -8  -3  316.57   19.70
   3  -8  -3  299.07   20.40
  -3   8   3  306.37   19.90
  -3   8   3  299.77   20.00
   2  -8  -3  210.18   14.60
   2  -8  -3  230.88   14.00
   2  -8  -3  204.38   14.00
  -2   8   3  194.78   14.10
  -2   8   3  222.88   14.40
   1  -8  -3  463.75   28.90
   1  -8  -3  452.35   29.40
   1  -8  -3  463.65   28.80
   1  -8  -3  435.66   28.40
  -1   8   3  483.55   29.10
  -1   8   3  445.56   29.10
   0  -8  -3 1377.26   85.39
   0  -8  -3 1450.65   85.19
   0  -8  -3 1380.16   85.39
   0   8   3 1328.97   85.59
   0   8   3 1366.26   85.59
  -1  -8  -3  832.82   54.19
  -1  -8  -3  860.71   54.29
  -1  -8  -3  899.11   54.59
  -1  -8  -3  940.01   54.89
   1   8   3  880.51   54.49
   1   8   3  865.71   54.49
   1   8   3  825.42   55.99
  -2  -8  -3  972.00   58.19
  -2  -8  -3  963.30   58.49
  -2  -8  -3  949.80   57.79
  -2  -8  -3  963.50   57.99
   2   8   3  917.11   58.09
   2   8   3  913.01   57.89
   2   8   3  878.51   58.29
   2   8   3  890.71   58.09
  -3  -8  -3   -0.70    1.20
  -3  -8  -3    2.70    1.70
  -3  -8  -3    0.70    1.70
   3   8   3    1.30    1.50
   3   8   3    1.10    1.80
   3   8   3    3.00    1.80
   3   8   3   -1.30    1.60
  -4  -8  -3   10.30    2.30
  -4  -8  -3   11.30    2.20
   4   8   3   10.20    2.20
   4   8   3    9.80    2.50
   4   8   3   15.80    3.10
   4   8   3    7.20    2.40
  -5  -8  -3    2.20    1.80
  -5  -8  -3    1.70    2.00
   5   8   3    0.60    2.30
   5   8   3    0.20    1.70
   5   8   3    0.30    1.90
   5   8   3    2.10    2.10
   5   8   3   -1.90    1.90
  -6  -8  -3   13.70    3.10
  -6  -8  -3   10.70    2.60
   6   8   3   16.90    2.70
   6   8   3    5.90    2.60
   6   8   3   13.40    3.50
   6   8   3   12.90    3.00
   6   8   3   11.00    2.80
  -7  -8  -3    7.20    2.90
  -7  -8  -3    4.20    2.40
   7   8   3    4.20    2.50
   7   8   3    6.20    2.70
   7   8   3    6.60    2.50
   7   8   3    4.90    3.20
   7   8   3    3.20    2.60
  -8  -8  -3   34.80    4.70
   8   8   3   37.80    4.90
   8   8   3   43.10    5.00
   8   8   3   37.90    4.90
  -9  -8  -3   10.90    3.10
   9   8   3    9.90    3.30
   9   8   3    4.20    2.90
  10   8   3    0.30    2.80
  10   8   3    0.40    3.00
   9  -9  -3   10.00    3.40
   9  -9  -3    5.10    4.20
  -9   9   3    9.10    5.00
   8  -9  -3   -2.60    2.50
   8  -9  -3    0.90    3.40
  -8   9   3   -1.10    2.40
  -8   9   3    0.30    3.60
   7  -9  -3    9.60    3.10
   7  -9  -3   11.70    3.80
   7  -9  -3    1.50    2.40
  -7   9   3    9.40    2.90
   6  -9  -3  134.89    9.80
   6  -9  -3  109.99   10.60
   6  -9  -3  119.59    9.60
  -6   9   3  134.39    9.70
   5  -9  -3  200.88   13.20
   5  -9  -3  166.78   14.20
   5  -9  -3  186.58   13.40
  -5   9   3  216.28   13.60
   4  -9  -3   92.49    8.10
   4  -9  -3   96.89    7.30
   4  -9  -3   89.39    7.10
  -4   9   3   86.69    7.30
  -4   9   3   95.59    7.70
   3  -9  -3  150.38    9.90
   3  -9  -3  139.79   10.70
   3  -9  -3  133.69    9.90
  -3   9   3  143.79   10.10
  -3   9   3  134.39   10.30
   2  -9  -3  217.58   14.30
   2  -9  -3  223.68   14.30
   2  -9  -3  198.48   14.90
  -2   9   3  214.48   14.50
  -2   9   3  215.98   14.60
   1  -9  -3  218.78   15.40
   1  -9  -3  226.98   15.40
   1  -9  -3  257.87   16.30
  -1   9   3  246.78   15.70
  -1   9   3  226.68   15.80
   0  -9  -3   76.29    5.60
   0  -9  -3   74.89    6.00
   0  -9  -3   77.29    5.90
   0  -9  -3   87.09    6.80
   0   9   3   68.79    6.30
   0   9   3   81.29    6.30
   0   9   3   77.39    5.30
  -1  -9  -3   29.60    3.90
  -1  -9  -3   28.10    3.60
  -1  -9  -3   35.80    3.40
  -1  -9  -3   29.40    3.10
   1   9   3   31.20    3.80
   1   9   3   22.40    3.20
   1   9   3   33.50    3.50
  -2  -9  -3  276.27   18.20
  -2  -9  -3  291.47   18.60
  -2  -9  -3  270.67   18.10
   2   9   3  279.07   18.50
   2   9   3  279.77   18.40
   2   9   3  277.17   18.20
  -3  -9  -3    7.70    1.90
  -3  -9  -3    8.00    2.30
  -3  -9  -3    6.60    2.10
   3   9   3   12.00    2.20
   3   9   3    9.10    2.60
   3   9   3    5.20    2.40
   3   9   3    9.90    2.60
  -4  -9  -3   16.20    2.80
  -4  -9  -3   18.00    3.20
   4   9   3    8.30    2.90
   4   9   3   22.10    2.90
   4   9   3   18.60    3.00
   4   9   3   24.60    3.30
  -5  -9  -3   17.10    3.30
  -5  -9  -3   21.70    3.10
   5   9   3   20.00    3.50
   5   9   3   16.40    3.60
   5   9   3   19.00    3.10
   5   9   3   19.50    3.40
   5   9   3   16.70    3.30
  -6  -9  -3   29.10    4.20
  -6  -9  -3   25.70    3.60
   6   9   3   19.40    3.80
   6   9   3   31.30    3.80
   6   9   3   18.40    3.60
   6   9   3   25.20    3.90
   6   9   3   38.80    5.30
  -7  -9  -3    7.90    3.00
  -7  -9  -3    9.70    2.70
   7   9   3   10.60    2.60
   7   9   3    6.80    3.00
   7   9   3    3.10    2.70
   7   9   3   12.50    3.20
  -8  -9  -3    1.10    2.50
   8   9   3    2.70    2.80
   8   9   3    3.90    2.80
   8   9   3    4.80    3.00
  -9  -9  -3   66.19    7.20
   9   9   3   84.89    8.00
   9   9   3   79.79    7.80
  10   9   3   19.20    4.20
  10   9   3   27.80    4.90
   9 -10  -3    7.60    3.60
   8 -10  -3  138.59   11.50
   8 -10  -3  160.18   13.00
  -8  10   3  124.89   12.50
  -8  10   3  144.49   11.20
   7 -10  -3  112.69    9.10
   7 -10  -3  109.99   10.10
   7 -10  -3   92.99    8.90
  -7  10   3   96.49    8.60
   6 -10  -3   89.89    7.70
   6 -10  -3   99.39    8.90
   6 -10  -3   75.99    7.30
  -6  10   3   81.09    7.70
   5 -10  -3    7.10    2.40
   5 -10  -3    6.50    3.40
  -5  10   3    5.30    2.70
   4 -10  -3   64.69    5.50
   4 -10  -3   55.39    5.50
   4 -10  -3   53.79    6.30
  -4  10   3   53.39    5.80
  -4  10   3   61.09    5.80
   3 -10  -3    5.00    2.80
   3 -10  -3    5.90    2.00
   3 -10  -3   -0.20    1.70
  -3  10   3    1.10    2.30
  -3  10   3    2.90    2.30
   2 -10  -3   50.29    4.40
   2 -10  -3   30.70    4.60
   2 -10  -3   40.60    4.10
  -2  10   3   43.70    4.70
  -2  10   3   41.70    4.50
   1 -10  -3  194.08   13.10
   1 -10  -3  162.88   13.70
   1 -10  -3  190.08   13.10
  -1  10   3  202.58   13.50
  -1  10   3  227.08   13.80
   0 -10  -3   81.69    6.20
   0 -10  -3   78.99    6.20
   0 -10  -3   62.39    6.80
   0  10   3   79.79    6.60
   0  10   3   76.89    6.60
  -1 -10  -3   77.69    6.20
  -1 -10  -3   79.59    5.90
   1  10   3   74.39    6.50
   1  10   3   69.79    6.40
   1  10   3   68.99    6.10
  -2 -10  -3   72.39    5.80
  -2 -10  -3   76.99    6.10
  -2 -10  -3   74.29    6.50
   2  10   3   76.49    6.50
   2  10   3   65.29    6.20
   2  10   3   71.69    6.00
  -3 -10  -3   47.20    4.20
  -3 -10  -3   39.90    4.40
  -3 -10  -3   39.10    4.60
   3  10   3   36.70    4.20
   3  10   3   39.20    4.70
   3  10   3   43.80    4.60
  -4 -10  -3  117.89    8.90
  -4 -10  -3  125.19    9.40
   4  10   3  116.59    9.30
   4  10   3  117.69    8.80
   4  10   3  110.89    9.20
  -5 -10  -3    3.60    2.40
  -5 -10  -3    4.40    2.20
   5  10   3    2.80    2.50
   5  10   3    1.30    2.30
   5  10   3    5.60    2.40
   5  10   3    4.00    2.50
  -6 -10  -3  102.59    8.50
  -6 -10  -3   91.19    7.80
   6  10   3   94.49    8.30
   6  10   3   90.49    8.20
   6  10   3   90.29    8.10
   6  10   3  100.29    7.80
  -7 -10  -3   33.50    4.60
   7  10   3   39.10    5.10
   7  10   3   37.90    5.20
   7  10   3   35.20    4.90
  -8 -10  -3   79.29    7.50
   8  10   3   74.39    7.60
   8  10   3   79.19    7.90
   8  10   3   83.39    7.90
   9  10   3    6.00    3.50
   9  10   3   11.20    3.80
   8 -11  -3    2.50    3.20
   7 -11  -3   -1.90    2.70
  -7  11   3    1.50    4.00
  -7  11   3    4.20    3.00
   6 -11  -3    6.50    3.10
   6 -11  -3   10.30    2.90
   6 -11  -3    9.70    4.00
  -6  11   3    9.90    3.10
   5 -11  -3    6.80    3.60
   5 -11  -3    4.40    2.30
  -5  11   3    2.60    2.50
   4 -11  -3    2.30    3.20
   4 -11  -3   13.70    2.80
   4 -11  -3   11.10    2.70
  -4  11   3   10.80    3.20
  -4  11   3   13.90    3.10
   3 -11  -3    8.90    2.40
   3 -11  -3    9.80    3.50
   3 -11  -3   16.00    2.90
  -3  11   3    8.00    2.70
  -3  11   3   15.00    3.40
   2 -11  -3    2.60    1.90
   2 -11  -3    0.70    1.90
   2 -11  -3   -1.00    2.80
  -2  11   3    0.80    2.50
  -2  11   3    1.80    2.50
   1 -11  -3   10.70    2.30
   1 -11  -3    7.40    2.40
  -1  11   3   11.30    2.90
  -1  11   3    9.50    2.90
   0 -11  -3  282.37   18.80
   0 -11  -3  276.57   18.70
   0  11   3  294.17   19.20
   0  11   3  286.87   19.30
  -1 -11  -3  304.57   20.50
  -1 -11  -3  304.17   20.30
   1  11   3  321.97   20.80
   1  11   3  312.77   20.90
   1  11   3  311.57   20.50
  -2 -11  -3  348.97   23.90
  -2 -11  -3  362.36   24.10
   2  11   3  362.56   24.40
   2  11   3  397.06   24.70
   2  11   3  386.86   24.30
  -3 -11  -3   23.50    3.90
  -3 -11  -3   24.90    3.50
  -3 -11  -3   28.30    3.30
   3  11   3   20.50    3.30
   3  11   3   24.80    3.80
   3  11   3   19.60    3.80
  -4 -11  -3   97.19    7.90
  -4 -11  -3   85.69    7.30
   4  11   3   80.69    7.50
   4  11   3   86.29    7.20
   4  11   3   79.09    7.60
  -5 -11  -3   13.10    3.40
  -5 -11  -3    5.40    2.70
   5  11   3   13.60    3.50
   5  11   3    7.30    2.90
   5  11   3   12.20    2.90
   5  11   3    8.00    3.20
  -6 -11  -3   38.20    5.40
  -6 -11  -3   40.40    4.90
   6  11   3   40.50    5.50
   6  11   3   37.00    5.10
   6  11   3   48.20    5.60
   6  11   3   50.09    6.90
  -7 -11  -3   22.40    3.80
   7  11   3   19.30    4.10
   7  11   3   21.60    4.40
   7  11   3   23.90    4.30
   8  11   3   30.00    4.80
   8  11   3   29.30    4.90
   8  11   3   29.50    5.00
   9  11   3   21.20    4.60
   9  11   3   10.90    3.80
   9  11   3    8.70    3.90
   8 -12  -3    5.90    3.70
   7 -12  -3   46.80    6.10
   6 -12  -3  147.19   11.60
  -6  12   3  142.19   11.30
   5 -12  -3   29.20    4.10
  -5  12   3   31.50    4.60
   4 -12  -3  104.69    7.90
   4 -12  -3   88.19    8.10
  -4  12   3   80.19    8.00
  -4  12   3   93.29    8.50
   3 -12  -3   18.30    3.10
   3 -12  -3   12.40    2.90
  -3  12   3    8.70    3.30
  -3  12   3   14.00    3.40
   2 -12  -3  221.58   15.50
   2 -12  -3  233.58   15.60
  -2  12   3  226.58   16.00
  -2  12   3  228.18   16.20
   1 -12  -3   18.00    3.20
   1 -12  -3   17.60    3.00
  -1  12   3   22.60    3.90
  -1  12   3   17.40    3.70
   0 -12  -3  142.09    9.80
   0 -12  -3  114.69    9.30
   0  12   3  135.79   10.10
   0  12   3  120.49   10.10
  -1 -12  -3  121.69    9.10
  -1 -12  -3  121.39    9.50
   1  12   3  120.29    9.80
   1  12   3  136.59   10.00
   1  12   3  117.39    9.30
  -2 -12  -3   26.20    3.50
  -2 -12  -3   23.20    3.80
   2  12   3   29.60    4.20
   2  12   3   32.30    3.90
   2  12   3   21.50    4.00
  -3 -12  -3  155.58   10.40
  -3 -12  -3  138.09   11.20
  -3 -12  -3  139.19   10.70
   3  12   3  135.19   11.10
   3  12   3  142.69   11.00
   3  12   3  147.89   10.70
  -4 -12  -3   31.00    4.20
  -4 -12  -3   27.80    4.50
   4  12   3   27.90    4.50
   4  12   3   27.10    4.30
   4  12   3   20.60    4.10
   4  12   3   29.40    3.90
  -5 -12  -3   95.49    8.00
  -5 -12  -3   98.39    8.70
   5  12   3   85.89    8.20
   5  12   3   94.09    7.80
   5  12   3   85.09    8.30
   5  12   3   78.79    8.30
  -6 -12  -3  116.99   10.00
   6  12   3  139.09   10.70
   6  12   3  127.09   10.70
   6  12   3  127.09   10.50
   7  12   3    9.10    3.70
   7  12   3   14.40    3.90
   7  12   3    7.70    3.60
   8  12   3   12.60    3.90
   8  12   3   21.10    4.40
   8  12   3   10.70    3.90
   7 -13  -3    9.00    3.90
   6 -13  -3    5.20    3.50
  -6  13   3    6.50    3.30
  -5  13   3    2.50    3.10
  -4  13   3   -2.60    3.20
  -4  13   3   -1.70    2.70
   3 -13  -3    3.10    2.50
   3 -13  -3    7.80    2.80
  -3  13   3    9.40    3.50
  -3  13   3    6.00    3.40
   2 -13  -3   -0.50    2.30
   2 -13  -3    0.70    2.10
  -2  13   3    2.50    3.00
  -2  13   3    3.50    3.00
   1 -13  -3  100.19    8.20
   1 -13  -3   97.89    8.00
  -1  13   3   96.79    8.80
  -1  13   3   99.39    8.80
   0 -13  -3  145.69   11.00
   0 -13  -3  153.58   11.40
   0  13   3  153.48   11.90
   0  13   3  153.68   12.00
   0  13   3  166.08   11.60
  -1 -13  -3   85.29    7.40
  -1 -13  -3   82.39    7.00
   1  13   3   78.49    7.90
   1  13   3   82.99    7.90
   1  13   3   86.59    7.40
  -2 -13  -3   22.50    3.80
  -2 -13  -3   24.10    3.40
   2  13   3   26.20    4.30
   2  13   3   12.00    3.80
   2  13   3   30.70    4.10
  -3 -13  -3    0.10    2.20
   3  13   3    1.70    2.70
   3  13   3    1.70    2.40
   3  13   3   -0.90    2.70
  -4 -13  -3   18.80    4.20
  -4 -13  -3   19.80    3.70
   4  13   3   16.50    3.40
   4  13   3   17.10    4.00
   4  13   3   23.70    4.30
   4  13   3   15.70    3.90
  -5 -13  -3   41.20    5.10
   5  13   3   36.40    5.50
   5  13   3   37.90    5.50
   5  13   3   54.39    6.20
   6  13   3    0.30    3.20
   6  13   3    3.40    3.50
   6  13   3    6.10    3.70
   7  13   3  238.18   17.40
   7  13   3  225.68   17.10
   7  13   3  237.88   17.20
   6 -14  -3   52.99    6.90
  -5  14   3   42.00    5.80
  -4  14   3   40.50    5.60
  -3  14   3  122.39   10.20
  -3  14   3  108.49   10.20
   2 -14  -3  143.19   11.10
  -2  14   3  130.89   11.60
  -2  14   3  165.08   12.20
   1 -14  -3   28.60    4.20
   1 -14  -3   40.00    4.90
  -1  14   3   37.80    5.50
  -1  14   3   36.40    5.20
   0 -14  -3    8.50    3.00
   0 -14  -3    7.80    2.80
   0  14   3   14.70    3.30
   0  14   3    4.10    3.50
   0  14   3    7.10    3.50
  -1 -14  -3   97.09    8.40
  -1 -14  -3  108.09    9.00
   1  14   3   99.09    8.90
   1  14   3  125.99    9.60
   1  14   3  107.09    9.50
  -2 -14  -3   -2.70    2.50
   2  14   3   -0.10    2.40
   2  14   3    1.60    3.20
   2  14   3   -2.70    2.70
  -3 -14  -3  180.88   12.30
   3  14   3  147.39   12.70
   3  14   3  171.28   12.10
   3  14   3  136.59   12.50
  -4 -14  -3    5.20    2.90
   4  14   3   -0.30    3.20
   4  14   3    2.50    3.30
   4  14   3   -0.70    3.30
   5  14   3  322.77   22.00
   5  14   3  310.97   21.70
   5  14   3  297.17   21.60
   6  14   3   56.39    6.90
   6  14   3   52.19    6.80
   6  14   3   54.29    6.80
  -4  15   3    0.80    3.30
  -3  15   3   40.40    6.30
  -3  15   3   35.60    5.60
   2 -15  -3   34.70    4.90
  -2  15   3   37.00    5.90
  -2  15   3   33.40    5.30
   1 -15  -3  354.16   24.80
  -1  15   3  399.26   25.80
  -1  15   3  379.76   25.40
  -1  15   3  356.56   24.90
   0 -15  -3   47.20    5.50
   0  15   3   39.00    6.10
   0  15   3   46.60    5.50
   0  15   3   52.69    6.40
  -1 -15  -3  238.08   16.00
   1  15   3  231.68   15.90
   1  15   3  195.08   16.30
   1  15   3  220.48   16.30
  -2 -15  -3   16.10    4.60
   2  15   3    9.80    4.10
   2  15   3   22.70    4.70
   2  15   3   19.30    4.40
   3  15   3  156.08   12.60
   3  15   3  143.49   12.10
   3  15   3  150.98   12.60
   4  15   3   48.50    6.50
   4  15   3   55.79    6.80
   4  15   3   51.29    6.70
   5  15   3    4.60    3.70
   5  15   3   13.30    4.20
   5  15   3    2.00    3.60
  -2  16   3    9.70    3.80
  -2  16   3   11.80    4.70
  -1  16   3  127.79   11.10
  -1  16   3  135.99   12.00
   0  16   3   31.50    5.50
   0  16   3   23.30    4.80
   1  16   3   58.79    7.10
   1  16   3   45.10    6.60
   2  16   3   -7.10    2.90
   2  16   3   -4.40    3.40
   3  16   3    3.60    3.70
   3  16   3    2.10    3.50
   3  16   3    5.70    3.90
   1  15  -4   74.99    8.10
   1  15  -4   99.79   10.10
   0  15  -4    9.80    3.60
   0  15  -4    4.90    4.40
  -1  15  -4  193.98   15.90
  -1  15  -4  159.18   13.30
   4  14  -4   18.90    5.10
   4  14  -4   28.10    4.70
   4  14  -4   17.30    3.70
   4  14  -4   28.20    5.70
   3  14  -4   15.40    4.60
   3  14  -4   10.30    3.50
   3  14  -4   11.90    3.40
   2  14  -4   -1.50    3.20
   2  14  -4   -1.30    2.80
   2  14  -4    6.20    3.20
   1  14  -4   10.70    4.20
   1  14  -4    7.60    3.30
   0  14  -4   69.69    8.40
   0  14  -4   67.09    7.10
  -1  14  -4    7.60    4.30
  -1  14  -4    6.40    3.30
  -2  14  -4   38.60    6.40
  -2  14  -4   32.50    5.30
  -3  14  -4   44.80    6.10
  -4  14  -4   82.89    8.60
   5  13  -4    2.00    3.00
   5  13  -4    3.90    2.60
   5  13  -4   -0.50    3.20
   5  13  -4    0.20    3.10
   4  13  -4   11.00    4.10
   4  13  -4    7.40    2.80
   4  13  -4    9.50    3.40
   4  13  -4    2.40    2.90
   4  13  -4    3.80    3.00
   3  13  -4   -1.50    3.30
   3  13  -4    3.20    2.70
   3  13  -4    2.00    2.80
   3  13  -4   -1.10    2.70
  -3 -13   4    4.30    2.50
   2  13  -4   86.39    7.40
   2  13  -4   85.69    7.50
   2  13  -4   57.09    8.00
  -2 -13   4   83.19    7.20
   1  13  -4   33.30    5.70
   1  13  -4   31.50    4.70
   1  13  -4   31.90    5.50
  -1 -13   4   33.30    4.30
   0  13  -4   97.19    7.90
   0  13  -4   62.89    8.30
   0 -13   4   86.59    7.50
  -1  13  -4  104.39   10.90
  -1  13  -4  126.49   10.00
   1 -13   4  123.49    9.60
  -2  13  -4  276.57   18.60
  -2  13  -4  219.08   17.10
   2 -13   4  239.18   17.00
  -3  13  -4   44.80    6.00
  -3  13  -4   53.69    6.40
  -3  13  -4   38.70    8.30
   3 -13   4   53.29    5.70
  -4  13  -4  317.07   21.70
  -4  13  -4  290.57   21.20
  -5  13  -4   64.79    7.40
  -6  13  -4  173.88   14.00
   6  12  -4   57.49    5.70
   6  12  -4   66.59    7.70
   6  12  -4   56.69    6.50
   5  12  -4   31.50    5.20
   5  12  -4   39.80    4.60
   5  12  -4   42.20    6.10
   5  12  -4   35.40    5.00
  -5 -12   4   42.30    4.90
   4  12  -4   50.19    5.40
   4  12  -4   44.10    5.40
   4  12  -4   39.40    4.80
   4  12  -4   43.50    6.00
   4  12  -4   38.40    5.20
  -4 -12   4   45.70    5.00
   3  12  -4   83.09    8.30
   3  12  -4   75.09    7.20
   3  12  -4   77.59    7.30
   3  12  -4   87.39    7.50
  -3 -12   4   83.79    7.20
   2  12  -4  537.45   42.20
   2  12  -4  689.53   41.50
   2  12  -4  651.03   41.50
   2  12  -4  705.23   41.80
  -2 -12   4  679.03   41.60
   1  12  -4  190.18   16.10
   1  12  -4  219.18   15.30
   1  12  -4  240.68   15.30
  -1 -12   4  220.78   15.20
   0  12  -4  833.02   57.09
   0  12  -4  926.91   56.49
   0 -12   4  919.31   56.29
  -1  12  -4   99.49    8.50
  -1  12  -4  109.19    9.70
   1 -12   4   91.79    8.20
  -2  12  -4  319.27   21.10
  -2  12  -4  255.17   21.40
  -2  12  -4  329.47   21.00
   2 -12   4  324.67   20.70
  -3  12  -4   45.30    6.70
  -3  12  -4   48.20    6.00
  -3  12  -4   61.39    6.50
   3 -12   4   54.99    5.80
  -4  12  -4  106.19    9.40
  -4  12  -4   95.89    9.30
   4 -12   4   99.29    8.60
  -5  12  -4   25.50    4.90
  -5  12  -4   12.80    4.10
   5 -12   4   13.70    3.50
  -6  12  -4   53.99    6.80
  -7  12  -4    4.30    3.90
   7  11  -4   25.00    5.30
   7  11  -4   35.40    5.30
   7  11  -4   36.90    4.00
   6  11  -4  118.69    9.80
   6  11  -4  134.89   10.70
   6  11  -4  107.49    8.70
  -6 -11   4  103.29    9.00
   5  11  -4   99.79   10.50
   5  11  -4  128.59   10.10
   5  11  -4  134.79   10.40
   5  11  -4  131.49    9.30
  -5 -11   4  122.79    9.40
   4  11  -4  426.46   28.80
   4  11  -4  444.26   28.50
   4  11  -4  463.35   28.90
   4  11  -4  433.46   29.50
   4  11  -4  465.65   29.00
  -4 -11   4  418.76   28.60
   3  11  -4  420.66   25.90
   3  11  -4  383.26   26.30
   3  11  -4  344.97   25.30
   3  11  -4  416.56   25.70
  -3 -11   4  401.86   25.60
   2  11  -4  327.27   23.60
   2  11  -4  372.36   22.80
   2  11  -4  334.87   22.70
   2  11  -4  343.27   22.80
  -2 -11   4  347.27   22.70
   1  11  -4  184.28   13.40
   1  11  -4  210.78   14.60
   1  11  -4  198.58   13.60
   1  11  -4  195.28   13.30
  -1 -11   4  174.08   13.30
   0  11  -4   18.10    3.90
   0  11  -4   16.60    3.30
   0  11  -4   20.60    3.30
   0 -11   4   10.00    2.80
  -1  11  -4   66.59    6.50
  -1  11  -4   68.09    6.30
  -1  11  -4   62.09    7.30
   1 -11   4   60.89    6.00
  -2  11  -4   39.30    5.00
  -2  11  -4   34.80    5.40
  -2  11  -4   48.20    5.30
   2 -11   4   42.70    4.60
  -3  11  -4    6.00    2.90
  -3  11  -4    8.20    3.60
  -3  11  -4    7.40    3.10
   3 -11   4    5.90    2.50
  -4  11  -4  243.08   20.90
  -4  11  -4  316.87   20.90
  -4  11  -4  307.07   21.00
   4 -11   4  312.57   20.30
   4 -11   4  328.17   20.10
  -5  11  -4   21.40    4.50
  -5  11  -4   21.60    4.70
   5 -11   4   26.90    3.90
   5 -11   4   32.90    4.30
  -6  11  -4   35.70    5.60
  -6  11  -4   38.70    6.00
   6 -11   4   34.10    4.70
  -7  11  -4   25.50    5.10
   7 -11   4   16.10    4.60
  -8  11  -4    1.10    3.70
   8 -11   4    0.10    3.30
   8  10  -4  128.59   11.40
   8  10  -4  127.59   10.90
   7  10  -4  155.68   12.20
   7  10  -4  146.89   11.80
   7  10  -4  137.89   10.40
  -7 -10   4  141.49   10.80
   6  10  -4  195.78   14.80
   6  10  -4  205.58   14.40
   6  10  -4  192.08   13.40
  -6 -10   4  187.58   13.70
   5  10  -4  254.77   18.00
   5  10  -4  255.27   18.60
   5  10  -4  257.37   17.40
   5  10  -4  287.97   18.40
  -5 -10   4  258.97   17.60
   4  10  -4  135.79   10.60
   4  10  -4  137.59   10.30
   4  10  -4  146.09   11.10
   4  10  -4  125.49    9.90
   4  10  -4  146.99   10.50
  -4 -10   4  137.09   10.10
   3  10  -4    9.40    3.10
   3  10  -4    9.30    2.60
   3  10  -4    8.80    2.80
   3  10  -4   12.40    2.60
  -3 -10   4   11.00    2.50
   2  10  -4  160.78   11.50
   2  10  -4  197.68   12.50
   2  10  -4  156.58   11.60
   2  10  -4  162.18   11.60
  -2 -10   4  144.09   11.40
   1  10  -4   68.09    5.70
   1  10  -4   65.39    5.80
   1  10  -4   60.69    5.80
   1  10  -4   69.49    6.80
  -1 -10   4   63.19    5.70
   0  10  -4   42.60    4.50
   0  10  -4   37.30    4.50
   0  10  -4   49.00    4.50
   0  10  -4   41.30    5.20
   0  10  -4   43.50    5.20
   0 -10   4   36.60    4.30
  -1  10  -4  111.09    9.80
  -1  10  -4  119.19    9.30
  -1  10  -4  129.59    9.30
   1 -10   4  122.09    9.00
  -2  10  -4  100.29    8.00
  -2  10  -4  104.29    8.90
  -2  10  -4   89.89    8.00
   2 -10   4   96.19    7.70
  -3  10  -4  234.38   16.10
  -3  10  -4  208.68   15.20
  -3  10  -4  218.08   15.60
   3 -10   4  222.38   15.10
   3 -10   4  229.28   14.80
   3 -10   4  200.08   15.20
  -4  10  -4    3.60    3.00
  -4  10  -4   -0.20    2.60
  -4  10  -4    6.50    3.10
   4 -10   4    4.90    2.20
   4 -10   4    1.20    2.10
   4 -10   4    1.10    2.00
  -5  10  -4   51.09    6.10
  -5  10  -4   45.00    5.80
   5 -10   4   52.69    5.20
   5 -10   4   47.70    5.30
  -6  10  -4   42.50    5.40
  -6  10  -4   34.10    5.50
   6 -10   4   26.30    4.30
   6 -10   4   35.90    4.40
   6 -10   4   35.00    5.10
  -7  10  -4   25.00    5.20
  -7  10  -4   25.70    4.80
   7 -10   4   20.40    3.90
   7 -10   4   20.00    4.40
  -8  10  -4   16.10    4.50
   8 -10   4   12.90    4.10
   9   9  -4   79.09    9.10
   9   9  -4  101.69    9.00
   8   9  -4    1.20    3.50
   8   9  -4   -4.40    2.90
   8   9  -4   -1.60    1.90
  -8  -9   4   -0.30    2.30
   7   9  -4   80.59    6.30
   7   9  -4   59.09    7.60
   7   9  -4   89.19    7.80
  -7  -9   4   68.99    6.50
   6   9  -4    6.30    3.20
   6   9  -4   13.50    2.50
   6   9  -4    7.30    2.90
  -6  -9   4    6.50    2.30
   5   9  -4   18.60    3.40
   5   9  -4   10.80    3.20
   5   9  -4   10.10    3.10
   5   9  -4    8.80    2.30
   5   9  -4   10.70    2.70
  -5  -9   4   17.80    2.70
   4   9  -4  201.28   13.80
   4   9  -4  192.58   13.40
   4   9  -4  208.88   14.00
   4   9  -4  191.08   13.70
   4   9  -4  204.08   14.40
  -4  -9   4  197.68   13.60
   3   9  -4  120.29    9.10
   3   9  -4  136.89    9.60
   3   9  -4  120.59    9.40
   3   9  -4  137.09   10.00
  -3  -9   4  123.19    9.10
   2   9  -4    0.90    1.80
   2   9  -4    1.30    2.10
   2   9  -4    0.70    1.90
   2   9  -4    1.70    1.70
  -2  -9   4   -0.50    1.50
   1   9  -4   10.60    2.30
   1   9  -4   12.40    2.40
   1   9  -4    7.80    2.00
   1   9  -4    3.90    2.50
  -1  -9   4    4.40    1.80
   0   9  -4    4.30    1.90
   0   9  -4    3.20    2.40
   0   9  -4    8.90    2.30
   0   9  -4   10.70    2.20
   0   9  -4    7.80    2.30
   0  -9   4    4.30    1.90
  -1   9  -4    0.60    1.90
  -1   9  -4   -0.10    2.00
  -1   9  -4    1.20    2.10
  -1   9  -4   -1.50    1.50
   1  -9   4    2.00    1.70
  -2   9  -4   27.30    3.90
  -2   9  -4   29.60    3.80
  -2   9  -4   33.20    4.70
   2  -9   4   31.20    3.20
   2  -9   4   25.50    3.50
  -3   9  -4  107.59    8.00
  -3   9  -4  101.69    8.30
  -3   9  -4   84.39    8.30
   3  -9   4  102.99    7.60
   3  -9   4   98.99    7.90
   3  -9   4   94.89    7.30
  -4   9  -4   58.59    6.00
  -4   9  -4   51.19    6.40
  -4   9  -4   54.59    6.10
   4  -9   4   68.39    5.70
   4  -9   4   67.09    5.80
  -5   9  -4   81.19    7.50
  -5   9  -4   65.99    7.40
  -5   9  -4   77.59    8.00
   5  -9   4   79.09    7.20
   5  -9   4   79.89    6.80
   5  -9   4   80.49    6.90
  -6   9  -4  104.09    9.70
  -6   9  -4  115.89    9.50
   6  -9   4   95.79    8.90
   6  -9   4  116.49    8.90
  -7   9  -4   27.30    5.30
  -7   9  -4   34.50    5.40
   7  -9   4   37.30    4.70
   7  -9   4   33.20    5.10
  -8   9  -4   22.30    4.80
  -8   9  -4   19.00    4.80
   8  -9   4   25.60    4.70
   8  -9   4   20.80    4.10
  -9   9  -4   49.20    6.80
   9  -9   4   55.49    6.80
   9   8  -4   21.10    4.40
   9   8  -4   18.20    4.60
   8   8  -4   39.10    4.10
   8   8  -4   46.30    6.00
   8   8  -4   37.50    5.40
  -8  -8   4   38.10    4.60
   7   8  -4  144.49   12.80
   7   8  -4  161.78   12.50
   7   8  -4  182.38   11.50
  -7  -8   4  165.28   11.70
   6   8  -4   14.20    3.10
   6   8  -4   16.90    2.60
   6   8  -4   10.30    3.40
  -6  -8   4   15.10    2.70
   5   8  -4  249.28   15.50
   5   8  -4  223.78   16.40
   5   8  -4  236.38   16.00
   5   8  -4  220.08   15.60
   5   8  -4  238.18   16.10
  -5  -8   4  229.08   15.50
   4   8  -4   65.49    5.70
   4   8  -4   72.79    5.80
   4   8  -4   54.89    5.90
   4   8  -4   61.39    5.80
   4   8  -4   68.19    5.30
  -4  -8   4   59.89    5.30
   3   8  -4   -0.50    1.80
   3   8  -4   -0.20    1.40
   3   8  -4    1.20    2.00
   3   8  -4   -1.60    1.90
  -3  -8   4    1.50    1.50
   2   8  -4   70.19    6.00
   2   8  -4   83.79    6.50
   2   8  -4   71.89    5.90
   2   8  -4   72.39    5.80
  -2  -8   4   71.09    5.70
   1   8  -4   27.20    3.30
   1   8  -4   34.90    3.90
   1   8  -4   28.50    3.20
   1   8  -4   34.40    3.30
   1   8  -4   30.90    3.40
  -1  -8   4   28.30    3.20
   0   8  -4   18.20    2.50
   0   8  -4   20.60    2.70
   0   8  -4   15.40    3.00
   0   8  -4   15.60    2.60
   0   8  -4   14.90    2.20
   0  -8   4   18.00    2.50
  -1   8  -4  147.79   10.00
  -1   8  -4  130.19    9.80
  -1   8  -4  151.28   10.40
  -1   8  -4  137.59    9.50
   1  -8   4  140.89    9.40
   1  -8   4  130.39    9.70
  -2   8  -4    0.50    1.90
  -2   8  -4    0.80    1.90
  -2   8  -4    0.80    2.20
   2  -8   4   -0.50    1.60
   2  -8   4    3.90    1.50
  -3   8  -4   58.69    6.10
  -3   8  -4   67.49    6.00
  -3   8  -4   61.89    5.60
   3  -8   4   58.79    5.30
   3  -8   4   58.69    5.50
  -4   8  -4  394.06   27.20
  -4   8  -4  405.46   27.00
  -4   8  -4  381.66   26.70
   4  -8   4  460.55   26.70
   4  -8   4  410.06   26.40
  -5   8  -4   11.20    3.00
  -5   8  -4    7.10    3.20
  -5   8  -4    0.20    2.80
   5  -8   4    4.10    2.50
   5  -8   4    2.60    2.20
   5  -8   4    2.10    2.10
  -6   8  -4   53.79    6.10
  -6   8  -4   58.29    6.70
   6  -8   4   66.39    6.30
   6  -8   4   45.90    5.30
  -7   8  -4   59.09    6.40
  -7   8  -4   42.80    6.20
   7  -8   4   48.00    5.40
   7  -8   4   51.69    6.00
  -8   8  -4   -4.60    3.00
  -8   8  -4    6.30    3.40
   8  -8   4   -0.80    2.50
   8  -8   4   -1.10    2.80
  -9   8  -4   12.60    4.20
  -9   8  -4   11.20    4.60
   9  -8   4   11.50    4.00
   9  -8   4    8.50    3.80
 -10   8  -4    6.90    4.30
  10  -8   4   -5.50    3.30
  10   7  -4   30.30    5.40
  10   7  -4   35.00    5.40
   9   7  -4   24.10    4.70
   9   7  -4   20.90    4.50
   9   7  -4   28.20    3.90
  -9  -7   4   23.40    3.60
   8   7  -4    0.80    2.60
   8   7  -4    3.40    2.90
   8   7  -4    0.40    1.70
  -8  -7   4    0.20    2.00
   7   7  -4   -0.10    2.50
   7   7  -4   -1.80    2.50
   7   7  -4   -0.60    1.60
  -7  -7   4    1.30    1.90
   6   7  -4   16.10    3.10
   6   7  -4   11.60    3.00
   6   7  -4   16.50    2.50
  -6  -7   4   16.60    2.60
   5   7  -4  369.06   23.20
   5   7  -4  335.67   22.70
   5   7  -4  363.46   23.40
   5   7  -4  334.27   22.50
   5   7  -4  362.86   23.10
  -5  -7   4  359.06   22.70
   4   7  -4   52.09    5.00
   4   7  -4   54.69    4.80
   4   7  -4   55.69    4.90
   4   7  -4   41.20    4.90
   4   7  -4   50.99    4.40
  -4  -7   4   50.79    4.40
   3   7  -4  399.66   24.70
   3   7  -4  337.47   24.30
   3   7  -4  393.56   24.80
   3   7  -4  430.06   25.10
  -3  -7   4  373.66   24.40
   2   7  -4   76.99    5.90
   2   7  -4   85.39    6.30
   2   7  -4   78.59    6.00
   2   7  -4   74.29    6.00
   2   7  -4   74.79    5.70
  -2  -7   4   71.49    5.70
   1   7  -4  271.67   18.30
   1   7  -4  277.77   18.30
   1   7  -4  288.27   18.30
   1   7  -4  288.07   18.40
   1   7  -4  294.37   18.30
  -1  -7   4  287.87   18.30
   0   7  -4   30.00    3.50
   0   7  -4   36.20    3.70
   0   7  -4   40.80    3.60
   0   7  -4   36.20    3.40
   0   7  -4   42.60    3.50
   0   7  -4   45.30    4.30
   0  -7   4   34.20    3.40
   0  -7   4   37.30    3.10
  -1   7  -4  173.88   11.20
  -1   7  -4  153.08   10.90
  -1   7  -4  159.48   10.60
   1  -7   4  163.18   10.90
   1  -7   4  158.28   10.60
  -2   7  -4   72.19    6.30
  -2   7  -4   85.69    6.20
  -2   7  -4   67.49    6.50
   2  -7   4   83.29    6.00
  -3   7  -4   25.00    3.70
  -3   7  -4   24.30    3.30
  -3   7  -4   29.80    4.00
   3  -7   4   23.60    2.90
   3  -7   4   30.70    3.50
  -4   7  -4   25.10    3.80
  -4   7  -4   24.70    4.00
  -4   7  -4   29.20    3.70
   4  -7   4   33.00    3.70
   4  -7   4   31.40    3.40
  -5   7  -4  184.78   14.10
  -5   7  -4  218.18   14.00
  -5   7  -4  182.08   13.90
   5  -7   4  204.78   13.50
   5  -7   4  184.98   13.50
   5  -7   4  198.18   13.70
  -6   7  -4  177.08   12.80
  -6   7  -4  171.38   12.40
   6  -7   4  152.48   12.10
   6  -7   4  166.88   11.90
   6  -7   4  166.38   11.90
  -7   7  -4   54.99    6.60
  -7   7  -4   47.80    5.90
   7  -7   4   55.89    5.60
   7  -7   4   61.99    6.40
  -8   7  -4   18.70    4.10
  -8   7  -4   17.50    4.20
   8  -7   4   13.30    3.70
   8  -7   4   12.30    3.30
  -9   7  -4   12.90    4.20
  -9   7  -4    0.40    3.50
   9  -7   4    3.20    2.80
   9  -7   4    0.40    3.30
 -10   7  -4   13.80    4.50
  10  -7   4   14.50    4.30
  10   6  -4   -3.10    3.10
  10   6  -4    6.20    3.30
   9   6  -4    6.70    3.20
   9   6  -4    9.70    3.70
   9   6  -4    7.80    2.20
  -9  -6   4    8.70    2.70
   8   6  -4    5.30    3.10
   8   6  -4    3.20    2.80
   8   6  -4    8.10    2.10
  -8  -6   4    6.20    2.30
   7   6  -4  151.18   10.90
   7   6  -4  129.39   10.80
   7   6  -4  138.89    9.80
  -7  -6   4  151.28   10.20
   6   6  -4    9.60    2.00
   6   6  -4   13.40    2.90
   6   6  -4   14.60    2.90
  -6  -6   4   11.10    2.20
   5   6  -4   45.80    4.40
   5   6  -4   38.90    4.00
   5   6  -4   40.40    3.70
   5   6  -4   38.20    4.30
  -5  -6   4   37.60    3.70
   4   6  -4  154.18   10.20
   4   6  -4  133.59   10.00
   4   6  -4  133.59    9.90
   4   6  -4  146.89    9.50
   4   6  -4  136.59    9.80
  -4  -6   4  137.09    9.50
   3   6  -4    3.80    1.70
   3   6  -4    1.60    1.60
   3   6  -4    3.60    1.80
   3   6  -4    0.40    1.50
   3   6  -4    3.70    1.30
   3   6  -4    2.50    2.00
  -3  -6   4    0.20    1.10
   2   6  -4   43.60    3.60
   2   6  -4   51.09    4.20
   2   6  -4   38.80    4.00
   2   6  -4   42.40    3.90
   2   6  -4   44.60    4.00
  -2  -6   4   41.50    3.60
   1   6  -4   22.10    2.40
   1   6  -4   19.30    2.70
   1   6  -4   23.80    2.70
   1   6  -4   19.80    2.50
   1   6  -4   23.30    2.50
   1   6  -4   21.30    2.40
  -1  -6   4   25.70    2.50
   0   6  -4   30.10    2.90
   0   6  -4   29.90    3.00
   0   6  -4   31.60    3.40
   0   6  -4   30.20    3.10
   0   6  -4   31.00    2.80
   0   6  -4   31.00    2.90
   0  -6   4   33.00    2.60
   0  -6   4   29.40    2.90
  -1   6  -4   15.80    2.00
  -1   6  -4   21.30    2.20
  -1   6  -4   21.70    2.80
  -1   6  -4   15.20    2.30
  -1   6  -4   24.40    2.90
   1  -6   4   18.90    2.30
  -2   6  -4    4.10    1.80
  -2   6  -4    4.80    1.30
  -2   6  -4    2.10    1.60
  -2   6  -4    5.40    2.00
   2  -6   4    8.80    1.70
  -3   6  -4  396.76   27.70
  -3   6  -4  434.26   28.00
  -3   6  -4  476.95   28.30
   3  -6   4  437.46   27.90
   3  -6   4  432.36   27.60
  -4   6  -4  125.29    9.50
  -4   6  -4  142.59   10.00
  -4   6  -4  112.79    9.90
   4  -6   4  133.09    9.30
   4  -6   4  150.58    9.60
  -5   6  -4  108.49    9.30
  -5   6  -4  146.19    9.50
  -5   6  -4  124.79    9.00
   5  -6   4   96.59    8.70
   5  -6   4  112.39    8.60
   5  -6   4  119.09    8.60
  -6   6  -4   23.80    4.00
  -6   6  -4   23.00    3.70
  -6   6  -4   23.20    4.10
   6  -6   4   23.70    3.40
   6  -6   4   25.70    3.50
   6  -6   4   29.60    4.00
  -7   6  -4    9.30    3.30
  -7   6  -4    6.10    2.90
   7  -6   4   10.20    3.10
   7  -6   4    3.10    2.30
   7  -6   4    7.10    2.40
  -8   6  -4    1.10    2.80
  -8   6  -4   -0.70    2.90
   8  -6   4   -1.00    2.40
   8  -6   4    3.90    2.80
  -9   6  -4    7.80    3.50
  -9   6  -4    4.50    3.50
   9  -6   4    5.00    2.90
   9  -6   4    6.50    3.40
 -10   6  -4   13.30    4.30
 -10   6  -4    9.10    4.30
  10  -6   4   13.30    3.40
  10  -6   4    5.80    3.70
  10   5  -4   -1.40    3.00
  10   5  -4   -1.80    3.10
   9   5  -4   32.00    5.30
   9   5  -4   28.80    4.70
   9   5  -4   35.30    3.70
  -9  -5   4   36.60    4.30
   8   5  -4  129.69    9.10
   8   5  -4  129.79   10.50
   8   5  -4  116.89   10.10
  -8  -5   4  138.79    9.60
   7   5  -4   -0.80    2.40
   7   5  -4    2.50    2.50
   7   5  -4   -0.80    1.50
   7   5  -4   -0.70    2.20
  -7  -5   4   -0.50    1.60
   6   5  -4   15.00    3.00
   6   5  -4   22.80    2.50
   6   5  -4   17.60    3.10
   6   5  -4   13.30    2.90
  -6  -5   4   16.20    2.40
   5   5  -4   21.20    2.70
   5   5  -4   17.30    2.90
   5   5  -4   23.40    3.20
   5   5  -4   17.10    2.20
   5   5  -4   20.60    2.90
  -5  -5   4   20.00    2.40
   4   5  -4  447.46   26.70
   4   5  -4  420.66   26.50
   4   5  -4  345.37   26.30
   4   5  -4  444.26   26.40
   4   5  -4  414.46   26.00
  -4  -5   4  433.16   26.20
   3   5  -4   81.59    6.70
   3   5  -4   88.49    6.40
   3   5  -4   87.29    6.50
   3   5  -4   80.29    6.40
   3   5  -4   90.39    6.50
   3   5  -4   89.69    6.00
   3   5  -4   95.39    6.80
  -3  -5   4   85.09    6.10
   2   5  -4  294.67   19.00
   2   5  -4  304.77   18.50
   2   5  -4  281.87   18.80
   2   5  -4  268.17   18.90
   2   5  -4  329.97   19.00
   2   5  -4  295.47   18.60
   2   5  -4  276.47   18.80
  -2  -5   4  299.07   18.60
   1   5  -4   68.89    5.00
   1   5  -4   70.69    4.60
   1   5  -4   73.59    5.10
   1   5  -4   55.49    5.10
   1   5  -4   77.89    5.30
   1   5  -4   71.19    5.00
   1   5  -4   69.09    4.90
  -1  -5   4   69.49    4.90
  -1  -5   4   68.29    4.50
   0   5  -4  191.08   12.70
   0   5  -4  189.98   12.90
   0   5  -4  215.78   12.80
   0   5  -4  199.48   13.00
   0   5  -4  200.88   12.70
   0   5  -4  187.78   12.70
   0  -5   4  200.88   12.70
  -1   5  -4  508.85   27.60
  -1   5  -4  410.96   27.60
  -1   5  -4  434.56   27.80
  -1   5  -4  418.06   27.80
  -1   5  -4  438.66   27.40
   1  -5   4  428.26   27.60
  -2   5  -4  819.12   50.39
  -2   5  -4  795.12   50.09
  -2   5  -4  824.52   49.90
   2  -5   4  784.82   49.99
  -3   5  -4   20.90    3.00
  -3   5  -4   23.00    2.20
  -3   5  -4   23.20    2.80
  -3   5  -4   14.90    2.70
   3  -5   4   18.10    2.30
   3  -5   4   20.00    2.70
  -4   5  -4    0.90    1.90
  -4   5  -4   -0.70    1.70
  -4   5  -4    0.10    1.90
   4  -5   4    0.60    1.50
   4  -5   4    1.20    1.40
   4  -5   4    1.80    1.80
  -5   5  -4   69.99    6.10
  -5   5  -4   69.69    6.10
  -5   5  -4   56.49    5.60
   5  -5   4   62.89    5.50
   5  -5   4   67.39    5.60
   5  -5   4   59.59    5.40
  -6   5  -4   49.90    5.30
  -6   5  -4   48.20    5.20
  -6   5  -4   44.90    5.30
   6  -5   4   56.49    5.30
   6  -5   4   44.80    4.60
   6  -5   4   35.40    4.30
  -7   5  -4    2.80    2.60
  -7   5  -4    0.50    2.40
   7  -5   4    2.50    2.20
   7  -5   4    0.60    2.30
   7  -5   4    0.40    2.00
  -8   5  -4   12.00    3.60
  -8   5  -4   12.00    3.60
   8  -5   4   14.20    3.20
   8  -5   4   14.20    3.50
  -9   5  -4    3.70    3.30
  -9   5  -4    6.80    3.60
   9  -5   4    9.70    3.60
   9  -5   4    8.10    2.90
 -10   5  -4   10.50    3.70
 -10   5  -4   13.10    4.10
  10  -5   4   10.50    3.40
  10  -5   4    9.90    4.10
 -11   5  -4    0.70    3.60
  11  -5   4    9.30    3.80
  11   4  -4   -1.10    3.40
  11   4  -4    1.30    3.60
  10   4  -4   66.89    7.20
  10   4  -4   58.89    5.60
  10   4  -4   70.39    7.60
 -10  -4   4   65.19    6.30
   9   4  -4    2.20    3.00
   9   4  -4    1.60    2.90
   9   4  -4    7.00    2.00
  -9  -4   4    3.60    2.30
   8   4  -4    6.00    2.80
   8   4  -4    4.80    2.60
   8   4  -4    0.30    1.60
  -8  -4   4   -2.20    1.70
   7   4  -4   11.60    3.00
   7   4  -4   10.40    2.80
   7   4  -4    8.90    1.90
   7   4  -4    8.90    2.60
  -7  -4   4    8.20    2.10
   6   4  -4    2.60    1.30
   6   4  -4    2.60    2.00
   6   4  -4    2.50    2.20
   6   4  -4    2.00    1.90
  -6  -4   4    3.30    1.50
   5   4  -4  157.38   10.50
   5   4  -4  152.88    9.80
   5   4  -4  159.98   10.20
   5   4  -4  131.59   10.30
   5   4  -4  151.68   10.40
  -5  -4   4  143.99    9.90
   4   4  -4   18.80    2.20
   4   4  -4   15.20    2.40
   4   4  -4   11.10    2.60
   4   4  -4   12.80    1.60
   4   4  -4   10.20    2.00
   4   4  -4   14.90    2.30
  -4  -4   4   10.90    1.70
   3   4  -4  127.49    8.50
   3   4  -4  113.99    8.00
   3   4  -4  118.29    8.40
   3   4  -4  129.89    8.60
   3   4  -4  121.69    8.50
   3   4  -4  123.89    8.70
   3   4  -4  121.89    8.40
  -3  -4   4  130.39    8.10
   2   4  -4  294.77   17.70
   2   4  -4  273.37   17.70
   2   4  -4  276.77   17.20
   2   4  -4  268.47   17.60
   2   4  -4  272.27   17.50
   2   4  -4  248.68   17.10
   2   4  -4  289.67   17.50
   2   4  -4  273.67   17.50
  -2  -4   4  276.87   17.20
   1   4  -4  423.46   25.60
   1   4  -4  462.45   25.80
   1   4  -4  406.56   25.60
   1   4  -4  412.06   25.50
   1   4  -4  366.36   25.60
   1   4  -4  405.16   25.30
   1   4  -4  420.36   25.60
  -1  -4   4  403.26   25.20
  -1  -4   4  390.96   25.40
   0   4  -4  227.58   13.70
   0   4  -4  224.38   13.90
   0   4  -4  214.48   13.70
   0   4  -4  212.78   13.90
   0   4  -4  215.48   13.90
   0  -4   4  202.48   13.70
  -1   4  -4  112.59    7.50
  -1   4  -4  108.69    7.50
  -1   4  -4  110.99    7.80
  -1   4  -4  117.19    7.70
   1  -4   4  108.19    7.40
  -2   4  -4  133.29    9.00
  -2   4  -4  136.89    9.40
  -2   4  -4  140.09    9.50
  -2   4  -4  131.39    9.20
   2  -4   4  142.49    8.90
   2  -4   4  134.89    9.40
   2  -4   4  139.99    9.10
  -3   4  -4   26.00    3.00
  -3   4  -4   19.00    2.50
  -3   4  -4   15.80    2.60
   3  -4   4   21.50    2.70
   3  -4   4   17.70    2.30
  -4   4  -4   16.50    2.60
  -4   4  -4   15.00    2.70
  -4   4  -4   13.70    2.70
   4  -4   4   18.70    2.60
   4  -4   4   20.50    2.60
   4  -4   4   20.70    2.30
  -5   4  -4  155.38   10.50
  -5   4  -4  130.39   10.70
  -5   4  -4  144.69   10.70
   5  -4   4  156.28   10.50
   5  -4   4  154.98   10.40
   5  -4   4  147.59   10.20
  -6   4  -4   26.80    4.00
  -6   4  -4   23.70    3.60
  -6   4  -4   21.80    3.50
   6  -4   4   30.40    3.40
   6  -4   4   19.00    3.00
   6  -4   4   22.10    3.50
  -7   4  -4   22.10    3.80
  -7   4  -4   28.20    4.20
   7  -4   4   26.80    4.00
   7  -4   4   25.90    3.50
   7  -4   4   27.30    3.60
  -8   4  -4    1.80    2.70
  -8   4  -4   -0.10    2.50
   8  -4   4    0.90    2.30
   8  -4   4    1.10    2.00
   8  -4   4    0.00    2.60
  -9   4  -4    6.50    3.20
  -9   4  -4    9.00    3.60
   9  -4   4    7.40    3.50
 -10   4  -4   29.80    5.00
  10  -4   4   29.90    4.60
  10  -4   4   28.00    5.00
 -11   4  -4    2.60    3.50
  11  -4   4    5.30    3.60
  11   3  -4    1.70    3.40
  11   3  -4   -0.40    3.50
  10   3  -4    1.90    3.20
  10   3  -4    0.60    3.00
  10   3  -4    4.30    2.00
   9   3  -4   -1.70    2.60
   9   3  -4   -0.50    2.60
   9   3  -4    0.70    1.70
  -9  -3   4    3.10    2.20
   8   3  -4   12.40    2.10
   8   3  -4    7.70    3.00
   8   3  -4   12.40    3.10
  -8  -3   4    5.30    2.20
   7   3  -4   92.39    7.90
   7   3  -4  111.39    7.80
   7   3  -4   81.09    7.90
   7   3  -4  110.69    7.30
  -7  -3   4  107.59    7.40
   6   3  -4    0.30    1.20
   6   3  -4    0.50    1.80
   6   3  -4    2.20    2.00
   6   3  -4    0.70    1.80
  -6  -3   4    0.90    1.30
   5   3  -4   21.80    2.90
   5   3  -4   22.00    2.20
   5   3  -4   22.40    2.50
   5   3  -4   26.10    3.00
   5   3  -4   17.40    2.70
  -5  -3   4   19.90    2.30
   4   3  -4   31.00    3.40
   4   3  -4   37.60    3.70
   4   3  -4   39.40    2.90
   4   3  -4   35.80    3.40
   4   3  -4   34.70    3.30
   4   3  -4   37.20    4.00
  -4  -3   4   40.20    3.10
   3   3  -4    1.70    1.30
   3   3  -4    1.30    1.30
   3   3  -4    2.40    1.10
   3   3  -4    2.50    0.80
   3   3  -4   -0.80    1.40
   3   3  -4    1.80    1.70
  -3  -3   4    0.70    0.80
   2   3  -4 1107.99   62.29
   2   3  -4  963.40   62.19
   2   3  -4 1006.60   61.99
   2   3  -4 1040.30   61.69
   2   3  -4 1077.59   62.19
   2   3  -4  867.71   61.89
  -2  -3   4  978.10   61.79
   1   3  -4   16.60    1.70
   1   3  -4   15.40    1.50
   1   3  -4   16.40    1.80
   1   3  -4   17.30    2.10
   1   3  -4   17.20    2.00
   1   3  -4   16.30    1.80
   1   3  -4    9.70    1.70
   1   3  -4   16.20    1.70
  -1  -3   4   20.80    1.60
   0   3  -4   13.90    1.70
   0   3  -4   11.30    1.30
   0   3  -4   11.80    1.60
   0   3  -4   12.10    1.80
   0   3  -4   13.00    1.50
   0  -3   4   13.90    1.40
  -1   3  -4  122.29    8.40
  -1   3  -4  130.29    8.70
  -1   3  -4  130.09    8.40
   1  -3   4  126.79    8.40
   1  -3   4  135.89    8.40
  -2   3  -4   54.09    4.60
  -2   3  -4   53.79    4.30
  -2   3  -4   59.09    4.60
   2  -3   4   54.39    4.50
   2  -3   4   55.69    4.20
   2  -3   4   63.79    4.10
  -3   3  -4  209.58   14.30
  -3   3  -4  199.58   14.20
  -3   3  -4  226.68   14.10
   3  -3   4  209.68   14.10
   3  -3   4  225.98   14.10
   3  -3   4  223.08   13.90
  -4   3  -4  135.69    8.30
  -4   3  -4  123.89    9.10
  -4   3  -4  116.89    9.00
  -4   3  -4  125.69    8.90
   4  -3   4  136.09    8.70
   4  -3   4  113.69    8.80
   4  -3   4  135.89    9.00
  -5   3  -4    3.10    1.00
  -5   3  -4   -1.10    1.50
  -5   3  -4    6.20    2.10
  -5   3  -4    0.80    1.80
   5  -3   4   -1.10    1.60
   5  -3   4    2.80    1.60
   5  -3   4    2.40    1.60
  -6   3  -4    2.50    2.10
  -6   3  -4    3.80    2.30
  -6   3  -4    4.30    2.30
   6  -3   4    0.20    1.60
   6  -3   4    4.40    2.20
   6  -3   4    2.20    1.90
  -7   3  -4   53.29    5.80
  -7   3  -4   50.29    5.70
   7  -3   4   72.79    5.70
   7  -3   4   66.89    6.00
   7  -3   4   61.59    5.70
  -8   3  -4   77.39    7.40
  -8   3  -4   78.19    7.20
   8  -3   4   79.59    7.40
   8  -3   4   91.29    7.20
   8  -3   4   73.89    6.80
  -9   3  -4   64.19    6.90
  -9   3  -4   63.69    6.50
   9  -3   4   58.39    6.60
   9  -3   4   56.99    6.10
 -10   3  -4    9.60    3.80
  10  -3   4    4.60    3.00
  10  -3   4    9.20    3.60
 -11   3  -4   65.39    7.70
  11  -3   4   61.19    7.30
  11   2  -4   12.40    4.10
  11   2  -4   11.70    4.20
  10   2  -4   78.29    6.40
  10   2  -4   76.49    8.30
  10   2  -4   80.09    7.90
   9   2  -4  108.69    9.80
   9   2  -4  111.69    9.60
   9   2  -4  124.39    8.50
   8   2  -4    9.20    2.90
   8   2  -4    6.00    2.90
   8   2  -4   11.50    2.20
  -8  -2   4    9.50    2.30
   7   2  -4  154.68   11.10
   7   2  -4  159.78   10.40
   7   2  -4  142.59   10.80
   7   2  -4  155.38   11.30
  -7  -2   4  156.98   10.60
   6   2  -4   84.99    6.10
   6   2  -4   92.49    6.80
   6   2  -4   81.89    6.80
   6   2  -4   89.19    6.60
  -6  -2   4   78.39    6.10
   5   2  -4  165.58   10.30
   5   2  -4  156.18   10.90
   5   2  -4  163.48   10.50
   5   2  -4  151.58   10.80
   5   2  -4  170.68   10.80
  -5  -2   4  144.09   10.30
   4   2  -4  218.38   14.60
   4   2  -4  212.58   14.00
   4   2  -4  230.18   14.60
   4   2  -4  247.48   14.40
   4   2  -4  205.08   14.30
   4   2  -4  231.78   14.60
  -4  -2   4  224.58   14.10
   3   2  -4  688.63   44.80
   3   2  -4  770.22   45.30
   3   2  -4  705.13   45.30
   3   2  -4  764.92   45.10
   3   2  -4  710.43   45.20
  -3  -2   4  731.73   44.90
   2   2  -4   16.50    2.00
   2   2  -4   16.00    2.10
   2   2  -4   16.50    1.60
   2   2  -4   15.10    1.90
   2   2  -4   15.90    1.80
  -2  -2   4   17.30    1.40
   1   2  -4   72.39    5.40
   1   2  -4   89.49    5.80
   1   2  -4   82.99    5.80
   1   2  -4   80.99    5.60
   1   2  -4   86.89    5.80
  -1  -2   4   85.09    5.30
   0   2  -4   83.19    5.60
   0   2  -4   80.59    5.50
   0   2  -4   74.79    5.50
   0   2  -4   78.69    5.60
   0  -2   4   81.59    5.20
  -1   2  -4  608.14   39.70
  -1   2  -4  663.13   39.80
  -1   2  -4  616.44   39.90
  -1   2  -4  561.14   39.80
   1  -2   4  721.93   39.70
   1  -2   4  686.23   39.80
  -2   2  -4  630.74   43.60
  -2   2  -4  734.73   43.60
  -2   2  -4  699.33   43.40
  -2   2  -4  755.02   43.30
   2  -2   4  679.73   43.30
   2  -2   4  695.63   43.60
   2  -2   4  706.13   43.30
  -3   2  -4   47.40    4.00
  -3   2  -4   39.20    4.00
  -3   2  -4   42.20    3.80
  -3   2  -4   52.49    3.50
   3  -2   4   46.10    3.60
   3  -2   4   44.00    3.90
  -4   2  -4   97.99    7.30
  -4   2  -4   93.89    7.20
  -4   2  -4   94.29    7.10
   4  -2   4  103.99    7.20
   4  -2   4  103.49    7.20
  -5   2  -4  373.46   23.90
  -5   2  -4  405.96   23.70
  -5   2  -4  375.36   23.10
  -5   2  -4  359.96   23.70
   5  -2   4  362.46   23.60
   5  -2   4  349.67   23.60
   5  -2   4  346.27   23.40
  -6   2  -4  630.44   43.30
  -6   2  -4  748.33   42.80
  -6   2  -4  660.93   43.40
  -6   2  -4  743.53   43.90
   6  -2   4  691.63   43.40
   6  -2   4  684.03   43.10
   6  -2   4  648.04   43.30
  -7   2  -4   88.79    7.80
  -7   2  -4  103.29    7.90
   7  -2   4  101.59    7.60
   7  -2   4   91.89    7.80
   7  -2   4   90.09    7.60
  -8   2  -4  204.38   14.70
  -8   2  -4  239.28   15.10
   8  -2   4  205.28   14.40
   8  -2   4  206.28   14.70
   8  -2   4  198.38   14.80
  -9   2  -4   38.80    5.40
  -9   2  -4   45.90    5.20
   9  -2   4   47.30    5.70
   9  -2   4   40.10    5.20
   9  -2   4   47.10    5.00
 -10   2  -4   75.49    8.00
  10  -2   4   80.79    7.30
  10  -2   4   72.09    7.70
 -11   2  -4   12.40    4.20
  11  -2   4    9.10    3.90
  11   1  -4   53.69    7.20
  11   1  -4   63.29    5.60
  11   1  -4   58.89    6.90
  10   1  -4   -0.80    1.90
  10   1  -4    5.00    3.50
  10   1  -4   -1.60    2.90
   9   1  -4   83.29    7.60
   9   1  -4   72.49    7.80
   9   1  -4   84.39    6.50
   8   1  -4   30.30    4.40
   8   1  -4   30.60    4.20
   8   1  -4   32.90    3.40
   7   1  -4    5.20    2.40
   7   1  -4    7.30    1.80
   7   1  -4    6.60    2.20
   7   1  -4    7.10    2.40
  -7  -1   4    8.30    2.00
   6   1  -4   17.60    2.60
   6   1  -4   17.90    2.70
   6   1  -4   16.20    2.00
   6   1  -4   13.50    2.40
  -6  -1   4   14.70    2.10
   5   1  -4   14.60    1.70
   5   1  -4   13.90    2.20
   5   1  -4   13.40    1.90
   5   1  -4   12.20    2.20
   5   1  -4   14.50    2.20
   5   1  -4   13.50    2.50
   5   1  -4   11.80    1.90
  -5  -1   4   13.10    1.70
   4   1  -4   31.40    2.70
   4   1  -4   25.10    2.00
   4   1  -4   27.40    2.60
   4   1  -4   17.90    2.50
   4   1  -4   28.00    2.90
   4   1  -4   23.60    2.20
   4   1  -4   23.30    3.00
   4   1  -4   28.30    2.60
  -4  -1   4   28.30    2.30
   3   1  -4  776.22   50.19
   3   1  -4  816.42   50.49
   3   1  -4  821.42   50.39
   3   1  -4  799.82   50.49
   3   1  -4  815.12   50.39
   3   1  -4  783.82   49.90
   3   1  -4  841.72   49.90
  -3  -1   4  852.31   50.09
   2   1  -4  259.17   16.20
   2   1  -4  281.47   16.70
   2   1  -4  257.47   16.60
   2   1  -4  264.47   16.80
  -2  -1   4  258.17   16.30
   1   1  -4 1690.33  103.89
   1   1  -4 1684.83  103.69
   1   1  -4 1709.93  103.89
   1   1  -4 1672.83  103.99
   0   1  -4 1721.23  106.69
   0   1  -4 1735.33  106.69
   0   1  -4 1720.53  106.69
   0   1  -4 1737.93  106.69
   0  -1   4 1750.92  106.39
   0  -1   4 1747.63  106.69
  -1   1  -4 4524.75  277.07
  -1   1  -4 4361.06  276.97
  -1   1  -4 4649.04  276.97
  -1   1  -4 4334.17  277.47
   1  -1   4 4500.55  277.47
   1  -1   4 4603.04  276.97
   1  -1   4 4662.33  277.07
  -2   1  -4  554.24   32.70
  -2   1  -4  498.05   32.90
  -2   1  -4  520.75   32.70
  -2   1  -4  528.85   32.70
   2  -1   4  507.35   32.90
   2  -1   4  549.54   32.70
   2  -1   4  527.35   32.70
  -3   1  -4 3566.34  204.98
  -3   1  -4 3457.75  204.58
  -3   1  -4 3118.79  204.68
  -3   1  -4 3140.19  204.78
   3  -1   4 3375.96  204.58
   3  -1   4 3343.67  204.88
  -4   1  -4 1487.85   83.19
  -4   1  -4 1237.48   82.59
  -4   1  -4 1254.77   82.79
  -4   1  -4 1366.06   82.99
   4  -1   4 1408.56   82.89
   4  -1   4 1290.87   82.89
  -5   1  -4  182.08   12.60
  -5   1  -4  201.08   12.30
  -5   1  -4  172.98   12.60
  -5   1  -4  195.08   13.00
   5  -1   4  188.98   12.40
   5  -1   4  200.18   12.60
   5  -1   4  163.98   12.50
   5  -1   4  196.08   12.70
  -6   1  -4  259.67   16.00
  -6   1  -4  243.08   15.50
  -6   1  -4  241.78   16.00
  -6   1  -4  209.38   16.10
   6  -1   4  249.48   16.00
   6  -1   4  236.98   16.00
   6  -1   4  236.98   15.80
  -7   1  -4   39.20    4.60
  -7   1  -4   47.90    4.80
  -7   1  -4   44.90    4.10
   7  -1   4   44.00    4.70
   7  -1   4   49.30    4.90
   7  -1   4   41.80    4.40
  -8   1  -4    7.00    2.50
  -8   1  -4    6.20    2.80
   8  -1   4    1.90    2.20
   8  -1   4    3.80    2.50
   8  -1   4    7.20    2.70
  -9   1  -4   25.40    4.40
   9  -1   4   33.60    4.00
   9  -1   4   22.30    3.80
   9  -1   4   18.90    3.80
 -10   1  -4   24.70    4.60
  10  -1   4   23.50    4.50
  10  -1   4   23.60    3.90
 -11   1  -4    2.50    3.50
  11  -1   4   -2.20    2.90
  12  -1   4    0.90    3.50
  11   0  -4  105.19    9.60
  11   0  -4   93.89    7.90
  11   0  -4  109.29   10.40
  10   0  -4   25.30    3.50
  10   0  -4   36.40    5.50
  10   0  -4   26.50    4.60
   9   0  -4    2.90    2.80
   9   0  -4    4.70    3.10
   9   0  -4    7.80    2.30
  -9   0   4    5.80    2.10
   8   0  -4   -0.50    1.70
   8   0  -4   -2.60    2.10
   8   0  -4    1.80    2.30
   8   0  -4    0.10    2.40
   7   0  -4    3.20    2.20
   7   0  -4    0.10    2.10
   7   0  -4   -0.30    1.50
   7   0  -4    1.20    1.50
   7   0  -4   -1.00    1.80
   6   0  -4   11.40    2.40
   6   0  -4   16.70    2.00
   6   0  -4    7.80    2.10
   6   0  -4   17.40    2.50
   6   0  -4   13.10    2.30
  -6   0   4   14.20    2.00
   5   0  -4  389.16   24.90
   5   0  -4  436.46   24.90
   5   0  -4  390.16   24.40
   5   0  -4  402.56   24.80
   5   0  -4  352.36   24.70
   5   0  -4  393.26   24.60
   5   0  -4  370.36   24.90
  -5   0   4  385.86   24.40
   4   0  -4   27.90    3.10
   4   0  -4   32.10    3.00
   4   0  -4   35.10    2.60
   4   0  -4   34.60    2.60
   4   0  -4   32.90    3.30
   4   0  -4   37.60    3.10
   4   0  -4   29.80    3.10
  -4   0   4   32.00    2.70
   3   0  -4  699.03   43.90
   3   0  -4  703.03   43.50
   3   0  -4  713.23   44.00
   3   0  -4  713.33   43.60
   3   0  -4  696.63   43.90
   3   0  -4  702.33   44.00
   3   0  -4  739.63   43.70
  -3   0   4  691.83   43.60
   2   0  -4 5614.74  341.47
   2   0  -4 5561.24  341.47
   2   0  -4 5404.56  341.47
   2   0  -4 5499.05  341.37
   2   0  -4 5604.84  341.37
  -2   0   4 5731.63  341.07
   1   0  -4 1226.88   77.79
   1   0  -4 1278.77   77.49
   1   0  -4 1275.87   77.79
   1   0  -4 1272.27   77.89
   0   0  -4 4515.95  269.27
   0   0  -4 4322.17  269.27
   0   0   4 4386.16  269.07
   0   0   4 4342.27  270.07
   0   0   4 4391.56  269.77
  -1   0  -4 1786.42  111.99
  -1   0  -4 1786.32  112.19
  -1   0  -4 1780.82  112.09
   1   0   4 1926.01  111.89
   1   0   4 1913.91  112.09
   1   0   4 1747.63  112.09
  -2   0  -4 2980.00  181.88
  -2   0  -4 3078.09  181.78
  -2   0  -4 2954.70  181.78
   2   0   4 2811.52  181.88
   2   0   4 2986.50  181.68
  -3   0  -4  185.98   12.80
  -3   0  -4  204.08   12.90
  -3   0  -4  189.68   12.60
  -3   0  -4  198.08   12.70
   3   0   4  202.48   12.60
  -4   0  -4  328.87   22.60
  -4   0  -4  375.36   22.50
  -4   0  -4  332.37   22.60
  -4   0  -4  346.17   22.80
   4   0   4  368.76   22.70
   4   0   4  362.06   22.30
   4   0   4  382.96   22.80
  -5   0  -4    6.70    1.90
  -5   0  -4    9.30    1.70
  -5   0  -4    8.60    2.00
  -5   0  -4    5.80    2.00
   5   0   4    7.10    1.90
   5   0   4   10.50    1.90
   5   0   4    8.30    2.10
   5   0   4    8.20    1.30
  -6   0  -4    4.70    2.30
  -6   0  -4    8.20    2.10
  -6   0  -4    7.80    1.80
  -6   0  -4    4.30    1.90
   6   0   4    7.10    2.20
   6   0   4    5.90    1.80
   6   0   4    7.00    2.30
   6   0   4    8.60    1.50
  -7   0  -4   20.30    3.10
  -7   0  -4   23.90    3.40
   7   0   4   18.60    3.00
   7   0   4   23.60    3.10
   7   0   4   17.90    3.10
  -8   0  -4  122.69    9.60
  -8   0  -4  114.29    9.40
   8   0   4  126.19    9.70
   8   0   4  131.59    9.40
   8   0   4  134.49    9.70
  -9   0  -4    3.30    2.70
   9   0   4    2.70    2.30
   9   0   4    1.30    2.60
   9   0   4   -2.70    2.30
 -10   0  -4   62.59    6.80
  10   0   4   67.59    6.30
  10   0   4   50.69    6.40
  11   0   4   53.19    6.50
  12   0   4   87.49    9.10
  11  -1  -4   23.00    3.40
  11  -1  -4   18.10    4.30
  11  -1  -4   25.10    5.30
  10  -1  -4    2.10    2.20
  10  -1  -4    5.30    3.30
  10  -1  -4    5.10    3.50
   9  -1  -4   83.69    8.20
   9  -1  -4   85.69    6.80
   9  -1  -4   80.19    7.70
   8  -1  -4   77.89    6.20
   8  -1  -4   87.09    6.70
   8  -1  -4   68.59    7.30
   8  -1  -4   77.59    7.20
   8  -1  -4   84.19    6.40
   7  -1  -4  376.26   25.00
   7  -1  -4  345.47   25.10
   7  -1  -4  409.96   24.80
   7  -1  -4  388.26   24.50
  -7   1   4  403.96   24.60
   6  -1  -4   60.99    4.90
   6  -1  -4   51.49    4.90
   6  -1  -4   63.19    5.20
   6  -1  -4   47.20    4.30
   5  -1  -4  381.86   25.90
   5  -1  -4  400.96   25.70
   5  -1  -4  417.86   26.00
   5  -1  -4  450.85   25.50
   5  -1  -4  380.06   25.80
   5  -1  -4  409.96   25.90
   4  -1  -4 1349.96   80.89
   4  -1  -4 1188.68   81.09
   4  -1  -4 1364.96   81.19
   4  -1  -4 1328.57   80.89
   4  -1  -4 1317.37   81.29
   4  -1  -4 1343.77   81.29
   4  -1  -4 1340.37   81.29
  -4   1   4 1291.37   80.99
   3  -1  -4   72.79    5.40
   3  -1  -4   83.79    5.60
   3  -1  -4   79.69    5.20
   3  -1  -4   76.09    5.10
   3  -1  -4   75.79    5.40
   3  -1  -4   71.99    5.00
   3  -1  -4   71.59    5.40
   2  -1  -4  132.09    8.50
   2  -1  -4  117.49    8.20
   2  -1  -4  131.59    8.50
   2  -1  -4  133.69    8.50
   2  -1  -4  131.79    8.50
   1  -1  -4  721.63   43.90
   1  -1  -4  729.63   43.80
   1  -1  -4  727.53   43.90
   1  -1  -4  724.13   43.60
   1  -1  -4  677.23   43.80
  -1   1   4  700.03   43.60
  -1   1   4  660.83   43.80
  -1   1   4  726.73   43.70
   0  -1  -4  196.18   12.50
   0  -1  -4  191.88   12.50
   0  -1  -4  189.88   12.30
   0  -1  -4  204.88   12.50
   0   1   4  198.08   12.40
  -1  -1  -4  231.28   15.80
  -1  -1  -4  247.08   15.50
   1   1   4  259.67   15.80
   1   1   4  260.87   15.60
  -2  -1  -4  218.58   13.70
  -2  -1  -4  226.28   14.00
  -2  -1  -4  193.98   14.10
  -2  -1  -4  228.68   13.80
  -2  -1  -4  213.28   13.80
   2   1   4  221.58   13.70
  -3  -1  -4  105.09    6.80
  -3  -1  -4   90.19    6.90
  -3  -1  -4  111.59    7.20
  -3  -1  -4  103.89    6.90
  -3  -1  -4   89.99    6.90
   3   1   4   97.09    7.00
   3   1   4  107.89    6.80
  -4  -1  -4  487.05   30.80
  -4  -1  -4  484.45   30.60
  -4  -1  -4  486.05   30.80
  -4  -1  -4  428.86   30.90
   4   1   4  535.55   30.80
   4   1   4  514.05   30.90
   4   1   4  487.55   30.30
   4   1   4  494.75   30.40
  -5  -1  -4  107.09    8.20
  -5  -1  -4  110.39    8.10
  -5  -1  -4  108.79    8.20
  -5  -1  -4  120.69    8.70
   5   1   4  118.69    8.10
   5   1   4  106.29    9.00
   5   1   4  125.19    7.90
   5   1   4  116.89    8.50
   5   1   4  138.39    8.40
  -6  -1  -4  325.67   20.70
  -6  -1  -4  343.17   20.30
  -6  -1  -4  302.77   20.30
  -6  -1  -4  295.97   20.10
   6   1   4  310.37   19.80
   6   1   4  296.77   20.60
   6   1   4  301.57   20.10
   6   1   4  329.37   20.40
   6   1   4  296.67   20.40
  -7  -1  -4   33.10    3.80
  -7  -1  -4   34.40    4.20
   7   1   4   37.30    4.30
   7   1   4   42.60    4.00
   7   1   4   36.40    3.50
   7   1   4   38.80    4.30
  -8  -1  -4  187.88   13.90
   8   1   4  191.58   13.90
   8   1   4  210.88   14.10
   8   1   4  200.48   13.60
  -9  -1  -4   72.99    7.40
   9   1   4   70.69    6.80
   9   1   4   87.89    7.40
 -10  -1  -4  143.79   10.80
  10   1   4  103.99   10.30
  10   1   4  133.49   10.00
  11   1   4   -1.70    3.00
  12   1   4   49.99    6.70
  11  -2  -4   31.20    5.30
  11  -2  -4   36.80    6.10
  11  -2  -4   35.50    4.30
  10  -2  -4  159.68   11.80
  10  -2  -4  156.18   10.80
  10  -2  -4  127.49   12.10
   9  -2  -4   32.70    4.00
   9  -2  -4   47.00    5.70
   9  -2  -4   34.80    4.00
   9  -2  -4   29.40    4.50
   8  -2  -4  106.89    8.40
   8  -2  -4   99.09    8.00
   8  -2  -4  110.69    8.80
   8  -2  -4  123.09    9.30
   7  -2  -4   18.80    2.60
   7  -2  -4   18.00    3.30
   7  -2  -4   20.00    3.00
   7  -2  -4   10.90    2.80
   6  -2  -4  481.65   35.30
   6  -2  -4  584.24   35.20
   6  -2  -4  591.64   35.00
   6  -2  -4  575.84   35.30
   5  -2  -4   33.80    3.40
   5  -2  -4   34.20    3.40
   5  -2  -4   33.60    3.00
   5  -2  -4   31.90    3.50
   5  -2  -4   34.40    3.10
   5  -2  -4   32.50    3.40
   4  -2  -4   60.59    4.40
   4  -2  -4   63.99    4.50
   4  -2  -4   58.49    4.80
   4  -2  -4   62.29    4.90
   4  -2  -4   64.39    4.80
   4  -2  -4   62.19    4.80
  -4   2   4   62.39    4.20
   3  -2  -4  296.07   19.30
   3  -2  -4  318.27   19.20
   3  -2  -4  305.67   19.50
   3  -2  -4  316.27   19.40
   3  -2  -4  300.67   19.10
   3  -2  -4  304.07   19.40
   3  -2  -4  300.27   19.40
   2  -2  -4  181.48   11.90
   2  -2  -4  196.28   11.80
   2  -2  -4  173.98   11.60
   2  -2  -4  189.48   11.70
  -2   2   4  179.98   11.70
   1  -2  -4   73.59    5.00
   1  -2  -4   72.59    4.90
  -1   2   4   71.39    5.00
  -1   2   4   73.09    4.70
   0  -2  -4  416.06   24.90
   0  -2  -4  386.86   25.00
   0  -2  -4  406.76   24.90
   0  -2  -4  403.26   24.70
   0  -2  -4  392.76   25.00
   0   2   4  399.76   24.80
   0   2   4  405.66   25.00
   0   2   4  391.16   24.90
  -1  -2  -4 1204.98   73.59
  -1  -2  -4 1182.38   73.69
  -1  -2  -4 1203.48   73.79
  -1  -2  -4 1214.08   73.69
  -1  -2  -4 1170.58   73.79
   1   2   4 1220.98   73.79
   1   2   4 1192.08   73.69
  -2  -2  -4  103.69    7.10
  -2  -2  -4  113.69    7.10
  -2  -2  -4  110.59    7.30
   2   2   4   98.29    7.20
   2   2   4  101.89    7.00
  -3  -2  -4 1259.27   75.79
  -3  -2  -4 1083.49   75.89
   3   2   4 1268.17   75.69
   3   2   4 1396.06   76.39
   3   2   4 1222.38   76.09
   3   2   4 1161.08   75.79
  -4  -2  -4 2058.29  128.69
  -4  -2  -4 1953.30  128.59
  -4  -2  -4 1859.71  128.79
  -4  -2  -4 2108.79  128.49
   4   2   4 2176.08  128.79
   4   2   4 2090.99  128.39
   4   2   4 2102.99  128.59
   4   2   4 2317.37  128.79
   4   2   4 2139.09  128.29
  -5  -2  -4   83.69    6.40
  -5  -2  -4   82.19    6.70
  -5  -2  -4   83.89    6.10
  -5  -2  -4   83.09    6.10
   5   2   4   84.79    6.50
   5   2   4   79.09    5.90
   5   2   4   74.79    6.10
   5   2   4   95.49    6.70
   5   2   4   90.79    6.30
   5   2   4   80.89    5.80
  -6  -2  -4  575.04   40.30
  -6  -2  -4  744.83   40.20
  -6  -2  -4  609.44   40.10
   6   2   4  654.83   40.10
   6   2   4  639.14   40.60
   6   2   4  669.13   40.50
   6   2   4  593.94   40.30
   6   2   4  626.44   39.90
  -7  -2  -4   85.99    7.30
  -7  -2  -4   95.99    7.90
  -7  -2  -4  102.29    7.60
   7   2   4  103.19    7.80
   7   2   4  101.89    7.50
   7   2   4   97.29    7.20
   7   2   4  105.69    7.90
  -8  -2  -4   42.20    5.10
  -8  -2  -4   40.80    4.60
   8   2   4   37.50    4.70
   8   2   4   46.50    4.30
   8   2   4   46.50    4.60
  -9  -2  -4   11.90    3.30
   9   2   4    7.40    2.70
   9   2   4    8.40    3.10
 -10  -2  -4    0.50    2.80
  10   2   4    1.60    2.50
  10   2   4    0.90    3.00
  11   2   4   -2.40    3.00
  12   2   4   14.90    4.30
  11  -3  -4   -0.70    3.70
  11  -3  -4    2.70    2.40
  11  -3  -4   -0.80    3.10
  10  -3  -4    2.90    2.40
  10  -3  -4   -2.10    2.90
  10  -3  -4    1.60    3.60
   9  -3  -4    2.00    2.80
   9  -3  -4    2.00    2.20
   9  -3  -4    7.00    3.40
   8  -3  -4   13.90    3.60
   8  -3  -4   12.30    2.40
   8  -3  -4    6.90    2.80
   8  -3  -4   11.20    2.40
   8  -3  -4   13.00    2.90
   7  -3  -4    3.50    2.00
   7  -3  -4    2.10    2.10
   7  -3  -4    3.80    2.10
   7  -3  -4    0.70    1.60
   7  -3  -4    0.30    2.20
   6  -3  -4   77.19    6.30
   6  -3  -4   67.69    5.60
   6  -3  -4   68.39    5.40
   6  -3  -4   67.19    5.70
   6  -3  -4   73.39    6.00
   5  -3  -4  245.78   16.90
   5  -3  -4  256.37   16.70
   5  -3  -4  248.18   16.40
   5  -3  -4  266.87   16.50
   5  -3  -4  262.07   16.70
   4  -3  -4  726.43   45.50
   4  -3  -4  711.03   45.70
   4  -3  -4  753.62   45.40
   4  -3  -4  769.22   45.80
   4  -3  -4  733.63   45.40
   4  -3  -4  699.13   45.20
   3  -3  -4  163.68   10.70
   3  -3  -4  166.08   10.60
   3  -3  -4  161.58   10.70
   3  -3  -4  176.68   10.90
   3  -3  -4  163.58   10.40
  -3   3   4  156.98   10.70
   2  -3  -4   29.30    2.30
   2  -3  -4   24.50    2.20
   2  -3  -4   23.50    2.30
   2  -3  -4   23.40    1.90
   2  -3  -4   23.20    2.40
  -2   3   4   26.10    2.20
   1  -3  -4   62.29    4.10
   1  -3  -4   63.09    4.30
   1  -3  -4   57.99    4.30
   1  -3  -4   57.29    4.30
   1  -3  -4   58.69    4.30
  -1   3   4   61.79    4.50
  -1   3   4   61.39    4.00
  -1   3   4   68.59    4.30
   0  -3  -4    3.90    1.10
   0  -3  -4    4.10    1.00
   0  -3  -4    4.80    1.20
   0  -3  -4    3.30    0.90
   0  -3  -4    4.70    1.10
   0  -3  -4    3.80    0.80
   0  -3  -4    4.30    0.80
   0   3   4    3.70    1.00
   0   3   4    3.10    1.00
   0   3   4    5.80    0.90
  -1  -3  -4   32.90    2.70
  -1  -3  -4   30.80    2.80
  -1  -3  -4   33.30    2.60
  -1  -3  -4   31.90    2.40
  -1  -3  -4   27.40    2.70
  -1  -3  -4   28.20    2.60
   1   3   4   31.30    2.60
   1   3   4   32.50    2.50
   1   3   4   27.40    2.50
  -2  -3  -4  843.42   59.39
  -2  -3  -4  996.30   59.29
  -2  -3  -4  976.30   59.09
  -2  -3  -4  973.20   59.29
   2   3   4  983.90   59.09
   2   3   4  952.00   59.19
   2   3   4  985.70   59.29
  -3  -3  -4  586.24   37.80
  -3  -3  -4  649.83   38.00
  -3  -3  -4  626.24   38.20
   3   3   4  591.14   38.00
   3   3   4  589.94   37.70
  -4  -3  -4  116.89    7.90
  -4  -3  -4  100.49    7.50
  -4  -3  -4  101.99    7.30
   4   3   4  115.99    7.30
   4   3   4  102.89    7.40
   4   3   4  102.69    7.30
   4   3   4  103.19    7.60
  -5  -3  -4   17.10    2.60
  -5  -3  -4   13.10    2.00
  -5  -3  -4   26.90    3.30
   5   3   4   14.60    2.10
   5   3   4   13.00    2.40
   5   3   4   14.70    2.50
   5   3   4   18.80    2.20
   5   3   4   16.50    2.80
   5   3   4   14.60    2.20
  -6  -3  -4  195.98   13.50
  -6  -3  -4  188.48   13.20
   6   3   4  200.38   13.30
   6   3   4  205.88   13.60
   6   3   4  204.98   14.00
   6   3   4  191.48   13.50
   6   3   4  197.68   13.10
   6   3   4  200.08   13.00
  -7  -3  -4   87.59    7.00
  -7  -3  -4   75.79    7.20
   7   3   4  108.99    9.00
   7   3   4   83.59    6.80
   7   3   4   85.69    7.00
   7   3   4  104.29    7.50
  -8  -3  -4   40.40    4.30
  -8  -3  -4   25.10    4.00
   8   3   4   30.70    3.90
   8   3   4   33.80    3.80
   8   3   4   28.20    4.30
  -9  -3  -4    5.00    2.60
  -9  -3  -4    2.60    2.70
   9   3   4    6.80    2.50
   9   3   4    4.00    2.30
   9   3   4    0.70    2.70
 -10  -3  -4   52.09    6.20
  10   3   4   48.60    6.10
  11   3   4   21.10    4.40
  12   3   4    2.20    3.60
  11  -4  -4    0.80    3.70
  11  -4  -4    1.20    2.50
 -11   4   4    6.90    3.40
  10  -4  -4    3.80    2.50
  10  -4  -4    4.70    3.20
  10  -4  -4    1.90    3.70
 -10   4   4    0.40    2.80
   9  -4  -4    2.60    2.40
   9  -4  -4    2.80    2.80
   9  -4  -4    0.10    3.20
   8  -4  -4    4.60    2.80
   8  -4  -4    0.00    2.10
   8  -4  -4    3.60    2.60
   8  -4  -4    0.20    2.10
   8  -4  -4    1.50    1.90
   7  -4  -4  125.69    9.10
   7  -4  -4  102.59    9.20
   7  -4  -4  114.09    8.90
   7  -4  -4  125.69    8.80
   7  -4  -4  143.29   10.00
   6  -4  -4   23.10    3.00
   6  -4  -4   22.60    2.80
   6  -4  -4   25.20    3.60
   6  -4  -4   23.50    3.40
   6  -4  -4   23.40    3.20
   5  -4  -4   51.89    4.20
   5  -4  -4   41.40    4.70
   5  -4  -4   54.29    4.70
   5  -4  -4   48.20    4.20
   4  -4  -4  321.17   22.60
   4  -4  -4  381.96   22.50
   4  -4  -4  349.96   23.00
   4  -4  -4  368.46   22.70
   4  -4  -4  367.56   22.80
   3  -4  -4   28.40    3.10
   3  -4  -4   29.10    2.70
   3  -4  -4   30.10    2.50
   3  -4  -4   35.70    2.90
  -3   4   4   31.90    2.50
  -3   4   4   20.40    3.00
   2  -4  -4  124.99    8.30
   2  -4  -4  125.09    8.10
   2  -4  -4  134.19    8.50
   2  -4  -4  118.89    8.10
  -2   4   4  124.29    8.20
   1  -4  -4    0.50    0.90
   1  -4  -4    1.30    0.50
   1  -4  -4    1.00    0.80
   1  -4  -4    2.50    0.90
   1  -4  -4    0.80    1.00
  -1   4   4   -0.10    0.80
  -1   4   4    0.30    1.00
   0  -4  -4  148.19    9.60
   0  -4  -4  149.69    9.40
   0  -4  -4  165.08    9.90
   0  -4  -4  127.69    9.60
   0  -4  -4  153.08    9.70
   0   4   4  146.59    9.70
  -1  -4  -4  426.86   27.20
  -1  -4  -4  417.36   27.20
  -1  -4  -4  435.56   27.10
  -1  -4  -4  459.75   27.50
   1   4   4  439.06   27.20
   1   4   4  444.86   27.20
   1   4   4  424.26   27.20
  -2  -4  -4   -0.10    0.90
  -2  -4  -4    0.20    0.90
  -2  -4  -4    2.10    1.30
  -2  -4  -4   -0.60    0.90
   2   4   4   -0.50    0.80
   2   4   4    0.80    1.30
   2   4   4    1.90    1.10
   2   4   4    0.80    1.10
  -3  -4  -4  150.88   10.40
  -3  -4  -4  143.29   10.20
  -3  -4  -4  180.78   10.80
   3   4   4  164.78   10.50
   3   4   4  152.28   10.50
   3   4   4  143.09   10.20
  -4  -4  -4  551.24   37.80
  -4  -4  -4  582.84   37.60
  -4  -4  -4  588.84   38.10
   4   4   4  604.14   37.70
   4   4   4  587.64   37.90
   4   4   4  683.13   38.00
   4   4   4  601.34   37.60
   4   4   4  626.54   37.70
  -5  -4  -4   55.09    4.70
  -5  -4  -4   55.29    5.00
  -5  -4  -4   60.19    5.50
   5   4   4   58.39    4.60
   5   4   4   61.49    4.80
   5   4   4   55.49    4.60
   5   4   4   58.89    4.90
   5   4   4   55.49    5.40
  -6  -4  -4   -1.90    1.50
  -6  -4  -4    0.70    1.90
   6   4   4    0.90    2.10
   6   4   4    0.40    1.50
   6   4   4   -1.00    1.50
   6   4   4    0.70    1.80
   6   4   4    2.20    1.60
  -7  -4  -4   52.29    5.40
  -7  -4  -4   50.09    4.90
   7   4   4   51.09    4.70
   7   4   4   54.79    5.00
   7   4   4   56.29    5.50
   7   4   4   47.70    7.60
   7   4   4   50.69    4.80
  -8  -4  -4    1.10    2.30
  -8  -4  -4   -1.10    1.90
   8   4   4    1.80    2.50
   8   4   4    3.20    2.20
   8   4   4    5.20    2.30
  -9  -4  -4  134.59   10.60
  -9  -4  -4  123.99   10.80
   9   4   4  158.28   11.10
   9   4   4  154.78   10.50
   9   4   4  127.09   10.30
 -10  -4  -4    0.20    3.70
 -10  -4  -4   -0.10    2.40
  10   4   4    2.40    2.90
  11   4   4   13.70    4.20
  11  -5  -4    5.10    2.70
  11  -5  -4    0.90    4.00
 -11   5   4    0.00    3.10
  10  -5  -4    1.90    3.50
  10  -5  -4    2.00    2.60
 -10   5   4   -0.10    2.70
   9  -5  -4   -1.90    3.10
   9  -5  -4    4.30    2.50
   9  -5  -4    3.40    2.30
  -9   5   4    4.00    2.60
   8  -5  -4   35.80    4.20
   8  -5  -4   38.50    5.40
   8  -5  -4   40.90    4.60
   8  -5  -4   38.10    4.60
  -8   5   4   42.90    4.90
   7  -5  -4   41.00    4.00
   7  -5  -4   40.60    4.40
   7  -5  -4   26.50    4.50
   7  -5  -4   38.10    4.20
  -7   5   4   34.00    4.20
   6  -5  -4   37.90    3.80
   6  -5  -4   31.10    3.80
   6  -5  -4   38.40    4.60
  -6   5   4   44.90    4.30
   5  -5  -4  506.55   31.70
   5  -5  -4  502.15   31.10
   5  -5  -4  475.35   31.10
  -5   5   4  487.05   31.30
   4  -5  -4   -0.50    1.20
   4  -5  -4   -1.20    1.20
   4  -5  -4   -1.80    1.50
   4  -5  -4    1.10    1.10
  -4   5   4    0.60    1.50
   3  -5  -4  175.98   11.80
   3  -5  -4  187.88   11.80
   3  -5  -4  185.58   12.40
   3  -5  -4  182.18   12.10
  -3   5   4  187.68   11.70
   2  -5  -4    7.80    1.50
   2  -5  -4   11.70    1.40
   2  -5  -4    7.90    1.70
   1  -5  -4  505.95   30.70
   1  -5  -4  488.45   30.30
   1  -5  -4  540.35   30.50
   1  -5  -4  419.16   30.80
   1  -5  -4  499.55   30.50
   0  -5  -4    8.60    1.30
   0  -5  -4    8.10    1.70
   0  -5  -4   10.60    1.40
   0  -5  -4    7.90    1.50
   0   5   4    7.40    1.50
  -1  -5  -4   52.99    4.40
  -1  -5  -4   61.09    4.30
  -1  -5  -4   62.29    4.50
  -1  -5  -4   66.29    4.90
  -1  -5  -4   61.09    4.40
   1   5   4   57.49    4.40
   1   5   4   52.89    4.50
   1   5   4   56.49    4.50
  -2  -5  -4  377.56   23.40
  -2  -5  -4  365.06   23.80
  -2  -5  -4  358.46   23.30
  -2  -5  -4  389.96   23.60
   2   5   4  345.47   23.40
   2   5   4  394.66   23.60
  -3  -5  -4   63.59    4.70
  -3  -5  -4   53.79    4.00
  -3  -5  -4   48.60    4.00
  -3  -5  -4   49.60    4.30
   3   5   4   36.80    4.10
   3   5   4   43.30    4.00
   3   5   4   48.60    4.10
  -4  -5  -4  145.49    9.30
  -4  -5  -4  130.49    8.90
  -4  -5  -4  136.29    9.60
   4   5   4  121.49    8.90
   4   5   4  115.59    9.10
   4   5   4  122.99    8.90
   4   5   4  142.09    9.50
  -5  -5  -4    2.70    2.00
  -5  -5  -4    3.10    1.60
  -5  -5  -4    1.70    1.80
   5   5   4    2.80    1.60
   5   5   4    2.20    2.00
   5   5   4    2.40    1.60
   5   5   4    2.40    1.80
   5   5   4    0.80    1.60
  -6  -5  -4   22.20    3.00
  -6  -5  -4   21.20    3.30
   6   5   4   28.40    3.90
   6   5   4   28.90    3.20
   6   5   4   23.20    3.00
   6   5   4   21.30    3.30
   6   5   4   22.90    3.00
  -7  -5  -4   69.59    6.10
  -7  -5  -4   62.39    6.20
   7   5   4   74.89    6.00
   7   5   4   75.49    6.10
   7   5   4   59.59    6.00
   7   5   4   79.49    6.20
  -8  -5  -4    4.70    2.70
  -8  -5  -4    2.90    2.20
   8   5   4    4.30    2.20
   8   5   4    4.10    2.30
   8   5   4    6.20    2.80
  -9  -5  -4   -2.90    2.20
  -9  -5  -4   -0.80    2.50
   9   5   4   -0.90    2.30
   9   5   4   -0.40    2.80
   9   5   4   -0.60    2.20
 -10  -5  -4   25.40    4.10
  10   5   4   13.40    3.50
  10   5   4   19.70    4.30
  11   5   4    5.40    3.70
  10  -6  -4    2.80    2.60
  10  -6  -4    2.10    3.70
 -10   6   4    3.00    3.20
   9  -6  -4    6.10    3.80
   9  -6  -4    8.60    3.10
   9  -6  -4    8.30    2.80
  -9   6   4   10.70    3.30
   8  -6  -4   43.30    5.10
   8  -6  -4   47.20    5.00
   8  -6  -4   50.09    6.10
   8  -6  -4   44.10    4.90
  -8   6   4   42.50    5.20
   7  -6  -4   93.19    8.30
   7  -6  -4   92.09    7.30
   7  -6  -4   86.59    7.30
  -7   6   4   85.49    7.60
   6  -6  -4   22.70    3.00
   6  -6  -4   15.20    2.80
   6  -6  -4   15.70    3.50
  -6   6   4   24.90    3.40
   5  -6  -4   44.00    4.20
   5  -6  -4   35.50    4.50
   5  -6  -4   45.70    4.10
  -5   6   4   35.80    4.10
   4  -6  -4   -1.70    1.30
   4  -6  -4    2.70    1.30
   4  -6  -4    4.20    2.00
  -4   6   4    2.20    1.60
   3  -6  -4   78.39    5.30
   3  -6  -4   67.09    5.40
   3  -6  -4   71.59    5.90
  -3   6   4   69.29    5.70
   2  -6  -4   38.80    3.80
   2  -6  -4   39.80    3.40
   2  -6  -4   35.90    3.20
  -2   6   4   35.20    3.50
  -2   6   4   34.00    3.50
   1  -6  -4  381.36   25.90
   1  -6  -4  429.86   26.00
   1  -6  -4  477.75   26.60
   1  -6  -4  380.96   25.80
  -1   6   4  419.66   26.30
   0  -6  -4  343.77   22.80
   0  -6  -4  386.36   23.20
   0  -6  -4  360.86   22.60
   0  -6  -4  346.67   22.60
   0   6   4  365.16   22.80
   0   6   4  356.26   22.80
  -1  -6  -4  298.47   18.90
  -1  -6  -4  288.67   18.80
  -1  -6  -4  295.27   19.10
  -1  -6  -4  307.77   19.30
  -1  -6  -4  282.17   18.90
   1   6   4  308.17   19.00
   1   6   4  299.67   19.10
  -2  -6  -4   -0.10    1.10
  -2  -6  -4    0.40    1.10
  -2  -6  -4    0.20    1.10
  -2  -6  -4    1.10    1.50
   2   6   4    1.50    1.40
   2   6   4    0.10    1.20
   2   6   4   -0.90    1.20
  -3  -6  -4   32.20    3.20
  -3  -6  -4   33.20    3.20
  -3  -6  -4   29.10    3.40
  -3  -6  -4   34.70    3.90
   3   6   4   32.10    3.30
   3   6   4   35.90    4.10
   3   6   4   34.80    3.60
   3   6   4   34.30    3.20
  -4  -6  -4   58.59    4.90
  -4  -6  -4   39.90    4.90
  -4  -6  -4   51.49    4.40
   4   6   4   46.10    4.50
   4   6   4   53.49    4.60
   4   6   4   57.69    4.80
   4   6   4   57.59    5.00
  -5  -6  -4   72.69    5.80
  -5  -6  -4   79.09    6.30
   5   6   4   70.19    6.10
   5   6   4   76.69    6.00
   5   6   4   75.19    6.00
   5   6   4   66.09    6.30
   5   6   4   71.99    5.90
  -6  -6  -4  367.96   21.50
  -6  -6  -4  318.07   21.00
   6   6   4  326.07   21.00
   6   6   4  303.57   20.90
   6   6   4  339.27   22.60
   6   6   4  288.97   21.20
   6   6   4  316.07   21.00
  -7  -6  -4    0.20    1.90
  -7  -6  -4    1.70    2.30
   7   6   4   -1.20    1.80
   7   6   4   -1.40    2.10
   7   6   4    0.30    1.90
   7   6   4   -1.00    1.90
  -8  -6  -4  128.09   10.10
  -8  -6  -4  132.79    9.80
   8   6   4  119.39   10.00
   8   6   4  135.59    9.60
   8   6   4  119.89    9.60
   8   6   4  123.29    9.50
  -9  -6  -4    5.30    2.50
  -9  -6  -4    5.00    3.00
   9   6   4    4.40    2.60
   9   6   4   11.20    3.50
   9   6   4   11.30    3.00
 -10  -6  -4  117.59    9.80
  10   6   4  123.29   10.40
  10   6   4  116.39    9.80
  11   6   4    9.10    3.90
  10  -7  -4   25.00    4.40
  10  -7  -4   28.10    5.90
 -10   7   4   31.60    4.90
   9  -7  -4   60.09    7.50
   9  -7  -4   52.39    6.00
  -9   7   4   55.79    6.10
   8  -7  -4   45.70    5.30
   8  -7  -4   48.90    6.30
   8  -7  -4   51.49    5.30
   8  -7  -4   37.50    4.80
  -8   7   4   43.80    5.20
   7  -7  -4    2.20    2.20
   7  -7  -4    2.20    2.40
   7  -7  -4    3.40    3.00
  -7   7   4    0.70    2.20
   6  -7  -4   11.80    2.50
   6  -7  -4    6.30    2.90
   6  -7  -4    8.90    2.60
  -6   7   4   12.80    2.70
   5  -7  -4    3.90    2.50
   5  -7  -4    3.10    1.80
  -5   7   4    3.90    2.20
   4  -7  -4   85.09    6.60
   4  -7  -4   87.89    6.90
   4  -7  -4   99.49    7.60
  -4   7   4   96.99    7.20
   3  -7  -4   86.59    6.30
   3  -7  -4   78.49    6.50
   3  -7  -4   91.89    7.20
  -3   7   4   95.39    6.80
   2  -7  -4   59.19    4.60
   2  -7  -4   53.89    5.10
   2  -7  -4   56.29    4.40
  -2   7   4   60.79    4.80
  -2   7   4   48.30    4.70
   1  -7  -4  117.69    7.80
   1  -7  -4  109.69    7.80
   1  -7  -4  102.69    7.50
   1  -7  -4  116.39    8.30
  -1   7   4  117.29    8.10
  -1   7   4  118.49    8.10
   0  -7  -4    2.00    1.10
   0  -7  -4    2.30    1.30
   0  -7  -4    2.00    1.30
   0  -7  -4    2.20    1.70
   0   7   4    1.40    1.60
   0   7   4    1.50    1.40
  -1  -7  -4  654.23   40.70
  -1  -7  -4  698.33   41.30
  -1  -7  -4  646.64   40.80
  -1  -7  -4  618.44   40.90
  -1  -7  -4  626.44   40.70
   1   7   4  701.43   41.00
   1   7   4  665.93   40.80
   1   7   4  612.04   40.90
  -2  -7  -4    0.20    1.40
  -2  -7  -4    0.90    1.30
  -2  -7  -4    2.40    1.70
  -2  -7  -4    1.90    1.30
   2   7   4    0.30    1.50
   2   7   4    0.60    1.50
   2   7   4    1.20    1.30
  -3  -7  -4    0.20    1.60
  -3  -7  -4   -1.10    1.30
  -3  -7  -4    2.00    1.40
  -3  -7  -4    1.60    1.90
   3   7   4    0.90    1.60
   3   7   4    1.20    1.50
   3   7   4   -0.10    1.70
  -4  -7  -4  206.68   14.10
  -4  -7  -4  222.38   14.50
   4   7   4  236.68   14.50
   4   7   4  204.18   14.20
   4   7   4  199.58   14.20
  -5  -7  -4    3.30    2.20
  -5  -7  -4    0.60    1.60
   5   7   4    4.90    2.00
   5   7   4    3.10    1.80
   5   7   4    2.10    1.80
   5   7   4    2.70    2.10
  -6  -7  -4    1.10    1.70
  -6  -7  -4    2.20    2.20
   6   7   4    2.20    2.00
   6   7   4   -0.70    1.90
   6   7   4    0.40    1.80
   6   7   4   -1.50    2.20
  -7  -7  -4   -0.50    2.00
  -7  -7  -4    3.00    2.50
   7   7   4    0.40    2.20
   7   7   4    0.80    2.10
   7   7   4    0.70    2.40
   7   7   4    2.40    2.10
  -8  -7  -4    4.40    2.40
  -8  -7  -4    8.00    3.00
   8   7   4    7.30    2.70
   8   7   4    6.60    3.00
   8   7   4    2.30    2.50
   8   7   4    6.00    2.50
  -9  -7  -4   10.30    3.10
  -9  -7  -4    6.40    3.60
   9   7   4   10.90    3.20
   9   7   4    6.30    3.40
  10   7   4    6.50    3.70
  10   7   4    9.70    3.50
  11   7   4    2.70    3.50
  11   7   4    1.20    3.10
  10  -8  -4   18.30    4.00
  10  -8  -4   19.30    5.30
   9  -8  -4   10.80    3.60
   9  -8  -4   18.00    4.80
  -9   8   4   15.20    3.70
   8  -8  -4    5.50    2.70
   8  -8  -4    4.70    3.50
   8  -8  -4    5.30    2.50
  -8   8   4    3.30    2.80
  -8   8   4    2.80    3.50
   7  -8  -4    3.40    3.20
   7  -8  -4    4.60    2.30
   7  -8  -4    6.80    2.60
  -7   8   4    3.50    2.60
   6  -8  -4   -0.50    2.00
   6  -8  -4    1.90    2.80
   6  -8  -4   -0.60    2.10
  -6   8   4    0.50    2.20
   5  -8  -4   83.29    7.50
   5  -8  -4   70.89    6.40
  -5   8   4   74.89    6.60
   4  -8  -4  136.49    9.70
   4  -8  -4  124.39   10.40
   4  -8  -4  147.39    9.40
  -4   8   4  132.09    9.80
   3  -8  -4   24.20    3.80
   3  -8  -4   28.70    3.30
   3  -8  -4   43.30    3.50
  -3   8   4   32.60    3.60
   2  -8  -4   50.19    4.40
   2  -8  -4   55.19    4.40
   2  -8  -4   49.00    5.20
  -2   8   4   54.69    4.80
  -2   8   4   50.79    4.80
   1  -8  -4  235.68   13.90
   1  -8  -4  203.68   14.30
   1  -8  -4  209.68   14.20
  -1   8   4  202.28   14.40
  -1   8   4  230.08   14.60
   0  -8  -4    0.20    1.40
   0  -8  -4    0.50    1.20
   0  -8  -4    0.40    1.70
   0  -8  -4   -1.00    1.20
   0   8   4    2.40    1.80
   0   8   4    0.00    1.30
  -1  -8  -4   44.40    4.30
  -1  -8  -4   42.40    3.90
  -1  -8  -4   45.40    4.10
  -1  -8  -4   53.09    4.80
  -1  -8  -4   34.20    3.70
   1   8   4   49.10    4.40
   1   8   4   47.40    4.20
   1   8   4   42.10    4.00
  -2  -8  -4  185.58   11.80
  -2  -8  -4  191.48   12.20
  -2  -8  -4  162.68   12.30
  -2  -8  -4  171.78   11.80
   2   8   4  177.08   12.00
   2   8   4  147.39   11.90
   2   8   4  196.58   11.90
  -3  -8  -4    7.70    2.50
  -3  -8  -4    7.20    2.00
  -3  -8  -4    8.10    1.80
  -3  -8  -4    7.30    1.90
   3   8   4    8.80    2.40
   3   8   4    9.90    2.10
   3   8   4    9.90    2.30
  -4  -8  -4   -3.30    1.60
  -4  -8  -4    2.00    1.70
   4   8   4    2.60    1.70
   4   8   4    1.50    1.90
   4   8   4   -2.70    1.70
  -5  -8  -4   13.00    2.50
  -5  -8  -4    9.10    2.40
   5   8   4    8.70    2.50
   5   8   4    9.30    2.70
   5   8   4    8.20    2.30
   5   8   4   13.20    2.70
  -6  -8  -4   20.70    3.20
  -6  -8  -4   14.80    3.40
   6   8   4   18.50    3.20
   6   8   4   22.00    3.50
   6   8   4   24.10    3.50
   6   8   4   20.70    3.10
  -7  -8  -4    4.50    2.80
  -7  -8  -4    2.80    2.30
   7   8   4    4.50    2.50
   7   8   4    2.40    2.30
   7   8   4    2.40    2.60
   7   8   4    1.20    2.40
  -8  -8  -4   10.50    2.90
  -8  -8  -4    5.30    3.10
   8   8   4   14.90    3.00
   8   8   4    5.00    2.90
   8   8   4    5.80    3.00
   8   8   4    3.20    2.60
  -9  -8  -4   17.00    3.60
   9   8   4    9.30    3.30
   9   8   4    7.90    3.50
  10   8   4    2.40    3.00
  10   8   4    8.00    3.50
   9  -9  -4   21.70    5.20
   9  -9  -4   17.10    4.00
  -9   9   4   13.80    3.90
   8  -9  -4    4.60    3.90
   8  -9  -4   10.80    3.30
  -8   9   4    8.30    4.10
  -8   9   4    8.60    3.30
   7  -9  -4  143.59   11.40
   7  -9  -4  163.78   12.80
   7  -9  -4  157.18   11.50
  -7   9   4  148.79   11.50
   6  -9  -4    2.30    2.30
   6  -9  -4    0.70    2.10
   6  -9  -4   -0.30    2.90
  -6   9   4    1.40    2.40
   5  -9  -4   34.30    5.10
   5  -9  -4   33.80    4.10
  -5   9   4   32.00    4.20
   4  -9  -4   57.89    5.80
   4  -9  -4   64.69    6.40
   4  -9  -4   59.39    5.20
  -4   9   4   42.30    5.10
   3  -9  -4   37.70    4.90
   3  -9  -4   45.70    4.10
   3  -9  -4   35.40    3.90
  -3   9   4   34.80    4.20
   2  -9  -4  239.28   16.50
   2  -9  -4  268.47   17.50
   2  -9  -4  253.07   16.70
  -2   9   4  215.88   16.70
  -2   9   4  295.47   17.20
   1  -9  -4   51.59    4.60
   1  -9  -4   43.70    4.40
   1  -9  -4   50.49    5.30
  -1   9   4   51.49    5.00
  -1   9   4   63.49    5.20
   0  -9  -4    3.50    1.70
   0  -9  -4    5.60    2.30
   0  -9  -4    6.30    1.80
   0  -9  -4    6.50    1.60
   0   9   4    5.10    1.20
   0   9   4    2.60    1.90
   0   9   4    2.90    2.00
  -1  -9  -4   19.70    2.50
  -1  -9  -4   23.30    2.80
  -1  -9  -4   22.20    2.80
  -1  -9  -4   20.40    3.30
  -1  -9  -4   19.10    3.00
   1   9   4   24.30    2.90
   1   9   4   22.10    3.20
   1   9   4   22.40    3.10
  -2  -9  -4    1.90    1.90
  -2  -9  -4   -0.70    2.00
  -2  -9  -4    4.70    1.80
  -2  -9  -4    2.30    1.60
   2   9   4    0.70    1.70
   2   9   4    1.60    2.00
   2   9   4    3.60    2.00
  -3  -9  -4   46.90    4.50
  -3  -9  -4   53.59    5.00
  -3  -9  -4   48.30    4.40
   3   9   4   51.29    5.00
   3   9   4   46.90    4.60
   3   9   4   38.70    4.60
  -4  -9  -4   38.40    4.50
  -4  -9  -4   32.40    3.90
   4   9   4   32.00    3.80
   4   9   4   40.10    4.50
   4   9   4   36.40    4.20
  -5  -9  -4   13.30    2.60
  -5  -9  -4    8.10    2.80
   5   9   4   10.80    2.70
   5   9   4   13.40    2.90
   5   9   4   14.00    3.00
   5   9   4   14.40    3.00
  -6  -9  -4   69.89    6.10
  -6  -9  -4   56.79    6.20
   6   9   4   57.79    6.20
   6   9   4   65.29    6.20
   6   9   4   59.59    6.00
   6   9   4   66.89    6.00
  -7  -9  -4   10.90    3.20
  -7  -9  -4    7.90    2.70
   7   9   4    8.20    2.90
   7   9   4    4.30    2.70
   7   9   4    6.60    2.50
   7   9   4    5.80    3.00
  -8  -9  -4    6.90    3.10
  -8  -9  -4    2.20    2.50
   8   9   4    2.50    2.80
   8   9   4    0.20    2.60
   8   9   4    3.70    3.00
  -9  -9  -4    3.20    2.90
   9   9   4    4.40    3.20
   9   9   4    8.90    3.30
  10   9   4   17.30    4.10
  10   9   4   11.80    3.90
   9 -10  -4   55.69    6.50
   9 -10  -4   65.09    8.40
   8 -10  -4   -0.30    3.40
   8 -10  -4    1.40    2.80
  -8  10   4   -0.30    2.80
  -8  10   4   -2.90    3.50
   7 -10  -4    0.00    3.40
   7 -10  -4    0.30    2.50
  -7  10   4    2.80    2.80
   6 -10  -4    0.60    3.10
   6 -10  -4    0.90    2.30
   6 -10  -4   -0.90    2.40
  -6  10   4    3.40    2.60
   5 -10  -4    1.90    2.10
   5 -10  -4    3.40    3.10
  -5  10   4    1.70    2.50
   4 -10  -4    2.30    2.90
   4 -10  -4   -0.90    1.80
  -4  10   4    0.60    2.20
   3 -10  -4    3.70    2.70
   3 -10  -4    3.00    1.80
   3 -10  -4    0.80    1.80
  -3  10   4   -2.40    2.00
   2 -10  -4  269.77   18.90
   2 -10  -4  279.77   18.00
   2 -10  -4  287.07   18.20
  -2  10   4  273.77   18.40
  -2  10   4  262.17   18.50
   1 -10  -4    5.60    2.70
   1 -10  -4    4.60    1.90
   1 -10  -4    3.10    1.90
  -1  10   4    2.90    2.30
  -1  10   4    4.50    2.30
   0 -10  -4  224.88   14.60
   0 -10  -4  194.88   13.70
   0 -10  -4  204.58   13.70
   0  10   4  192.38   14.10
   0  10   4  198.78   14.00
  -1 -10  -4  262.87   17.40
  -1 -10  -4  285.47   17.60
  -1 -10  -4  273.17   17.60
  -1 -10  -4  238.88   18.20
   1  10   4  266.47   18.00
   1  10   4  273.47   17.90
   1  10   4  270.97   17.70
  -2 -10  -4  130.19    9.30
  -2 -10  -4  124.39    9.20
  -2 -10  -4  140.89    9.90
   2  10   4  130.89    9.70
   2  10   4  114.79    9.30
   2  10   4  131.69    9.70
  -3 -10  -4   10.40    2.20
  -3 -10  -4    7.30    2.60
  -3 -10  -4   13.20    2.60
   3  10   4   10.50    2.80
   3  10   4   10.50    2.90
   3  10   4   14.00    2.60
  -4 -10  -4   59.99    5.50
  -4 -10  -4   53.29    6.10
   4  10   4   70.29    5.80
   4  10   4   50.09    5.60
   4  10   4   60.19    6.10
  -5 -10  -4   86.19    7.40
  -5 -10  -4   87.39    7.00
   5  10   4   76.29    7.10
   5  10   4   76.19    6.80
   5  10   4   68.29    7.10
   5  10   4   78.09    7.10
  -6 -10  -4   33.40    4.40
  -6 -10  -4   34.30    4.80
   6  10   4   35.00    4.70
   6  10   4   40.90    4.60
   6  10   4   32.60    4.70
   6  10   4   45.00    5.20
  -7 -10  -4   34.10    4.60
  -7 -10  -4   32.50    5.10
   7  10   4   31.30    4.90
   7  10   4   34.00    4.80
   7  10   4   43.70    5.20
   7  10   4   40.30    4.70
  -8 -10  -4    8.00    3.10
   8  10   4    8.00    3.30
   8  10   4    7.20    3.20
   8  10   4   14.00    3.70
   9  10   4   53.29    6.10
   9  10   4   36.50    5.70
   9  10   4   50.29    6.10
   8 -11  -4    9.80    4.60
   8 -11  -4    7.50    3.50
  -8  11   4    8.60    3.50
   7 -11  -4    7.10    4.20
   7 -11  -4    9.70    3.50
  -7  11   4   11.30    3.50
   6 -11  -4   11.30    3.40
   6 -11  -4    8.80    3.50
   6 -11  -4   13.10    4.30
  -6  11   4    2.00    2.90
   5 -11  -4    1.30    3.30
   5 -11  -4   -2.10    2.10
  -5  11   4    0.90    2.70
   4 -11  -4   61.89    7.10
   4 -11  -4   63.19    5.90
  -4  11   4   59.79    6.20
   3 -11  -4   -1.00    1.90
   3 -11  -4    3.70    2.90
   3 -11  -4   -3.50    1.80
  -3  11   4    0.50    2.40
   2 -11  -4    0.40    1.90
   2 -11  -4    2.00    2.80
   2 -11  -4    1.80    2.00
  -2  11   4   -0.50    2.20
  -2  11   4    2.80    2.50
   1 -11  -4  106.49    9.90
   1 -11  -4  122.99    9.10
   1 -11  -4  122.69    9.10
  -1  11   4  134.39    9.70
  -1  11   4  131.89    9.70
   0 -11  -4   87.69    7.00
   0 -11  -4   79.89    6.90
   0 -11  -4   95.89    8.50
   0  11   4   87.39    7.50
   0  11   4   90.19    7.70
  -1 -11  -4   -0.80    1.70
  -1 -11  -4   -1.80    1.70
   1  11   4   -0.30    1.80
   1  11   4    1.30    2.20
   1  11   4   -1.10    1.90
  -2 -11  -4   97.39    7.70
  -2 -11  -4  101.39    8.30
  -2 -11  -4   88.69    7.40
   2  11   4   94.09    7.70
   2  11   4   97.09    8.00
   2  11   4   97.59    8.20
  -3 -11  -4   34.80    3.90
  -3 -11  -4   32.30    4.60
  -3 -11  -4   37.90    4.20
   3  11   4   40.20    4.70
   3  11   4   38.90    4.30
   3  11   4   29.00    4.30
  -4 -11  -4  265.07   20.90
  -4 -11  -4  308.87   20.70
   4  11   4  338.27   21.20
   4  11   4  318.37   21.00
   4  11   4  324.07   20.70
  -5 -11  -4   71.89    7.10
  -5 -11  -4   85.29    7.80
   5  11   4   82.39    7.50
   5  11   4   79.29    7.00
   5  11   4   80.89    7.60
   5  11   4   86.99    7.60
  -6 -11  -4   45.50    5.60
  -6 -11  -4   46.00    5.30
   6  11   4   49.80    5.20
   6  11   4   40.50    5.30
   6  11   4   44.00    5.50
   6  11   4   43.00    5.70
  -7 -11  -4   38.00    5.30
  -7 -11  -4   30.30    4.40
   7  11   4   28.80    4.70
   7  11   4   26.00    4.90
   7  11   4   33.90    5.00
   8  11   4   11.80    3.60
   8  11   4   14.40    3.90
   8  11   4   16.00    4.20
   9  11   4   45.50    6.10
   9  11   4   39.90    5.60
   9  11   4   31.90    5.40
   7 -12  -4   55.69    6.30
  -7  12   4   40.80    5.70
   6 -12  -4   21.50    4.30
  -6  12   4   21.60    4.30
   5 -12  -4   63.99    7.60
  -5  12   4   44.30    5.80
   4 -12  -4   13.00    3.10
   4 -12  -4   13.50    4.30
  -4  12   4   22.60    3.90
   3 -12  -4  259.17   18.00
   3 -12  -4  273.27   19.80
  -3  12   4  263.47   18.30
   2 -12  -4  260.37   17.10
   2 -12  -4  254.07   17.20
  -2  12   4  241.88   17.50
  -2  12   4  257.37   17.80
   1 -12  -4   97.99    7.70
   1 -12  -4   94.79    7.70
  -1  12   4  104.79    8.50
  -1  12   4   81.39    8.10
   0 -12  -4  145.99   10.60
   0 -12  -4  150.58   10.40
   0  12   4  128.69   10.90
   0  12   4  135.59   11.00
   0  12   4  150.78   10.60
  -1 -12  -4  136.59   10.70
  -1 -12  -4  142.09   10.90
   1  12   4  154.58   11.50
   1  12   4  154.28   11.10
   1  12   4  162.38   11.50
  -2 -12  -4  138.29   10.20
  -2 -12  -4  150.08   10.60
   2  12   4  151.88   10.70
   2  12   4  134.79   11.00
   2  12   4  129.69   10.80
  -3 -12  -4  214.98   14.60
  -3 -12  -4  223.78   15.60
  -3 -12  -4  209.58   14.90
   3  12   4  207.38   15.40
   3  12   4  198.38   15.20
   3  12   4  225.38   14.90
  -4 -12  -4   -2.70    2.20
  -4 -12  -4    0.30    2.80
   4  12   4    2.00    2.80
   4  12   4   -1.10    2.60
   4  12   4    3.90    2.40
  -5 -12  -4   11.10    3.60
  -5 -12  -4    6.80    2.70
   5  12   4    3.80    2.70
   5  12   4   12.20    3.50
   5  12   4    6.50    3.30
  -6 -12  -4   13.80    3.30
  -6 -12  -4    8.30    3.50
   6  12   4   12.50    3.70
   6  12   4   12.90    3.80
   6  12   4   13.90    3.70
   6  12   4    9.10    3.70
   7  12   4    2.40    3.20
   7  12   4   -4.00    2.70
   7  12   4    3.10    3.30
   8  12   4    8.10    3.50
   8  12   4    3.90    3.50
   8  12   4    6.70    3.70
   7 -13  -4    2.00    3.10
  -7  13   4    1.90    3.30
   6 -13  -4   41.70    5.90
  -6  13   4   46.20    5.80
  -5  13   4   29.50    4.80
  -4  13   4  128.99   10.50
   3 -13  -4    5.90    2.50
  -3  13   4   -0.90    3.00
   2 -13  -4    0.30    2.20
   2 -13  -4    2.60    2.30
  -2  13   4    0.70    2.80
  -2  13   4   -2.50    2.70
   1 -13  -4    0.40    2.20
   1 -13  -4    0.60    2.20
  -1  13   4   -3.60    2.50
  -1  13   4   -2.30    2.90
   0 -13  -4   15.60    2.90
   0 -13  -4   10.90    2.90
   0  13   4   16.60    3.80
   0  13   4    8.30    3.50
   0  13   4   17.50    3.40
  -1 -13  -4    8.40    2.70
  -1 -13  -4    1.40    2.10
   1  13   4    7.30    3.20
   1  13   4    9.90    3.40
   1  13   4    4.30    2.50
  -2 -13  -4   82.89    7.20
  -2 -13  -4   79.29    7.50
   2  13   4   92.09    7.60
   2  13   4   89.09    8.20
   2  13   4   85.79    8.20
  -3 -13  -4  127.19   10.00
  -3 -13  -4  143.19    9.70
   3  13   4  106.89   10.20
   3  13   4  132.49   10.00
   3  13   4  119.49   10.40
  -4 -13  -4   22.00    4.50
  -4 -13  -4   27.80    4.20
   4  13   4   30.70    4.90
   4  13   4   26.30    4.50
   4  13   4   23.10    4.40
   4  13   4   24.20    4.00
  -5 -13  -4  141.19   11.70
  -5 -13  -4  135.29   11.10
   5  13   4  150.18   11.90
   5  13   4  141.39   11.00
   5  13   4  145.39   11.70
   5  13   4  147.69   11.80
  -6 -13  -4   83.89    8.80
   6  13   4   75.59    8.20
   6  13   4   74.69    8.00
   6  13   4   95.29    8.70
   7  13   4  375.56   25.50
   7  13   4  360.76   25.40
   7  13   4  377.56   25.50
  -5  14   4   15.60    4.30
  -4  14   4   27.80    5.00
  -3  14   4    0.90    3.30
  -2  14   4   16.10    4.10
  -2  14   4    6.50    3.60
   1 -14  -4   -1.20    2.00
   1 -14  -4   -1.20    2.30
  -1  14   4   -3.00    2.80
  -1  14   4   -2.40    2.90
  -1  14   4    2.70    2.60
   0 -14  -4    6.70    2.60
   0 -14  -4    6.50    2.80
   0  14   4    3.10    2.60
   0  14   4    9.90    3.70
   0  14   4    1.10    3.20
  -1 -14  -4  212.28   14.90
  -1 -14  -4  208.08   14.50
   1  14   4  215.58   15.40
   1  14   4  208.98   14.90
   1  14   4  190.78   15.30
  -2 -14  -4  154.88   11.80
  -2 -14  -4  158.28   11.40
   2  14   4  147.49   11.80
   2  14   4  149.59   12.40
   2  14   4  170.48   12.50
  -3 -14  -4  233.38   15.90
   3  14   4  217.88   15.80
   3  14   4  213.68   16.40
   3  14   4  224.78   16.30
  -4 -14  -4  630.04   40.70
   4  14   4  617.24   40.50
   4  14   4  642.04   41.20
   4  14   4  613.64   41.00
   4  14   4  647.54   41.10
  -5 -14  -4  296.97   20.90
   5  14   4  266.17   20.40
   5  14   4  302.27   20.60
   5  14   4  294.47   20.60
   6  14   4  290.17   20.90
   6  14   4  282.57   20.90
   6  14   4  313.27   21.20
  -4  15   4    3.70    3.60
  -3  15   4   82.49    8.50
  -2  15   4   69.29    7.60
  -2  15   4   65.99    7.80
  -1  15   4  365.96   24.60
  -1  15   4  337.27   24.20
   0 -15  -4  266.67   18.10
   0  15   4  268.97   18.30
   0  15   4  248.58   18.90
   0  15   4  249.38   18.50
  -1 -15  -4  297.07   20.60
   1  15   4  313.67   20.80
   1  15   4  309.67   21.40
   1  15   4  284.37   21.20
  -2 -15  -4  464.85   32.70
   2  15   4  485.35   32.00
   2  15   4  471.45   32.10
   2  15   4  498.65   32.30
   3  15   4  157.08   12.70
   3  15   4  151.18   12.50
   4  15   4   90.09    9.00
   4  15   4   81.89    8.60
   4  15   4   84.99    8.80
   5  15   4   72.69    7.70
   5  15   4   65.19    7.60
   5  15   4   57.99    7.40
  -2  16   4  336.97   24.20
  -2  16   4  367.96   25.00
  -1  16   4  193.18   14.90
  -1  16   4  175.78   14.30
   0  16   4  237.38   19.20
   0  16   4  296.17   19.30
   1  16   4   23.60    5.20
   1  16   4   43.20    5.80
   2  16   4   21.40    4.90
   2  16   4   16.70    4.40
   3  14  -5   83.29    8.90
   3  14  -5  105.89   10.50
   3  14  -5  104.49    8.40
   2  14  -5   45.00    6.80
   2  14  -5   39.90    5.10
   1  14  -5  141.09   12.80
   1  14  -5  148.39   11.30
   0  14  -5   16.40    4.90
   0  14  -5   10.20    3.40
  -1  14  -5   46.40    7.40
  -1  14  -5   70.69    6.80
  -2  14  -5   59.79    7.90
  -2  14  -5   41.80    5.90
  -3  14  -5  129.39   10.90
   5  13  -5   40.00    5.20
   5  13  -5   27.70    5.50
   5  13  -5   44.90    6.40
   4  13  -5  103.29    9.30
   4  13  -5  104.59    8.40
   4  13  -5  120.19   10.60
   4  13  -5   94.19    9.10
   3  13  -5   50.29    6.90
   3  13  -5   42.50    5.40
   3  13  -5   38.20    4.80
   3  13  -5   46.00    5.80
   2  13  -5   12.40    3.10
   2  13  -5   -1.20    3.30
  -2 -13   5    8.70    3.00
   1  13  -5   -2.10    3.20
   1  13  -5    4.60    2.80
  -1 -13   5    6.80    2.70
   0  13  -5   -1.00    3.30
   0  13  -5    0.10    2.60
   0 -13   5    0.30    2.30
  -1  13  -5   79.39    7.90
  -1  13  -5  103.79    9.80
   1 -13   5   81.99    7.80
  -2  13  -5    7.70    3.50
  -2  13  -5   13.00    4.40
   2 -13   5   16.00    3.70
  -3  13  -5  110.19    9.80
  -3  13  -5  114.89   11.20
  -3  13  -5  103.79    9.60
  -4  13  -5    2.80    3.40
  -5  13  -5   85.19    8.70
   6  12  -5  105.59   10.40
   6  12  -5  120.19   10.10
   5  12  -5   40.50    4.30
   5  12  -5   38.10    5.20
   5  12  -5   38.40    5.80
   4  12  -5   31.60    4.60
   4  12  -5   31.60    4.60
   4  12  -5   28.50    4.90
   4  12  -5   28.90    3.80
   4  12  -5   22.60    4.20
  -4 -12   5   22.20    3.80
   3  12  -5    8.50    3.10
   3  12  -5    9.40    2.70
   3  12  -5    6.90    3.30
   3  12  -5   10.30    3.80
  -3 -12   5   13.00    3.00
   2  12  -5    3.90    2.50
   2  12  -5    6.40    3.50
   2  12  -5    3.20    2.50
  -2 -12   5    5.50    2.40
   1  12  -5  135.39   12.40
   1  12  -5  169.18   11.70
  -1 -12   5  166.78   11.60
   0  12  -5  121.69    9.70
   0  12  -5  134.89   10.90
   0 -12   5  106.69    9.30
  -1  12  -5  212.58   15.50
  -1  12  -5  170.68   13.90
   1 -12   5  206.78   14.00
  -2  12  -5   39.30    5.10
  -2  12  -5   37.10    5.80
  -2  12  -5   41.80    5.40
   2 -12   5   45.10    5.10
  -3  12  -5   49.99    6.00
  -3  12  -5   51.49    6.10
  -3  12  -5   39.80    6.60
   3 -12   5   54.79    5.60
  -4  12  -5  138.09   12.80
  -4  12  -5  161.98   12.50
  -4  12  -5  153.78   12.10
   4 -12   5  154.48   11.60
  -5  12  -5    4.80    3.70
  -5  12  -5   10.10    4.80
  -6  12  -5   16.70    4.40
   7  11  -5   13.70    3.90
   7  11  -5    9.90    3.90
   6  11  -5    0.90    2.90
   6  11  -5   -0.70    3.20
   5  11  -5    9.70    3.30
   5  11  -5    4.60    3.20
   5  11  -5    6.40    2.30
  -5 -11   5    5.90    2.40
   4  11  -5   10.00    3.50
   4  11  -5    9.80    2.50
   4  11  -5   10.60    3.20
   4  11  -5    8.90    3.10
   4  11  -5   10.50    3.20
  -4 -11   5    6.30    2.50
   3  11  -5  147.59   11.10
   3  11  -5  151.88   11.70
   3  11  -5  145.29   11.30
   3  11  -5  148.19   10.50
   3  11  -5  146.09   10.80
  -3 -11   5  138.49   10.70
   2  11  -5  107.59    8.40
   2  11  -5  100.19    9.40
   2  11  -5  118.29    8.70
  -2 -11   5  104.39    8.40
   1  11  -5  132.99   10.00
   1  11  -5  147.79   11.30
   1  11  -5  128.29   10.10
  -1 -11   5  132.79   10.00
   0  11  -5   21.10    4.10
   0  11  -5   23.10    3.60
   0 -11   5   19.20    3.30
  -1  11  -5    3.00    2.40
  -1  11  -5   -0.90    2.60
  -1  11  -5    1.10    2.70
   1 -11   5   -0.40    2.00
  -2  11  -5   80.89    9.00
  -2  11  -5   99.59    8.30
  -2  11  -5  103.49    8.60
   2 -11   5  105.19    8.10
  -3  11  -5   12.00    3.60
  -3  11  -5   13.00    3.40
  -3  11  -5   13.10    4.10
   3 -11   5   12.80    3.00
  -4  11  -5   12.70    3.70
  -4  11  -5    5.60    3.20
  -4  11  -5    6.30    3.60
   4 -11   5    5.60    2.60
  -5  11  -5   79.79    7.70
  -5  11  -5   79.09    8.10
   5 -11   5   62.59    6.70
   5 -11   5   54.69    7.90
  -6  11  -5   24.80    4.50
  -6  11  -5   17.40    4.50
   6 -11   5    7.30    3.50
  -7  11  -5    0.20    3.40
   8  10  -5   44.70    5.70
   8  10  -5   32.50    5.70
   7  10  -5    4.30    3.00
   7  10  -5   -1.80    3.10
   6  10  -5    8.30    3.60
   6  10  -5    7.50    3.30
   6  10  -5    9.80    2.30
  -6 -10   5   12.00    2.80
   5  10  -5   14.60    2.50
   5  10  -5   17.90    4.00
   5  10  -5   11.40    3.10
   5  10  -5   11.70    3.50
  -5 -10   5    8.40    2.50
   4  10  -5  372.06   24.00
   4  10  -5  362.76   23.40
   4  10  -5  339.87   22.70
   4  10  -5  324.27   23.30
   4  10  -5  354.46   23.50
  -4 -10   5  365.36   23.10
   3  10  -5   -1.10    1.90
   3  10  -5   -1.90    2.30
   3  10  -5   -1.80    2.20
   3  10  -5    3.30    2.20
   3  10  -5   -1.90    2.00
  -3 -10   5    1.20    1.90
   2  10  -5  106.39    8.50
   2  10  -5  109.99    8.80
   2  10  -5  132.69    9.70
   2  10  -5  122.29    8.80
  -2 -10   5  108.99    8.60
   1  10  -5  259.67   16.80
   1  10  -5  247.38   17.70
   1  10  -5  250.97   16.80
  -1 -10   5  243.48   16.70
   0  10  -5  107.19    8.20
   0  10  -5  108.59    9.10
   0 -10   5  101.99    8.10
  -1  10  -5  153.58   11.00
  -1  10  -5  166.98   10.90
  -1  10  -5  113.99   11.20
   1 -10   5  160.08   10.70
  -2  10  -5    3.20    2.90
  -2  10  -5    1.40    2.20
  -2  10  -5    5.50    2.80
   2 -10   5    9.20    2.40
  -3  10  -5  104.09    8.60
  -3  10  -5   84.59    8.80
  -3  10  -5  110.49    8.50
   3 -10   5   97.39    7.90
  -4  10  -5   83.59    7.60
  -4  10  -5   84.09    8.30
  -4  10  -5  100.29    8.60
   4 -10   5   80.19    6.80
   4 -10   5   70.89    7.00
  -5  10  -5    8.20    3.80
  -5  10  -5    0.10    3.00
  -5  10  -5    0.10    3.10
   5 -10   5    7.10    2.70
   5 -10   5    1.50    2.20
  -6  10  -5    2.70    3.50
  -6  10  -5    4.40    3.30
   6 -10   5    1.30    2.70
  -7  10  -5   47.90    6.40
  -7  10  -5   44.80    6.60
   7 -10   5   45.00    5.80
  -8  10  -5   29.10    5.40
   8   9  -5    7.50    3.70
   8   9  -5   15.50    3.90
   7   9  -5    0.20    2.80
   7   9  -5   -0.90    2.90
  -7  -9   5    1.00    2.10
   6   9  -5   63.19    6.80
   6   9  -5   51.69    4.90
   6   9  -5   64.39    6.30
  -6  -9   5   59.79    5.50
   5   9  -5    3.30    2.70
   5   9  -5    4.90    2.50
   5   9  -5    1.50    2.20
   5   9  -5    3.10    1.80
  -5  -9   5   -0.90    1.70
   4   9  -5    1.70    2.20
   4   9  -5   -1.00    2.10
   4   9  -5    2.90    2.40
   4   9  -5    0.90    2.20
   4   9  -5   -0.50    1.60
  -4  -9   5    3.70    2.00
   3   9  -5  122.59    8.80
   3   9  -5  117.49    9.00
   3   9  -5  118.39    9.00
   3   9  -5  100.19    9.00
   3   9  -5  121.99    8.40
  -3  -9   5  116.89    8.50
   2   9  -5   34.90    3.80
   2   9  -5   33.70    3.90
   2   9  -5   28.50    4.10
  -2  -9   5   39.10    3.80
   1   9  -5    2.60    1.90
   1   9  -5    3.30    1.90
   1   9  -5   -2.00    2.10
   1   9  -5    2.60    1.90
  -1  -9   5    2.60    1.80
   0   9  -5   30.90    3.40
   0   9  -5   29.50    3.50
   0   9  -5   27.90    4.20
   0   9  -5   29.50    3.60
   0  -9   5   27.80    3.30
  -1   9  -5   88.59    7.00
  -1   9  -5   88.19    6.80
  -1   9  -5   59.59    7.00
   1  -9   5   88.49    6.50
  -2   9  -5  166.38   14.60
  -2   9  -5  208.48   14.20
  -2   9  -5  227.38   14.70
   2  -9   5  231.38   14.20
  -3   9  -5  262.37   18.40
  -3   9  -5  292.17   18.30
  -3   9  -5  283.37   19.00
   3  -9   5  256.57   17.90
   3  -9   5  271.07   18.30
   3  -9   5  250.37   17.50
  -4   9  -5    7.70    2.80
  -4   9  -5    2.50    3.00
  -4   9  -5    7.30    3.20
   4  -9   5    2.20    2.20
   4  -9   5    2.60    2.10
  -5   9  -5  206.48   15.20
  -5   9  -5  212.28   15.90
  -5   9  -5  223.28   15.90
   5  -9   5  208.88   14.80
  -6   9  -5   -3.30    2.70
  -6   9  -5   -1.40    3.20
   6  -9   5   -0.40    2.40
  -7   9  -5    5.40    3.60
  -7   9  -5    4.20    3.40
   7  -9   5    2.20    2.70
  -8   9  -5   -0.30    3.50
  -8   9  -5   -1.40    4.10
   8  -9   5    3.50    3.30
  -9   9  -5    3.30    3.80
   9  -9   5    0.40    3.40
   9   8  -5   13.30    4.10
   9   8  -5    7.90    4.10
   8   8  -5   -0.40    3.10
   8   8  -5    1.60    3.20
  -8  -8   5    3.00    2.20
   7   8  -5    5.70    3.20
   7   8  -5    9.50    3.50
  -7  -8   5    6.30    2.30
   6   8  -5    6.90    3.00
   6   8  -5   10.20    2.00
   6   8  -5    9.40    3.20
  -6  -8   5    7.50    2.30
   5   8  -5   95.49    7.80
   5   8  -5   90.69    7.60
   5   8  -5   98.09    7.00
  -5  -8   5   97.09    7.30
   4   8  -5   59.89    6.10
   4   8  -5   79.49    6.70
   4   8  -5   66.39    6.10
   4   8  -5   73.09    5.40
   4   8  -5   63.99    6.10
  -4  -8   5   67.39    5.70
   3   8  -5    7.30    1.80
   3   8  -5    4.30    2.20
   3   8  -5    2.20    2.00
   3   8  -5    5.50    2.30
   3   8  -5    6.70    2.40
  -3  -8   5    3.90    1.70
   2   8  -5    2.40    2.00
   2   8  -5    3.40    1.70
   2   8  -5    2.10    1.80
   2   8  -5    4.50    1.90
  -2  -8   5    2.60    1.50
   1   8  -5   55.49    4.70
   1   8  -5   55.59    4.70
   1   8  -5   53.29    4.90
   1   8  -5   56.29    5.00
   1   8  -5   56.09    5.50
  -1  -8   5   57.89    4.80
   0   8  -5   54.59    4.90
   0   8  -5   66.19    5.50
   0   8  -5   49.30    4.70
   0   8  -5   47.30    4.50
   0  -8   5   47.60    4.60
  -1   8  -5   10.70    2.50
  -1   8  -5    6.20    2.50
  -1   8  -5   14.40    2.50
   1  -8   5   12.50    2.20
  -2   8  -5  132.29   10.30
  -2   8  -5  146.99   10.80
  -2   8  -5  141.99   10.10
   2  -8   5  144.29    9.60
   2  -8   5  138.19   10.00
  -3   8  -5    4.90    2.50
  -3   8  -5    4.30    2.40
  -3   8  -5    2.20    2.20
   3  -8   5    0.10    1.90
   3  -8   5    0.80    1.80
  -4   8  -5   78.89    7.00
  -4   8  -5   73.09    6.50
  -4   8  -5   66.49    7.00
   4  -8   5   67.49    6.40
   4  -8   5   75.59    6.20
  -5   8  -5  180.58   13.60
  -5   8  -5  182.38   13.20
  -5   8  -5  194.88   14.00
   5  -8   5  183.98   12.80
   5  -8   5  169.88   13.00
  -6   8  -5    7.40    3.50
  -6   8  -5    6.70    3.20
  -6   8  -5   12.10    3.80
   6  -8   5   10.00    2.70
   6  -8   5    6.10    2.70
  -7   8  -5   17.90    4.20
  -7   8  -5   10.60    3.70
   7  -8   5   11.00    3.20
   7  -8   5   11.80    3.60
  -8   8  -5   13.70    4.20
  -8   8  -5   24.00    4.90
   8  -8   5   21.70    4.40
   8  -8   5   13.00    3.50
  -9   8  -5   22.50    4.90
   9  -8   5   20.40    4.70
   9   7  -5    7.70    3.60
   9   7  -5   13.50    3.80
   8   7  -5    3.70    3.00
   8   7  -5    9.70    3.40
  -8  -7   5    9.50    2.60
   7   7  -5    2.30    1.80
   7   7  -5   -1.20    2.50
   7   7  -5    2.10    2.60
  -7  -7   5    2.00    1.90
   6   7  -5    0.30    2.30
   6   7  -5   -0.50    2.30
   6   7  -5   -0.20    1.40
  -6  -7   5    1.40    1.70
   5   7  -5   48.70    5.30
   5   7  -5   44.20    4.70
   5   7  -5   46.60    4.90
   5   7  -5   45.20    4.00
  -5  -7   5   50.79    4.50
   4   7  -5  230.18   14.60
   4   7  -5  206.08   13.70
   4   7  -5  196.78   14.30
   4   7  -5  206.78   14.30
  -4  -7   5  213.08   13.90
   3   7  -5   51.79    5.20
   3   7  -5   47.60    5.10
   3   7  -5   61.89    4.60
   3   7  -5   55.19    5.10
   3   7  -5   61.89    5.50
   3   7  -5   62.19    5.40
  -3  -7   5   60.19    4.70
   2   7  -5   37.80    4.40
   2   7  -5   57.39    4.40
   2   7  -5   47.10    4.10
   2   7  -5   44.70    4.30
   2   7  -5   59.29    4.70
  -2  -7   5   47.30    4.10
   1   7  -5   36.50    4.20
   1   7  -5   50.59    4.30
   1   7  -5   47.40    4.10
   1   7  -5   47.00    3.90
   1   7  -5   42.00    3.90
   1   7  -5   47.40    4.00
  -1  -7   5   42.70    3.90
   0   7  -5  545.85   33.90
   0   7  -5  590.44   33.70
   0   7  -5  529.95   33.40
   0   7  -5  463.95   34.00
   0   7  -5  545.05   33.60
   0   7  -5  522.45   33.60
   0  -7   5  551.84   33.60
  -1   7  -5   60.69    5.60
  -1   7  -5   63.79    5.20
  -1   7  -5   67.29    5.60
   1  -7   5   67.89    4.90
   1  -7   5   67.69    5.30
  -2   7  -5  293.97   20.80
  -2   7  -5  343.47   21.20
  -2   7  -5  309.17   21.30
   2  -7   5  341.67   20.70
  -3   7  -5  239.48   17.60
  -3   7  -5  297.07   18.10
  -3   7  -5  251.27   17.40
   3  -7   5  262.67   17.20
   3  -7   5  260.17   17.60
  -4   7  -5   11.30    2.70
  -4   7  -5    4.50    2.60
  -4   7  -5    4.20    2.70
   4  -7   5    4.20    2.10
   4  -7   5    6.10    2.10
  -5   7  -5   11.40    3.30
  -5   7  -5    9.70    3.00
  -5   7  -5   13.30    3.50
   5  -7   5   11.40    2.80
   5  -7   5   12.80    2.60
  -6   7  -5   22.00    3.90
  -6   7  -5   13.50    3.80
  -6   7  -5   14.90    3.90
   6  -7   5   15.10    3.00
   6  -7   5   13.70    2.90
   6  -7   5   11.90    3.10
  -7   7  -5  190.08   15.90
  -7   7  -5  237.78   15.90
   7  -7   5  215.08   15.20
   7  -7   5  228.28   15.70
  -8   7  -5   36.00    5.30
  -8   7  -5   36.30    5.60
   8  -7   5   27.30    4.30
   8  -7   5   29.50    4.80
  -9   7  -5  100.69   10.40
  -9   7  -5  116.79   10.60
   9  -7   5  107.09    9.30
   9  -7   5  119.59   10.10
 -10   7  -5   14.50    4.70
  10  -7   5    9.20    4.00
  10   6  -5   53.09    6.70
  10   6  -5   45.50    6.30
   9   6  -5   22.20    4.30
   9   6  -5   25.00    4.70
  -9  -6   5   21.00    3.40
   8   6  -5    1.50    2.60
   8   6  -5    4.80    3.00
  -8  -6   5   -2.80    1.70
   7   6  -5   29.80    3.00
   7   6  -5   34.60    4.60
   7   6  -5   28.10    4.20
  -7  -6   5   35.40    3.70
   6   6  -5   95.09    8.40
   6   6  -5  106.39    7.40
   6   6  -5  103.59    8.50
  -6  -6   5  117.99    7.80
   5   6  -5   75.79    5.70
   5   6  -5   73.89    6.60
   5   6  -5   80.39    6.40
   5   6  -5   86.19    7.10
   5   6  -5   86.89    6.80
  -5  -6   5   81.39    6.00
   4   6  -5   -2.50    1.60
   4   6  -5    0.60    1.10
   4   6  -5    4.20    1.90
   4   6  -5    0.20    1.70
   4   6  -5    2.60    2.30
  -4  -6   5    0.00    1.20
   3   6  -5  676.83   43.60
   3   6  -5  690.63   43.90
   3   6  -5  663.43   43.70
   3   6  -5  676.53   43.20
   3   6  -5  706.43   43.80
   3   6  -5  745.23   43.80
  -3  -6   5  713.93   43.30
   2   6  -5   26.60    3.10
   2   6  -5   24.60    2.40
   2   6  -5   24.50    3.00
   2   6  -5   22.20    2.80
   2   6  -5   21.60    3.00
   2   6  -5   23.50    2.70
  -2  -6   5   21.10    2.40
   1   6  -5  314.57   18.60
   1   6  -5  314.17   19.00
   1   6  -5  275.97   18.80
   1   6  -5  283.67   18.70
   1   6  -5  294.67   18.70
   1   6  -5  272.17   18.50
  -1  -6   5  289.47   18.60
   0   6  -5   -1.00    1.10
   0   6  -5   -1.20    1.00
   0   6  -5    1.60    1.40
   0   6  -5   -1.00    1.40
   0   6  -5   -1.30    1.20
   0   6  -5    4.00    1.50
   0  -6   5    0.60    1.10
   0  -6   5   -1.20    1.20
  -1   6  -5  142.09    9.50
  -1   6  -5  147.89   10.10
  -1   6  -5  141.69    9.80
  -1   6  -5  152.18    9.70
   1  -6   5  137.39    9.70
  -2   6  -5  690.83   39.60
  -2   6  -5  566.44   38.90
  -2   6  -5  590.44   39.30
   2  -6   5  640.94   38.90
  -3   6  -5  207.68   13.20
  -3   6  -5  195.18   13.50
  -3   6  -5  165.18   13.50
   3  -6   5  208.58   13.00
   3  -6   5  195.98   13.30
  -4   6  -5  183.98   12.10
  -4   6  -5  154.58   11.50
  -4   6  -5  154.68   11.70
   4  -6   5  165.08   11.40
   4  -6   5  153.18   11.10
  -5   6  -5  654.73   43.30
  -5   6  -5  745.13   44.00
  -5   6  -5  609.84   43.50
   5  -6   5  726.93   43.40
   5  -6   5  669.53   43.10
   5  -6   5  696.53   43.40
  -6   6  -5  342.77   21.60
  -6   6  -5  322.07   22.00
  -6   6  -5  335.27   21.90
   6  -6   5  304.97   21.30
   6  -6   5  306.97   21.40
   6  -6   5  317.27   21.20
  -7   6  -5  104.19    8.90
  -7   6  -5   90.89    9.10
   7  -6   5  100.19    8.50
   7  -6   5  108.29    8.90
   7  -6   5  117.49    8.60
  -8   6  -5   95.09    9.50
  -8   6  -5  113.19    9.50
   8  -6   5  109.19    9.20
   8  -6   5  105.99    8.70
  -9   6  -5   27.00    4.90
  -9   6  -5   18.90    4.50
   9  -6   5   18.90    3.80
   9  -6   5   14.40    4.20
 -10   6  -5   26.20    5.40
  10  -6   5   32.20    5.50
  10   5  -5    1.60    3.30
  10   5  -5   -3.10    3.30
   9   5  -5   65.99    6.80
   9   5  -5   57.09    6.60
  -9  -5   5   52.89    5.50
   8   5  -5   31.50    4.90
   8   5  -5   35.90    4.90
  -8  -5   5   44.40    4.30
   7   5  -5   38.70    4.60
   7   5  -5   36.20    4.60
   7   5  -5   37.20    4.80
   7   5  -5   36.00    3.40
  -7  -5   5   36.90    3.80
   6   5  -5    1.00    2.40
   6   5  -5    1.00    1.20
   6   5  -5    0.90    1.90
   6   5  -5   -0.50    2.30
  -6  -5   5    1.90    1.50
   5   5  -5  201.58   14.00
   5   5  -5  186.58   13.90
   5   5  -5  216.68   14.10
   5   5  -5  209.38   13.20
   5   5  -5  210.78   13.80
  -5  -5   5  210.68   13.50
   4   5  -5    0.90    1.40
   4   5  -5    2.40    1.80
   4   5  -5   -0.60    1.60
   4   5  -5    0.30    1.90
   4   5  -5    0.20    0.90
   4   5  -5    0.20    2.10
  -4  -5   5    0.80    1.10
   3   5  -5    4.80    1.70
   3   5  -5    6.90    2.20
   3   5  -5    6.90    1.90
   3   5  -5    9.40    1.30
   3   5  -5    6.40    2.20
   3   5  -5    7.60    1.80
  -3  -5   5    7.90    1.40
   2   5  -5    3.20    1.20
   2   5  -5    5.90    2.00
   2   5  -5    3.10    2.00
   2   5  -5    0.50    1.20
   2   5  -5    2.30    1.50
   2   5  -5    4.40    1.10
   2   5  -5    5.00    1.60
   2   5  -5    6.80    1.90
  -2  -5   5    3.20    1.00
   1   5  -5  180.88   11.80
   1   5  -5  177.98   11.50
   1   5  -5  178.78   11.90
   1   5  -5  180.08   11.80
   1   5  -5  166.58   11.80
   1   5  -5  195.08   11.70
  -1  -5   5  178.68   11.60
   0   5  -5  849.12   52.19
   0   5  -5  856.01   52.29
   0   5  -5  830.22   52.39
   0   5  -5  815.02   52.49
   0   5  -5  854.21   52.29
   0  -5   5  860.61   52.29
  -1   5  -5  804.62   49.30
  -1   5  -5  745.53   49.50
  -1   5  -5  789.52   49.80
  -1   5  -5  770.52   49.50
  -1   5  -5  920.41   49.99
   1  -5   5  759.72   49.50
  -2   5  -5   68.89    5.40
  -2   5  -5   74.39    6.00
  -2   5  -5   78.49    5.60
   2  -5   5   72.19    5.50
   2  -5   5   80.59    6.10
  -3   5  -5  866.71   52.59
  -3   5  -5  855.81   51.99
  -3   5  -5  775.52   52.19
   3  -5   5  843.72   52.49
   3  -5   5  848.32   52.09
  -4   5  -5  145.79   11.00
  -4   5  -5  171.98   11.60
  -4   5  -5  161.88   11.40
   4  -5   5  172.28   11.20
   4  -5   5  134.79   10.80
   4  -5   5  168.98   11.20
  -5   5  -5    3.10    2.20
  -5   5  -5   -1.30    2.20
  -5   5  -5   -0.30    2.20
   5  -5   5    4.90    2.10
   5  -5   5    3.60    1.90
   5  -5   5   -0.70    1.60
  -6   5  -5   70.69    6.50
  -6   5  -5   63.99    6.80
  -6   5  -5   74.19    6.80
   6  -5   5   73.19    6.50
   6  -5   5   59.89    6.10
   6  -5   5   76.99    6.20
  -7   5  -5   17.90    3.90
  -7   5  -5   27.70    4.30
   7  -5   5   31.10    3.90
   7  -5   5   30.30    3.90
   7  -5   5   21.90    3.80
  -8   5  -5    5.40    3.20
  -8   5  -5    2.70    3.10
   8  -5   5    4.40    2.60
   8  -5   5    4.20    3.00
  -9   5  -5   54.09    6.50
  -9   5  -5   48.40    6.10
   9  -5   5   44.20    6.30
   9  -5   5   58.09    5.90
 -10   5  -5   13.30    4.30
 -10   5  -5   22.40    4.60
  10  -5   5   13.30    4.20
  10  -5   5   11.10    3.60
 -11   5  -5   13.20    4.60
  11  -5   5   10.90    4.10
  10   4  -5    5.50    3.60
  10   4  -5   -0.60    3.20
   9   4  -5    5.10    3.10
   9   4  -5   -1.30    2.70
  -9  -4   5   -0.40    2.00
   8   4  -5   16.40    3.70
   8   4  -5   10.90    3.20
  -8  -4   5   13.40    2.50
   7   4  -5    0.50    2.30
   7   4  -5    0.10    2.10
   7   4  -5    2.20    1.30
   7   4  -5   -1.50    2.30
  -7  -4   5    2.80    1.70
   6   4  -5  164.08   10.40
   6   4  -5  164.68   11.50
   6   4  -5  146.29   11.30
   6   4  -5  149.39   11.30
  -6  -4   5  171.68   10.80
   5   4  -5  238.38   15.10
   5   4  -5  246.78   16.00
   5   4  -5  253.37   15.70
   5   4  -5  205.48   15.70
   5   4  -5  247.88   16.00
  -5  -4   5  246.98   15.30
   4   4  -5  224.58   14.50
   4   4  -5  216.58   14.50
   4   4  -5  229.78   14.90
   4   4  -5  222.88   14.60
   4   4  -5  223.68   14.80
   4   4  -5  222.78   13.90
  -4  -4   5  207.08   14.10
   3   4  -5  695.23   46.00
   3   4  -5  733.33   45.30
   3   4  -5  808.42   45.80
   3   4  -5  726.03   45.80
   3   4  -5  720.73   46.10
   3   4  -5  705.83   45.90
  -3  -4   5  744.43   45.50
   2   4  -5 2411.46  162.68
   2   4  -5 2743.13  162.38
   2   4  -5 2706.43  162.68
   2   4  -5 2671.63  162.98
   2   4  -5 2690.03  162.98
   2   4  -5 2659.63  162.98
  -2  -4   5 2655.13  162.48
   1   4  -5  576.84   37.20
   1   4  -5  652.03   37.10
   1   4  -5  597.64   36.90
   1   4  -5  557.84   37.80
   1   4  -5  593.44   37.00
   1   4  -5  580.64   37.30
   1   4  -5  561.94   37.00
   1   4  -5  611.64   36.80
  -1  -4   5  603.74   36.80
   0   4  -5 1153.18   72.69
   0   4  -5 1193.78   72.39
   0   4  -5 1153.88   72.39
   0   4  -5 1202.58   72.49
   0   4  -5 1172.58   72.59
   0   4  -5 1168.78   72.59
   0   4  -5 1185.58   72.69
   0  -4   5 1170.38   72.39
  -1   4  -5  547.05   33.80
  -1   4  -5  540.85   33.60
  -1   4  -5  531.95   33.50
   1  -4   5  530.75   33.40
  -2   4  -5  838.32   54.09
  -2   4  -5  844.82   53.79
  -2   4  -5  821.12   53.79
   2  -4   5  974.30   54.29
   2  -4   5  867.91   53.79
  -3   4  -5  184.58   13.50
  -3   4  -5  221.78   14.00
  -3   4  -5  187.68   13.80
   3  -4   5  237.38   13.90
   3  -4   5  200.88   13.60
   3  -4   5  209.88   13.40
  -4   4  -5  527.45   36.60
  -4   4  -5  511.65   36.30
  -4   4  -5  638.24   36.90
   4  -4   5  593.34   36.50
   4  -4   5  627.34   36.30
   4  -4   5  571.34   36.60
  -5   4  -5   62.09    6.10
  -5   4  -5   78.59    6.50
  -5   4  -5   64.59    5.80
   5  -4   5   70.99    5.80
   5  -4   5   71.49    5.90
   5  -4   5   60.69    5.40
  -6   4  -5   30.40    4.40
  -6   4  -5   27.70    4.00
  -6   4  -5   36.30    4.30
   6  -4   5   27.10    3.60
   6  -4   5   27.00    3.90
   6  -4   5   26.60    3.50
  -7   4  -5   13.20    3.30
  -7   4  -5   12.90    3.10
  -7   4  -5    7.60    3.80
   7  -4   5   14.00    3.20
   7  -4   5    5.80    2.40
   7  -4   5    7.40    2.60
  -8   4  -5   20.30    4.10
  -8   4  -5   19.80    3.90
   8  -4   5   34.90    4.60
   8  -4   5   23.40    3.80
   8  -4   5   27.30    3.90
  -9   4  -5    0.00    2.80
  -9   4  -5   -1.50    3.00
   9  -4   5    3.70    2.90
   9  -4   5    3.80    3.30
 -10   4  -5   43.10    5.90
 -10   4  -5   42.50    6.10
  10  -4   5   46.50    6.20
  10  -4   5   41.50    5.30
 -11   4  -5    6.90    3.90
  11  -4   5   11.20    4.00
  11   3  -5   30.90    5.10
  11   3  -5   23.10    5.20
  10   3  -5    5.40    3.50
  10   3  -5    8.00    3.50
   9   3  -5   48.80    5.90
   9   3  -5   52.79    6.00
  -9  -3   5   47.70    4.90
   8   3  -5  250.47   16.20
   8   3  -5  236.38   16.40
   8   3  -5  237.48   16.30
   8   3  -5  235.58   15.10
  -8  -3   5  214.28   15.50
   7   3  -5  199.78   14.00
   7   3  -5  197.38   12.90
   7   3  -5  202.88   14.10
   7   3  -5  191.68   13.80
  -7  -3   5  210.38   13.40
   6   3  -5  355.36   23.60
   6   3  -5  383.56   23.70
   6   3  -5  380.26   22.70
   6   3  -5  317.17   23.40
  -6  -3   5  380.76   23.10
   5   3  -5  311.87   19.00
   5   3  -5  286.77   18.30
   5   3  -5  297.47   19.40
   5   3  -5  295.87   19.10
   5   3  -5  287.47   18.90
   5   3  -5  276.97   19.10
  -5  -3   5  288.77   18.50
   4   3  -5 2264.27  136.59
   4   3  -5 2123.69  136.49
   4   3  -5 2225.68  135.89
   4   3  -5 2359.26  136.39
   4   3  -5 2161.28  136.49
   4   3  -5 2194.48  136.79
  -4  -3   5 2176.08  136.09
   3   3  -5    5.10    1.80
   3   3  -5    3.80    1.60
   3   3  -5    0.80    1.50
   3   3  -5    3.30    1.20
   3   3  -5    6.30    1.90
  -3  -3   5    2.70    0.90
   2   3  -5 1127.39   63.09
   2   3  -5 1006.30   63.39
   2   3  -5  879.11   63.89
   2   3  -5 1034.40   63.49
   2   3  -5 1056.59   63.29
  -2  -3   5 1017.70   62.99
   1   3  -5   35.20    3.30
   1   3  -5   38.00    2.90
   1   3  -5   26.90    2.70
   1   3  -5   36.50    2.40
   1   3  -5   32.20    3.20
   1   3  -5   39.60    3.00
  -1  -3   5   35.40    2.60
   0   3  -5  247.78   16.30
   0   3  -5  253.57   16.30
   0   3  -5  256.47   15.90
   0   3  -5  264.17   16.10
   0   3  -5  247.78   16.30
   0  -3   5  250.97   15.90
  -1   3  -5 1922.41  111.79
  -1   3  -5 1802.82  111.69
  -1   3  -5 1819.02  111.59
  -1   3  -5 1746.83  111.89
  -1   3  -5 1811.62  111.69
   1  -3   5 1784.32  111.49
  -2   3  -5  442.26   27.60
  -2   3  -5  474.15   28.00
  -2   3  -5  385.36   27.80
   2  -3   5  464.85   28.00
   2  -3   5  441.86   27.50
  -3   3  -5  441.56   26.60
  -3   3  -5  405.26   26.20
  -3   3  -5  391.46   26.40
   3  -3   5  410.16   26.10
   3  -3   5  407.76   26.40
   3  -3   5  428.96   26.40
  -4   3  -5   71.59    5.30
  -4   3  -5   58.89    5.50
  -4   3  -5   72.49    4.80
  -4   3  -5   61.99    5.60
   4  -3   5   56.29    5.40
   4  -3   5   72.19    5.30
   4  -3   5   60.19    5.20
  -5   3  -5   16.30    2.90
  -5   3  -5   14.10    2.60
  -5   3  -5   12.60    2.70
  -5   3  -5   12.50    1.70
   5  -3   5   11.10    2.20
   5  -3   5   11.40    2.40
   5  -3   5   16.90    2.70
  -6   3  -5   34.40    4.20
  -6   3  -5   34.40    4.30
  -6   3  -5   32.20    4.50
   6  -3   5   34.50    3.80
   6  -3   5   36.20    4.00
   6  -3   5   32.30    4.10
  -7   3  -5   21.80    4.10
  -7   3  -5   17.90    3.40
  -7   3  -5   22.40    3.50
   7  -3   5   18.50    3.10
   7  -3   5   24.00    3.60
   7  -3   5   18.20    3.40
  -8   3  -5  321.17   20.30
  -8   3  -5  270.27   20.00
   8  -3   5  316.87   20.30
   8  -3   5  280.97   19.90
   8  -3   5  287.37   19.70
  -9   3  -5    3.10    3.00
  -9   3  -5    0.80    2.70
   9  -3   5   -0.10    2.80
   9  -3   5    0.30    2.50
 -10   3  -5  210.78   16.80
  10  -3   5  237.18   16.90
  10  -3   5  245.18   16.50
 -11   3  -5   31.10    5.30
  11  -3   5   17.40    4.70
  11   2  -5   64.69    7.40
  11   2  -5   66.39    7.80
  10   2  -5  593.94   38.50
  10   2  -5  576.24   38.20
   9   2  -5   91.19    8.20
   9   2  -5   74.19    7.70
   8   2  -5  894.11   53.79
   8   2  -5  862.11   54.09
   8   2  -5  829.82   52.99
   8   2  -5  826.72   54.09
  -8  -2   5  865.51   53.39
   7   2  -5  132.49   10.40
   7   2  -5  127.99   10.20
   7   2  -5  159.68   10.60
   7   2  -5  134.29    9.30
  -7  -2   5  148.59    9.70
   6   2  -5 1871.11  114.69
   6   2  -5 1832.12  113.79
   6   2  -5 1632.44  114.49
   6   2  -5 2114.19  114.79
   6   2  -5 1846.72  114.59
  -6  -2   5 1837.72  114.09
   5   2  -5   -0.60    1.90
   5   2  -5    0.20    1.40
   5   2  -5    1.80    1.80
   5   2  -5    1.20    1.70
   5   2  -5   -0.40    1.30
   5   2  -5    0.20    0.80
  -5  -2   5    1.00    1.00
   4   2  -5  933.31   58.89
   4   2  -5 1021.70   58.79
   4   2  -5  934.61   58.99
   4   2  -5  946.01   58.99
   4   2  -5  916.91   59.09
  -4  -2   5  934.41   58.49
   3   2  -5   62.89    7.00
   3   2  -5   75.09    5.40
   3   2  -5   65.49    5.40
   3   2  -5   73.39    5.60
   3   2  -5   72.29    5.00
  -3  -2   5   74.79    4.80
   2   2  -5   13.20    2.10
   2   2  -5   12.00    1.30
   2   2  -5   12.10    1.60
   2   2  -5   10.60    1.80
  -2  -2   5   11.70    1.10
   1   2  -5  106.19    6.50
   1   2  -5   96.29    7.00
   1   2  -5   95.79    7.10
   1   2  -5  101.59    7.10
   1   2  -5   98.89    6.70
  -1  -2   5  101.99    6.50
  -1  -2   5  107.99    6.60
   0   2  -5  130.29    8.40
   0   2  -5  124.99    8.40
   0   2  -5  123.69    8.10
   0   2  -5  124.19    8.40
   0   2  -5  118.19    8.40
   0   2  -5  127.69    7.90
   0  -2   5  125.39    8.00
  -1   2  -5   49.80    4.20
  -1   2  -5   54.69    4.10
  -1   2  -5   58.89    4.20
  -1   2  -5   55.59    3.80
   1  -2   5   52.59    3.80
   1  -2   5   50.69    4.30
  -2   2  -5 1135.59   67.79
  -2   2  -5 1069.99   67.49
  -2   2  -5 1135.29   67.89
  -2   2  -5 1085.99   67.59
   2  -2   5 1111.99   67.49
   2  -2   5 1026.30   67.79
  -3   2  -5  568.24   34.00
  -3   2  -5  552.24   33.80
  -3   2  -5  535.05   33.90
  -3   2  -5  554.54   34.20
   3  -2   5  550.94   33.90
   3  -2   5  497.65   34.20
  -4   2  -5  649.43   36.20
  -4   2  -5  585.54   36.10
  -4   2  -5  509.45   36.50
  -4   2  -5  605.44   36.80
  -4   2  -5  534.55   36.40
   4  -2   5  562.34   36.40
   4  -2   5  594.04   36.30
   4  -2   5  595.24   36.60
  -5   2  -5   -0.60    1.10
  -5   2  -5    1.20    1.80
  -5   2  -5   -0.10    1.70
  -5   2  -5   -1.50    1.60
   5  -2   5   -0.40    1.60
   5  -2   5   -0.20    1.70
   5  -2   5    1.50    1.40
  -6   2  -5  787.82   45.70
  -6   2  -5  859.31   46.50
  -6   2  -5  651.83   46.50
  -6   2  -5  681.03   46.20
   6  -2   5  718.53   46.00
   6  -2   5  673.63   46.20
   6  -2   5  767.02   46.40
  -7   2  -5   14.90    3.30
  -7   2  -5   15.10    3.10
  -7   2  -5   14.60    3.60
   7  -2   5   17.60    3.30
   7  -2   5   22.80    3.30
   7  -2   5   16.80    2.90
  -8   2  -5  423.76   27.30
  -8   2  -5  367.96   27.10
   8  -2   5  481.75   27.60
   8  -2   5  420.46   27.00
   8  -2   5  385.06   27.10
  -9   2  -5   18.10    3.90
  -9   2  -5   15.90    3.50
   9  -2   5   23.10    4.20
   9  -2   5   20.80    3.60
 -10   2  -5   16.40    4.20
  10  -2   5   14.30    3.80
  10  -2   5    5.80    3.00
 -11   2  -5    2.60    3.60
  11  -2   5   -0.70    3.50
  11  -2   5   -2.10    3.60
  11   1  -5    4.20    3.70
  11   1  -5    6.50    3.70
  10   1  -5  284.27   20.90
  10   1  -5  318.77   21.50
   9   1  -5   25.70    4.50
   9   1  -5   24.20    4.20
   9   1  -5   30.00    3.00
   8   1  -5  198.88   15.30
   8   1  -5  234.38   15.00
   8   1  -5  225.88   15.40
   8   1  -5  216.58   14.20
   7   1  -5    1.40    2.20
   7   1  -5    5.70    2.40
   7   1  -5    5.40    1.50
   7   1  -5   -0.30    2.10
  -7  -1   5    6.10    1.80
   6   1  -5    3.00    1.70
   6   1  -5    0.90    2.00
   6   1  -5    0.70    1.10
   6   1  -5    0.40    1.90
   6   1  -5    2.00    2.00
  -6  -1   5    1.00    1.30
   5   1  -5   19.10    2.20
   5   1  -5   14.90    2.60
   5   1  -5   15.60    2.30
   5   1  -5   15.80    2.20
   5   1  -5   23.10    3.20
   5   1  -5   11.10    2.30
   5   1  -5   15.30    1.60
  -5  -1   5   17.20    1.90
   4   1  -5  737.33   46.10
   4   1  -5  712.73   45.90
   4   1  -5  754.32   46.00
   4   1  -5  757.82   45.90
   4   1  -5  652.43   45.60
   4   1  -5  785.72   45.80
  -4  -1   5  761.52   45.50
   3   1  -5   47.10    3.90
   3   1  -5   39.00    3.60
   3   1  -5   45.40    4.00
   3   1  -5   46.40    3.30
   3   1  -5   48.30    4.10
   3   1  -5   47.20    3.00
   3   1  -5   46.70    3.80
  -3  -1   5   45.10    3.10
   2   1  -5  221.38   13.50
   2   1  -5  209.68   13.50
   2   1  -5  202.08   13.70
   1   1  -5   62.39    4.80
   1   1  -5   64.79    4.50
   1   1  -5   62.29    4.70
   1   1  -5   67.39    4.80
   1   1  -5   66.99    4.40
   0   1  -5 3073.89  176.78
   0   1  -5 2835.12  176.98
   0   1  -5 2831.32  176.98
   0   1  -5 2825.92  176.98
   0   1  -5 2813.42  176.98
   0  -1   5 2909.11  176.58
  -1   1  -5  182.18   10.30
  -1   1  -5  150.08   10.50
  -1   1  -5  148.99   10.20
  -1   1  -5  149.59   10.30
  -1   1  -5  156.28   10.10
   1  -1   5  175.28   10.60
   1  -1   5  150.08   10.10
  -2   1  -5  852.71   53.09
  -2   1  -5  919.31   53.39
  -2   1  -5  866.91   53.19
  -2   1  -5  866.11   53.19
  -2   1  -5  871.01   53.19
  -2   1  -5  821.72   53.49
   2  -1   5  843.62   53.39
   2  -1   5  842.02   53.09
  -3   1  -5  585.64   38.60
  -3   1  -5  619.44   38.20
  -3   1  -5  599.64   38.40
  -3   1  -5  645.04   38.70
   3  -1   5  587.94   38.30
   3  -1   5  659.83   38.70
  -4   1  -5  116.19    8.20
  -4   1  -5  117.09    8.70
  -4   1  -5  124.09    8.00
  -4   1  -5  112.19    8.40
  -4   1  -5  135.99    8.80
   4  -1   5  120.79    8.30
   4  -1   5  131.59    8.60
  -5   1  -5   72.69    6.50
  -5   1  -5   79.89    5.80
  -5   1  -5   77.69    6.20
  -5   1  -5   89.69    6.40
   5  -1   5   76.79    5.90
   5  -1   5   97.39    6.60
   5  -1   5   68.39    6.10
  -6   1  -5   31.60    3.10
  -6   1  -5   33.70    4.10
  -6   1  -5   29.20    3.70
  -6   1  -5   29.90    3.70
   6  -1   5   35.30    4.00
   6  -1   5   29.10    3.40
   6  -1   5   28.90    3.80
  -7   1  -5   79.89    7.10
  -7   1  -5   95.29    7.90
  -7   1  -5   86.99    7.30
   7  -1   5   78.59    6.80
   7  -1   5   95.29    7.30
   7  -1   5   85.39    7.30
  -8   1  -5  140.19   11.40
  -8   1  -5  144.89   11.70
   8  -1   5  162.08   11.40
   8  -1   5  160.98   11.60
   8  -1   5  179.38   11.90
  -9   1  -5   10.50    3.60
  -9   1  -5   11.00    3.20
   9  -1   5    9.60    2.90
   9  -1   5    8.80    3.30
 -10   1  -5   46.20    6.00
  10  -1   5   45.00    6.00
  10  -1   5   49.40    5.50
 -11   1  -5    9.30    4.00
  11  -1   5    9.60    3.90
  11   0  -5   34.90    6.10
  11   0  -5   52.29    6.30
  10   0  -5    8.70    3.40
  10   0  -5    2.60    3.40
   9   0  -5   27.40    3.10
   9   0  -5   25.30    4.40
   9   0  -5   21.00    4.10
  -9   0   5   30.50    5.20
   8   0  -5  103.09    7.60
   8   0  -5  106.19    8.70
   8   0  -5  119.39    8.50
   8   0  -5  105.29    8.90
  -8   0   5  105.19    8.00
   7   0  -5   97.99    7.20
   7   0  -5   79.49    6.80
   7   0  -5   79.09    7.00
   7   0  -5   77.89    6.00
   7   0  -5   86.49    6.50
   6   0  -5  739.33   46.40
   6   0  -5  778.42   47.00
   6   0  -5  731.33   46.70
   6   0  -5  702.93   47.10
   6   0  -5  791.62   47.10
   5   0  -5   32.80    2.80
   5   0  -5   36.60    3.50
   5   0  -5   35.60    3.80
   5   0  -5   35.00    2.90
   5   0  -5   37.80    3.80
   5   0  -5   40.60    4.00
   5   0  -5   38.20    3.60
  -5   0   5   33.60    3.00
   4   0  -5   91.39    6.10
   4   0  -5   83.19    6.80
   4   0  -5   95.49    6.50
   4   0  -5   89.29    6.60
   4   0  -5   95.19    5.90
   4   0  -5   95.89    7.00
   4   0  -5   98.89    6.80
  -4   0   5   94.29    6.20
   3   0  -5    8.70    1.60
   3   0  -5    7.60    1.80
   3   0  -5    6.60    1.50
   3   0  -5    6.70    0.90
   3   0  -5    5.90    1.10
   3   0  -5    5.50    1.60
  -3   0   5    6.70    0.90
   2   0  -5  795.02   48.80
   2   0  -5  797.42   49.30
   2   0  -5  789.52   49.30
   2   0  -5  793.42   49.10
   1   0  -5  540.15   35.70
   1   0  -5  589.64   35.80
   1   0  -5  573.54   35.80
   1   0  -5  583.14   35.40
   1   0  -5  583.44   35.60
   0   0  -5  264.27   16.20
   0   0  -5  253.67   16.20
   0   0   5  236.08   16.20
   0   0   5  266.67   15.80
  -1   0  -5  284.27   16.90
  -1   0  -5  273.37   16.60
  -1   0  -5  260.67   16.70
  -1   0  -5  276.27   16.80
  -1   0  -5  253.87   16.70
  -1   0  -5  259.17   17.00
   1   0   5  260.07   16.60
   1   0   5  261.07   16.90
  -2   0  -5  162.78   12.20
  -2   0  -5  190.88   12.20
  -2   0  -5  190.28   12.20
  -2   0  -5  205.28   12.40
   2   0   5  198.18   12.10
   2   0   5  193.58   12.40
  -3   0  -5    0.90    1.10
  -3   0  -5    0.20    1.30
  -3   0  -5    0.40    1.20
  -3   0  -5    2.50    1.00
  -3   0  -5    1.70    1.20
   3   0   5   -0.30    1.20
   3   0   5    1.20    1.10
  -4   0  -5    7.70    1.50
  -4   0  -5    5.50    1.70
  -4   0  -5    8.40    1.90
  -4   0  -5    7.90    2.00
   4   0   5    8.90    1.60
   4   0   5    7.40    1.70
   4   0   5    7.40    1.80
  -5   0  -5   -1.60    1.60
  -5   0  -5   -1.60    1.20
  -5   0  -5    2.20    1.70
  -5   0  -5   -0.90    1.50
   5   0   5   -0.60    1.30
   5   0   5    3.20    1.70
   5   0   5    1.10    1.50
  -6   0  -5  408.46   25.40
  -6   0  -5  406.36   25.80
  -6   0  -5  392.46   25.30
  -6   0  -5  397.36   25.00
   6   0   5  375.26   25.40
   6   0   5  387.76   25.30
   6   0   5  374.56   25.00
  -7   0  -5    6.50    2.60
  -7   0  -5    1.30    2.10
  -7   0  -5    4.20    2.80
  -7   0  -5    5.60    1.80
   7   0   5   -0.60    1.70
   7   0   5    1.80    2.10
   7   0   5    2.20    2.00
  -8   0  -5   19.10    3.70
  -8   0  -5   21.10    3.40
   8   0   5   16.40    3.10
   8   0   5   20.40    3.60
   8   0   5   18.60    3.70
  -9   0  -5   43.20    5.40
   9   0   5   46.20    5.40
   9   0   5   32.20    4.50
 -10   0  -5   14.90    4.00
  10   0   5    7.30    3.10
  10   0   5   13.30    3.60
 -11   0  -5    3.90    3.70
  11   0   5    1.50    3.30
  11  -1  -5   -2.40    3.40
  11  -1  -5    1.20    3.50
  10  -1  -5   44.60    4.30
  10  -1  -5   40.80    6.00
  10  -1  -5   45.00    5.70
   9  -1  -5    7.00    2.10
   9  -1  -5    4.00    3.00
   9  -1  -5    9.10    3.40
   8  -1  -5  146.69    9.60
   8  -1  -5  106.89   10.20
   8  -1  -5  135.99    9.90
   8  -1  -5  135.89    9.20
   8  -1  -5  133.59   10.20
   7  -1  -5   19.00    3.00
   7  -1  -5   13.10    2.90
   7  -1  -5   13.70    3.00
   7  -1  -5   16.40    2.20
  -7   1   5   17.30    2.50
   6  -1  -5   36.10    4.00
   6  -1  -5   40.10    3.80
   6  -1  -5   44.40    4.30
   6  -1  -5   30.00    3.90
   6  -1  -5   40.30    4.40
   6  -1  -5   47.90    3.50
  -6   1   5   40.80    3.60
   5  -1  -5  184.28   11.40
   5  -1  -5  167.38   11.50
   5  -1  -5  157.98   11.40
   5  -1  -5  159.88   11.40
   5  -1  -5  161.38   10.80
   5  -1  -5  166.88   11.20
   5  -1  -5  169.38   10.70
   4  -1  -5   59.19    4.30
   4  -1  -5   59.29    4.70
   4  -1  -5   53.69    4.60
   4  -1  -5   50.09    3.70
   4  -1  -5   51.49    4.40
   4  -1  -5   58.49    4.60
   4  -1  -5   54.69    4.00
   3  -1  -5   88.59    6.40
   3  -1  -5   89.59    5.80
   3  -1  -5   89.69    5.90
   3  -1  -5   83.09    6.20
   3  -1  -5   82.09    6.20
   3  -1  -5   89.99    6.30
   2  -1  -5  327.67   20.60
   2  -1  -5  334.97   21.00
   2  -1  -5  333.57   21.10
   2  -1  -5  337.67   21.10
   1  -1  -5  174.28   11.10
   1  -1  -5  171.88   11.00
   1  -1  -5  160.48   10.90
  -1   1   5  168.98   10.70
  -1   1   5  173.88   10.80
   0  -1  -5 3979.20  244.88
   0  -1  -5 3972.30  244.88
   0  -1  -5 3929.91  244.68
   0  -1  -5 3984.10  244.88
   0   1   5 4042.80  244.68
   0   1   5 3946.21  244.98
   0   1   5 4089.89  245.08
  -1  -1  -5    7.30    1.20
  -1  -1  -5    4.80    1.10
  -1  -1  -5    6.60    1.30
  -1  -1  -5   10.10    1.20
  -1  -1  -5    6.20    1.30
   1   1   5    6.60    1.30
   1   1   5    7.80    1.00
  -2  -1  -5 1132.89   61.19
  -2  -1  -5 1002.20   60.89
  -2  -1  -5  974.70   60.79
  -2  -1  -5  912.41   60.99
  -2  -1  -5 1084.99   61.19
  -2  -1  -5  953.80   60.79
   2   1   5  889.01   60.99
   2   1   5  947.21   60.79
  -3  -1  -5   98.89    6.80
  -3  -1  -5  102.89    6.60
  -3  -1  -5   93.59    6.90
  -3  -1  -5  101.99    6.80
  -3  -1  -5  100.19    6.60
  -3  -1  -5  103.29    7.00
   3   1   5   96.09    6.70
   3   1   5   82.89    6.90
  -4  -1  -5 1285.57   74.09
  -4  -1  -5 1137.89   73.79
  -4  -1  -5 1272.87   74.19
  -4  -1  -5 1138.39   73.89
  -4  -1  -5 1239.48   74.29
   4   1   5 1119.89   73.99
   4   1   5 1139.29   73.49
   4   1   5 1238.08   74.19
  -5  -1  -5    1.10    1.40
  -5  -1  -5   -0.40    1.60
  -5  -1  -5   -0.60    1.80
  -5  -1  -5   -0.70    1.50
  -5  -1  -5    1.50    1.30
   5   1   5   -0.30    1.50
   5   1   5    0.20    1.00
   5   1   5    0.60    1.50
   5   1   5    1.50    1.40
  -6  -1  -5   41.10    4.20
  -6  -1  -5   36.70    3.70
  -6  -1  -5   35.60    4.40
  -6  -1  -5   33.90    3.80
   6   1   5   38.40    4.10
   6   1   5   34.10    3.70
   6   1   5   32.10    3.80
  -7  -1  -5  119.19    9.80
  -7  -1  -5  160.48    9.90
  -7  -1  -5  138.79    9.50
   7   1   5  121.09    9.90
   7   1   5  117.99    9.80
   7   1   5  138.69    9.60
  -8  -1  -5   22.30    4.10
  -8  -1  -5   36.50    3.90
  -8  -1  -5   38.50    4.20
   8   1   5   34.10    4.50
   8   1   5   31.90    4.00
   8   1   5   35.90    4.50
  -9  -1  -5    2.10    2.90
   9   1   5   -0.70    2.10
   9   1   5    0.40    2.60
 -10  -1  -5    2.30    3.20
  10   1   5    7.40    2.80
  10   1   5   -0.90    2.80
 -11  -1  -5    2.00    3.50
  11   1   5    9.90    3.70
  11  -2  -5    5.40    3.90
  11  -2  -5    4.30    3.60
  10  -2  -5   21.40    3.10
  10  -2  -5   22.20    4.40
  10  -2  -5   17.10    4.40
   9  -2  -5    8.30    3.10
   9  -2  -5    3.90    2.00
   9  -2  -5    4.30    2.20
   9  -2  -5    5.00    3.30
   8  -2  -5   11.90    3.40
   8  -2  -5   19.40    3.50
   8  -2  -5   11.70    2.30
   8  -2  -5   18.40    3.20
   7  -2  -5    8.00    2.50
   7  -2  -5    7.80    2.40
   7  -2  -5    6.70    1.80
   7  -2  -5    9.40    2.50
   6  -2  -5    9.20    2.30
   6  -2  -5    7.10    1.60
   6  -2  -5    6.10    1.60
   6  -2  -5    7.50    2.30
   6  -2  -5    8.70    2.30
   5  -2  -5  466.75   29.10
   5  -2  -5  424.46   28.60
   5  -2  -5  470.95   29.10
   5  -2  -5  495.65   29.00
   5  -2  -5  434.46   29.00
   5  -2  -5  454.95   29.10
   5  -2  -5  465.25   28.70
   4  -2  -5   18.40    2.00
   4  -2  -5   16.70    2.40
   4  -2  -5   18.40    1.80
   4  -2  -5   20.60    2.40
   4  -2  -5   15.30    2.30
   4  -2  -5   17.60    2.40
   4  -2  -5   16.40    2.50
   3  -2  -5  138.29    9.60
   3  -2  -5  145.59    9.40
   3  -2  -5  137.19    9.50
   3  -2  -5  139.39    9.60
   3  -2  -5  145.69    9.70
   3  -2  -5  139.59    9.20
   3  -2  -5  148.89    9.10
   2  -2  -5  441.36   26.40
   2  -2  -5  438.36   26.90
   2  -2  -5  436.96   27.00
   2  -2  -5  445.66   26.90
   2  -2  -5  413.36   26.60
   2  -2  -5  409.46   26.60
  -2   2   5  419.66   26.50
   1  -2  -5  104.99    6.80
   1  -2  -5  105.79    7.10
   1  -2  -5  107.89    7.10
   1  -2  -5   99.49    6.80
  -1   2   5  103.89    6.70
   0  -2  -5   88.39    6.00
   0  -2  -5   99.29    6.20
   0  -2  -5   87.09    6.30
   0  -2  -5   96.39    6.10
   0  -2  -5   89.89    6.30
   0  -2  -5   94.19    6.30
   0   2   5   87.99    6.10
   0   2   5   96.59    6.20
  -1  -2  -5  419.76   26.40
  -1  -2  -5  413.66   26.60
  -1  -2  -5  415.46   26.50
  -1  -2  -5  421.76   26.50
  -1  -2  -5  414.76   26.30
  -1  -2  -5  475.05   26.70
  -1  -2  -5  414.06   26.40
   1   2   5  439.46   26.60
   1   2   5  433.86   26.40
   1   2   5  405.96   26.40
  -2  -2  -5   -0.40    0.50
  -2  -2  -5   -0.10    0.90
  -2  -2  -5    0.90    1.00
  -2  -2  -5    0.50    0.90
  -2  -2  -5    1.80    1.20
   2   2   5    1.40    0.90
   2   2   5    2.00    0.90
   2   2   5    2.40    1.10
  -3  -2  -5   22.90    2.80
  -3  -2  -5   22.70    2.50
  -3  -2  -5   21.80    2.50
  -3  -2  -5   26.90    2.40
   3   2   5   28.90    2.50
   3   2   5   23.90    2.70
   3   2   5   24.40    2.20
  -4  -2  -5  118.39    8.60
  -4  -2  -5  123.39    8.60
  -4  -2  -5  125.89    8.40
  -4  -2  -5  128.89    8.60
  -4  -2  -5  116.89    8.90
   4   2   5  129.69    8.80
   4   2   5  123.89    8.50
   4   2   5  122.79    8.10
   4   2   5  127.19    8.20
  -5  -2  -5  209.28   13.80
  -5  -2  -5  221.38   13.90
  -5  -2  -5  188.18   14.30
  -5  -2  -5  215.98   14.00
  -5  -2  -5  202.68   13.90
   5   2   5  217.08   14.00
   5   2   5  210.78   14.20
   5   2   5  219.48   13.50
   5   2   5  210.18   13.50
   5   2   5  205.28   13.80
  -6  -2  -5  253.77   16.50
  -6  -2  -5  232.58   16.20
  -6  -2  -5  260.87   16.20
   6   2   5  248.68   16.20
   6   2   5  252.67   15.80
   6   2   5  254.47   16.60
   6   2   5  218.18   16.20
  -7  -2  -5    0.70    2.10
  -7  -2  -5    1.20    1.70
  -7  -2  -5   -1.00    1.80
   7   2   5    1.90    1.90
   7   2   5    2.50    2.10
   7   2   5    2.50    2.00
  -8  -2  -5    0.40    2.40
   8   2   5    2.40    2.00
   8   2   5   -0.90    2.00
   8   2   5   -2.10    2.10
  -9  -2  -5    6.80    3.10
   9   2   5    0.60    2.30
   9   2   5    2.80    2.80
 -10  -2  -5    1.20    2.90
  10   2   5    0.30    2.40
  10   2   5   -3.50    2.80
 -11  -2  -5   16.70    4.40
  11   2   5   19.40    4.60
  11  -3  -5   22.60    5.30
  11  -3  -5   24.20    4.70
  10  -3  -5   21.60    3.20
  10  -3  -5   22.10    4.40
  10  -3  -5   16.50    4.60
   9  -3  -5   36.30    4.80
   9  -3  -5   30.80    5.10
   9  -3  -5   27.40    3.50
   8  -3  -5   46.10    4.70
   8  -3  -5   38.20    4.90
   8  -3  -5   43.80    4.10
   8  -3  -5   28.60    4.70
   7  -3  -5  186.18   12.00
   7  -3  -5  178.18   12.50
   7  -3  -5  183.18   12.90
   7  -3  -5  169.68   12.60
   7  -3  -5  166.88   11.80
   6  -3  -5    0.30    1.90
   6  -3  -5   -1.10    1.80
   6  -3  -5    2.00    1.90
   6  -3  -5   -0.80    1.40
   6  -3  -5    0.10    1.50
   5  -3  -5   20.50    3.00
   5  -3  -5   27.30    2.60
   5  -3  -5   20.10    2.50
   5  -3  -5   24.60    3.20
   5  -3  -5   30.50    3.10
   5  -3  -5   18.80    2.80
   4  -3  -5  357.96   23.00
   4  -3  -5  345.17   23.00
   4  -3  -5  363.66   22.70
   4  -3  -5  373.76   23.10
   4  -3  -5  373.86   22.60
   4  -3  -5  347.67   22.90
   3  -3  -5   26.90    2.90
   3  -3  -5   26.50    3.00
   3  -3  -5   35.40    2.60
   3  -3  -5   28.30    2.80
   3  -3  -5   26.50    2.80
   3  -3  -5   30.70    2.70
   2  -3  -5    5.40    1.60
   2  -3  -5    9.20    1.30
   2  -3  -5    5.90    1.30
   2  -3  -5   10.70    1.50
   1  -3  -5  237.98   15.00
   1  -3  -5  231.88   14.60
   1  -3  -5  223.98   14.90
   1  -3  -5  238.08   14.90
  -1   3   5  237.48   14.60
  -1   3   5  239.28   15.00
   0  -3  -5   79.59    5.40
   0  -3  -5   81.89    5.10
   0  -3  -5   79.69    5.50
   0  -3  -5   76.59    5.40
   0  -3  -5   71.59    5.20
   0  -3  -5   74.69    5.40
   0   3   5   78.49    5.30
   0   3   5   80.19    5.40
  -1  -3  -5   11.20    1.70
  -1  -3  -5   12.30    1.40
  -1  -3  -5   12.00    1.70
  -1  -3  -5   10.90    1.50
  -1  -3  -5   10.70    1.70
  -1  -3  -5   13.00    1.50
   1   3   5   14.50    1.60
   1   3   5   13.10    1.50
   1   3   5   13.90    1.60
  -2  -3  -5   32.00    3.20
  -2  -3  -5   38.10    3.20
  -2  -3  -5   37.00    3.40
  -2  -3  -5   41.30    3.10
  -2  -3  -5   39.00    3.00
   2   3   5   39.10    3.10
   2   3   5   37.60    3.00
   2   3   5   30.80    3.30
  -3  -3  -5 1021.70   56.39
  -3  -3  -5  870.41   55.89
  -3  -3  -5  940.71   56.09
   3   3   5  835.72   55.99
   3   3   5  900.61   56.19
   3   3   5  875.11   55.99
   3   3   5  884.21   55.79
  -4  -3  -5   79.89    6.30
  -4  -3  -5   89.09    6.20
  -4  -3  -5   85.19    6.70
   4   3   5   82.59    6.50
   4   3   5   91.69    6.00
   4   3   5   78.99    6.00
   4   3   5   86.09    6.40
   4   3   5   88.89    6.10
  -5  -3  -5  178.48   11.80
  -5  -3  -5  181.58   12.10
  -5  -3  -5  174.08   12.40
   5   3   5  188.78   11.60
   5   3   5  180.08   11.70
   5   3   5  163.18   12.20
   5   3   5  177.78   11.90
   5   3   5  171.38   12.10
  -6  -3  -5   71.99    6.70
  -6  -3  -5   78.69    7.10
  -6  -3  -5   81.49    6.40
   6   3   5   90.29    6.90
   6   3   5   82.19    6.20
   6   3   5   82.49    6.00
   6   3   5   94.69    6.90
   6   3   5   82.49    6.50
  -7  -3  -5   40.40    4.40
  -7  -3  -5   41.10    4.80
   7   3   5   42.20    4.10
   7   3   5   42.40    4.50
   7   3   5   45.60    4.90
   7   3   5   49.80    4.90
  -8  -3  -5    2.00    2.20
  -8  -3  -5    2.00    2.10
   8   3   5    2.70    2.20
   8   3   5    1.80    2.50
  -9  -3  -5   96.09    8.80
   9   3   5  109.99    8.90
   9   3   5   97.09    8.20
 -10  -3  -5    0.40    3.10
  10   3   5   -1.10    2.80
  10   3   5    0.40    2.50
 -11  -3  -5    5.00    3.90
  11   3   5    0.80    3.20
  11  -4  -5   16.50    3.20
  11  -4  -5   11.20    4.60
 -11   4   5    9.30    3.70
  10  -4  -5    3.90    3.80
  10  -4  -5    6.40    2.40
 -10   4   5    1.90    3.10
   9  -4  -5    5.20    2.30
   9  -4  -5    4.80    3.00
   9  -4  -5    1.90    3.20
   8  -4  -5   23.30    4.20
   8  -4  -5   23.80    4.00
   8  -4  -5   21.40    3.10
   8  -4  -5   23.40    3.80
   7  -4  -5   37.70    3.90
   7  -4  -5   38.80    3.90
   7  -4  -5   37.60    4.40
   7  -4  -5   33.60    4.70
   7  -4  -5   35.90    4.30
   6  -4  -5    1.60    2.00
   6  -4  -5    6.00    2.30
   6  -4  -5    2.60    1.70
   6  -4  -5    3.00    1.70
   6  -4  -5    3.30    2.10
   5  -4  -5  245.68   16.60
   5  -4  -5  264.47   16.20
   5  -4  -5  254.17   16.30
   5  -4  -5  260.67   16.30
   5  -4  -5  226.68   16.70
   4  -4  -5  125.09    8.70
   4  -4  -5  140.49    9.30
   4  -4  -5  131.09    8.90
   4  -4  -5  124.49    9.10
   4  -4  -5  131.69    8.90
   3  -4  -5   55.39    4.50
   3  -4  -5   58.69    4.50
   3  -4  -5   68.39    4.90
  -3   4   5   54.39    4.60
   2  -4  -5  236.08   15.50
   2  -4  -5  259.37   15.40
   2  -4  -5  237.58   15.40
   2  -4  -5  245.38   15.10
  -2   4   5  222.78   15.50
   1  -4  -5   -1.20    0.80
   1  -4  -5    0.40    0.90
   1  -4  -5    1.50    0.70
   1  -4  -5    0.50    1.00
   1  -4  -5   -0.10    0.90
  -1   4   5   -0.80    1.10
   0  -4  -5   38.00    3.10
   0  -4  -5   35.30    3.00
   0  -4  -5   40.70    2.80
   0  -4  -5   38.40    3.10
   0  -4  -5   30.40    3.20
   0   4   5   35.50    2.90
   0   4   5   39.50    3.20
  -1  -4  -5  598.24   37.90
  -1  -4  -5  597.24   38.00
  -1  -4  -5  613.74   38.10
  -1  -4  -5  598.54   37.80
  -1  -4  -5  618.34   37.90
   1   4   5  613.54   37.90
   1   4   5  595.94   37.90
   1   4   5  643.84   37.90
  -2  -4  -5  396.56   24.60
  -2  -4  -5  378.86   24.10
  -2  -4  -5  388.86   24.30
  -2  -4  -5  394.96   24.40
   2   4   5  357.26   24.30
   2   4   5  399.36   24.20
   2   4   5  383.76   24.20
  -3  -4  -5  115.19    7.90
  -3  -4  -5  101.49    8.30
  -3  -4  -5  113.19    8.00
   3   4   5  123.39    8.30
   3   4   5  137.49    8.00
   3   4   5  110.79    8.10
  -4  -4  -5   73.59    5.60
  -4  -4  -5   63.49    5.20
  -4  -4  -5   55.09    4.80
   4   4   5   55.39    5.10
   4   4   5   61.29    5.20
   4   4   5   62.49    4.80
   4   4   5   65.69    4.90
  -5  -4  -5    3.80    2.20
  -5  -4  -5    2.20    1.70
  -5  -4  -5    2.20    1.50
   5   4   5    2.50    1.90
   5   4   5    4.90    1.80
   5   4   5    6.10    1.60
   5   4   5    5.40    1.70
   5   4   5    3.80    1.50
  -6  -4  -5    1.90    2.00
  -6  -4  -5    1.30    1.60
  -6  -4  -5    2.80    2.30
   6   4   5   -0.10    1.70
   6   4   5    9.90    2.50
   6   4   5    5.40    2.20
   6   4   5    2.90    1.60
   6   4   5    1.40    1.50
  -7  -4  -5   97.89    7.90
  -7  -4  -5   93.49    7.50
   7   4   5  100.99    8.30
   7   4   5   89.79    7.90
   7   4   5  114.19    7.80
   7   4   5   93.99    7.40
  -8  -4  -5   14.70    3.60
  -8  -4  -5   20.50    3.30
   8   4   5   22.30    3.80
   8   4   5   19.20    3.30
   8   4   5   19.80    3.00
  -9  -4  -5   -1.40    2.70
  -9  -4  -5   -0.40    2.20
   9   4   5    0.40    2.30
   9   4   5    2.60    2.80
 -10  -4  -5    0.60    3.00
  10   4   5   -1.10    3.00
  10   4   5    2.40    2.60
  11   4   5    5.40    3.60
  10  -5  -5    9.00    4.10
  10  -5  -5    4.80    2.60
 -10   5   5    8.80    3.60
   9  -5  -5   12.70    4.20
   9  -5  -5   17.50    3.10
  -9   5   5   20.50    4.00
   8  -5  -5    2.70    2.10
   8  -5  -5    0.40    2.80
   8  -5  -5    1.80    2.10
   8  -5  -5    3.60    2.70
  -8   5   5    3.40    2.70
   7  -5  -5   27.10    3.40
   7  -5  -5   27.30    3.40
   7  -5  -5   25.80    3.80
   7  -5  -5   32.40    4.40
  -7   5   5   19.60    3.50
   6  -5  -5   16.10    3.30
   6  -5  -5   18.40    2.60
   6  -5  -5   16.00    2.60
  -6   5   5   17.60    3.00
   5  -5  -5  416.26   25.20
   5  -5  -5  380.96   24.50
   5  -5  -5  375.16   24.50
  -5   5   5  365.66   24.80
   4  -5  -5   39.10    3.60
   4  -5  -5   41.90    4.20
   4  -5  -5   42.10    3.40
  -4   5   5   30.90    3.70
   3  -5  -5  497.05   30.50
   3  -5  -5  491.35   30.30
   3  -5  -5  491.25   30.80
  -3   5   5  462.95   30.70
   2  -5  -5   41.90    3.30
   2  -5  -5   43.40    3.80
   2  -5  -5   36.80    3.50
  -2   5   5   40.20    3.60
   1  -5  -5  993.40   57.79
   1  -5  -5  993.60   57.89
   1  -5  -5  808.12   57.99
   1  -5  -5  996.70   57.39
   1  -5  -5  889.31   57.69
  -1   5   5  924.51   57.99
   0  -5  -5  161.68   10.60
   0  -5  -5  157.58   10.90
   0  -5  -5  158.78   10.70
   0  -5  -5  166.68   10.70
   0  -5  -5  166.78   10.50
   0   5   5  163.28   10.80
  -1  -5  -5  587.54   36.20
  -1  -5  -5  614.44   36.40
  -1  -5  -5  549.45   36.40
   1   5   5  596.04   36.40
   1   5   5  568.94   36.30
  -2  -5  -5   14.70    2.50
  -2  -5  -5   24.30    2.30
  -2  -5  -5   18.40    2.30
  -2  -5  -5   19.20    2.40
   2   5   5   23.50    2.70
   2   5   5   19.90    2.30
   2   5   5   25.20    2.40
  -3  -5  -5    2.80    1.60
  -3  -5  -5    4.50    1.90
  -3  -5  -5    2.80    1.30
   3   5   5    2.80    1.40
   3   5   5    1.00    1.00
   3   5   5   -1.20    1.40
  -4  -5  -5   10.20    2.10
  -4  -5  -5    8.80    1.80
  -4  -5  -5    4.40    2.10
   4   5   5    6.70    1.70
   4   5   5   11.70    2.30
   4   5   5   13.10    2.10
  -5  -5  -5  428.96   26.90
  -5  -5  -5  411.26   26.20
  -5  -5  -5  367.16   26.40
   5   5   5  463.45   26.60
   5   5   5  388.66   26.10
   5   5   5  415.66   26.30
   5   5   5  412.06   26.20
  -6  -5  -5   61.09    6.00
  -6  -5  -5   67.39    5.50
   6   5   5   68.59    5.60
   6   5   5   69.29    5.50
   6   5   5   66.79    6.00
   6   5   5   62.19    5.60
  -7  -5  -5   59.19    5.40
  -7  -5  -5   54.79    5.80
   7   5   5   56.19    5.00
   7   5   5   58.59    5.40
   7   5   5   58.09    5.80
   7   5   5   44.30    4.90
  -8  -5  -5    3.20    2.30
  -8  -5  -5   -0.40    2.40
   8   5   5    4.60    2.80
   8   5   5    6.70    2.30
   8   5   5    3.60    2.20
  -9  -5  -5   32.00    5.30
  -9  -5  -5   53.39    5.40
   9   5   5   46.40    5.00
   9   5   5   50.29    5.80
   9   5   5   48.60    5.20
 -10  -5  -5    2.70    2.80
 -10  -5  -5    3.00    3.10
  10   5   5   -4.10    2.80
  10   5   5   -0.80    3.30
  11   5   5   10.20    4.10
  10  -6  -5   13.20    4.70
  10  -6  -5   12.00    3.10
 -10   6   5   28.90    4.50
   9  -6  -5    5.60    2.70
   9  -6  -5    5.00    3.70
  -9   6   5    9.90    3.50
   8  -6  -5   29.60    3.80
   8  -6  -5   20.30    4.40
   8  -6  -5   29.00    4.20
   8  -6  -5   23.10    3.50
  -8   6   5   22.20    4.10
   7  -6  -5   92.69    7.20
   7  -6  -5   81.09    6.70
   7  -6  -5   82.59    7.70
   7  -6  -5   64.69    6.50
  -7   6   5   80.39    7.30
   6  -6  -5   64.29    5.40
   6  -6  -5   49.80    5.10
   6  -6  -5   65.29    6.30
  -6   6   5   56.69    5.70
   5  -6  -5   15.50    2.50
   5  -6  -5   16.30    3.20
   5  -6  -5   14.20    2.40
  -5   6   5   16.30    2.80
   4  -6  -5    1.30    1.90
   4  -6  -5    1.30    1.50
  -4   6   5    1.50    1.60
   3  -6  -5   22.80    2.70
   3  -6  -5   28.60    3.40
   3  -6  -5   24.70    2.70
  -3   6   5   28.10    3.10
   2  -6  -5  134.29    9.00
   2  -6  -5  137.39    9.30
   2  -6  -5  141.39    8.90
   2  -6  -5  132.79    9.60
  -2   6   5  133.99    9.40
   1  -6  -5   34.30    3.30
   1  -6  -5   24.70    2.50
   1  -6  -5   22.00    2.40
   1  -6  -5   21.80    2.60
   1  -6  -5   29.20    2.50
  -1   6   5   28.70    3.00
   0  -6  -5    1.40    1.10
   0  -6  -5    0.70    1.40
   0  -6  -5    1.70    1.10
   0  -6  -5    1.30    1.10
   0  -6  -5    2.60    1.40
   0   6   5    0.60    1.30
   0   6   5    2.30    1.50
  -1  -6  -5  279.27   18.20
  -1  -6  -5  278.47   18.00
  -1  -6  -5  292.57   18.60
  -1  -6  -5  285.97   18.20
  -1  -6  -5  293.47   18.30
   1   6   5  280.07   18.10
   1   6   5  277.07   18.30
   1   6   5  283.77   18.30
  -2  -6  -5    3.20    1.40
  -2  -6  -5    3.00    1.30
  -2  -6  -5   -0.30    1.60
  -2  -6  -5    0.80    1.20
  -2  -6  -5    1.10    1.30
   2   6   5    2.10    1.50
   2   6   5    1.40    1.50
   2   6   5    2.60    1.20
  -3  -6  -5  292.67   18.30
  -3  -6  -5  289.57   18.10
  -3  -6  -5  278.37   18.00
   3   6   5  264.37   18.20
   3   6   5  277.67   18.10
   3   6   5  276.57   18.10
  -4  -6  -5   31.50    3.70
  -4  -6  -5   34.70    3.50
  -4  -6  -5   34.00    4.20
   4   6   5   32.50    3.80
   4   6   5   34.00    3.50
   4   6   5   34.90    3.60
  -5  -6  -5   65.19    5.80
  -5  -6  -5   53.49    6.10
  -5  -6  -5   62.89    5.40
   5   6   5   67.69    5.50
   5   6   5   77.49    6.00
   5   6   5   65.19    5.60
   5   6   5   61.89    5.50
  -6  -6  -5   73.49    6.40
  -6  -6  -5   71.99    6.10
   6   6   5   72.09    5.90
   6   6   5   83.49    6.70
   6   6   5   70.09    6.10
   6   6   5   63.79    6.10
  -7  -6  -5   16.70    3.60
  -7  -6  -5   15.40    3.00
   7   6   5   29.00    4.10
   7   6   5   26.40    3.40
   7   6   5   22.60    3.30
   7   6   5   29.10    3.60
  -8  -6  -5   15.70    3.30
  -8  -6  -5   12.90    3.40
   8   6   5   18.10    3.30
   8   6   5   26.30    4.20
   8   6   5   15.60    3.10
   8   6   5   17.60    3.10
  -9  -6  -5   10.60    3.50
  -9  -6  -5   13.60    3.30
   9   6   5   12.90    3.20
   9   6   5   13.50    3.60
   9   6   5   12.40    3.10
 -10  -6  -5   36.00    4.90
 -10  -6  -5   31.10    5.10
  10   6   5   31.20    5.20
  11   6   5    3.00    3.70
  10  -7  -5    6.60    2.80
  10  -7  -5    1.60    3.90
 -10   7   5    1.90    3.00
   9  -7  -5   10.20    4.30
   9  -7  -5   14.20    3.30
  -9   7   5    9.50    3.40
   8  -7  -5    3.50    2.40
   8  -7  -5    0.70    2.20
   8  -7  -5   -1.90    2.90
   8  -7  -5    6.50    3.00
  -8   7   5    3.30    2.60
   7  -7  -5    2.80    2.20
   7  -7  -5   -0.10    2.80
   7  -7  -5    2.40    2.20
  -7   7   5    0.70    2.30
   6  -7  -5    4.30    2.20
   6  -7  -5    1.20    2.60
   6  -7  -5   -1.10    1.90
  -6   7   5    3.20    2.20
   5  -7  -5   34.80    4.50
   5  -7  -5   28.20    3.60
   5  -7  -5   30.00    3.60
  -5   7   5   32.10    4.00
   4  -7  -5   73.09    6.30
   4  -7  -5   91.99    7.10
  -4   7   5   72.89    6.50
   3  -7  -5   60.19    5.60
   3  -7  -5   64.19    5.20
   3  -7  -5   71.79    5.40
  -3   7   5   57.39    5.30
   2  -7  -5   39.80    4.30
   2  -7  -5   48.20    4.10
   2  -7  -5   42.20    3.70
  -2   7   5   48.80    4.30
   1  -7  -5   77.49    6.00
   1  -7  -5   94.09    6.90
   1  -7  -5   87.39    6.40
   1  -7  -5   89.59    6.20
  -1   7   5   90.89    6.60
  -1   7   5   87.69    6.60
   0  -7  -5    6.50    2.10
   0  -7  -5    5.80    1.50
   0  -7  -5    5.40    1.40
   0  -7  -5    4.60    1.40
   0   7   5    8.20    2.00
   0   7   5    5.50    1.90
  -1  -7  -5 1200.58   88.89
  -1  -7  -5 1456.15   88.69
  -1  -7  -5 1377.36   88.79
  -1  -7  -5 1478.55   88.59
  -1  -7  -5 1421.66   88.59
   1   7   5 1465.45   88.69
   1   7   5 1534.85   88.79
   1   7   5 1549.14   88.89
  -2  -7  -5  139.89    9.60
  -2  -7  -5  133.29    9.40
  -2  -7  -5  144.89    9.40
  -2  -7  -5  143.89    9.50
  -2  -7  -5  110.99    9.70
   2   7   5  140.49    9.60
   2   7   5  135.19    9.60
   2   7   5  148.49    9.40
  -3  -7  -5  422.06   32.30
  -3  -7  -5  538.45   32.00
  -3  -7  -5  522.15   32.30
  -3  -7  -5  519.15   31.90
   3   7   5  569.94   32.20
   3   7   5  459.65   32.10
   3   7   5  524.75   32.00
  -4  -7  -5    7.00    1.90
  -4  -7  -5    8.30    2.60
  -4  -7  -5    6.80    2.20
   4   7   5   10.50    2.20
   4   7   5    3.60    1.90
   4   7   5    8.90    2.10
  -5  -7  -5   39.20    4.50
  -5  -7  -5   38.50    4.00
   5   7   5   42.00    4.70
   5   7   5   36.50    4.10
   5   7   5   47.50    4.40
   5   7   5   38.80    4.20
  -6  -7  -5    2.90    2.00
  -6  -7  -5    8.00    2.70
   6   7   5    3.00    2.40
   6   7   5    3.10    2.20
   6   7   5    4.60    2.10
   6   7   5    4.00    2.10
  -7  -7  -5   31.80    4.50
  -7  -7  -5   40.00    4.40
   7   7   5   35.60    4.20
   7   7   5   35.40    4.20
   7   7   5   32.60    4.20
   7   7   5   29.40    4.50
  -8  -7  -5    5.00    2.50
  -8  -7  -5    4.50    3.00
   8   7   5    2.20    2.40
   8   7   5   -0.40    2.30
   8   7   5    3.70    2.80
   8   7   5    2.90    2.30
  -9  -7  -5    1.30    3.00
  -9  -7  -5    5.40    2.80
   9   7   5    7.90    2.80
   9   7   5    6.50    3.30
   9   7   5    5.50    2.80
 -10  -7  -5    1.20    4.40
  10   7   5    2.60    2.80
  10   7   5    0.70    3.10
  11   7   5   23.60    5.00
 -10   8   5    4.00    3.20
   9  -8  -5    9.70    3.30
   9  -8  -5    8.10    4.30
  -9   8   5   10.50    3.60
   8  -8  -5    1.80    2.40
   8  -8  -5    0.00    3.30
   8  -8  -5    3.40    3.00
   8  -8  -5    4.00    2.60
  -8   8   5    2.10    3.00
   7  -8  -5   25.00    3.80
   7  -8  -5   18.60    4.40
   7  -8  -5   26.00    3.70
  -7   8   5   25.00    4.10
   6  -8  -5    7.10    2.30
   6  -8  -5    2.90    2.20
   6  -8  -5    3.20    2.80
  -6   8   5    7.70    2.80
   5  -8  -5  132.99   10.00
   5  -8  -5  136.89   10.90
  -5   8   5  139.89   10.20
   4  -8  -5    4.80    2.50
   4  -8  -5    2.30    1.90
  -4   8   5    5.50    2.20
   3  -8  -5  184.78   13.50
   3  -8  -5  193.48   12.80
  -3   8   5  190.38   13.10
   2  -8  -5  111.39    8.30
   2  -8  -5  119.99    8.50
   2  -8  -5  128.69    9.30
  -2   8   5  122.49    8.80
   1  -8  -5  709.23   42.80
   1  -8  -5  665.23   42.20
   1  -8  -5  647.04   41.90
   1  -8  -5  668.93   42.00
  -1   8   5  698.03   42.50
  -1   8   5  656.13   42.40
   0  -8  -5    0.00    1.20
   0  -8  -5   -0.30    1.80
   0  -8  -5   -1.00    1.20
   0  -8  -5    1.70    1.40
   0   8   5    2.40    1.70
   0   8   5    1.60    0.90
   0   8   5   -0.10    1.70
  -1  -8  -5  165.18   11.10
  -1  -8  -5  159.88   11.30
  -1  -8  -5  162.08   11.00
  -1  -8  -5  166.48   11.00
  -1  -8  -5  170.18   11.70
   1   8   5  153.58   11.30
   1   8   5  171.88   11.40
   1   8   5  156.18   11.00
  -2  -8  -5   69.49    5.40
  -2  -8  -5   63.79    5.90
  -2  -8  -5   63.39    5.20
  -2  -8  -5   65.99    5.30
  -2  -8  -5   62.69    5.60
   2   8   5   66.79    5.70
   2   8   5   77.19    5.80
   2   8   5   59.09    5.30
  -3  -8  -5   37.60    4.80
  -3  -8  -5   38.60    4.50
  -3  -8  -5   47.20    4.30
  -3  -8  -5   49.70    4.50
   3   8   5   50.69    4.40
   3   8   5   54.49    4.80
   3   8   5   49.20    4.80
  -4  -8  -5    0.00    1.80
  -4  -8  -5    0.50    1.70
  -4  -8  -5   -1.70    2.10
   4   8   5   -1.70    1.70
   4   8   5   -1.70    1.70
   4   8   5   -1.40    1.60
  -5  -8  -5   14.20    3.00
  -5  -8  -5   16.60    2.90
   5   8   5   17.90    2.90
   5   8   5    9.40    2.80
   5   8   5   19.40    3.00
   5   8   5   15.90    2.90
  -6  -8  -5   10.00    2.50
  -6  -8  -5    8.80    2.80
   6   8   5    7.90    2.50
   6   8   5   11.40    2.70
   6   8   5    7.90    2.80
   6   8   5    7.40    2.40
  -7  -8  -5    1.50    2.60
  -7  -8  -5   -0.50    2.20
   7   8   5    8.30    2.70
   7   8   5    1.00    2.10
   7   8   5    1.10    2.30
   7   8   5   -0.70    2.50
  -8  -8  -5    2.10    2.30
  -8  -8  -5    3.60    3.00
   8   8   5    2.60    2.80
   8   8   5   -0.10    2.30
   8   8   5    1.80    2.60
   8   8   5    0.90    2.50
  -9  -8  -5   74.49    7.20
  -9  -8  -5   67.09    7.60
   9   8   5   76.79    7.80
   9   8   5   77.99    7.40
  10   8   5    7.10    3.40
  10   8   5    6.90    3.50
   9  -9  -5   46.50    6.90
   9  -9  -5   30.00    4.80
  -9   9   5   33.90    5.10
   8  -9  -5    1.50    2.70
   8  -9  -5    7.60    3.90
  -8   9   5    1.20    2.90
   7  -9  -5  341.27   23.00
   7  -9  -5  335.17   21.70
   7  -9  -5  312.37   21.60
  -7   9   5  303.77   21.90
   6  -9  -5    0.10    2.80
   6  -9  -5    2.60    2.30
   6  -9  -5    1.90    2.40
  -6   9   5    3.10    2.80
   5  -9  -5  259.27   16.80
   5  -9  -5  250.57   17.80
  -5   9   5  233.68   17.00
   4  -9  -5    1.00    1.90
   4  -9  -5    3.90    2.70
  -4   9   5    0.50    2.10
   3  -9  -5  166.78   11.70
   3  -9  -5  150.58   10.80
  -3   9   5  142.09   11.10
   2  -9  -5  191.98   13.60
   2  -9  -5  175.98   12.70
   2  -9  -5  199.08   12.60
  -2   9   5  180.78   13.00
   1  -9  -5    0.90    1.60
   1  -9  -5    4.80    2.30
   1  -9  -5    1.90    1.60
  -1   9   5    3.50    2.00
  -1   9   5    4.00    2.10
   0  -9  -5  139.29    9.20
   0  -9  -5  118.89   10.00
   0  -9  -5  127.39    9.30
   0  -9  -5  139.59    9.50
   0   9   5  129.09    9.60
   0   9   5  123.99    9.70
   0   9   5  149.39    9.00
  -1  -9  -5  254.47   15.80
  -1  -9  -5  243.68   15.80
  -1  -9  -5  217.18   16.10
  -1  -9  -5  233.48   16.60
  -1  -9  -5  240.58   15.90
   1   9   5  246.98   16.20
   1   9   5  238.68   15.90
   1   9   5  247.88   16.20
  -2  -9  -5  137.09   10.60
  -2  -9  -5  145.59   11.00
  -2  -9  -5  142.79   10.20
  -2  -9  -5  142.79   10.20
  -2  -9  -5  153.68   10.30
   2   9   5  146.49   10.30
   2   9   5  161.68   10.60
   2   9   5  141.69   10.60
  -3  -9  -5   22.60    3.10
  -3  -9  -5   22.30    3.60
  -3  -9  -5   26.50    3.10
  -3  -9  -5   23.30    3.50
   3   9   5   18.00    3.20
   3   9   5   27.50    3.30
   3   9   5   18.30    3.30
  -4  -9  -5  167.48   12.20
  -4  -9  -5  169.28   11.80
   4   9   5  169.78   11.90
   4   9   5  168.08   12.20
   4   9   5  170.28   12.00
  -5  -9  -5   18.60    3.50
  -5  -9  -5   19.70    3.10
   5   9   5   23.10    3.30
   5   9   5   23.60    3.60
   5   9   5   21.00    3.40
   5   9   5   19.20    3.50
  -6  -9  -5    1.30    2.20
  -6  -9  -5    3.50    2.60
   6   9   5    3.40    2.40
   6   9   5    3.50    2.70
   6   9   5    2.10    2.20
   6   9   5    3.60    2.40
  -7  -9  -5  115.89    9.90
  -7  -9  -5  121.69    9.50
   7   9   5  130.59    9.80
   7   9   5   97.79    9.50
   7   9   5  127.39    9.50
   7   9   5  126.19    9.50
  -8  -9  -5   14.90    3.80
  -8  -9  -5    9.10    3.00
   8   9   5    9.20    3.00
   8   9   5   14.90    3.80
   8   9   5   14.60    3.20
   8   9   5   10.00    3.20
  -9  -9  -5   80.29    9.20
  -9  -9  -5   95.39    8.60
   9   9   5   81.89    8.00
   9   9   5   84.79    7.80
   9   9   5   72.99    8.10
  10   9   5   -1.60    3.10
  10   9   5   -1.30    3.00
   9 -10  -5   62.69    6.90
   9 -10  -5   60.99    8.40
  -9  10   5   85.89    7.80
   8 -10  -5   17.50    3.60
   8 -10  -5    8.30    4.40
  -8  10   5    9.30    3.50
   7 -10  -5   21.80    3.90
   7 -10  -5   23.70    5.10
  -7  10   5   22.10    4.30
   6 -10  -5    7.90    2.90
   6 -10  -5   18.20    4.40
   6 -10  -5   18.60    3.50
  -6  10   5   21.50    3.80
   5 -10  -5    3.40    3.20
   5 -10  -5    1.90    2.20
  -5  10   5    4.20    2.80
   4 -10  -5   55.39    5.40
   4 -10  -5   54.99    6.50
  -4  10   5   61.09    6.00
   3 -10  -5    1.30    2.70
   3 -10  -5    4.10    2.00
  -3  10   5    1.20    2.40
   2 -10  -5   34.60    4.10
   2 -10  -5   39.30    5.10
   2 -10  -5   46.50    4.20
  -2  10   5   38.60    4.60
   1 -10  -5   52.79    6.00
   1 -10  -5   53.29    4.90
   1 -10  -5   57.19    5.20
  -1  10   5   50.79    5.30
  -1  10   5   60.29    5.50
   0 -10  -5   -0.10    2.10
   0 -10  -5    1.70    1.70
   0 -10  -5    2.80    1.90
   0  10   5    0.40    2.00
   0  10   5    0.00    2.10
  -1 -10  -5  251.37   17.10
  -1 -10  -5  283.07   18.10
  -1 -10  -5  263.47   17.20
  -1 -10  -5  253.77   17.20
   1  10   5  250.97   17.50
   1  10   5  272.67   17.70
   1  10   5  244.68   17.20
  -2 -10  -5    5.50    2.70
  -2 -10  -5    2.90    1.90
  -2 -10  -5    4.10    1.90
  -2 -10  -5    4.30    2.50
  -2 -10  -5    1.20    1.70
   2  10   5    4.90    2.40
   2  10   5    0.60    2.10
   2  10   5    1.80    2.10
  -3 -10  -5  288.77   18.20
  -3 -10  -5  229.48   18.40
  -3 -10  -5  273.17   18.10
   3  10   5  289.77   18.60
   3  10   5  278.47   18.20
   3  10   5  284.37   18.60
  -4 -10  -5   55.09    5.30
  -4 -10  -5   46.10    5.60
   4  10   5   51.89    5.30
   4  10   5   51.39    5.60
   4  10   5   70.69    6.10
  -5 -10  -5  210.58   14.30
  -5 -10  -5  202.18   13.70
   5  10   5  184.08   13.80
   5  10   5  188.18   13.70
   5  10   5  191.58   14.10
   5  10   5  198.18   13.90
  -6 -10  -5    4.10    2.90
  -6 -10  -5    0.50    2.20
   6  10   5    1.60    2.60
   6  10   5    4.80    3.00
   6  10   5    5.10    2.90
   6  10   5    0.10    2.20
  -7 -10  -5  112.39    9.10
  -7 -10  -5  103.59    9.50
   7  10   5  114.69    9.20
   7  10   5  105.89    9.00
   7  10   5  116.49    9.50
   7  10   5  104.99    8.90
  -8 -10  -5    8.90    3.00
  -8 -10  -5    7.10    3.30
   8  10   5   -0.40    2.70
   8  10   5    4.80    3.00
   8  10   5   -0.40    3.00
   9  10   5   -3.10    3.00
   9  10   5    2.20    3.10
   9  10   5   -0.70    3.30
   8 -11  -5   19.50    5.30
   8 -11  -5   18.80    4.00
  -8  11   5   17.90    4.30
   7 -11  -5    3.20    2.90
   7 -11  -5    7.30    4.20
  -7  11   5    7.70    3.40
   6 -11  -5  131.79   11.70
   6 -11  -5  140.29   10.80
  -6  11   5  128.09   10.80
   5 -11  -5    2.20    2.30
   5 -11  -5    3.10    3.50
  -5  11   5    9.60    3.20
   4 -11  -5   48.20    5.30
   4 -11  -5   70.39    7.50
  -4  11   5   49.40    5.70
   3 -11  -5    1.30    2.90
   3 -11  -5   -0.90    2.00
  -3  11   5    2.90    2.50
   2 -11  -5    6.00    3.10
   2 -11  -5    9.10    2.40
   2 -11  -5    8.10    2.40
  -2  11   5    3.70    2.70
   1 -11  -5  185.48   13.70
   1 -11  -5  181.48   12.60
   1 -11  -5  174.48   12.70
  -1  11   5  183.18   13.10
  -1  11   5  182.28   13.10
   0 -11  -5    3.60    1.90
   0 -11  -5    6.50    3.00
   0 -11  -5    5.30    2.00
   0  11   5    2.80    2.60
   0  11   5    6.70    2.70
  -1 -11  -5   87.39    7.10
  -1 -11  -5   92.89    7.10
  -1 -11  -5   84.09    8.00
   1  11   5   79.89    7.10
   1  11   5   83.19    7.50
   1  11   5   94.89    7.70
  -2 -11  -5   72.19    6.40
  -2 -11  -5   76.79    7.00
  -2 -11  -5   67.59    6.30
   2  11   5   69.49    6.50
   2  11   5   82.09    7.00
   2  11   5   85.89    7.20
  -3 -11  -5    2.50    2.10
  -3 -11  -5   -2.50    2.20
  -3 -11  -5    3.70    2.20
   3  11   5    0.50    2.10
   3  11   5    5.80    2.70
   3  11   5    1.40    2.50
  -4 -11  -5    8.10    2.60
  -4 -11  -5   10.30    3.20
   4  11   5    5.80    2.90
   4  11   5    1.70    2.70
   4  11   5    9.80    2.70
  -5 -11  -5   -0.10    2.10
  -5 -11  -5    0.00    2.50
   5  11   5    2.40    2.70
   5  11   5   -3.10    2.40
   5  11   5    2.30    2.40
   5  11   5   -2.00    2.60
  -6 -11  -5   -0.60    2.10
  -6 -11  -5   -1.80    2.40
   6  11   5   -3.20    2.10
   6  11   5   -0.90    2.70
   6  11   5    1.70    2.80
   6  11   5    5.50    3.00
  -7 -11  -5  110.99    9.20
  -7 -11  -5  116.79    9.90
   7  11   5  109.69    9.80
   7  11   5  115.29    9.60
   7  11   5  114.09    9.20
   7  11   5   93.89    9.30
  -8 -11  -5    1.70    3.30
   8  11   5    4.20    3.10
   8  11   5   -4.20    3.10
   8  11   5    2.40    3.00
   9  11   5    6.30    3.60
   9  11   5   14.50    3.80
   9  11   5    2.90    3.60
   7 -12  -5   44.40    7.30
   7 -12  -5   60.49    6.50
  -7  12   5   48.60    6.10
   6 -12  -5   30.80    5.80
   6 -12  -5   23.50    4.40
  -6  12   5   21.10    4.30
   5 -12  -5   33.90    5.90
  -5  12   5   26.70    4.60
   4 -12  -5  217.28   15.60
   4 -12  -5  193.68   14.10
  -4  12   5  186.88   14.60
   3 -12  -5   96.39    8.00
   3 -12  -5   95.99    9.40
  -3  12   5   99.29    8.70
   2 -12  -5   75.39    8.10
   2 -12  -5   79.09    6.90
  -2  12   5   77.59    7.40
   1 -12  -5   48.40    5.00
   1 -12  -5   47.20    5.10
   1 -12  -5   52.99    6.40
  -1  12   5   49.20    5.70
  -1  12   5   45.50    5.50
   0 -12  -5   58.59    6.00
   0 -12  -5   67.39    6.20
   0  12   5   73.59    6.80
   0  12   5   59.49    6.20
   0  12   5   78.59    6.90
  -1 -12  -5   31.40    4.10
  -1 -12  -5   37.50    4.20
   1  12   5   29.40    4.40
   1  12   5   35.70    4.30
   1  12   5   30.30    4.70
  -2 -12  -5   -0.20    2.10
  -2 -12  -5   -0.60    2.00
   2  12   5    1.00    2.60
   2  12   5    2.10    2.80
   2  12   5   -1.10    2.30
  -3 -12  -5    3.20    2.90
  -3 -12  -5    1.60    2.30
  -3 -12  -5    0.60    1.90
   3  12   5    2.00    2.70
   3  12   5   -1.30    2.20
   3  12   5   -0.30    2.70
  -4 -12  -5   17.00    3.40
  -4 -12  -5   22.80    4.20
   4  12   5   21.20    4.00
   4  12   5   18.10    3.30
   4  12   5   16.50    3.70
  -5 -12  -5   91.09    8.50
  -5 -12  -5   76.69    7.30
   5  12   5   84.69    8.00
   5  12   5   83.59    8.00
   5  12   5   70.39    7.60
   5  12   5   89.59    7.60
  -6 -12  -5    5.40    3.40
  -6 -12  -5    7.90    2.90
   6  12   5    7.80    3.10
   6  12   5   13.00    3.80
   6  12   5    9.00    3.40
   6  12   5    6.30    3.50
  -7 -12  -5    6.60    3.70
   7  12   5    1.30    3.60
   7  12   5    5.10    3.50
   7  12   5   10.30    3.70
   8  12   5  132.49   11.20
   8  12   5  143.49   11.50
   8  12   5  129.59   11.50
   6 -13  -5  116.29   10.00
  -6  13   5  112.79   10.10
  -5  13   5   10.70    3.70
  -4  13   5   19.10    4.10
   3 -13  -5   15.10    3.40
  -3  13   5   10.20    3.60
   2 -13  -5    3.60    2.40
  -2  13   5    3.90    3.20
   1 -13  -5  204.68   14.10
  -1  13   5  192.08   14.70
  -1  13   5  203.88   15.40
   0 -13  -5    0.40    2.00
   0 -13  -5    0.80    2.20
   0  13   5   -0.90    2.60
   0  13   5   -2.20    2.30
   0  13   5   -2.70    2.60
  -1 -13  -5   43.20    5.00
  -1 -13  -5   38.80    4.80
   1  13   5   43.90    5.50
   1  13   5   50.79    5.90
   1  13   5   49.70    5.30
  -2 -13  -5   30.30    4.10
  -2 -13  -5   29.50    4.10
   2  13   5   27.70    4.70
   2  13   5   31.60    4.90
   2  13   5   28.00    4.10
  -3 -13  -5  130.69    9.80
  -3 -13  -5  122.79    9.50
   3  13   5  124.19   10.40
   3  13   5  129.29    9.80
   3  13   5  106.59   10.20
  -4 -13  -5   18.00    4.20
  -4 -13  -5   19.90    3.60
   4  13   5   12.10    3.80
   4  13   5   19.70    3.60
   4  13   5   16.90    4.30
  -5 -13  -5   29.10    5.10
  -5 -13  -5   23.30    4.00
   5  13   5   36.40    5.40
   5  13   5   33.80    4.60
   5  13   5   33.30    5.10
   5  13   5   30.10    5.00
  -6 -13  -5  179.18   14.30
   6  13   5  194.88   14.30
   6  13   5  183.28   14.20
   6  13   5  176.58   14.10
   6  13   5  182.38   16.50
  -7 -13  -5   11.30    4.10
   7  13   5    8.10    3.80
   7  13   5   11.70    4.00
   7  13   5    9.60    3.90
  -5  14   5   15.80    4.40
  -4  14   5    3.80    3.30
  -3  14   5   13.50    4.00
  -2  14   5    4.40    3.50
  -1  14   5    1.30    2.50
  -1  14   5    3.50    3.30
   0 -14  -5   73.19    6.90
   0 -14  -5   65.49    6.80
   0  14   5   52.39    6.80
   0  14   5   51.89    6.10
   0  14   5   80.19    7.70
  -1 -14  -5   11.80    3.10
  -1 -14  -5   11.50    3.00
   1  14   5   14.20    3.90
   1  14   5    9.10    3.30
   1  14   5   11.10    3.70
  -2 -14  -5   81.49    7.40
  -2 -14  -5   74.09    7.30
   2  14   5   72.79    7.80
   2  14   5   75.39    7.50
   2  14   5   93.09    8.30
  -3 -14  -5   13.30    3.50
   3  14   5   14.40    4.10
   3  14   5   10.10    3.90
   3  14   5   20.30    3.80
  -4 -14  -5  288.37   20.30
   4  14   5  301.57   21.00
   4  14   5  314.47   21.20
   4  14   5  298.27   20.40
   4  14   5  285.07   20.80
  -5 -14  -5    5.40    3.70
   5  14   5   -1.70    3.30
   5  14   5   -3.80    3.20
   5  14   5    0.40    3.10
  -6 -14  -5  272.57   19.20
   6  14   5  246.58   19.00
   6  14   5  271.37   18.90
   6  14   5  250.97   18.80
  -4  15   5    0.20    3.60
  -3  15   5   29.30    5.10
  -2  15   5   21.70    4.80
  -1  15   5   14.90    4.20
   0  15   5   45.70    6.00
   0  15   5   32.30    5.70
  -1 -15  -5   11.20    4.90
   1  15   5   15.70    4.20
   1  15   5    6.20    3.90
  -2 -15  -5  120.49   11.20
   2  15   5  112.99   10.70
   2  15   5  136.89   11.20
   3  15   5   10.00    4.20
   3  15   5   20.40    4.40
   4  15   5   70.79    8.00
   4  15   5   72.69    8.00
   4  15   5   66.49    7.60
   5  15   5    1.10    3.70
   5  15   5    1.00    3.60
   5  15   5    6.40    3.70
  -1  16   5    2.80    3.60
   0  16   5  131.09   11.20
   0  16   5  122.49   11.50
   1  16   5   43.00    6.60
   1  16   5   54.39    6.60
   2  16   5   26.30    5.30
   2  16   5   33.30    5.60
   2  14  -6   44.90    5.90
   2  14  -6   34.10    4.40
   1  14  -6  101.39    8.40
   1  14  -6   93.99   10.40
   1  14  -6  108.09   10.00
   0  14  -6   60.69    8.00
   0  14  -6   44.40    5.60
  -1  14  -6   29.80    4.80
  -1  14  -6   33.90    6.20
  -2  14  -6   20.00    3.90
  -2  14  -6   14.90    5.10
   4  13  -6    9.10    3.60
   4  13  -6    8.70    4.10
   3  13  -6   34.40    5.30
   3  13  -6   35.80    6.10
   3  13  -6   41.20    4.40
   2  13  -6   26.30    5.40
   2  13  -6   25.40    3.80
   2  13  -6   30.60    4.90
   1  13  -6   19.10    3.50
   1  13  -6   19.10    4.80
   0  13  -6    2.70    3.60
   0  13  -6    1.70    2.70
  -1  13  -6   63.19    6.40
  -1  13  -6   52.59    7.70
  -2  13  -6   39.10    6.40
  -2  13  -6   40.20    5.20
  -3  13  -6   31.90    5.10
  -3  13  -6   43.20    6.60
  -4  13  -6    2.50    3.30
  -4  13  -6    2.30    4.10
   5  12  -6    4.30    3.40
   4  12  -6   87.39    9.40
   4  12  -6  102.79    8.70
   3  12  -6   89.59   10.30
   3  12  -6  116.49    9.50
   3  12  -6  127.39   10.10
   3  12  -6  121.79    8.80
  -3 -12   6  127.19    9.30
   2  12  -6   30.20    4.80
   2  12  -6   29.00    5.10
   2  12  -6   24.20    3.70
  -2 -12   6   23.60    3.70
   1  12  -6  148.39   13.60
   1  12  -6  183.48   12.60
  -1 -12   6  199.78   12.90
   0  12  -6  148.79   13.20
   0  12  -6  174.38   12.20
   0 -12   6  175.48   12.20
  -1  12  -6   40.70    6.10
  -1  12  -6   34.70    4.70
   1 -12   6   32.10    4.30
  -2  12  -6   45.20    5.30
  -2  12  -6   41.40    6.20
   2 -12   6   39.60    4.90
  -3  12  -6   15.40    4.00
  -3  12  -6   17.30    3.80
  -3  12  -6   17.40    4.90
   3 -12   6   17.30    3.50
  -4  12  -6   26.60    4.60
  -4  12  -6   29.00    5.00
  -4  12  -6   28.20    5.80
  -5  12  -6    1.90    3.10
  -6  12  -6   15.30    4.40
   6  11  -6   60.89    7.10
   6  11  -6   51.99    6.20
   5  11  -6  234.48   16.50
   5  11  -6  224.18   15.80
  -5 -11   6  205.78   15.20
   4  11  -6    2.40    2.90
   4  11  -6    1.60    2.80
   4  11  -6   -2.10    2.60
   4  11  -6    2.90    1.90
  -4 -11   6    8.20    2.50
   3  11  -6  197.78   13.60
   3  11  -6  185.98   13.30
   3  11  -6  157.38   13.80
   3  11  -6  190.08   12.60
  -3 -11   6  185.18   12.90
   2  11  -6   -3.40    2.50
   2  11  -6    1.30    2.90
   2  11  -6   -0.50    1.90
   2  11  -6    3.70    3.20
  -2 -11   6   -0.60    2.00
   1  11  -6   -0.10    2.80
   1  11  -6    0.10    2.00
  -1 -11   6   -0.20    2.00
   0  11  -6   58.99    6.80
   0  11  -6   53.69    5.50
   0 -11   6   61.59    5.80
  -1  11  -6    1.40    3.00
  -1  11  -6    0.20    2.30
   1 -11   6    1.90    2.20
  -2  11  -6   80.39    8.80
  -2  11  -6  102.19    8.20
  -2  11  -6   94.69    8.40
   2 -11   6  102.49    8.00
  -3  11  -6   -0.90    2.60
  -3  11  -6    0.40    3.30
  -3  11  -6    2.50    2.60
   3 -11   6    2.60    2.30
  -4  11  -6   31.50    5.00
  -4  11  -6   24.40    5.10
  -4  11  -6   21.30    4.10
   4 -11   6   19.90    3.70
  -5  11  -6   27.10    5.10
  -5  11  -6   28.90    4.80
  -5  11  -6   24.90    5.50
   5 -11   6   26.40    4.10
  -6  11  -6   89.49    8.80
  -7  11  -6   38.10    5.70
   7  10  -6   78.99    8.70
   7  10  -6   84.89    8.10
   6  10  -6   29.40    4.80
   6  10  -6   26.40    4.50
  -6 -10   6   25.70    3.80
   5  10  -6   71.29    6.90
   5  10  -6   76.29    7.00
   5  10  -6   62.49    7.30
  -5 -10   6   79.99    6.40
   4  10  -6   28.90    3.90
   4  10  -6   22.20    4.00
   4  10  -6   23.60    4.30
   4  10  -6   30.60    3.20
  -4 -10   6   25.90    3.40
   3  10  -6   16.00    2.50
   3  10  -6    7.00    2.80
   3  10  -6   11.40    3.20
   3  10  -6   10.70    3.20
   3  10  -6   13.60    3.10
  -3 -10   6   11.20    2.50
   2  10  -6   67.29    5.80
   2  10  -6   74.19    6.40
   2  10  -6   66.69    6.70
   2  10  -6   72.49    7.10
  -2 -10   6   66.79    6.00
   1  10  -6   24.40    3.40
   1  10  -6   28.20    4.40
  -1 -10   6   20.80    3.20
   0  10  -6   62.19    5.70
   0  10  -6   68.29    6.80
   0 -10   6   65.89    5.90
  -1  10  -6   54.29    5.20
  -1  10  -6   38.40    5.60
  -1  10  -6   52.99    5.40
   1 -10   6   49.70    5.00
  -2  10  -6   32.20    4.60
  -2  10  -6   33.80    4.40
  -2  10  -6   40.50    5.50
   2 -10   6   44.30    4.50
  -3  10  -6  134.39   12.20
  -3  10  -6  161.18   12.00
  -3  10  -6  153.78   11.40
   3 -10   6  161.58   11.30
  -4  10  -6    4.90    3.10
  -4  10  -6    4.30    3.30
  -4  10  -6    2.00    2.70
   4 -10   6    3.40    2.30
  -5  10  -6  164.38   13.10
  -5  10  -6  157.28   12.70
  -5  10  -6  164.38   12.30
   5 -10   6  143.79   11.60
  -6  10  -6   61.99    6.90
  -6  10  -6   63.99    7.40
   6 -10   6   53.29    6.20
  -7  10  -6    2.60    3.20
  -8  10  -6   48.80    6.60
   8   9  -6  130.79   11.40
   8   9  -6  137.59   11.20
   7   9  -6    6.70    3.40
   7   9  -6   10.30    3.50
   6   9  -6  172.48   12.80
   6   9  -6  155.88   12.30
  -6  -9   6  164.68   11.70
   5   9  -6   52.29    5.80
   5   9  -6   45.30    5.20
   5   9  -6   37.00    4.90
  -5  -9   6   49.40    4.70
   4   9  -6   33.50    4.30
   4   9  -6   35.30    4.70
   4   9  -6   38.60    3.70
   4   9  -6   32.80    4.50
  -4  -9   6   43.00    4.20
   3   9  -6   14.40    3.00
   3   9  -6    8.80    2.90
   3   9  -6   15.50    3.20
   3   9  -6   13.00    2.20
   3   9  -6   12.40    2.70
  -3  -9   6   12.00    2.40
   2   9  -6    7.50    2.50
   2   9  -6    5.90    2.60
   2   9  -6    7.00    2.00
   2   9  -6    4.70    2.60
  -2  -9   6    6.10    2.00
   1   9  -6   61.59    6.00
   1   9  -6   49.50    5.00
   1   9  -6   52.09    5.00
  -1  -9   6   61.29    5.10
   0   9  -6  244.58   16.80
   0   9  -6  267.77   17.70
   0  -9   6  251.47   16.80
  -1   9  -6   50.09    4.80
  -1   9  -6   47.50    5.50
  -1   9  -6   45.40    5.00
   1  -9   6   44.40    4.60
  -2   9  -6   56.49    5.40
  -2   9  -6   55.79    5.80
  -2   9  -6   45.60    5.80
   2  -9   6   58.69    5.30
   2  -9   6   55.29    5.80
  -3   9  -6   68.69    6.60
  -3   9  -6   58.69    5.70
  -3   9  -6   54.89    6.70
   3  -9   6   54.39    5.50
   3  -9   6   57.89    6.30
  -4   9  -6   98.39    8.20
  -4   9  -6  101.39    9.10
  -4   9  -6  102.49    8.70
   4  -9   6   83.09    7.80
  -5   9  -6   17.30    3.80
  -5   9  -6   18.40    4.50
  -5   9  -6   20.80    4.20
   5  -9   6   21.30    3.50
  -6   9  -6   53.39    7.00
  -6   9  -6   52.09    7.20
  -6   9  -6   64.39    6.90
   6  -9   6   74.49    6.50
  -7   9  -6    5.40    3.80
  -7   9  -6    3.40    3.20
   7  -9   6   -3.00    2.30
  -8   9  -6    2.70    3.70
   8   8  -6   16.70    4.30
   8   8  -6   15.90    4.20
   7   8  -6    3.50    3.00
   7   8  -6   -1.70    2.60
   6   8  -6  107.69    8.80
   6   8  -6   99.29    8.80
  -6  -8   6  105.39    8.00
   5   8  -6   75.79    7.10
   5   8  -6   83.89    6.90
   5   8  -6   83.19    7.30
  -5  -8   6   71.79    6.20
   4   8  -6   76.09    8.10
   4   8  -6  107.59    7.20
   4   8  -6  121.09    8.40
   4   8  -6  108.99    8.10
  -4  -8   6  109.99    7.70
   3   8  -6  237.18   16.20
   3   8  -6  237.38   15.70
   3   8  -6  234.18   16.50
   3   8  -6  255.27   16.70
  -3  -8   6  252.87   16.00
   2   8  -6  469.05   30.20
   2   8  -6  466.85   29.80
   2   8  -6  442.86   30.50
   2   8  -6  463.75   30.10
   2   8  -6  472.35   30.40
   2   8  -6  522.25   30.60
  -2  -8   6  473.85   30.00
   1   8  -6  113.89    8.80
   1   8  -6  134.09    9.10
   1   8  -6  126.29    9.50
   1   8  -6  122.09    8.70
  -1  -8   6  123.29    8.70
   0   8  -6   28.70    3.80
   0   8  -6   25.20    3.10
   0   8  -6   26.10    3.40
   0  -8   6   29.00    3.20
  -1   8  -6  172.58   14.60
  -1   8  -6  228.88   14.70
  -1   8  -6  213.78   14.20
   1  -8   6  238.98   14.30
  -2   8  -6    0.90    1.90
  -2   8  -6   -0.50    2.10
  -2   8  -6   -0.20    2.00
   2  -8   6   -2.70    1.50
   2  -8   6    0.50    2.10
  -3   8  -6    4.40    2.30
  -3   8  -6    1.70    2.70
  -3   8  -6    1.00    2.40
   3  -8   6    2.50    2.10
   3  -8   6    2.80    1.90
  -4   8  -6    7.20    3.20
  -4   8  -6   11.10    2.90
  -4   8  -6    7.20    3.00
   4  -8   6    7.90    2.60
   4  -8   6    3.40    2.20
  -5   8  -6   46.30    5.40
  -5   8  -6   36.10    5.70
  -5   8  -6   52.29    6.00
   5  -8   6   48.50    5.00
  -6   8  -6   43.90    5.90
  -6   8  -6   48.50    5.60
  -6   8  -6   43.20    6.20
   6  -8   6   48.60    5.30
  -7   8  -6   34.80    5.80
  -7   8  -6   42.60    5.70
   7  -8   6   35.70    4.80
  -8   8  -6   36.80    5.70
  -8   8  -6   39.40    6.10
   8  -8   6   37.40    5.10
  -9   8  -6   10.50    4.10
   9   7  -6    4.40    3.30
   9   7  -6    5.00    3.50
   8   7  -6  234.18   15.80
   8   7  -6  201.58   15.70
   7   7  -6    5.50    3.10
   7   7  -6   10.20    3.20
   6   7  -6   99.69    8.50
   6   7  -6   95.39    8.30
  -6  -7   6  101.69    7.50
   5   7  -6   69.79    6.40
   5   7  -6   71.09    6.70
   5   7  -6   92.79    7.00
  -5  -7   6   66.79    5.80
   4   7  -6  147.09   11.30
   4   7  -6  163.68   11.40
   4   7  -6  149.59   11.20
   4   7  -6  169.68   10.40
  -4  -7   6  160.28   10.80
   3   7  -6    0.50    2.40
   3   7  -6    0.70    1.80
   3   7  -6    0.70    1.70
   3   7  -6    2.90    1.30
   3   7  -6    3.80    2.10
  -3  -7   6   -0.60    1.30
   2   7  -6   -1.90    1.50
   2   7  -6    1.20    2.00
   2   7  -6    0.90    1.70
   2   7  -6    1.50    2.10
   2   7  -6    2.60    1.80
   2   7  -6    1.80    1.30
  -2  -7   6    0.60    1.20
   1   7  -6   35.00    3.70
   1   7  -6   31.20    3.30
   1   7  -6   24.70    3.50
   1   7  -6   32.60    3.10
  -1  -7   6   33.90    3.20
   0   7  -6   25.90    3.60
   0   7  -6   34.50    3.60
   0   7  -6   34.80    3.50
   0   7  -6   29.60    3.10
   0  -7   6   30.50    3.20
  -1   7  -6   48.20    4.70
  -1   7  -6   39.70    4.60
  -1   7  -6   45.40    4.10
   1  -7   6   41.70    4.00
  -2   7  -6   36.00    4.00
  -2   7  -6   24.10    3.80
  -2   7  -6   28.00    3.40
   2  -7   6   30.10    3.30
   2  -7   6   31.10    3.90
  -3   7  -6   -1.10    2.10
  -3   7  -6   -2.10    1.90
  -3   7  -6    3.00    2.50
   3  -7   6    1.10    1.80
   3  -7   6    1.50    1.90
  -4   7  -6   95.99    7.70
  -4   7  -6   66.59    7.00
  -4   7  -6  106.69    8.00
   4  -7   6   74.79    7.00
   4  -7   6   81.49    6.70
  -5   7  -6    4.50    2.60
  -5   7  -6   -2.20    2.50
  -5   7  -6    1.10    2.70
   5  -7   6    2.60    2.20
   5  -7   6    5.30    2.40
  -6   7  -6  109.89   10.60
  -6   7  -6  139.09   10.70
  -6   7  -6  122.29   10.00
   6  -7   6  134.29    9.80
  -7   7  -6   40.60    5.50
  -7   7  -6   42.20    6.00
   7  -7   6   42.10    4.90
  -8   7  -6  389.36   24.70
  -8   7  -6  326.37   24.10
   8  -7   6  343.27   23.60
  -9   7  -6    1.60    3.70
   9  -7   6    2.30    3.40
 -10   7  -6  260.17   20.20
  10  -7   6  298.27   20.40
   9   6  -6   24.10    4.40
   9   6  -6   21.90    4.60
   8   6  -6   17.80    4.10
   8   6  -6   26.10    4.20
   7   6  -6  117.79    9.70
   7   6  -6  133.89   10.10
   6   6  -6   10.30    3.30
   6   6  -6   10.80    2.60
   6   6  -6    4.60    2.70
  -6  -6   6   10.20    2.00
   5   6  -6    9.20    2.90
   5   6  -6    9.90    2.30
   5   6  -6    5.60    2.40
   5   6  -6    6.30    2.30
  -5  -6   6    7.50    1.80
   4   6  -6   22.50    3.60
   4   6  -6   14.80    2.80
   4   6  -6   23.20    3.10
   4   6  -6   12.50    3.30
   4   6  -6   18.60    3.00
   4   6  -6   21.50    2.00
  -4  -6   6   20.80    2.50
   3   6  -6   70.99    6.10
   3   6  -6   71.89    6.50
   3   6  -6   73.29    5.80
   3   6  -6   73.09    6.30
   3   6  -6   75.19    5.10
   3   6  -6   72.49    5.90
  -3  -6   6   73.19    5.40
   2   6  -6  152.28   10.80
   2   6  -6  154.78   11.20
   2   6  -6  156.38   10.40
   2   6  -6  161.68   11.20
   2   6  -6  190.08   11.20
  -2  -6   6  148.59   10.50
   1   6  -6   -0.60    1.30
   1   6  -6    0.30    1.30
   1   6  -6   -1.20    1.10
   1   6  -6    2.40    1.50
   1   6  -6    3.00    2.00
   1   6  -6    1.30    1.50
   1   6  -6    3.10    1.90
  -1  -6   6    2.20    1.20
   0   6  -6    6.40    1.90
   0   6  -6    6.40    1.60
   0   6  -6    7.50    1.60
   0   6  -6    7.00    2.00
   0   6  -6    2.40    1.70
   0  -6   6    8.50    1.60
  -1   6  -6    0.60    1.60
  -1   6  -6   -0.70    1.40
  -1   6  -6   -0.80    1.50
  -1   6  -6    1.70    1.60
   1  -6   6    0.70    1.20
  -2   6  -6  936.21   59.39
  -2   6  -6  923.31   59.49
  -2   6  -6  955.30   58.99
  -2   6  -6 1026.90   58.99
   2  -6   6  935.31   58.99
   2  -6   6  911.31   59.49
  -3   6  -6   46.80    4.50
  -3   6  -6   52.19    5.10
  -3   6  -6   37.50    4.70
   3  -6   6   46.00    4.30
   3  -6   6   44.70    4.70
  -4   6  -6 1378.56   86.09
  -4   6  -6 1402.36   86.49
   4  -6   6 1360.16   85.89
   4  -6   6 1399.56   86.29
  -5   6  -6   25.60    3.80
  -5   6  -6   23.30    4.10
  -5   6  -6   29.30    4.20
   5  -6   6   26.60    3.30
   5  -6   6   21.30    3.50
  -6   6  -6 1572.04   95.29
  -6   6  -6 1466.95   95.39
  -6   6  -6 1421.66   94.69
   6  -6   6 1552.64   94.49
   6  -6   6 1592.34   94.89
  -7   6  -6   16.70    4.30
  -7   6  -6    9.30    3.30
  -7   6  -6   11.10    3.70
   7  -6   6   11.50    3.10
  -8   6  -6  783.52   51.69
  -8   6  -6  829.32   51.69
   8  -6   6  809.02   51.09
   8  -6   6  795.42   51.49
  -9   6  -6   20.60    4.60
  -9   6  -6    8.80    3.90
   9  -6   6   20.90    4.50
   9  -6   6   16.80    3.70
 -10   6  -6  110.09   10.50
  10  -6   6  117.19   10.60
  10   5  -6    3.60    3.70
  10   5  -6    6.50    3.50
   9   5  -6   38.90    5.40
   9   5  -6   33.80    5.20
   8   5  -6    3.70    3.00
   8   5  -6    0.60    2.90
   8   5  -6    3.40    2.70
   7   5  -6    7.60    3.10
   7   5  -6   18.60    3.30
   7   5  -6   15.30    3.60
   6   5  -6    0.70    2.60
   6   5  -6    1.80    2.10
   6   5  -6   -0.80    2.40
  -6  -5   6    5.70    1.70
   5   5  -6    9.20    2.30
   5   5  -6    6.00    2.10
   5   5  -6    9.00    2.40
   5   5  -6   11.00    2.80
  -5  -5   6   12.00    1.90
   4   5  -6   97.29    8.00
   4   5  -6  104.39    7.80
   4   5  -6  113.29    7.60
   4   5  -6   98.09    7.70
   4   5  -6   91.79    8.00
  -4  -5   6  103.99    7.10
   3   5  -6   67.89    5.10
   3   5  -6   60.19    5.00
   3   5  -6   59.29    4.00
   3   5  -6   61.09    5.30
   3   5  -6   67.19    5.60
   3   5  -6   59.49    5.50
  -3  -5   6   52.79    4.40
   2   5  -6   87.99    5.90
   2   5  -6   75.09    5.70
   2   5  -6   78.09    6.30
   2   5  -6   69.99    6.10
   2   5  -6   69.19    6.10
   2   5  -6   77.69    5.10
  -2  -5   6   74.69    5.40
   1   5  -6   60.09    4.30
   1   5  -6   59.39    5.30
   1   5  -6   61.09    4.80
   1   5  -6   52.29    4.90
   1   5  -6   53.19    4.70
   1   5  -6   61.49    4.50
   1   5  -6   73.19    5.10
  -1  -5   6   61.09    4.40
   0   5  -6 2230.38  132.19
   0   5  -6 2180.88  132.19
   0   5  -6 2179.28  132.29
   0   5  -6 2174.58  131.79
   0   5  -6 1889.31  132.09
   0  -5   6 2215.58  131.89
  -1   5  -6  110.69    7.50
  -1   5  -6  113.99    8.00
  -1   5  -6   83.89    7.70
  -1   5  -6  121.69    7.70
   1  -5   6  118.49    7.50
  -2   5  -6 3554.14  205.68
  -2   5  -6 3277.37  205.98
  -2   5  -6 3210.68  205.58
   2  -5   6 3391.36  206.08
   2  -5   6 3295.07  205.58
  -3   5  -6    3.90    2.20
  -3   5  -6    5.40    1.90
  -3   5  -6    5.90    2.10
  -3   5  -6    7.60    1.80
   3  -5   6    7.80    1.90
   3  -5   6    4.30    2.00
  -4   5  -6 1775.12  106.19
  -4   5  -6 1699.13  105.69
  -4   5  -6 1746.33  106.09
   4  -5   6 1648.44  105.49
   4  -5   6 1668.23  105.89
  -5   5  -6   53.69    5.90
  -5   5  -6   58.69    6.10
  -5   5  -6   65.29    5.80
   5  -5   6   62.09    5.70
   5  -5   6   54.29    5.20
  -6   5  -6  643.04   35.70
  -6   5  -6  491.45   34.80
  -6   5  -6  550.24   34.70
   6  -5   6  474.85   34.50
   6  -5   6  539.55   34.40
  -7   5  -6   32.10    4.60
  -7   5  -6   34.20    5.10
  -7   5  -6   25.10    4.50
   7  -5   6   26.90    4.00
   7  -5   6   30.90    4.50
   7  -5   6   29.30    4.10
  -8   5  -6    1.60    3.00
  -8   5  -6    5.50    3.30
   8  -5   6    4.90    3.10
   8  -5   6    2.20    2.60
  -9   5  -6    3.40    3.30
  -9   5  -6    0.30    3.00
   9  -5   6    0.20    2.70
   9  -5   6    1.00    3.30
 -10   5  -6   26.40    6.80
 -10   5  -6   21.30    5.00
  10  -5   6   27.20    5.10
  10   4  -6   17.60    4.20
  10   4  -6   15.10    4.20
   9   4  -6   10.70    3.70
   9   4  -6   13.70    3.70
   8   4  -6   31.40    4.80
   8   4  -6   39.70    4.90
   8   4  -6   43.80    5.10
   7   4  -6   17.60    3.70
   7   4  -6   25.30    4.00
   7   4  -6   30.20    3.90
  -7  -4   6   23.20    3.30
   6   4  -6  677.13   43.40
   6   4  -6  676.83   43.80
   6   4  -6  682.03   43.40
   6   4  -6  734.13   43.40
  -6  -4   6  649.34   42.70
   5   4  -6    3.60    2.30
   5   4  -6    8.30    2.30
   5   4  -6    4.90    1.90
   5   4  -6    7.90    2.90
   5   4  -6    7.40    2.00
  -5  -4   6    5.10    1.30
   4   4  -6 1349.56   84.99
   4   4  -6 1260.97   84.89
   4   4  -6 1511.75   84.89
   4   4  -6 1319.17   85.29
   4   4  -6 1405.06   85.19
  -4  -4   6 1371.96   84.49
   3   4  -6   33.60    3.60
   3   4  -6   27.80    3.50
   3   4  -6   29.60    2.90
   3   4  -6   30.10    3.70
   3   4  -6   23.70    3.00
  -3  -4   6   33.60    2.60
   2   4  -6 5016.50  305.17
   2   4  -6 4969.30  304.77
   2   4  -6 4987.40  305.17
   2   4  -6 4911.41  304.87
   2   4  -6 4907.01  305.17
  -2  -4   6 5020.60  304.57
   1   4  -6  158.58   10.40
   1   4  -6  148.79   10.60
   1   4  -6  153.88    9.80
   1   4  -6  153.48   10.10
   1   4  -6  165.08   10.30
   1   4  -6  155.88   10.70
   1   4  -6  150.28   10.70
  -1  -4   6  152.88   10.00
   0   4  -6 5274.27  323.07
   0   4  -6 5243.58  323.57
   0   4  -6 4969.10  323.47
   0   4  -6 5439.56  323.17
   0   4  -6 5133.49  323.47
   0   4  -6 5257.67  323.57
   0   4  -6 5680.03  323.47
   0  -4   6 5162.28  323.07
  -1   4  -6   95.49    7.00
  -1   4  -6   99.19    7.20
  -1   4  -6  106.89    6.70
  -1   4  -6   88.79    7.00
  -1   4  -6   94.19    7.20
   1  -4   6  102.59    6.70
  -2   4  -6  860.01   51.29
  -2   4  -6  837.32   51.59
  -2   4  -6  751.02   51.49
  -2   4  -6  822.82   51.19
   2  -4   6  861.21   51.19
   2  -4   6  820.92   51.69
  -3   4  -6   26.00    3.40
  -3   4  -6   23.00    3.20
  -3   4  -6   24.80    2.90
   3  -4   6   26.00    2.70
   3  -4   6   27.50    3.30
  -4   4  -6   35.00    4.20
  -4   4  -6   34.10    4.10
  -4   4  -6   32.70    3.60
   4  -4   6   34.50    4.00
   4  -4   6   40.60    3.70
  -5   4  -6   44.80    5.00
  -5   4  -6   48.30    5.20
  -5   4  -6   45.70    4.30
  -5   4  -6   42.40    4.70
   5  -4   6   49.00    4.80
   5  -4   6   44.90    4.40
  -6   4  -6  296.07   19.60
  -6   4  -6  298.47   19.40
  -6   4  -6  255.27   19.60
   6  -4   6  277.17   19.30
   6  -4   6  300.47   19.40
   6  -4   6  302.57   19.00
  -7   4  -6  179.58   14.80
  -7   4  -6  229.38   14.80
  -7   4  -6  209.38   14.50
   7  -4   6  179.08   14.10
   7  -4   6  221.88   14.50
   7  -4   6  196.38   14.00
  -8   4  -6  111.19    9.80
  -8   4  -6  117.99    9.80
   8  -4   6  124.09    9.90
   8  -4   6  112.49    9.30
  -9   4  -6   52.09    6.20
  -9   4  -6   45.40    6.00
   9  -4   6   39.00    5.30
   9  -4   6   50.69    6.30
 -10   4  -6   26.60    5.00
 -10   4  -6   31.20    5.40
  10  -4   6   32.30    5.40
  10  -4   6   32.00    4.80
 -11   4  -6   58.89    7.30
  11  -4   6   44.90    6.50
  10   3  -6   54.79    6.40
  10   3  -6   51.29    6.50
   9   3  -6   32.60    4.70
   9   3  -6   27.50    4.70
   8   3  -6  547.65   36.50
   8   3  -6  588.54   36.40
   8   3  -6  563.04   36.60
   7   3  -6    2.40    2.50
   7   3  -6    1.80    2.10
   7   3  -6    3.80    2.60
  -7  -3   6    7.00    1.80
   6   3  -6  689.53   45.10
   6   3  -6  756.42   45.30
   6   3  -6  721.23   45.50
   6   3  -6  672.03   45.40
  -6  -3   6  752.22   44.80
   5   3  -6    1.60    1.70
   5   3  -6    1.20    1.50
   5   3  -6    1.10    2.10
   5   3  -6   -1.80    1.90
   5   3  -6    0.70    1.90
  -5  -3   6   -0.70    1.00
   4   3  -6 1201.18   73.89
   4   3  -6 1292.67   73.69
   4   3  -6 1192.08   74.19
   4   3  -6 1133.79   73.79
   4   3  -6 1175.78   73.99
  -4  -3   6 1144.99   73.29
   3   3  -6  135.69   10.00
   3   3  -6  160.28    9.60
   3   3  -6  146.79    9.90
   3   3  -6  143.39   10.20
   3   3  -6  146.79   10.30
  -3  -3   6  139.49    9.30
   2   3  -6  471.95   28.90
   2   3  -6  472.65   29.30
   2   3  -6  421.56   28.70
   2   3  -6  473.35   29.30
   2   3  -6  472.05   29.30
  -2  -3   6  468.25   28.60
   1   3  -6  161.08   10.10
   1   3  -6  166.58   10.60
   1   3  -6  138.49   10.00
   1   3  -6  147.89   10.60
   1   3  -6  164.98   10.40
   1   3  -6  160.18   10.60
  -1  -3   6  160.58    9.90
   0   3  -6  945.21   58.99
   0   3  -6  925.51   59.49
   0   3  -6 1015.80   59.59
   0   3  -6  945.41   59.29
   0   3  -6  961.20   59.59
   0  -3   6  967.30   59.09
  -1   3  -6  249.78   16.20
  -1   3  -6  253.27   16.20
  -1   3  -6  256.87   16.20
  -1   3  -6  247.28   16.20
  -1   3  -6  271.47   16.40
  -1   3  -6  253.97   15.90
   1  -3   6  238.68   15.80
   1  -3   6  236.78   16.40
  -2   3  -6 1137.99   67.09
  -2   3  -6 1062.39   66.79
  -2   3  -6 1078.89   66.59
  -2   3  -6 1046.50   66.89
   2  -3   6 1070.69   66.59
   2  -3   6 1074.49   67.09
  -3   3  -6   32.90    4.00
  -3   3  -6   48.00    4.00
  -3   3  -6   44.10    3.80
  -3   3  -6   47.60    4.30
   3  -3   6   38.20    4.10
   3  -3   6   49.70    3.80
  -4   3  -6 1066.49   62.89
  -4   3  -6 1059.39   63.39
  -4   3  -6 1050.39   63.49
  -4   3  -6  935.91   62.99
   4  -3   6 1026.60   62.99
   4  -3   6  944.81   63.29
  -5   3  -6  214.78   13.30
  -5   3  -6  205.18   14.30
  -5   3  -6  184.18   13.10
  -5   3  -6  222.88   14.10
  -5   3  -6  183.38   13.70
   5  -3   6  204.68   13.60
   5  -3   6  212.28   13.80
   5  -3   6  198.58   13.90
  -6   3  -6   79.29    6.80
  -6   3  -6   78.99    6.60
  -6   3  -6   80.79    7.20
   6  -3   6   69.49    6.40
   6  -3   6   70.99    6.10
   6  -3   6   64.39    6.40
  -7   3  -6    4.30    2.50
  -7   3  -6    2.60    2.90
  -7   3  -6    1.60    2.50
   7  -3   6    5.00    2.60
   7  -3   6   -0.30    2.20
   7  -3   6    2.00    2.20
  -8   3  -6    1.70    2.90
  -8   3  -6    9.80    3.20
   8  -3   6    9.00    2.80
   8  -3   6    3.40    2.90
  -9   3  -6    0.50    2.80
  -9   3  -6   -2.60    2.80
   9  -3   6    2.10    2.50
   9  -3   6    0.70    3.00
 -10   3  -6   -0.30    3.00
 -10   3  -6    1.50    3.50
  10  -3   6    4.00    3.40
  10  -3   6   -0.20    2.90
 -11   3  -6    9.30    4.30
  11  -3   6   12.60    4.20
  10   2  -6  306.97   19.70
  10   2  -6  252.37   19.40
   9   2  -6   13.80    3.70
   9   2  -6   13.10    3.70
   8   2  -6  215.18   15.30
   8   2  -6  210.68   15.30
   8   2  -6  218.48   15.10
   7   2  -6   17.70    3.10
   7   2  -6   17.80    3.30
   7   2  -6   14.70    3.20
  -7  -2   6   14.40    2.40
   6   2  -6   63.39    5.60
   6   2  -6   57.49    5.00
   6   2  -6   56.79    5.50
   6   2  -6   52.49    5.10
  -6  -2   6   56.49    4.50
   5   2  -6    9.70    2.10
   5   2  -6    9.50    2.80
   5   2  -6   11.50    2.30
   5   2  -6    9.60    2.50
   5   2  -6    9.00    1.90
  -5  -2   6   12.00    1.60
   4   2  -6   11.60    2.40
   4   2  -6   10.60    1.70
   4   2  -6   12.10    2.50
   4   2  -6   11.20    2.10
   4   2  -6   11.50    2.20
  -4  -2   6   10.00    1.30
   3   2  -6  678.23   42.50
   3   2  -6  701.43   42.10
   3   2  -6  681.73   42.70
   3   2  -6  673.63   42.70
   3   2  -6  669.03   42.80
  -3  -2   6  682.33   42.00
   2   2  -6 1811.12  107.59
   2   2  -6 1638.24  107.79
   2   2  -6 1713.23  107.29
   2   2  -6 1770.72  107.59
   2   2  -6 1790.72  106.89
  -2  -2   6 1726.53  106.89
   1   2  -6 1594.24   94.99
   1   2  -6 1425.46   94.39
   1   2  -6 1560.64   94.59
   1   2  -6 1569.14   94.99
  -1  -2   6 1547.55   94.29
   0   2  -6  441.16   26.60
   0   2  -6  433.96   26.60
   0   2  -6  431.36   25.90
   0   2  -6  428.46   26.50
   0   2  -6  448.06   26.50
   0   2  -6  354.76   26.10
   0  -2   6  418.66   26.00
  -1   2  -6  187.68   13.30
  -1   2  -6  213.78   13.10
  -1   2  -6  208.78   13.50
  -1   2  -6  206.68   13.40
  -1   2  -6  216.68   13.60
  -1   2  -6  204.58   13.60
   1  -2   6  208.98   13.10
   1  -2   6  212.98   13.70
  -2   2  -6   15.90    2.00
  -2   2  -6   20.40    2.40
  -2   2  -6   30.70    3.00
  -2   2  -6   18.30    2.20
  -2   2  -6   14.30    2.10
   2  -2   6   17.30    2.40
   2  -2   6   15.70    1.90
  -3   2  -6  403.46   26.80
  -3   2  -6  445.06   27.30
  -3   2  -6  423.96   26.80
  -3   2  -6  414.86   26.90
   3  -2   6  430.46   27.20
   3  -2   6  442.46   26.80
  -4   2  -6  142.09    9.50
  -4   2  -6  151.78    9.20
  -4   2  -6  145.89    9.80
  -4   2  -6  145.59    9.10
  -4   2  -6  103.89    9.50
   4  -2   6  126.89    9.20
   4  -2   6  123.89    9.50
   4  -2   6  143.19    9.40
  -5   2  -6    5.70    1.50
  -5   2  -6    8.60    2.40
  -5   2  -6    7.10    2.20
  -5   2  -6    9.00    2.50
   5  -2   6   10.40    2.20
   5  -2   6    4.20    1.90
   5  -2   6    8.90    1.90
  -6   2  -6  210.08   15.10
  -6   2  -6  225.38   15.00
  -6   2  -6  188.78   15.30
  -6   2  -6  266.67   15.30
   6  -2   6  229.18   15.20
   6  -2   6  206.48   15.00
   6  -2   6  222.88   14.70
  -7   2  -6   -0.30    2.50
  -7   2  -6   -0.10    2.30
  -7   2  -6    2.20    2.30
   7  -2   6    0.80    2.00
   7  -2   6   -1.40    2.30
   7  -2   6   -1.70    2.10
  -8   2  -6    0.60    2.60
  -8   2  -6    3.20    2.70
   8  -2   6    0.20    2.70
   8  -2   6    3.20    2.50
   8  -2   6   -1.00    2.20
  -9   2  -6   -2.30    2.60
  -9   2  -6   -2.80    2.60
   9  -2   6    0.20    2.50
   9  -2   6    2.30    2.80
 -10   2  -6    1.70    3.40
  10  -2   6   -0.70    2.90
  10  -2   6    4.10    2.80
 -11   2  -6    4.10    3.80
  11  -2   6    3.10    3.60
  11   1  -6   24.20    4.80
  10   1  -6   -3.20    2.80
  10   1  -6    4.50    3.40
   9   1  -6   -1.40    2.50
   9   1  -6    0.60    2.90
   8   1  -6   82.39    7.40
   8   1  -6   72.49    7.30
   8   1  -6   89.79    7.20
   7   1  -6    2.90    2.20
   7   1  -6    3.50    2.50
   7   1  -6    2.50    2.40
   6   1  -6   92.19    7.80
   6   1  -6  100.49    7.70
   6   1  -6  108.69    7.40
   6   1  -6   85.29    7.40
   6   1  -6   99.29    7.20
  -6  -1   6   88.89    6.70
   5   1  -6   76.69    6.40
   5   1  -6   78.29    6.10
   5   1  -6   73.39    6.10
   5   1  -6   66.99    5.70
   5   1  -6   74.39    5.70
   5   1  -6   77.69    5.70
  -5  -1   6   72.39    5.20
   4   1  -6  645.74   38.70
   4   1  -6  614.84   39.20
   4   1  -6  622.74   38.90
   4   1  -6  589.84   39.00
   4   1  -6  618.14   39.10
   4   1  -6  622.44   39.30
  -4  -1   6  640.84   38.50
   3   1  -6  173.58   11.30
   3   1  -6  171.48   10.50
   3   1  -6  167.98   11.10
   3   1  -6  157.28   11.20
   3   1  -6  161.78   11.00
   3   1  -6  165.58   10.80
  -3  -1   6  161.28   10.40
   2   1  -6   25.10    2.50
   2   1  -6   29.40    2.50
   2   1  -6   27.90    2.90
   1   1  -6  455.65   28.20
   1   1  -6  451.05   28.50
   0   1  -6  781.92   52.89
   0   1  -6  863.51   53.29
   0   1  -6  859.51   53.29
   0   1  -6  873.51   53.39
   0  -1   6  905.01   53.39
   0  -1   6  878.71   52.79
  -1   1  -6    9.20    1.60
  -1   1  -6    9.60    1.20
  -1   1  -6    9.00    1.60
  -1   1  -6   10.40    1.50
  -1   1  -6    9.00    1.70
   1  -1   6    9.70    1.20
   1  -1   6    5.80    1.50
  -2   1  -6  581.64   32.30
  -2   1  -6  511.15   32.10
  -2   1  -6  492.95   32.10
  -2   1  -6  499.95   32.00
  -2   1  -6  498.75   32.40
  -2   1  -6  530.85   32.00
   2  -1   6  496.15   31.90
   2  -1   6  494.75   32.30
  -3   1  -6  138.69    8.80
  -3   1  -6  122.69    9.30
  -3   1  -6  106.69    9.10
  -3   1  -6  146.89    9.00
  -3   1  -6  127.79    8.90
   3  -1   6  146.39    8.90
   3  -1   6  140.89    9.30
  -4   1  -6  322.87   19.00
  -4   1  -6  285.77   18.60
  -4   1  -6  281.57   18.20
  -4   1  -6  291.77   18.90
   4  -1   6  256.77   18.70
   4  -1   6  279.77   18.40
   4  -1   6  295.27   18.60
  -5   1  -6    3.00    1.90
  -5   1  -6    1.70    2.10
  -5   1  -6    2.30    1.40
  -5   1  -6    3.50    1.80
   5  -1   6    4.00    1.90
   5  -1   6    1.30    1.40
   5  -1   6    2.10    1.80
  -6   1  -6   40.20    3.80
  -6   1  -6   39.50    4.50
  -6   1  -6   38.10    4.30
  -6   1  -6   39.20    4.90
   6  -1   6   48.10    4.70
   6  -1   6   47.60    4.80
   6  -1   6   38.70    4.00
  -7   1  -6   15.50    3.40
  -7   1  -6   19.50    3.80
  -7   1  -6   15.20    3.10
   7  -1   6   19.40    3.30
   7  -1   6   15.00    2.80
   7  -1   6   17.80    3.10
  -8   1  -6    0.50    2.50
  -8   1  -6   -2.10    2.40
   8  -1   6    3.40    2.50
   8  -1   6    0.00    2.10
   8  -1   6   -3.60    1.90
  -9   1  -6   10.70    3.30
  -9   1  -6   14.90    3.80
   9  -1   6    4.10    2.90
   9  -1   6   14.40    3.60
 -10   1  -6   22.10    4.50
  10  -1   6   12.30    3.40
  10  -1   6   17.40    4.30
 -11   1  -6    2.20    3.70
  11  -1   6   10.40    3.90
  11   0  -6    0.30    3.40
  11   0  -6    4.00    3.50
  10   0  -6   32.60    5.30
  10   0  -6   38.50    5.70
   9   0  -6   26.50    4.40
   9   0  -6   23.00    4.30
   8   0  -6    0.30    2.40
   8   0  -6    1.40    2.40
   8   0  -6   -1.50    2.40
  -8   0   6    0.40    1.70
   7   0  -6   37.80    4.40
   7   0  -6   36.50    4.30
   7   0  -6   36.50    3.90
   7   0  -6   36.00    4.40
   6   0  -6   18.30    2.60
   6   0  -6   18.40    2.60
   6   0  -6   17.30    2.70
   6   0  -6   15.90    2.90
   6   0  -6   17.50    2.90
   6   0  -6   17.70    3.30
   5   0  -6  138.99   10.70
   5   0  -6  144.89   10.70
   5   0  -6  148.59   10.90
   5   0  -6  173.98   10.50
   5   0  -6  156.48   10.60
   4   0  -6  109.49    7.70
   4   0  -6  113.99    8.00
   4   0  -6  105.89    7.70
   4   0  -6  104.79    7.30
   4   0  -6  116.29    8.00
  -4   0   6  106.19    7.10
   3   0  -6   63.59    4.30
   3   0  -6   65.39    4.90
   3   0  -6   67.19    4.30
   3   0  -6   62.79    5.20
   3   0  -6   64.99    5.10
   3   0  -6   61.49    5.20
  -3   0   6   61.09    4.20
   2   0  -6  406.86   25.00
   2   0  -6  390.06   25.00
   2   0  -6  387.36   24.80
   2   0  -6  395.16   24.40
   1   0  -6  277.87   17.70
   1   0  -6  283.67   18.00
   0   0  -6   80.49    5.80
   0   0  -6   85.99    5.40
   0   0  -6   78.09    5.80
   0   0   6   80.59    5.30
   0   0   6   78.19    5.80
   0   0   6   84.49    5.30
  -1   0  -6  279.47   17.50
  -1   0  -6  284.47   17.20
  -1   0  -6  274.57   17.70
  -1   0  -6  295.87   17.60
  -1   0  -6  277.67   17.30
  -1   0  -6  273.27   17.70
   1   0   6  274.97   17.30
   1   0   6  257.47   17.70
  -2   0  -6   76.89    6.10
  -2   0  -6   84.49    5.80
  -2   0  -6   86.19    5.70
  -2   0  -6   77.29    5.90
  -2   0  -6   84.59    5.60
  -2   0  -6   67.89    5.80
   2   0   6   90.89    6.10
   2   0   6   86.09    5.60
  -3   0  -6  193.28   12.50
  -3   0  -6  194.58   12.70
  -3   0  -6  167.98   13.00
  -3   0  -6  206.08   12.90
  -3   0  -6  201.08   13.10
  -3   0  -6  205.38   12.90
   3   0   6  222.78   13.20
   3   0   6  187.18   12.70
  -4   0  -6  541.55   33.90
  -4   0  -6  542.65   34.00
  -4   0  -6  502.35   34.20
  -4   0  -6  514.95   34.20
  -4   0  -6  550.94   33.60
   4   0   6  625.74   34.20
   4   0   6  564.14   33.90
   4   0   6  483.45   34.10
  -5   0  -6  257.07   15.00
  -5   0  -6  210.88   14.30
  -5   0  -6  211.08   14.60
  -5   0  -6  238.18   15.10
   5   0   6  229.68   14.80
   5   0   6  184.98   14.50
   5   0   6  207.98   14.40
  -6   0  -6   20.90    2.80
  -6   0  -6   19.60    3.20
  -6   0  -6   30.70    4.10
  -6   0  -6   19.10    3.00
   6   0   6   20.00    2.80
   6   0   6   23.90    3.40
   6   0   6   19.20    3.20
  -7   0  -6   47.50    4.80
  -7   0  -6   35.40    4.50
  -7   0  -6   45.80    5.50
  -7   0  -6   37.10    4.00
   7   0   6   41.40    4.50
   7   0   6   41.00    4.20
   7   0   6   35.00    4.50
  -8   0  -6   42.70    5.00
  -8   0  -6   40.20    4.90
   8   0   6   32.90    4.70
   8   0   6   49.20    5.30
   8   0   6   38.30    4.60
  -9   0  -6   -1.10    2.70
   9   0   6    2.50    2.80
   9   0   6    1.60    2.40
 -10   0  -6   11.30    4.00
  10   0   6   10.60    3.60
  10   0   6    8.80    3.20
 -11   0  -6    5.80    3.80
  11   0   6    1.40    3.40
  11  -1  -6    5.20    3.90
  11  -1  -6    4.30    3.80
  10  -1  -6   19.80    4.50
  10  -1  -6   24.70    4.50
   9  -1  -6    2.10    2.90
   9  -1  -6    1.60    3.00
   8  -1  -6    0.70    2.50
   8  -1  -6    2.30    1.90
   8  -1  -6   -0.30    2.50
   8  -1  -6    1.30    2.50
   7  -1  -6    2.00    1.20
   7  -1  -6    1.70    2.10
   7  -1  -6    0.30    2.10
   7  -1  -6   -1.60    2.10
  -7   1   6    4.30    1.70
   6  -1  -6   21.80    3.30
   6  -1  -6   21.20    3.30
   6  -1  -6   27.00    3.30
   6  -1  -6   27.70    3.40
   6  -1  -6   25.00    2.30
   6  -1  -6   24.40    3.50
  -6   1   6   24.30    2.80
   5  -1  -6  137.49    9.50
   5  -1  -6  122.89    9.10
   5  -1  -6  135.29    9.30
   5  -1  -6  138.39    9.60
   5  -1  -6  131.19    9.50
   5  -1  -6  137.69    8.30
  -5   1   6  123.39    9.00
   4  -1  -6   69.59    5.30
   4  -1  -6   69.29    5.80
   4  -1  -6   73.69    5.70
   4  -1  -6   72.09    5.60
   4  -1  -6   76.59    5.00
   4  -1  -6   72.99    5.80
   3  -1  -6   30.00    3.10
   3  -1  -6   32.40    3.20
   3  -1  -6   28.80    2.40
   3  -1  -6   23.90    2.70
   3  -1  -6   29.00    3.10
   3  -1  -6   28.00    2.40
   2  -1  -6  257.07   16.60
   2  -1  -6  270.17   16.80
   2  -1  -6  263.27   16.40
   2  -1  -6  266.77   16.80
  -2   1   6  249.97   16.40
   1  -1  -6  172.78   11.00
   1  -1  -6  178.88   11.20
   1  -1  -6  172.08   11.40
   1  -1  -6  172.48   11.40
  -1   1   6  168.98   11.10
   0  -1  -6   31.90    2.50
   0  -1  -6   33.90    2.60
   0  -1  -6   31.90    2.20
   0  -1  -6   32.00    3.00
   0  -1  -6   35.70    2.90
   0   1   6   33.90    2.80
   0   1   6   28.90    2.50
   0   1   6   28.80    2.50
   0   1   6   30.20    2.30
  -1  -1  -6   20.60    2.20
  -1  -1  -6   21.90    2.20
  -1  -1  -6   18.00    2.20
  -1  -1  -6   23.50    2.20
  -1  -1  -6   23.50    2.00
   1   1   6   19.20    2.30
   1   1   6   24.60    2.00
  -2  -1  -6   68.59    4.70
  -2  -1  -6   64.39    4.90
  -2  -1  -6   72.19    5.00
  -2  -1  -6   64.49    4.70
  -2  -1  -6   64.99    4.60
   2   1   6   65.19    4.60
   2   1   6   58.59    5.00
  -3  -1  -6   31.70    2.90
  -3  -1  -6   29.20    3.20
  -3  -1  -6   27.10    2.60
  -3  -1  -6   24.50    3.00
  -3  -1  -6   28.60    2.90
   3   1   6   34.90    2.90
  -4  -1  -6   91.99    7.60
  -4  -1  -6  110.69    7.50
  -4  -1  -6  107.69    7.00
  -4  -1  -6  101.99    7.50
  -4  -1  -6  104.19    8.00
   4   1   6  118.39    7.90
   4   1   6  110.19    7.50
   4   1   6  103.59    7.50
  -5  -1  -6  358.06   19.80
  -5  -1  -6  290.17   19.50
  -5  -1  -6  275.37   19.20
  -5  -1  -6  294.47   19.90
   5   1   6  307.67   19.50
   5   1   6  291.77   19.30
   5   1   6  281.87   19.60
  -6  -1  -6  320.87   21.20
  -6  -1  -6  325.07   21.50
  -6  -1  -6  333.27   22.00
  -6  -1  -6  359.56   21.60
   6   1   6  312.27   21.20
   6   1   6  323.97   21.50
   6   1   6  320.07   21.60
  -7  -1  -6    0.60    2.20
  -7  -1  -6    1.50    2.50
  -7  -1  -6    1.60    2.00
  -7  -1  -6    0.90    1.70
   7   1   6    0.90    2.20
   7   1   6    4.90    2.10
   7   1   6    2.00    2.20
  -8  -1  -6    4.70    2.80
  -8  -1  -6    8.80    2.50
  -8  -1  -6   10.30    2.70
   8   1   6   13.00    3.20
   8   1   6    8.10    2.70
   8   1   6   11.20    2.70
  -9  -1  -6   15.70    3.90
   9   1   6   24.70    4.10
   9   1   6   20.00    3.60
 -10  -1  -6   -1.40    2.90
  10   1   6    1.20    2.40
  10   1   6    0.40    2.90
 -11  -1  -6   11.10    4.10
  11   1   6   14.30    4.20
  11  -2  -6   -1.60    3.60
  11  -2  -6    1.20    3.70
  10  -2  -6   -0.90    3.10
  10  -2  -6    1.90    3.30
   9  -2  -6   11.10    3.60
   9  -2  -6   13.70    3.90
   8  -2  -6    5.60    2.80
   8  -2  -6    8.50    2.90
   8  -2  -6   10.50    3.20
   8  -2  -6    8.30    1.80
   7  -2  -6    3.40    2.40
   7  -2  -6    0.50    2.30
   7  -2  -6    0.00    2.10
   7  -2  -6   -0.40    1.20
   6  -2  -6   -1.10    2.00
   6  -2  -6    2.90    2.10
   6  -2  -6   -1.70    1.80
   6  -2  -6   -0.90    1.00
   6  -2  -6    0.30    1.80
   5  -2  -6   35.90    3.30
   5  -2  -6   37.20    3.90
   5  -2  -6   40.60    4.20
   5  -2  -6   46.00    4.20
   5  -2  -6   41.70    4.20
   5  -2  -6   34.10    3.00
   5  -2  -6   48.40    4.10
   4  -2  -6  285.77   19.70
   4  -2  -6  313.47   19.20
   4  -2  -6  317.97   20.00
   4  -2  -6  318.27   20.00
   4  -2  -6  320.37   19.60
   4  -2  -6  303.57   20.00
   4  -2  -6  316.57   20.10
   3  -2  -6  171.18   11.40
   3  -2  -6  171.48   11.30
   3  -2  -6  164.78   10.90
   3  -2  -6  166.68   11.30
   3  -2  -6  171.88   11.40
   3  -2  -6  172.58   11.00
  -3   2   6  167.88   10.70
   2  -2  -6  103.49    7.10
   2  -2  -6  104.09    6.80
   2  -2  -6  103.39    6.70
   2  -2  -6  103.19    7.20
   2  -2  -6   95.59    7.10
  -2   2   6  100.69    6.60
   1  -2  -6  222.98   14.00
   1  -2  -6  219.48   14.20
   1  -2  -6  212.48   13.80
   1  -2  -6  218.08   14.20
  -1   2   6  227.68   13.90
   0  -2  -6  202.18   13.70
   0  -2  -6  218.08   13.90
   0  -2  -6  222.38   13.70
   0  -2  -6  216.68   13.90
   0  -2  -6  212.18   13.50
   0  -2  -6  215.18   13.90
   0   2   6  218.48   13.70
   0   2   6  221.38   13.50
   0   2   6  217.98   13.70
   0   2   6  215.18   13.80
  -1  -2  -6   10.30    1.60
  -1  -2  -6    6.30    1.10
  -1  -2  -6    9.90    1.60
  -1  -2  -6    6.50    1.30
  -1  -2  -6    9.40    1.00
  -1  -2  -6    6.90    1.30
  -1  -2  -6    7.50    1.50
   1   2   6    6.90    1.40
   1   2   6   10.00    1.30
   1   2   6    9.00    1.20
  -2  -2  -6   90.09    6.00
  -2  -2  -6   85.79    6.20
  -2  -2  -6   79.49    5.80
  -2  -2  -6   93.89    6.10
  -2  -2  -6   84.79    6.30
  -2  -2  -6   92.49    5.90
   2   2   6   80.29    5.80
   2   2   6   84.09    6.30
   2   2   6   93.19    6.00
  -3  -2  -6  211.38   13.60
  -3  -2  -6  207.88   13.30
  -3  -2  -6  213.18   13.60
  -3  -2  -6  204.38   13.30
  -3  -2  -6  187.68   13.80
   3   2   6  211.78   13.80
   3   2   6  217.68   13.50
   3   2   6  213.58   13.20
  -4  -2  -6    8.00    1.90
  -4  -2  -6    9.90    1.90
  -4  -2  -6   11.30    1.50
  -4  -2  -6   11.00    2.30
  -4  -2  -6   10.30    1.70
   4   2   6   11.30    1.50
   4   2   6   10.60    2.00
   4   2   6    8.30    2.10
   4   2   6    7.80    1.80
  -5  -2  -6   38.40    3.90
  -5  -2  -6   28.30    3.50
  -5  -2  -6   49.80    4.60
  -5  -2  -6   35.60    3.50
   5   2   6   37.90    4.10
   5   2   6   32.50    3.70
   5   2   6   35.30    3.50
  -6  -2  -6  181.28   12.20
  -6  -2  -6  172.58   12.20
  -6  -2  -6  165.38   12.30
  -6  -2  -6  203.28   13.20
  -6  -2  -6  160.28   12.40
   6   2   6  183.28   12.30
   6   2   6  195.08   12.80
   6   2   6  180.78   12.50
  -7  -2  -6  148.29   11.00
  -7  -2  -6  124.89   11.30
  -7  -2  -6  150.68   10.60
   7   2   6  161.78   10.80
   7   2   6  146.99   11.00
   7   2   6  159.28   11.00
  -8  -2  -6   73.79    7.00
   8   2   6   79.79    7.10
   8   2   6   67.89    6.80
   8   2   6   77.19    6.60
  -9  -2  -6    2.20    3.10
   9   2   6    5.70    3.20
   9   2   6    4.80    2.60
 -10  -2  -6   29.30    5.00
  10   2   6   38.20    4.90
  10   2   6   39.90    5.50
 -11  -2  -6   16.10    4.40
  11   2   6    7.30    3.80
  10  -3  -6    4.60    3.30
  10  -3  -6    2.80    3.50
   9  -3  -6    4.30    3.20
   9  -3  -6    6.10    3.30
   9  -3  -6    4.70    3.20
   9  -3  -6    6.20    1.90
   8  -3  -6   32.90    4.50
   8  -3  -6   20.80    4.20
   8  -3  -6   27.00    3.00
   8  -3  -6   26.50    4.10
   7  -3  -6    2.70    2.40
   7  -3  -6    3.40    1.50
   7  -3  -6    2.00    2.40
   7  -3  -6    2.50    2.40
   6  -3  -6    3.40    2.30
   6  -3  -6    6.30    2.20
   6  -3  -6    4.70    1.70
   6  -3  -6    7.00    1.50
   6  -3  -6    4.40    2.20
   5  -3  -6    8.30    2.20
   5  -3  -6    9.90    1.70
   5  -3  -6   12.30    2.50
   5  -3  -6   13.40    2.40
   5  -3  -6   15.20    2.70
   5  -3  -6   12.10    1.90
   4  -3  -6   10.10    2.20
   4  -3  -6   13.10    1.90
   4  -3  -6   15.10    1.60
   4  -3  -6   14.20    2.20
   4  -3  -6   13.20    2.40
   4  -3  -6   12.60    2.20
   4  -3  -6   15.40    2.50
   3  -3  -6  276.97   18.00
   3  -3  -6  284.07   17.70
   3  -3  -6  293.87   17.40
   3  -3  -6  291.97   18.00
   3  -3  -6  261.47   17.90
   3  -3  -6  273.97   18.00
   3  -3  -6  263.57   17.70
   2  -3  -6    2.30    1.10
   2  -3  -6    0.50    1.40
   2  -3  -6    2.00    1.30
   2  -3  -6    2.30    1.10
   2  -3  -6    4.70    1.60
  -2   3   6    1.40    1.30
   1  -3  -6   48.50    3.90
   1  -3  -6   49.50    3.90
   1  -3  -6   51.89    4.10
  -1   3   6   56.69    4.20
  -1   3   6   54.29    3.70
   0  -3  -6   92.19    6.50
   0  -3  -6   94.79    6.30
   0  -3  -6   92.59    6.00
   0  -3  -6   95.59    6.60
   0  -3  -6   96.89    6.70
   0  -3  -6   95.89    6.50
   0   3   6   91.29    6.40
   0   3   6  102.89    6.50
  -1  -3  -6    8.00    1.50
  -1  -3  -6    7.70    1.60
  -1  -3  -6    6.90    1.10
  -1  -3  -6    8.70    1.50
  -1  -3  -6    7.40    1.30
  -1  -3  -6    8.20    1.60
  -1  -3  -6    5.80    1.40
   1   3   6    8.60    1.40
   1   3   6    8.20    1.30
   1   3   6   10.60    1.40
  -2  -3  -6   11.20    1.70
  -2  -3  -6   11.80    1.50
  -2  -3  -6   12.90    1.80
  -2  -3  -6   13.10    1.60
  -2  -3  -6   10.30    1.80
  -2  -3  -6   12.70    2.00
   2   3   6   10.50    1.90
   2   3   6   11.10    1.60
   2   3   6   12.50    1.60
  -3  -3  -6  116.59    7.50
  -3  -3  -6  113.99    7.70
  -3  -3  -6  110.39    7.80
  -3  -3  -6  119.09    8.10
  -3  -3  -6  109.29    7.50
   3   3   6  108.19    7.70
   3   3   6  104.09    7.60
   3   3   6  105.89    7.90
   3   3   6  107.19    7.40
  -4  -3  -6  244.78   15.80
  -4  -3  -6  241.78   16.40
  -4  -3  -6  236.78   16.10
  -4  -3  -6  227.68   16.10
   4   3   6  248.08   15.70
   4   3   6  268.67   16.40
   4   3   6  250.17   15.70
   4   3   6  250.67   16.00
   4   3   6  245.98   16.10
  -5  -3  -6  174.38   11.90
  -5  -3  -6  161.48   12.30
  -5  -3  -6  169.28   11.80
  -5  -3  -6  178.38   11.60
   5   3   6  177.98   12.10
   5   3   6  188.78   11.40
   5   3   6  154.28   11.90
   5   3   6  179.18   11.80
  -6  -3  -6   51.49    5.50
  -6  -3  -6   56.29    4.70
  -6  -3  -6   54.79    5.00
  -6  -3  -6   49.20    5.10
   6   3   6   55.39    5.10
   6   3   6   47.50    5.10
   6   3   6   56.89    4.90
   6   3   6   41.30    4.70
  -7  -3  -6   56.49    5.50
  -7  -3  -6   61.69    6.10
  -7  -3  -6   60.09    5.40
   7   3   6   47.10    5.60
   7   3   6   71.69    6.10
   7   3   6   60.39    5.50
  -8  -3  -6    2.20    2.20
  -8  -3  -6   -1.50    2.40
   8   3   6   -0.40    2.10
   8   3   6    3.30    2.60
  -9  -3  -6    4.10    3.20
   9   3   6    3.20    2.90
   9   3   6    7.40    2.80
 -10  -3  -6    1.00    3.10
  10   3   6   -0.80    2.50
  10   3   6    0.10    3.00
 -11  -3  -6   17.10    4.40
  11   3   6    5.10    3.70
  10  -4  -6    2.10    3.50
 -10   4   6    2.20    3.20
   9  -4  -6    2.80    3.20
   9  -4  -6    5.00    2.00
   9  -4  -6    0.20    2.80
   9  -4  -6    1.00    2.90
   8  -4  -6   57.79    6.00
   8  -4  -6   53.29    4.90
   8  -4  -6   58.59    6.10
   8  -4  -6   58.29    6.50
   7  -4  -6   -0.60    1.50
   7  -4  -6    2.60    2.40
   7  -4  -6    0.30    1.80
   7  -4  -6    1.20    2.40
   7  -4  -6   -2.60    2.20
   6  -4  -6  132.99    9.00
   6  -4  -6  128.69    9.10
   6  -4  -6  132.19    9.80
   6  -4  -6  135.29    9.80
   6  -4  -6  119.49    9.60
   5  -4  -6  244.08   19.10
   5  -4  -6  303.37   18.90
   5  -4  -6  307.77   18.80
   5  -4  -6  315.57   18.60
   5  -4  -6  301.57   19.20
   5  -4  -6  273.97   19.10
   4  -4  -6  249.78   15.40
   4  -4  -6  246.78   15.00
   4  -4  -6  241.28   15.30
   4  -4  -6  245.88   15.80
   4  -4  -6  198.98   15.40
   3  -4  -6   93.89    7.10
   3  -4  -6   92.79    7.00
   3  -4  -6  102.09    6.90
  -3   4   6  113.29    7.40
   2  -4  -6  752.02   47.10
   2  -4  -6  797.32   47.20
   2  -4  -6  742.83   47.20
   2  -4  -6  745.13   47.40
  -2   4   6  758.82   47.30
   1  -4  -6  232.88   19.10
   1  -4  -6  269.47   18.10
   1  -4  -6  287.47   18.00
   1  -4  -6  283.37   17.60
   1  -4  -6  275.87   18.00
   1  -4  -6  295.47   18.10
  -1   4   6  305.37   17.70
  -1   4   6  293.17   18.10
   0  -4  -6   97.09    6.80
   0  -4  -6  101.49    6.90
   0  -4  -6   94.69    6.90
   0  -4  -6   94.99    6.80
   0  -4  -6  104.29    6.40
   0  -4  -6   97.79    6.60
   0   4   6   93.59    6.80
   0   4   6   96.59    6.60
  -1  -4  -6  715.53   46.40
  -1  -4  -6  760.42   46.40
  -1  -4  -6  737.63   46.50
  -1  -4  -6  717.13   46.30
   1   4   6  734.53   46.40
   1   4   6  796.62   46.40
   1   4   6  770.52   46.30
  -2  -4  -6  369.46   24.00
  -2  -4  -6  369.36   23.70
  -2  -4  -6  376.56   23.90
  -2  -4  -6  375.16   23.90
  -2  -4  -6  384.86   24.20
   2   4   6  375.96   23.80
   2   4   6  375.86   24.00
   2   4   6  398.96   23.90
  -3  -4  -6  257.87   16.20
  -3  -4  -6  259.97   16.40
  -3  -4  -6  247.98   16.40
   3   4   6  255.97   16.60
   3   4   6  274.47   16.20
   3   4   6  243.58   16.20
   3   4   6  227.08   16.30
  -4  -4  -6   84.19    6.80
  -4  -4  -6   81.49    6.40
  -4  -4  -6   81.89    6.10
  -4  -4  -6   89.29    6.50
   4   4   6   85.59    6.50
   4   4   6   82.29    6.00
   4   4   6   81.09    6.20
   4   4   6   84.99    6.60
  -5  -4  -6 1024.00   65.49
  -5  -4  -6 1116.69   66.09
  -5  -4  -6 1046.70   65.39
  -5  -4  -6 1059.79   65.69
   5   4   6 1042.00   65.19
   5   4   6 1008.70   65.09
   5   4   6  987.60   65.69
   5   4   6 1035.10   65.49
   5   4   6 1156.88   65.79
  -6  -4  -6    5.90    2.00
  -6  -4  -6   13.50    3.20
  -6  -4  -6    4.20    2.20
  -6  -4  -6    6.60    2.40
   6   4   6    9.30    2.70
   6   4   6   11.80    2.80
   6   4   6   10.00    2.30
   6   4   6   10.90    2.10
  -7  -4  -6   76.59    6.80
  -7  -4  -6   73.49    6.30
  -7  -4  -6   74.29    6.40
   7   4   6   62.89    6.60
   7   4   6   75.09    6.30
   7   4   6   78.39    6.80
   7   4   6   74.39    6.20
  -8  -4  -6    3.40    2.70
  -8  -4  -6    5.00    2.40
   8   4   6    3.10    2.40
   8   4   6    3.80    2.80
  -9  -4  -6    6.10    3.30
  -9  -4  -6    3.10    2.60
   9   4   6    5.20    2.70
   9   4   6   -1.00    2.70
 -10  -4  -6   25.90    4.80
  10   4   6   27.50    4.90
  10   4   6   26.80    4.20
 -11  -4  -6   64.39    7.40
  11   4   6   49.30    6.80
  10  -5  -6   22.20    5.10
 -10   5   6   21.70    4.50
   9  -5  -6   11.70    3.50
   9  -5  -6   10.50    4.00
   9  -5  -6   18.70    2.90
  -9   5   6   10.90    3.80
   8  -5  -6   35.70    5.00
   8  -5  -6   49.40    4.60
   8  -5  -6   46.70    5.90
  -8   5   6   39.60    5.20
   7  -5  -6  303.27   19.40
   7  -5  -6  293.97   19.80
   7  -5  -6  285.37   20.20
   7  -5  -6  271.97   19.20
  -7   5   6  331.57   20.10
   6  -5  -6    9.60    2.10
   6  -5  -6   11.60    2.90
   6  -5  -6    6.60    2.70
   6  -5  -6    7.00    2.00
  -6   5   6    6.60    2.40
   5  -5  -6  322.87   19.20
   5  -5  -6  269.27   19.70
   5  -5  -6  310.27   19.40
  -5   5   6  290.37   19.70
   4  -5  -6   24.40    2.70
   4  -5  -6   22.60    3.20
   4  -5  -6   26.20    2.80
   4  -5  -6   24.90    2.80
  -4   5   6   23.80    3.20
   3  -5  -6  407.96   25.70
   3  -5  -6  400.26   25.40
   3  -5  -6  418.26   25.40
  -3   5   6  376.96   25.60
   2  -5  -6  117.79    8.10
   2  -5  -6  112.19    8.20
   2  -5  -6  122.69    8.00
  -2   5   6  118.59    8.30
   1  -5  -6 1162.68   67.69
   1  -5  -6 1086.39   67.99
   1  -5  -6 1064.59   67.99
   1  -5  -6 1054.19   68.19
   1  -5  -6 1117.59   68.09
  -1   5   6 1112.69   68.19
   0  -5  -6    9.10    1.70
   0  -5  -6    8.60    1.60
   0  -5  -6    8.40    1.60
   0  -5  -6    8.40    1.80
   0   5   6    8.10    1.70
  -1  -5  -6  111.09    8.10
  -1  -5  -6  113.59    7.80
  -1  -5  -6  124.29    8.50
  -1  -5  -6  122.79    8.10
  -1  -5  -6  114.99    8.10
   1   5   6  118.49    8.00
   1   5   6  125.49    8.10
   1   5   6  112.49    8.00
  -2  -5  -6    0.90    1.50
  -2  -5  -6   -0.30    1.20
  -2  -5  -6   -0.10    1.30
  -2  -5  -6    0.10    1.20
  -2  -5  -6    1.20    1.20
   2   5   6   -0.10    1.40
   2   5   6    0.40    1.20
   2   5   6    0.00    1.20
   2   5   6    1.20    1.40
  -3  -5  -6  302.77   18.50
  -3  -5  -6  292.77   18.70
  -3  -5  -6  284.67   18.70
   3   5   6  288.07   18.80
   3   5   6  293.77   18.60
   3   5   6  271.07   18.50
   3   5   6  291.07   18.70
  -4  -5  -6   72.09    5.40
  -4  -5  -6   66.89    5.60
  -4  -5  -6   68.79    5.70
  -4  -5  -6   61.79    6.00
   4   5   6   76.89    5.70
   4   5   6   63.69    5.80
   4   5   6   71.69    5.30
   4   5   6   67.29    5.40
  -5  -5  -6  182.28   14.00
  -5  -5  -6  186.68   13.20
  -5  -5  -6  197.98   13.50
  -5  -5  -6  195.68   13.60
   5   5   6  207.48   13.80
   5   5   6  198.58   13.20
   5   5   6  202.08   13.20
   5   5   6  190.28   13.30
   5   5   6  229.58   13.80
  -6  -5  -6   -0.90    2.10
  -6  -5  -6    0.10    1.70
  -6  -5  -6   -0.10    2.30
   6   5   6   -1.40    1.90
   6   5   6    1.40    2.00
   6   5   6    1.10    1.60
   6   5   6   -0.40    1.60
  -7  -5  -6  585.44   37.70
  -7  -5  -6  570.14   37.20
   7   5   6  575.54   37.30
   7   5   6  589.34   37.10
   7   5   6  611.54   37.70
  -8  -5  -6   21.70    3.50
  -8  -5  -6   27.50    4.30
   8   5   6   28.40    3.80
   8   5   6   20.70    4.00
  -9  -5  -6  254.47   19.10
  -9  -5  -6  284.57   18.70
   9   5   6  273.67   19.10
   9   5   6  276.87   18.70
 -10  -5  -6    2.40    3.20
 -10  -5  -6    7.90    3.20
  10   5   6    5.80    3.60
  10   5   6    5.20    2.80
 -11  -5  -6  145.39   12.00
  11   5   6  125.49   11.70
  10  -6  -6   29.90    3.80
  10  -6  -6   38.50    6.30
 -10   6   6   30.40    5.10
   9  -6  -6  402.36   28.30
   9  -6  -6  483.65   29.60
   9  -6  -6  418.06   27.50
  -9   6   6  411.86   28.60
   8  -6  -6    1.00    2.80
   8  -6  -6   -1.90    2.70
   8  -6  -6    0.80    3.00
   8  -6  -6   -0.90    2.10
  -8   6   6    1.80    2.90
   7  -6  -6  605.94   38.40
   7  -6  -6  628.54   38.50
   7  -6  -6  594.54   39.40
   7  -6  -6  601.24   38.90
  -7   6   6  604.04   39.00
   6  -6  -6    3.80    2.50
   6  -6  -6    2.20    1.80
   6  -6  -6    1.40    1.90
  -6   6   6   -2.10    2.10
   5  -6  -6  520.85   32.40
   5  -6  -6  480.25   31.70
   5  -6  -6  518.45   31.70
  -5   6   6  479.55   32.10
   4  -6  -6   85.49    6.50
   4  -6  -6   90.09    7.10
  -4   6   6   77.19    6.60
   3  -6  -6  849.41   53.79
   3  -6  -6  864.31   54.19
  -3   6   6  880.51   54.09
   2  -6  -6    7.90    1.70
   2  -6  -6    6.40    1.50
   2  -6  -6    6.90    1.90
  -2   6   6    5.80    2.00
   1  -6  -6    1.40    1.10
   1  -6  -6    0.90    1.10
   1  -6  -6    2.00    1.60
   1  -6  -6    0.40    1.30
   1  -6  -6    0.60    1.00
  -1   6   6   -2.40    1.40
   0  -6  -6   17.50    2.20
   0  -6  -6    9.50    2.10
   0  -6  -6   13.50    1.90
   0  -6  -6   11.20    1.60
   0   6   6   11.00    2.00
  -1  -6  -6    1.80    1.20
  -1  -6  -6    2.90    1.40
  -1  -6  -6    3.30    1.70
  -1  -6  -6   -1.10    1.10
  -1  -6  -6    2.60    1.40
   1   6   6    1.70    1.30
   1   6   6    0.30    1.50
   1   6   6    1.50    1.50
  -2  -6  -6  110.09    8.10
  -2  -6  -6  116.99    8.10
  -2  -6  -6  118.99    8.60
  -2  -6  -6  114.89    8.20
  -2  -6  -6  113.39    7.90
   2   6   6  114.09    8.10
   2   6   6  124.79    8.30
   2   6   6  109.69    8.10
  -3  -6  -6  584.24   37.10
  -3  -6  -6  617.14   37.40
  -3  -6  -6  634.54   37.40
  -3  -6  -6  554.34   37.20
  -3  -6  -6  611.54   37.80
   3   6   6  587.74   37.40
   3   6   6  573.74   37.20
   3   6   6  578.14   37.20
  -4  -6  -6   10.90    2.20
  -4  -6  -6   15.90    2.60
  -4  -6  -6   16.30    2.70
  -4  -6  -6   13.50    3.00
   4   6   6   19.50    2.90
   4   6   6   16.40    2.40
   4   6   6   14.60    2.40
  -5  -6  -6  832.92   53.19
  -5  -6  -6  865.31   52.89
  -5  -6  -6  796.82   53.49
   5   6   6  809.42   52.79
   5   6   6  850.61   52.89
   5   6   6  804.12   52.89
   5   6   6  968.00   53.39
  -6  -6  -6   49.50    5.20
  -6  -6  -6   68.59    5.90
   6   6   6   54.69    5.30
   6   6   6   63.89    5.30
   6   6   6   66.89    6.00
   6   6   6   53.39    5.30
  -7  -6  -6   58.89    5.60
  -7  -6  -6   62.79    5.80
   7   6   6   49.30    6.00
   7   6   6   62.49    5.60
   7   6   6   59.09    5.40
   7   6   6   57.19    5.60
  -8  -6  -6   19.00    3.80
  -8  -6  -6   20.80    3.50
   8   6   6   12.90    3.80
   8   6   6   25.90    3.50
   8   6   6   17.70    3.40
  -9  -6  -6   15.00    3.80
  -9  -6  -6   18.70    3.50
   9   6   6   14.40    3.40
   9   6   6   12.90    3.80
 -10  -6  -6   -4.30    2.40
 -10  -6  -6   -1.80    2.80
  10   6   6   -4.20    3.10
  10   6   6   -1.40    2.40
 -11  -6  -6   34.20    5.60
  11   6   6   21.00    5.00
  10  -7  -6   28.20    3.90
  10  -7  -6   30.90    6.00
 -10   7   6   37.80    5.30
   9  -7  -6  125.79    9.60
   9  -7  -6  127.49   10.40
   9  -7  -6  125.59   11.50
  -9   7   6  113.39   10.30
   8  -7  -6   29.80    4.00
   8  -7  -6   23.20    3.70
   8  -7  -6   30.60    4.70
   8  -7  -6   28.30    5.10
  -8   7   6   33.40    4.50
   7  -7  -6    4.30    3.00
   7  -7  -6    0.00    2.10
   7  -7  -6   -0.90    1.90
   7  -7  -6   -4.30    2.50
  -7   7   6   -2.00    2.30
   6  -7  -6   55.19    4.90
   6  -7  -6   40.30    5.60
   6  -7  -6   52.49    4.90
  -6   7   6   50.79    5.30
   5  -7  -6   19.30    2.70
   5  -7  -6    8.30    2.30
   5  -7  -6    8.40    2.90
  -5   7   6   15.20    3.00
   4  -7  -6    4.30    1.80
   4  -7  -6    1.50    2.20
  -4   7   6    1.10    1.90
   3  -7  -6  745.13   46.80
   3  -7  -6  729.43   46.30
  -3   7   6  742.53   46.50
   2  -7  -6   36.60    3.60
   2  -7  -6   31.90    3.90
  -2   7   6   39.00    3.90
   1  -7  -6  687.33   42.20
   1  -7  -6  674.93   41.50
   1  -7  -6  671.63   41.40
   1  -7  -6  650.93   41.70
   1  -7  -6  661.13   41.40
  -1   7   6  645.34   41.80
   0  -7  -6   59.19    5.80
   0  -7  -6   71.39    5.40
   0  -7  -6   75.09    5.20
   0  -7  -6   65.39    5.30
   0   7   6   64.09    5.50
   0   7   6   75.29    5.00
  -1  -7  -6  561.64   34.70
  -1  -7  -6  529.15   34.50
  -1  -7  -6  564.14   35.10
  -1  -7  -6  537.55   34.60
  -1  -7  -6  548.85   34.40
   1   7   6  539.75   34.50
   1   7   6  577.14   34.70
   1   7   6  539.55   34.70
  -2  -7  -6    3.80    1.70
  -2  -7  -6    4.30    1.70
  -2  -7  -6    4.90    2.10
  -2  -7  -6    3.90    1.60
  -2  -7  -6    3.30    1.40
   2   7   6    1.40    1.70
   2   7   6    2.40    1.50
   2   7   6    0.50    1.50
  -3  -7  -6  417.06   28.40
  -3  -7  -6  456.45   27.70
  -3  -7  -6  432.86   28.00
  -3  -7  -6  425.86   27.90
  -3  -7  -6  426.36   27.80
   3   7   6  438.06   27.80
   3   7   6  446.66   28.00
   3   7   6  455.55   27.90
  -4  -7  -6    2.10    1.70
  -4  -7  -6    5.20    2.00
  -4  -7  -6    5.20    2.10
  -4  -7  -6    2.40    2.40
   4   7   6    7.20    2.30
   4   7   6    5.60    1.90
   4   7   6    2.80    1.70
  -5  -7  -6   54.49    6.20
  -5  -7  -6   63.39    5.60
  -5  -7  -6   53.09    5.10
   5   7   6   54.19    5.10
   5   7   6   51.69    5.60
   5   7   6   56.19    5.30
   5   7   6   61.49    5.30
  -6  -7  -6   -3.30    1.80
  -6  -7  -6    0.00    1.80
   6   7   6   -0.20    2.30
   6   7   6    1.50    1.90
   6   7   6    3.30    2.00
   6   7   6   -0.90    1.90
  -7  -7  -6   13.10    2.90
  -7  -7  -6   15.20    3.50
   7   7   6   10.60    3.30
   7   7   6   14.90    3.00
   7   7   6   11.30    2.80
   7   7   6   10.80    2.80
  -8  -7  -6   17.70    3.90
  -8  -7  -6   22.00    3.60
   8   7   6   14.50    3.30
   8   7   6   15.40    3.70
   8   7   6   18.40    3.40
  -9  -7  -6   33.50    4.50
  -9  -7  -6   34.70    5.30
   9   7   6   25.90    4.30
   9   7   6   34.10    4.50
   9   7   6   34.10    5.20
 -10  -7  -6    2.90    3.50
  10   7   6   -1.10    3.20
   9  -8  -6   31.60    4.40
   9  -8  -6   35.70    6.10
   9  -8  -6   32.80    5.10
  -9   8   6   25.20    4.90
   8  -8  -6   10.30    4.10
   8  -8  -6    8.80    3.00
   8  -8  -6    3.50    3.10
  -8   8   6    8.10    3.40
   7  -8  -6   35.30    4.10
   7  -8  -6   27.90    4.00
   7  -8  -6   26.30    5.10
  -7   8   6   28.80    4.60
   6  -8  -6    9.80    3.40
   6  -8  -6    4.50    2.30
   6  -8  -6    4.80    2.40
  -6   8   6   10.30    3.10
   5  -8  -6  210.88   14.40
   5  -8  -6  196.68   15.00
   5  -8  -6  210.98   14.30
  -5   8   6  224.18   14.90
   4  -8  -6   18.00    3.50
   4  -8  -6   17.30    2.80
  -4   8   6   18.70    3.30
   3  -8  -6   70.89    5.90
   3  -8  -6   74.99    6.60
  -3   8   6   72.29    6.20
   2  -8  -6  363.26   24.10
   2  -8  -6  416.66   24.80
  -2   8   6  345.17   24.20
   1  -8  -6   15.20    2.20
   1  -8  -6   21.90    2.40
   1  -8  -6   20.80    3.30
   1  -8  -6   18.00    2.60
  -1   8   6   17.80    2.80
   0  -8  -6  189.18   12.60
   0  -8  -6  176.78   12.70
   0  -8  -6  201.68   13.60
   0  -8  -6  176.28   12.60
   0   8   6  201.28   13.10
   0   8   6  203.28   12.50
  -1  -8  -6    0.30    1.30
  -1  -8  -6    1.20    1.80
  -1  -8  -6    2.50    1.50
  -1  -8  -6   -0.90    1.60
  -1  -8  -6    0.30    1.30
   1   8   6    0.30    1.70
   1   8   6   -1.10    1.40
   1   8   6    3.90    1.90
  -2  -8  -6   40.00    4.00
  -2  -8  -6   44.50    4.20
  -2  -8  -6   39.70    3.90
  -2  -8  -6   37.30    4.20
   2   8   6   41.90    4.30
   2   8   6   46.70    4.60
   2   8   6   44.00    4.20
  -3  -8  -6  333.07   22.60
  -3  -8  -6  331.97   21.90
  -3  -8  -6  347.17   22.20
  -3  -8  -6  315.17   21.80
  -3  -8  -6  332.17   21.80
   3   8   6  342.37   22.00
   3   8   6  335.07   21.90
   3   8   6  371.46   22.20
  -4  -8  -6   24.50    3.40
  -4  -8  -6   30.80    3.40
  -4  -8  -6   21.70    3.50
  -4  -8  -6   24.90    4.00
   4   8   6   28.90    3.40
   4   8   6   27.50    3.70
   4   8   6   33.70    3.70
  -5  -8  -6    3.30    2.50
  -5  -8  -6    7.20    2.20
   5   8   6    1.50    2.10
   5   8   6    9.30    2.50
   5   8   6    8.90    2.60
   5   8   6    2.20    2.20
  -6  -8  -6    0.40    2.00
  -6  -8  -6   -0.40    2.30
   6   8   6    1.00    2.20
   6   8   6   -0.40    2.10
   6   8   6   -1.30    2.40
   6   8   6    4.00    2.20
  -7  -8  -6    1.90    2.30
  -7  -8  -6    7.10    3.10
   7   8   6   10.30    2.70
   7   8   6   10.90    3.20
   7   8   6    9.00    2.80
   7   8   6    4.80    2.50
  -8  -8  -6   44.50    6.10
  -8  -8  -6   54.49    5.60
   8   8   6   50.59    6.10
   8   8   6   50.49    5.40
   8   8   6   43.00    5.20
   8   8   6   45.00    5.30
  -9  -8  -6   26.50    4.20
  -9  -8  -6   29.30    5.00
   9   8   6   31.40    4.50
   9   8   6   20.90    4.00
   9   8   6   17.20    4.50
 -10  -8  -6   40.00    6.00
  10   8   6   27.60    5.20
   9  -9  -6   63.29    7.10
   9  -9  -6   72.49    6.80
   9  -9  -6   57.69    7.90
  -9   9   6   61.19    7.00
   8  -9  -6    8.10    2.80
   8  -9  -6    7.60    3.60
   8  -9  -6    5.10    3.80
  -8   9   6    5.80    3.10
   7  -9  -6   91.39    9.20
   7  -9  -6   83.79    7.60
   7  -9  -6   84.49    7.70
  -7   9   6  103.79    8.40
   6  -9  -6   12.50    2.90
   6  -9  -6   16.80    3.20
   6  -9  -6   16.90    4.30
  -6   9   6   13.70    3.50
   5  -9  -6   37.20    5.40
   5  -9  -6   37.30    4.30
  -5   9   6   43.80    5.00
   4  -9  -6  142.79   11.70
   4  -9  -6  179.58   12.80
  -4   9   6  178.58   12.20
   3  -9  -6   14.20    2.60
   3  -9  -6   11.40    3.10
  -3   9   6   14.40    3.00
   2  -9  -6   11.90    3.10
   2  -9  -6   17.70    2.70
  -2   9   6   15.00    2.80
   1  -9  -6   47.70    4.20
   1  -9  -6   48.10    4.60
   1  -9  -6   49.80    5.40
  -1   9   6   46.50    4.90
   0  -9  -6   41.20    3.80
   0  -9  -6   38.40    4.00
   0  -9  -6   42.70    3.90
   0  -9  -6   35.60    4.70
   0   9   6   42.30    4.30
  -1  -9  -6   18.20    3.50
  -1  -9  -6   25.40    3.50
  -1  -9  -6   28.30    3.00
  -1  -9  -6   22.50    2.90
  -1  -9  -6   26.60    3.20
   1   9   6   22.00    3.30
   1   9   6   23.30    3.00
   1   9   6   20.00    3.20
  -2  -9  -6    5.70    2.10
  -2  -9  -6    2.20    2.30
  -2  -9  -6    6.40    1.80
  -2  -9  -6    2.90    2.20
  -2  -9  -6    2.20    1.70
   2   9   6    6.10    2.30
   2   9   6    2.80    1.80
   2   9   6    5.80    2.20
  -3  -9  -6   40.40    4.30
  -3  -9  -6   31.20    3.80
  -3  -9  -6   36.20    4.40
  -3  -9  -6   36.50    4.80
  -3  -9  -6   34.00    4.00
   3   9   6   43.50    4.50
   3   9   6   49.00    4.50
   3   9   6   40.60    4.70
  -4  -9  -6   -0.40    2.20
  -4  -9  -6    1.30    2.10
  -4  -9  -6   -0.30    1.70
  -4  -9  -6   -1.00    2.30
   4   9   6    2.10    1.90
   4   9   6    1.20    2.20
   4   9   6    1.80    2.20
  -5  -9  -6   53.19    5.30
  -5  -9  -6   62.29    6.20
   5   9   6   45.60    5.20
   5   9   6   59.49    6.00
   5   9   6   55.69    5.60
   5   9   6   57.29    5.60
  -6  -9  -6   71.69    6.40
  -6  -9  -6   71.79    7.10
   6   9   6   80.39    7.00
   6   9   6   63.59    6.80
   6   9   6   73.69    6.70
   6   9   6   73.69    6.60
  -7  -9  -6   -1.40    2.70
  -7  -9  -6   -1.20    2.30
   7   9   6    4.50    2.60
   7   9   6    4.60    2.60
   7   9   6    0.80    2.60
   7   9   6   -2.00    2.60
  -8  -9  -6   60.39    6.90
  -8  -9  -6   62.69    6.50
   8   9   6   64.19    6.50
   8   9   6   56.19    6.50
   8   9   6   79.69    7.60
   8   9   6   73.59    6.80
  -9  -9  -6   -0.20    3.10
   9   9   6   -3.60    2.80
   9   9   6    4.10    3.00
   9   9   6    3.40    3.00
 -10  -9  -6    5.10    3.70
  10   9   6    5.30    3.50
   8 -10  -6   66.89    7.20
   8 -10  -6   72.39    8.50
   8 -10  -6   64.49    6.60
  -8  10   6   61.19    7.10
   7 -10  -6    9.20    4.20
   7 -10  -6    3.70    2.70
  -7  10   6    7.70    3.50
   6 -10  -6  158.58   11.50
   6 -10  -6  155.98   11.40
   6 -10  -6  146.49   12.70
  -6  10   6  146.59   11.70
   5 -10  -6    4.20    2.40
   5 -10  -6    1.30    3.10
  -5  10   6    0.80    2.70
   4 -10  -6   41.60    5.80
   4 -10  -6   51.79    5.10
  -4  10   6   49.60    5.40
   3 -10  -6   89.59    8.60
   3 -10  -6   94.09    7.80
  -3  10   6  106.59    8.20
   2 -10  -6   -0.30    1.70
   2 -10  -6    0.60    2.50
  -2  10   6    0.20    2.20
   1 -10  -6   -1.00    1.70
   1 -10  -6    1.70    2.40
  -1  10   6    0.10    2.10
   0 -10  -6   99.49    6.80
   0 -10  -6   81.29    6.80
   0 -10  -6   84.89    7.70
   0  10   6   79.09    7.20
  -1 -10  -6    4.10    2.70
  -1 -10  -6    2.60    1.80
  -1 -10  -6    4.80    2.00
  -1 -10  -6    1.90    1.90
   1  10   6   -2.10    2.10
   1  10   6    4.20    1.90
   1  10   6   -0.50    2.20
  -2 -10  -6  151.28   10.50
  -2 -10  -6  138.19   10.80
  -2 -10  -6  142.09   10.40
  -2 -10  -6  159.58   11.70
  -2 -10  -6  154.38   10.60
   2  10   6  139.99   10.60
   2  10   6  139.49   10.80
   2  10   6  151.08   10.90
  -3 -10  -6    6.80    3.00
  -3 -10  -6    3.00    2.40
  -3 -10  -6    5.30    2.20
  -3 -10  -6    1.10    1.90
  -3 -10  -6   -0.30    1.90
   3  10   6    1.50    2.00
   3  10   6    1.40    2.50
   3  10   6    5.90    2.50
  -4 -10  -6  309.57   20.00
  -4 -10  -6  303.47   20.50
   4  10   6  280.77   20.00
   4  10   6  293.17   20.20
   4  10   6  318.57   20.50
  -5 -10  -6  143.59   10.40
  -5 -10  -6  141.29   10.90
   5  10   6  137.09   10.70
   5  10   6  139.39   10.50
   5  10   6  128.99   10.50
   5  10   6  143.99   10.90
  -6 -10  -6  154.98   11.90
  -6 -10  -6  153.98   11.40
   6  10   6  152.68   11.40
   6  10   6  159.68   11.90
   6  10   6  145.39   11.50
   6  10   6  150.78   11.60
  -7 -10  -6   21.30    3.60
  -7 -10  -6   16.20    4.00
   7  10   6   17.80    3.80
   7  10   6   23.40    4.00
   7  10   6   20.00    3.70
   7  10   6   15.20    4.00
  -8 -10  -6    3.50    2.70
  -8 -10  -6    9.70    3.70
   8  10   6    1.80    2.70
   8  10   6    5.20    3.40
   8  10   6    2.90    3.10
   8  10   6    6.50    3.10
  -9 -10  -6   62.49    7.40
   9  10   6   58.69    7.10
   9  10   6   65.99    6.90
   8 -11  -6   -1.70    3.70
   8 -11  -6    7.20    3.20
  -8  11   6    0.90    3.20
   7 -11  -6   -2.20    3.50
   7 -11  -6    0.40    2.60
  -7  11   6   -2.00    3.10
   6 -11  -6   14.60    4.40
   6 -11  -6    8.40    3.20
  -6  11   6    8.50    3.50
   5 -11  -6   12.80    3.10
   5 -11  -6    9.60    4.00
  -5  11   6   17.00    3.80
   4 -11  -6   30.70    5.30
   4 -11  -6   32.60    4.20
  -4  11   6   32.70    4.70
   3 -11  -6   33.70    5.20
   3 -11  -6   27.50    3.90
  -3  11   6   32.80    4.50
   2 -11  -6   35.80    5.20
   2 -11  -6   34.10    4.10
  -2  11   6   31.70    4.40
   1 -11  -6  168.58   13.50
   1 -11  -6  177.48   12.50
  -1  11   6  184.48   11.80
  -1  11   6  172.28   12.80
   0 -11  -6  108.29   10.00
   0 -11  -6  133.69    9.20
   0 -11  -6  132.29    9.30
   0  11   6  119.79    9.20
   0  11   6  121.29    9.60
  -1 -11  -6   80.89    6.50
  -1 -11  -6   64.99    6.40
  -1 -11  -6   82.89    7.80
   1  11   6   89.69    7.30
   1  11   6   71.09    7.00
   1  11   6   80.89    6.80
  -2 -11  -6  175.28   12.80
  -2 -11  -6  171.98   12.90
  -2 -11  -6  179.68   13.90
  -2 -11  -6  203.48   13.60
   2  11   6  197.48   13.50
   2  11   6  188.78   13.10
   2  11   6  183.78   13.40
  -3 -11  -6  292.57   20.10
  -3 -11  -6  325.77   20.70
  -3 -11  -6  291.37   20.00
   3  11   6  293.77   20.20
   3  11   6  297.87   20.60
   3  11   6  319.77   20.70
  -4 -11  -6   76.79    7.90
  -4 -11  -6   88.19    7.40
   4  11   6   86.59    7.80
   4  11   6   92.29    7.60
   4  11   6   94.79    8.10
  -5 -11  -6    9.10    2.70
  -5 -11  -6    6.70    3.20
   5  11   6   13.30    3.10
   5  11   6    7.50    3.40
   5  11   6    7.90    3.10
   5  11   6    8.30    3.10
  -6 -11  -6   -1.30    2.70
  -6 -11  -6    3.30    2.40
   6  11   6    0.60    2.40
   6  11   6    1.50    2.80
   6  11   6    0.50    2.80
   6  11   6    0.40    2.80
  -7 -11  -6    4.70    3.40
  -7 -11  -6    5.80    2.90
   7  11   6    1.00    3.20
   7  11   6    4.70    3.20
   7  11   6   -1.90    2.80
   7  11   6    5.50    2.80
  -8 -11  -6    5.80    3.50
   8  11   6    8.70    3.30
   8  11   6    4.40    3.60
   8  11   6    6.00    3.40
   7 -12  -6    8.60    3.40
   7 -12  -6   -1.60    3.80
  -7  12   6    4.80    3.60
   6 -12  -6    8.50    3.30
   6 -12  -6   13.30    4.50
  -6  12   6   13.20    3.70
   5 -12  -6    8.00    4.10
  -5  12   6    7.90    3.20
   4 -12  -6  202.08   14.60
   4 -12  -6  198.38   16.00
  -4  12   6  217.58   15.20
   3 -12  -6   44.20    6.30
   3 -12  -6   51.09    5.20
  -3  12   6   34.70    5.00
   2 -12  -6  287.17   18.80
   2 -12  -6  255.17   19.70
  -2  12   6  289.17   19.20
   1 -12  -6   20.10    4.40
   1 -12  -6   21.00    3.50
  -1  12   6   22.90    4.00
   0 -12  -6  217.48   15.40
   0 -12  -6  193.88   14.10
   0  12   6  203.08   14.60
   0  12   6  195.68   14.20
  -1 -12  -6    5.20    3.70
  -1 -12  -6    3.90    2.30
  -1 -12  -6    3.20    2.20
   1  12   6    7.30    2.90
   1  12   6    2.80    2.70
   1  12   6    4.00    2.40
  -2 -12  -6  107.49    8.00
  -2 -12  -6   95.39    7.90
   2  12   6   98.79    8.60
   2  12   6   89.39    8.10
   2  12   6   96.79    8.60
  -3 -12  -6  171.78   12.00
  -3 -12  -6  166.38   12.60
  -3 -12  -6  159.58   12.00
   3  12   6  164.98   12.50
   3  12   6  169.08   12.60
   3  12   6  157.18   12.10
  -4 -12  -6   -0.60    2.60
  -4 -12  -6   -1.70    2.10
   4  12   6    3.40    2.90
   4  12   6    0.90    2.70
   4  12   6   -0.40    2.30
  -5 -12  -6  107.79    9.30
  -5 -12  -6  106.89    8.50
   5  12   6  100.79    9.20
   5  12   6   95.89    8.60
   5  12   6   99.99    8.90
   5  12   6  100.39    9.10
  -6 -12  -6    2.80    2.40
  -6 -12  -6    4.20    3.30
   6  12   6    3.00    2.60
   6  12   6    2.80    3.20
   6  12   6    3.70    3.20
   6  12   6    3.70    3.20
  -7 -12  -6   17.10    4.50
   7  12   6   19.50    4.60
   7  12   6   25.90    4.50
   7  12   6   13.80    4.10
  -8 -12  -6   -1.10    3.40
   8  12   6    4.10    3.20
   8  12   6   -0.10    3.20
   8  12   6   -1.10    3.50
   6 -13  -6  111.79   11.60
   6 -13  -6  125.99   10.30
  -6  13   6  106.49   10.20
   5 -13  -6   18.50    5.30
  -5  13   6   19.30    4.40
   4 -13  -6   95.99   10.00
  -4  13   6   95.59    9.00
   3 -13  -6   61.19    7.60
  -3  13   6   56.39    6.70
   2 -13  -6   31.00    5.50
   2 -13  -6   28.80    4.30
  -2  13   6   31.50    5.00
   1 -13  -6   21.40    3.40
   1 -13  -6   22.40    5.70
  -1  13   6   11.30    3.80
   0 -13  -6    7.80    2.90
   0  13   6   15.10    3.20
   0  13   6   10.00    3.20
  -1 -13  -6   36.30    5.70
  -1 -13  -6   53.59    5.30
   1  13   6   40.40    5.10
   1  13   6   43.80    5.60
   1  13   6   48.50    5.80
  -2 -13  -6    0.90    2.20
  -2 -13  -6    4.50    2.40
   2  13   6    1.00    2.50
   2  13   6    3.20    3.00
   2  13   6    1.70    3.00
  -3 -13  -6   12.10    3.00
  -3 -13  -6   11.90    3.10
   3  13   6   13.60    3.80
   3  13   6    9.70    3.10
   3  13   6   11.00    3.60
  -4 -13  -6   -2.50    2.80
  -4 -13  -6    1.30    2.50
   4  13   6    0.50    3.10
   4  13   6    1.40    2.80
   4  13   6   -0.90    2.30
  -5 -13  -6   28.40    5.10
  -5 -13  -6   31.10    4.50
   5  13   6   27.50    5.10
   5  13   6   38.70    5.40
   5  13   6   39.50    5.00
   5  13   6   32.60    5.20
  -6 -13  -6    2.00    3.50
   6  13   6    5.30    3.50
   6  13   6   -0.20    3.30
   6  13   6   -4.10    2.90
  -7 -13  -6    0.10    3.40
   7  13   6    1.20    3.50
   7  13   6    5.50    3.60
   7  13   6    3.70    3.50
  -5  14   6  165.78   13.30
  -4  14   6    3.50    3.30
  -3  14   6   68.39    7.50
  -2  14   6   -0.60    3.10
  -1  14   6   15.40    4.10
  -1  14   6   15.00    3.60
   0  14   6   17.50    4.20
   0  14   6   12.00    3.30
   1  14   6   -0.50    2.90
   1  14   6    3.60    3.30
   1  14   6    1.00    2.70
   2  14   6   -1.00    2.70
   2  14   6    2.30    3.20
   2  14   6    0.40    3.20
  -3 -14  -6   33.60    4.50
   3  14   6   29.20    5.00
   3  14   6   34.60    5.40
   3  14   6   27.80    4.50
  -4 -14  -6   -1.30    2.50
   4  14   6   -0.20    3.20
   4  14   6    0.50    3.00
  -5 -14  -6   22.20    4.70
   5  14   6   14.00    4.50
   5  14   6   20.60    4.80
   5  14   6   23.40    4.70
  -6 -14  -6   15.90    4.50
   6  14   6   23.40    4.70
   6  14   6   11.80    4.30
   6  14   6   11.90    4.20
  -3  15   6   49.80    6.70
  -2  15   6   11.90    4.20
  -1  15   6    0.80    3.50
   0  15   6   36.00    5.60
   1  15   6   17.10    5.50
   1  15   6   26.30    4.90
   2  15   6   62.69    7.30
   2  15   6   61.29    7.40
   3  15   6   33.90    5.60
   3  15   6   44.70    5.90
   4  15   6    4.10    3.50
   4  15   6   11.10    4.30
   4  15   6    2.30    3.60
   0  16   6   -2.40    3.60
   1  16   6   42.00    6.20
   3  13  -7   11.90    4.30
   3  13  -7   10.30    3.70
   2  13  -7    3.40    3.60
   2  13  -7    1.70    3.40
   1  13  -7   22.40    4.70
   1  13  -7   25.90    5.30
   1  13  -7   18.70    3.30
   0  13  -7   17.50    3.50
   0  13  -7   32.90    5.90
   0  13  -7   20.90    4.50
  -1  13  -7  119.09   11.80
  -1  13  -7  140.89   10.30
  -2  13  -7   17.60    5.00
  -2  13  -7    5.10    3.10
  -3  13  -7   71.99    8.70
  -3  13  -7   63.49    6.80
   4  12  -7   20.90    4.70
   4  12  -7   10.60    3.70
   3  12  -7    6.90    3.60
   3  12  -7    3.30    3.10
   2  12  -7   13.90    3.90
   2  12  -7   14.80    2.70
   2  12  -7   12.20    4.00
  -2 -12   7   17.50    3.30
   1  12  -7  135.29   11.80
   1  12  -7  145.89   10.60
   1  12  -7  148.79   12.30
  -1 -12   7  151.28   11.00
   0  12  -7   80.09    6.90
   0  12  -7   66.39    7.50
   0  12  -7   72.49    8.40
   0 -12   7   80.19    7.00
  -1  12  -7   29.60    4.10
  -1  12  -7   25.00    5.30
   1 -12   7   35.40    4.40
  -2  12  -7   22.20    5.30
  -2  12  -7   30.00    4.40
   2 -12   7   23.50    4.10
  -3  12  -7   41.90    6.60
  -3  12  -7   41.00    5.80
  -3  12  -7   51.59    5.70
  -4  12  -7   19.60    5.20
  -4  12  -7    3.60    3.20
  -5  12  -7    4.10    4.20
  -5  12  -7   -1.90    3.10
   6  11  -7   12.70    4.00
   5  11  -7   35.70    5.30
   4  11  -7    7.80    3.30
   4  11  -7    5.90    3.20
  -4 -11   7    4.30    2.90
   3  11  -7  228.28   15.70
   3  11  -7  204.88   15.90
  -3 -11   7  213.78   14.80
   2  11  -7   -1.50    2.80
   2  11  -7   -0.70    1.80
   2  11  -7   -0.90    2.70
  -2 -11   7    0.00    1.90
   1  11  -7   19.40    4.10
   1  11  -7   17.00    3.00
   1  11  -7   21.80    4.20
  -1 -11   7   23.60    3.40
   0  11  -7   25.40    3.50
   0  11  -7   22.00    4.50
   0 -11   7   18.10    3.30
  -1  11  -7    2.70    3.30
  -1  11  -7    8.90    2.70
   1 -11   7    6.10    2.50
  -2  11  -7  177.28   12.20
  -2  11  -7  145.19   14.30
   2 -11   7  165.48   12.00
  -3  11  -7    3.40    3.60
  -3  11  -7    4.10    3.00
  -3  11  -7    3.90    2.80
   3 -11   7    1.20    2.30
  -4  11  -7   -1.50    3.10
  -4  11  -7   -1.80    2.80
  -4  11  -7   10.70    4.20
   4 -11   7    4.50    2.70
  -5  11  -7   26.40    5.70
  -5  11  -7   30.30    4.70
  -6  11  -7    2.20    3.20
   7  10  -7    3.20    3.40
   7  10  -7   12.10    3.80
   6  10  -7   41.20    5.30
   6  10  -7   33.50    5.20
   5  10  -7   58.39    6.60
   5  10  -7   63.19    6.60
   5  10  -7   64.99    6.50
   4  10  -7    3.90    2.70
   4  10  -7    3.20    2.60
  -4 -10   7    4.10    2.30
   3  10  -7    7.60    3.00
   3  10  -7    6.50    3.10
  -3 -10   7    9.30    2.40
   2  10  -7    6.20    2.80
   2  10  -7    2.60    1.70
   2  10  -7    1.50    2.70
  -2 -10   7    2.10    2.00
   1  10  -7   19.00    4.00
   1  10  -7   22.50    4.20
   1  10  -7   26.00    3.20
  -1 -10   7   28.30    3.50
   0  10  -7   24.30    4.50
   0  10  -7   39.70    4.00
   0 -10   7   34.70    4.00
  -1  10  -7   11.80    3.70
  -1  10  -7   16.00    2.90
   1 -10   7    8.10    2.50
  -2  10  -7  125.49    9.70
  -2  10  -7  124.99   10.70
  -2  10  -7  123.59   10.10
   2 -10   7  132.29    9.60
  -3  10  -7   32.40    4.80
  -3  10  -7   34.90    5.50
  -3  10  -7   37.80    4.70
   3 -10   7   40.10    4.60
  -4  10  -7  237.58   17.60
  -4  10  -7  250.57   17.20
  -4  10  -7  256.57   18.20
   4 -10   7  234.98   16.90
  -5  10  -7   26.90    4.40
  -5  10  -7   16.50    4.30
  -5  10  -7   30.90    5.50
   5 -10   7   18.50    3.60
  -6  10  -7  171.18   15.00
  -6  10  -7  184.88   13.90
  -6  10  -7  188.78   15.10
  -7  10  -7   -4.80    3.00
   7   9  -7   -1.80    2.80
   7   9  -7   -4.80    2.90
   6   9  -7   59.89    6.40
   6   9  -7   43.10    5.60
   5   9  -7   92.79    8.60
   5   9  -7  113.49    9.00
   5   9  -7  111.29    9.10
   4   9  -7   -0.80    2.10
   4   9  -7    2.80    2.40
   4   9  -7    1.30    2.50
  -4  -9   7    1.80    1.70
   3   9  -7  213.28   13.20
   3   9  -7  152.68   12.60
  -3  -9   7  177.48   12.10
   2   9  -7   -0.50    2.20
   2   9  -7   -0.60    2.40
   2   9  -7    0.00    1.40
  -2  -9   7   -0.80    1.60
   1   9  -7   67.99    6.20
   1   9  -7   51.49    4.80
   1   9  -7   52.39    5.80
  -1  -9   7   57.49    5.10
   0   9  -7  358.26   23.20
   0   9  -7  369.86   24.20
   0  -9   7  354.96   23.40
  -1   9  -7  118.89    9.00
  -1   9  -7  114.69    8.60
  -1   9  -7  109.49    9.60
   1  -9   7  115.49    8.60
  -2   9  -7  428.46   27.60
  -2   9  -7  436.66   28.10
   2  -9   7  417.26   27.50
  -3   9  -7    4.00    3.00
  -3   9  -7   -0.10    2.60
  -3   9  -7    1.60    2.20
   3  -9   7    4.40    2.30
  -4   9  -7   97.09    8.80
  -4   9  -7   81.49    7.90
  -4   9  -7  109.09    9.30
   4  -9   7   84.09    7.70
  -5   9  -7    4.60    3.00
  -5   9  -7   14.60    4.00
  -5   9  -7    6.30    3.80
   5  -9   7   13.30    3.10
  -6   9  -7   21.80    4.90
  -6   9  -7   22.10    4.70
  -6   9  -7   18.40    4.10
   6  -9   7   13.60    3.40
  -7   9  -7   11.40    3.80
  -7   9  -7    6.40    4.90
  -8   9  -7   17.00    4.50
   8   8  -7    4.80    3.60
   8   8  -7    7.00    3.40
   7   8  -7    4.40    3.20
   7   8  -7    8.80    3.30
   6   8  -7  117.29    9.10
   6   8  -7   95.09    8.80
   5   8  -7   30.70    4.40
   5   8  -7   30.20    4.20
   5   8  -7   39.80    4.70
   4   8  -7  156.38   13.80
   4   8  -7  220.08   14.20
   4   8  -7  219.68   13.90
  -4  -8   7  210.48   13.50
   3   8  -7   28.40    4.10
   3   8  -7   34.30    4.50
   3   8  -7   25.30    3.60
   3   8  -7   33.60    4.10
  -3  -8   7   33.10    3.40
   2   8  -7  630.14   43.00
   2   8  -7  660.33   43.10
   2   8  -7  672.73   42.10
   2   8  -7  738.93   43.10
  -2  -8   7  691.03   42.50
   1   8  -7    2.30    2.20
   1   8  -7    0.60    2.40
   1   8  -7    1.70    1.50
   1   8  -7    1.60    2.20
  -1  -8   7    0.10    1.50
   0   8  -7  518.85   32.60
   0   8  -7  493.85   32.60
   0   8  -7  494.65   31.90
   0  -8   7  515.25   32.10
  -1   8  -7  126.09    9.70
  -1   8  -7  126.89    9.20
  -1   8  -7  152.58   10.30
   1  -8   7  117.99    9.20
  -2   8  -7    0.80    2.20
  -2   8  -7   -1.50    2.10
  -2   8  -7   -0.20    1.90
   2  -8   7    2.00    1.80
   2  -8   7    4.50    2.40
  -3   8  -7   19.70    4.20
  -3   8  -7   37.00    4.60
  -3   8  -7   29.10    3.80
   3  -8   7   26.70    4.10
   3  -8   7   31.60    3.70
  -4   8  -7   11.70    3.60
  -4   8  -7   11.50    3.00
  -4   8  -7   11.30    3.40
   4  -8   7   12.20    2.80
  -5   8  -7    2.70    2.70
  -5   8  -7    1.60    3.00
  -5   8  -7    1.30    3.00
   5  -8   7    2.00    2.30
  -6   8  -7  129.69    9.90
  -6   8  -7   96.69   10.40
  -6   8  -7  120.79   10.30
   6  -8   7  114.49    9.30
  -7   8  -7   53.29    6.50
  -7   8  -7   70.49    7.50
   7  -8   7   54.19    6.20
  -8   8  -7   73.69    7.90
  -9   8  -7   22.30    4.90
   8   7  -7  156.58   12.60
   8   7  -7  162.28   12.70
   7   7  -7   29.90    4.70
   7   7  -7   34.40    4.80
   6   7  -7  278.47   18.70
   6   7  -7  262.47   18.60
   5   7  -7    6.80    2.70
   5   7  -7    9.10    2.80
   5   7  -7    8.80    2.60
   4   7  -7  353.86   22.50
   4   7  -7  347.37   22.60
   4   7  -7  326.57   22.70
   4   7  -7  326.57   22.20
  -4  -7   7  342.17   22.70
   3   7  -7   39.20    4.50
   3   7  -7   44.80    4.80
   3   7  -7   33.60    3.70
   3   7  -7   30.10    3.90
  -3  -7   7   35.20    3.40
   2   7  -7  163.88   12.50
   2   7  -7  183.88   12.30
   2   7  -7  171.98   12.50
   2   7  -7  177.68   11.40
  -2  -7   7  185.88   11.80
   1   7  -7    0.30    1.80
   1   7  -7    1.00    1.30
   1   7  -7    1.30    2.00
   1   7  -7    1.70    2.10
  -1  -7   7   -0.40    1.30
   0   7  -7  121.69    8.80
   0   7  -7  108.69    8.20
   0   7  -7  133.69    9.20
   0   7  -7  116.19    8.70
   0  -7   7  122.99    8.40
  -1   7  -7   11.10    2.20
  -1   7  -7   10.10    2.70
  -1   7  -7   13.80    2.70
   1  -7   7   12.50    2.20
  -2   7  -7   67.49    5.90
  -2   7  -7   63.09    6.20
  -2   7  -7   89.69    6.80
   2  -7   7   67.19    5.80
   2  -7   7   71.39    6.60
  -3   7  -7   88.39    7.80
  -3   7  -7   90.49    7.10
   3  -7   7   91.69    7.00
   3  -7   7   85.69    7.50
  -4   7  -7  114.49   10.30
  -4   7  -7  148.49    9.90
  -4   7  -7  131.09   10.20
   4  -7   7  120.89    9.80
   4  -7   7  126.59    9.40
  -5   7  -7   26.60    4.60
  -5   7  -7   26.00    4.40
  -5   7  -7   24.40    3.90
   5  -7   7   32.90    3.90
  -6   7  -7  108.79    9.40
  -6   7  -7  104.29    9.60
  -6   7  -7  100.69    8.90
   6  -7   7   98.69    8.40
  -7   7  -7    1.90    3.10
  -7   7  -7    3.40    3.20
  -7   7  -7    4.90    3.70
   7  -7   7    6.40    2.80
  -8   7  -7  116.39   10.30
  -8   7  -7  123.39   10.70
   8  -7   7  108.49    9.60
  -9   7  -7   14.20    4.30
   9   6  -7   14.50    3.70
   9   6  -7   11.00    3.80
   8   6  -7  152.48   11.60
   8   6  -7  133.89   11.00
   7   6  -7   18.90    3.50
   7   6  -7   13.60    3.50
   6   6  -7   28.70    4.00
   6   6  -7   31.10    4.30
   6   6  -7   30.40    4.70
   5   6  -7    0.60    2.20
   5   6  -7    2.50    2.20
   5   6  -7    1.90    2.10
   5   6  -7   -2.80    2.60
   4   6  -7   -2.10    1.90
   4   6  -7   -1.00    2.00
   4   6  -7    1.60    2.70
   4   6  -7   -0.80    1.60
   4   6  -7   -3.30    2.40
   3   6  -7    5.20    2.00
   3   6  -7    5.00    2.60
   3   6  -7    1.70    2.40
   3   6  -7    4.80    2.30
   3   6  -7    0.70    1.70
  -3  -6   7    1.80    1.20
   2   6  -7  451.55   27.40
   2   6  -7  442.36   26.80
   2   6  -7  356.26   26.90
   2   6  -7  436.26   27.30
  -2  -6   7  443.86   26.60
   1   6  -7   17.10    2.50
   1   6  -7   17.40    1.90
   1   6  -7   11.20    2.70
   1   6  -7   19.00    3.00
   1   6  -7   19.10    2.80
  -1  -6   7   21.90    2.30
   0   6  -7  195.88   13.50
   0   6  -7  228.28   13.80
   0   6  -7  184.98   13.70
   0   6  -7  201.08   13.60
   0   6  -7  195.98   13.00
   0  -6   7  201.68   13.20
  -1   6  -7   36.60    4.30
  -1   6  -7   44.30    4.50
  -1   6  -7   40.40    3.90
  -1   6  -7   50.19    4.40
  -1   6  -7   57.69    4.90
   1  -6   7   39.10    3.90
  -2   6  -7  138.89   12.30
  -2   6  -7  188.98   12.10
  -2   6  -7  190.98   12.10
  -2   6  -7  189.28   12.70
   2  -6   7  181.28   12.70
   2  -6   7  185.78   12.00
  -3   6  -7  138.99   10.30
  -3   6  -7  136.39   10.40
  -3   6  -7  146.39    9.90
   3  -6   7  144.99   10.30
   3  -6   7  124.69    9.60
  -4   6  -7  243.18   18.50
  -4   6  -7  272.07   18.50
  -4   6  -7  277.77   18.10
   4  -6   7  276.47   17.90
   4  -6   7  282.67   18.40
  -5   6  -7   20.70    3.20
  -5   6  -7   24.20    3.60
  -5   6  -7   17.00    3.90
  -5   6  -7   17.60    3.70
   5  -6   7   19.80    3.10
   5  -6   7   20.10    3.40
  -6   6  -7  213.58   14.90
  -6   6  -7  186.18   14.30
  -6   6  -7  187.48   13.90
   6  -6   7  188.08   13.60
  -7   6  -7    1.70    3.10
  -7   6  -7    5.50    3.10
  -7   6  -7    6.30    3.70
   7  -6   7    3.70    2.60
  -8   6  -7  219.58   16.10
  -8   6  -7  209.98   16.30
   8  -6   7  226.38   15.60
  -9   6  -7    1.40    3.90
  -9   6  -7   -2.00    3.30
 -10   6  -7   12.90    4.30
   9   5  -7    5.00    3.60
   9   5  -7    1.30    2.80
   8   5  -7   -0.70    2.40
   8   5  -7   -4.30    2.90
   8   5  -7    1.50    3.00
   7   5  -7    2.00    2.90
   7   5  -7    3.60    2.40
   7   5  -7    0.60    2.90
   6   5  -7    1.40    2.40
   6   5  -7    2.70    2.90
   6   5  -7    1.80    1.90
   6   5  -7   -0.60    2.10
   5   5  -7    2.80    2.70
   5   5  -7    7.30    2.40
   5   5  -7    7.50    2.50
   5   5  -7    4.90    1.90
   5   5  -7    7.00    3.20
   4   5  -7  108.59    8.30
   4   5  -7   86.99    7.40
   4   5  -7  119.69    8.00
   4   5  -7  100.89    7.80
   4   5  -7  104.89    8.30
   3   5  -7    6.10    2.00
   3   5  -7    9.10    2.70
   3   5  -7    7.40    2.30
   3   5  -7    8.70    2.70
   3   5  -7    8.30    1.80
  -3  -5   7    5.00    1.30
   2   5  -7    0.20    1.90
   2   5  -7   -1.10    1.40
   2   5  -7    2.50    1.40
   2   5  -7   -1.20    1.90
   2   5  -7    0.50    1.80
  -2  -5   7    2.60    1.10
   1   5  -7  128.99    8.30
   1   5  -7  150.08    9.10
   1   5  -7  123.49    9.40
   1   5  -7  132.09    9.60
   1   5  -7  122.39    9.30
   1   5  -7  125.39    9.00
  -1  -5   7  125.69    8.60
   0   5  -7   30.60    3.40
   0   5  -7   33.20    3.50
   0   5  -7   31.80    3.60
   0   5  -7   33.20    3.60
   0   5  -7   30.50    2.80
   0  -5   7   33.90    3.00
  -1   5  -7   88.89    6.20
  -1   5  -7   82.29    6.30
  -1   5  -7   80.69    5.70
  -1   5  -7   62.89    6.10
  -1   5  -7   79.19    6.30
   1  -5   7   80.89    5.70
  -2   5  -7   17.70    3.00
  -2   5  -7   26.10    3.00
  -2   5  -7   21.00    3.00
  -2   5  -7   24.90    2.70
  -2   5  -7   19.20    3.10
   2  -5   7   21.20    3.20
   2  -5   7   17.80    2.50
  -3   5  -7   -0.90    1.70
  -3   5  -7    3.00    1.70
  -3   5  -7    1.30    2.00
  -3   5  -7    0.90    1.90
  -3   5  -7    1.20    1.70
   3  -5   7    1.20    1.60
   3  -5   7    2.50    1.80
  -4   5  -7   -1.00    1.70
  -4   5  -7    2.50    2.30
  -4   5  -7    2.00    1.90
  -4   5  -7    2.40    2.00
  -4   5  -7    1.60    2.10
   4  -5   7   -1.10    1.70
   4  -5   7    1.70    2.00
  -5   5  -7   40.40    5.20
  -5   5  -7   35.70    4.60
  -5   5  -7   35.50    4.40
  -5   5  -7   38.20    4.00
   5  -5   7   34.70    4.40
   5  -5   7   38.70    4.10
  -6   5  -7   15.20    3.30
  -6   5  -7    9.10    3.60
  -6   5  -7   14.80    3.70
   6  -5   7   16.60    3.30
   6  -5   7   15.90    3.00
  -7   5  -7   13.40    3.80
  -7   5  -7   11.90    3.50
  -7   5  -7   16.70    4.00
   7  -5   7   13.30    3.10
  -8   5  -7   41.20    5.70
  -8   5  -7   31.70    5.10
   8  -5   7   39.90    4.90
  -9   5  -7   79.79    8.30
  -9   5  -7   73.39    7.80
   9  -5   7   68.69    7.10
 -10   5  -7   58.99    7.20
  10   4  -7   12.90    3.80
  10   4  -7    8.00    3.90
   9   4  -7   16.80    3.80
   9   4  -7   21.70    4.50
   8   4  -7    7.50    3.10
   8   4  -7    4.60    2.60
   8   4  -7   -1.80    2.80
   7   4  -7    4.00    2.90
   7   4  -7    2.00    2.20
   7   4  -7   -1.20    2.60
   6   4  -7   50.09    4.90
   6   4  -7   47.10    4.90
   6   4  -7   47.70    5.20
   6   4  -7   53.89    5.70
   5   4  -7   28.40    3.90
   5   4  -7   21.00    2.90
   5   4  -7   29.10    4.30
   5   4  -7   30.20    3.60
   5   4  -7   26.10    3.50
   4   4  -7   -0.10    1.30
   4   4  -7   -0.10    1.70
   4   4  -7   -1.00    1.70
   4   4  -7   -0.40    2.10
   4   4  -7    2.00    2.30
   3   4  -7   73.69    6.00
   3   4  -7   73.09    5.70
   3   4  -7   71.19    5.50
   3   4  -7   80.59    6.40
   3   4  -7   73.59    6.30
   2   4  -7   12.10    2.70
   2   4  -7   13.10    2.50
   2   4  -7   14.10    2.70
   2   4  -7   15.10    2.00
   2   4  -7   14.80    2.10
  -2  -4   7   16.60    1.70
   1   4  -7   43.90    3.70
   1   4  -7   49.00    4.40
   1   4  -7   45.70    4.00
   1   4  -7   52.09    3.80
   1   4  -7   45.30    4.40
   1   4  -7   42.40    4.30
  -1  -4   7   39.00    3.40
   0   4  -7  179.48   12.00
   0   4  -7  186.08   11.80
   0   4  -7  183.38   12.10
   0   4  -7  177.68   11.30
   0   4  -7  166.98   12.10
   0   4  -7  166.68   12.00
   0  -4   7  180.78   11.50
  -1   4  -7    2.00    1.50
  -1   4  -7    3.10    1.80
  -1   4  -7    3.70    1.80
  -1   4  -7    3.40    1.20
  -1   4  -7    2.40    1.70
   1  -4   7   -1.40    1.50
   1  -4   7    1.80    1.10
  -2   4  -7    8.30    2.10
  -2   4  -7    9.40    1.70
  -2   4  -7    7.30    2.00
  -2   4  -7   12.00    2.40
  -2   4  -7   12.40    2.50
   2  -4   7    7.60    2.10
   2  -4   7    9.80    1.70
  -3   4  -7  343.37   21.30
  -3   4  -7  314.07   21.70
  -3   4  -7  322.77   21.30
  -3   4  -7  338.17   21.40
  -3   4  -7  372.56   21.90
   3  -4   7  320.87   21.20
   3  -4   7  312.87   21.60
  -4   4  -7    9.90    2.20
  -4   4  -7   12.00    2.40
  -4   4  -7    8.00    2.50
  -4   4  -7   10.00    2.80
   4  -4   7   11.30    2.60
   4  -4   7   10.40    2.10
  -5   4  -7   75.29    6.70
  -5   4  -7   70.89    6.80
  -5   4  -7   67.39    6.30
  -5   4  -7   75.59    5.80
   5  -4   7   63.49    6.20
   5  -4   7   72.59    6.00
  -6   4  -7   36.10    5.20
  -6   4  -7   40.50    5.20
  -6   4  -7   40.60    4.80
   6  -4   7   42.80    4.80
   6  -4   7   40.40    4.40
  -7   4  -7  155.28   12.00
  -7   4  -7  137.19   11.20
  -7   4  -7  130.29   10.80
   7  -4   7  146.59   10.60
  -8   4  -7   50.79    6.30
  -8   4  -7   64.59    6.90
   8  -4   7   59.69    6.00
  -9   4  -7   -1.40    2.90
  -9   4  -7   -3.10    3.00
   9  -4   7   -1.60    2.70
   9  -4   7   -0.90    3.20
 -10   4  -7   -1.60    5.20
 -10   4  -7    5.30    3.80
  10  -4   7    1.60    3.10
  10   3  -7    3.00    3.50
  10   3  -7    7.30    3.50
   9   3  -7   43.60    5.70
   9   3  -7   40.90    5.40
   8   3  -7    3.10    2.90
   8   3  -7    0.80    2.40
   8   3  -7   -1.50    2.60
   7   3  -7    3.80    2.70
   7   3  -7    0.70    2.00
   7   3  -7   -3.20    2.40
   6   3  -7   35.30    4.20
   6   3  -7   30.40    3.60
   6   3  -7   30.20    3.80
   6   3  -7   32.70    4.30
   5   3  -7   70.59    6.20
   5   3  -7   66.49    6.00
   5   3  -7   62.69    5.20
   5   3  -7   67.09    5.70
   5   3  -7   62.69    5.90
   4   3  -7  177.48   12.60
   4   3  -7  181.78   11.90
   4   3  -7  193.28   12.80
   4   3  -7  175.68   12.30
   4   3  -7  177.08   12.30
   3   3  -7   16.30    2.30
   3   3  -7   14.00    2.50
   3   3  -7   14.80    2.80
   3   3  -7   15.10    1.80
   3   3  -7   13.70    2.60
   2   3  -7    0.10    1.80
   2   3  -7    1.30    1.70
   2   3  -7   -0.20    1.60
   2   3  -7    1.80    1.30
   2   3  -7    1.30    0.90
  -2  -3   7    0.00    0.70
   1   3  -7   22.40    3.00
   1   3  -7   25.10    2.40
   1   3  -7   19.90    2.90
   1   3  -7   25.60    2.90
   1   3  -7   29.10    2.60
  -1  -3   7   29.10    2.20
   0   3  -7  160.58   10.00
   0   3  -7  150.08    9.50
   0   3  -7  153.68   10.30
   0   3  -7  148.79   10.40
   0   3  -7  137.59   10.30
   0   3  -7  145.29   10.40
   0  -3   7  155.98    9.70
  -1   3  -7  281.37   17.90
  -1   3  -7  267.17   17.80
  -1   3  -7  268.77   17.30
  -1   3  -7  292.17   18.10
  -1   3  -7  286.27   17.90
   1  -3   7  292.37   18.20
   1  -3   7  251.27   17.40
  -2   3  -7  146.79   10.10
  -2   3  -7  138.09    9.70
  -2   3  -7  133.19    9.70
  -2   3  -7  151.38    9.40
  -2   3  -7  125.09    9.70
   2  -3   7  154.98   10.10
   2  -3   7  141.69    9.40
  -3   3  -7   13.20    2.70
  -3   3  -7   15.30    2.30
  -3   3  -7   21.90    2.90
  -3   3  -7   15.90    2.40
   3  -3   7   17.20    2.80
   3  -3   7   18.10    2.30
  -4   3  -7  118.49   10.30
  -4   3  -7  149.59    9.90
  -4   3  -7  151.18   10.60
  -4   3  -7  141.69   10.00
   4  -3   7  157.38   10.50
   4  -3   7  147.29    9.90
  -5   3  -7   -0.90    2.10
  -5   3  -7   -1.30    2.10
  -5   3  -7   -0.30    1.40
  -5   3  -7    0.50    2.00
   5  -3   7    1.90    1.90
   5  -3   7   -1.90    1.70
  -6   3  -7  122.89    8.50
  -6   3  -7   75.79    8.40
  -6   3  -7  110.69    8.70
   6  -3   7  109.39    8.10
   6  -3   7  102.99    8.30
  -7   3  -7  101.29    8.30
  -7   3  -7   84.69    8.30
  -7   3  -7   87.49    8.70
   7  -3   7   99.69    7.90
   7  -3   7  103.89    8.30
  -8   3  -7   -1.00    2.70
  -8   3  -7    1.40    3.00
   8  -3   7   -0.70    2.20
   8  -3   7    7.80    3.30
  -9   3  -7   99.59    8.90
  -9   3  -7  104.89    8.90
   9  -3   7   84.09    8.50
   9  -3   7   85.69    8.00
 -10   3  -7    0.90    3.30
 -10   3  -7    5.80    3.60
  10  -3   7    0.10    3.20
  10  -3   7   -0.20    3.60
 -11   3  -7    1.70    3.60
  11  -3   7    2.70    3.60
  10   2  -7    3.10    3.40
  10   2  -7    0.00    2.90
   9   2  -7    0.80    2.50
   9   2  -7    3.10    3.20
   8   2  -7    0.40    2.70
   8   2  -7   -3.70    2.40
   8   2  -7    4.70    2.60
   7   2  -7    2.10    2.60
   7   2  -7    0.60    2.10
   7   2  -7   -0.60    2.50
   6   2  -7   56.39    6.00
   6   2  -7   49.10    5.00
   6   2  -7   50.99    5.50
   6   2  -7   56.79    5.00
   6   2  -7   55.19    5.50
   5   2  -7   26.00    3.20
   5   2  -7   23.90    3.60
   5   2  -7   26.30    3.70
   5   2  -7   20.80    2.60
   5   2  -7   17.40    3.00
   4   2  -7   26.80    3.50
   4   2  -7   27.20    3.40
   4   2  -7   25.30    2.60
   4   2  -7   21.80    3.10
   4   2  -7   19.40    2.80
   3   2  -7   61.29    4.90
   3   2  -7   56.79    4.00
   3   2  -7   51.79    4.60
   3   2  -7   56.19    5.10
   3   2  -7   56.19    4.90
   2   2  -7   32.00    2.30
   2   2  -7   31.00    3.40
   2   2  -7   34.20    3.10
   2   2  -7   28.00    3.30
   2   2  -7   36.50    3.80
   1   2  -7  370.26   23.60
   1   2  -7  347.37   23.50
   1   2  -7  375.06   23.10
   1   2  -7  366.76   22.90
   1   2  -7  372.96   23.70
  -1  -2   7  377.16   22.80
   0   2  -7  109.39    7.90
   0   2  -7  107.39    7.90
   0   2  -7  115.99    7.90
   0   2  -7  106.79    7.80
   0   2  -7  118.39    7.40
   0  -2   7  103.49    7.10
  -1   2  -7   61.49    4.50
  -1   2  -7   60.79    4.10
  -1   2  -7   58.99    4.70
  -1   2  -7   56.69    4.80
  -1   2  -7   50.09    4.80
  -1   2  -7   63.49    4.90
   1  -2   7   60.69    4.90
   1  -2   7   53.49    4.20
  -2   2  -7   34.60    3.80
  -2   2  -7   36.20    3.30
  -2   2  -7   38.80    3.50
  -2   2  -7   31.10    3.20
  -2   2  -7   33.70    3.00
   2  -2   7   29.30    3.50
   2  -2   7   32.60    3.00
  -3   2  -7    4.50    1.90
  -3   2  -7    6.10    2.10
  -3   2  -7    7.60    1.70
  -3   2  -7    4.10    1.50
   3  -2   7    4.80    1.40
   3  -2   7    3.80    1.80
  -4   2  -7   67.49    6.20
  -4   2  -7   77.39    5.60
  -4   2  -7   79.59    6.40
  -4   2  -7   69.29    5.60
  -4   2  -7   70.29    5.80
   4  -2   7   76.59    6.20
   4  -2   7   74.59    5.70
  -5   2  -7   57.89    5.80
  -5   2  -7   58.19    5.10
  -5   2  -7   55.99    4.70
  -5   2  -7   46.00    5.30
   5  -2   7   62.99    5.60
   5  -2   7   58.69    5.10
  -6   2  -7    2.80    2.50
  -6   2  -7    4.60    2.30
  -6   2  -7    7.10    2.90
   6  -2   7    3.50    2.10
   6  -2   7    5.50    2.10
  -7   2  -7   28.50    5.00
  -7   2  -7   39.30    4.60
  -7   2  -7   38.10    4.70
   7  -2   7   26.30    3.90
   7  -2   7   30.50    4.40
   7  -2   7   36.60    4.40
  -8   2  -7    9.60    3.20
  -8   2  -7    4.00    3.00
   8  -2   7   13.90    3.60
   8  -2   7    8.60    3.00
  -9   2  -7   45.20    5.70
  -9   2  -7   36.30    5.20
   9  -2   7   36.10    5.20
   9  -2   7   28.50    4.50
 -10   2  -7   15.40    4.40
  10  -2   7   21.30    3.90
  10  -2   7   19.20    4.50
 -11   2  -7    0.80    3.80
  11  -2   7   -1.90    3.50
  10   1  -7   24.40    4.50
  10   1  -7   14.80    4.30
   9   1  -7   68.49    7.20
   9   1  -7   76.79    7.50
   8   1  -7   95.79    8.10
   8   1  -7   97.19    8.30
   8   1  -7   83.59    7.80
   7   1  -7   95.79    8.20
   7   1  -7   93.59    7.60
   7   1  -7   98.09    8.10
   6   1  -7    6.60    2.40
   6   1  -7    1.10    1.80
   6   1  -7    2.30    1.70
   6   1  -7   -2.30    2.30
   6   1  -7    1.40    2.20
   5   1  -7  244.18   16.20
   5   1  -7  228.38   16.50
   5   1  -7  247.18   16.40
   5   1  -7  227.38   16.20
   5   1  -7  264.87   15.90
   4   1  -7   38.00    4.00
   4   1  -7   31.90    3.20
   4   1  -7   32.00    2.90
   4   1  -7   33.80    4.00
   4   1  -7   32.10    3.50
   4   1  -7   31.30    3.40
   3   1  -7    7.10    2.00
   3   1  -7    6.70    2.00
   3   1  -7    6.20    2.00
   3   1  -7    6.50    1.70
   3   1  -7    7.30    1.50
   2   1  -7  113.89    8.60
   2   1  -7  128.69    8.30
   2   1  -7  121.39    8.60
   2   1  -7  117.89    8.60
   2   1  -7  124.89    8.10
   1   1  -7  809.82   49.40
   1   1  -7  809.02   49.80
   1   1  -7  782.92   49.70
   1   1  -7  789.22   49.80
  -1  -1   7  798.12   49.30
  -1  -1   7  799.32   49.00
   0   1  -7    3.40    1.60
   0   1  -7    5.30    1.00
   0   1  -7    6.50    1.80
   0   1  -7    4.20    1.60
   0  -1   7    5.90    1.60
   0  -1   7    5.40    0.90
  -1   1  -7  632.44   43.80
  -1   1  -7  745.13   43.60
  -1   1  -7  716.53   44.00
  -1   1  -7  711.63   44.20
  -1   1  -7  715.73   44.10
   1  -1   7  709.73   43.60
   1  -1   7  715.83   44.20
  -2   1  -7   82.39    5.70
  -2   1  -7   81.79    6.40
  -2   1  -7   82.69    6.10
  -2   1  -7   84.59    5.90
  -2   1  -7   73.99    6.00
   2  -1   7   80.39    5.70
   2  -1   7   88.89    6.30
  -3   1  -7  239.68   14.00
  -3   1  -7  179.78   14.10
  -3   1  -7  233.68   14.50
  -3   1  -7  216.18   14.00
  -3   1  -7  217.58   13.90
   3  -1   7  199.58   14.30
   3  -1   7  214.78   13.80
  -4   1  -7   11.90    2.20
  -4   1  -7    9.60    2.40
  -4   1  -7   12.90    2.10
  -4   1  -7   13.10    2.60
  -4   1  -7   12.00    1.90
   4  -1   7   10.90    1.90
   4  -1   7   13.80    2.50
  -5   1  -7  105.09    8.00
  -5   1  -7   94.99    7.30
  -5   1  -7   89.49    7.60
  -5   1  -7  100.59    7.10
   5  -1   7   85.99    7.10
   5  -1   7   99.79    7.60
  -6   1  -7    4.40    2.40
  -6   1  -7    6.70    2.40
  -6   1  -7   11.60    2.20
  -6   1  -7    6.40    2.80
   6  -1   7    2.10    1.90
   6  -1   7    8.30    2.60
   6  -1   7    6.70    2.70
  -7   1  -7   96.09    8.00
  -7   1  -7   88.99    8.70
  -7   1  -7   98.39    8.10
   7  -1   7   91.99    7.90
   7  -1   7  103.79    8.30
   7  -1   7   93.99    7.60
  -8   1  -7   11.80    3.60
  -8   1  -7   19.90    3.80
   8  -1   7   18.60    3.70
   8  -1   7   15.30    3.20
  -9   1  -7    2.00    2.70
  -9   1  -7    5.00    3.20
   9  -1   7    1.20    2.50
   9  -1   7    1.60    2.90
 -10   1  -7    0.90    3.40
  10  -1   7   -3.60    3.00
  10  -1   7   -1.40    2.60
 -11   1  -7    7.50    4.00
  11  -1   7   11.50    4.20
  10   0  -7    6.80    3.60
   9   0  -7    0.00    2.80
   9   0  -7   -2.60    2.90
   9   0  -7    2.20    3.00
   8   0  -7   38.40    4.90
   8   0  -7   34.00    4.60
   8   0  -7   37.80    4.90
  -8   0   7   35.10    4.10
   7   0  -7    6.20    2.80
   7   0  -7    4.70    2.30
   7   0  -7    6.70    2.80
  -7   0   7    6.20    1.90
   6   0  -7   34.00    3.70
   6   0  -7   33.50    4.50
   6   0  -7   41.70    4.10
   6   0  -7   29.60    4.00
   6   0  -7   32.90    4.20
   6   0  -7   41.70    4.00
   5   0  -7  124.89    9.10
   5   0  -7  124.49    8.80
   5   0  -7  112.59    8.70
   5   0  -7  115.59    8.90
   4   0  -7    1.40    1.90
   4   0  -7    3.20    1.70
   4   0  -7    0.20    1.10
   4   0  -7    3.30    1.70
   4   0  -7   -0.10    1.70
   3   0  -7   70.89    5.80
   3   0  -7   71.59    5.80
   3   0  -7   76.89    5.60
   3   0  -7   67.89    5.70
   2   0  -7   20.60    2.70
   2   0  -7   22.90    2.70
   2   0  -7   20.40    2.30
   2   0  -7   19.60    2.60
   1   0  -7   83.49    6.60
   1   0  -7   88.59    6.00
   1   0  -7   88.79    6.50
  -1   0   7   85.19    6.20
   0   0  -7  114.89    7.70
   0   0  -7  104.99    7.70
   0   0  -7  108.69    7.10
   0   0   7  111.59    7.60
   0   0   7  109.79    7.00
  -1   0  -7  291.27   19.00
  -1   0  -7  293.67   19.10
  -1   0  -7  299.17   19.20
  -1   0  -7  314.47   18.70
   1   0   7  289.07   19.20
   1   0   7  309.57   18.80
  -2   0  -7   14.20    1.70
  -2   0  -7   10.40    1.90
  -2   0  -7   12.50    2.00
  -2   0  -7   14.60    1.90
  -2   0  -7   12.40    1.90
  -2   0  -7   12.90    2.30
   2   0   7   13.60    1.70
   2   0   7   14.60    2.30
  -3   0  -7   37.20    4.00
  -3   0  -7   34.00    3.90
  -3   0  -7   44.30    3.70
  -3   0  -7   46.50    3.70
  -3   0  -7   47.20    3.40
  -3   0  -7   49.40    4.00
   3   0   7   41.90    3.60
   3   0   7   40.60    4.10
  -4   0  -7   63.99    5.60
  -4   0  -7   69.39    4.90
  -4   0  -7   73.29    5.30
  -4   0  -7   63.59    5.80
  -4   0  -7   67.39    5.30
   4   0   7   61.39    5.50
   4   0   7   60.89    5.20
  -5   0  -7  422.66   27.20
  -5   0  -7  373.16   26.80
  -5   0  -7  427.56   27.40
  -5   0  -7  453.85   26.80
   5   0   7  444.06   27.30
   5   0   7  404.16   26.70
  -6   0  -7  132.79    9.40
  -6   0  -7  114.89    8.20
  -6   0  -7  116.69    8.90
  -6   0  -7   88.09    8.50
   6   0   7  112.29    8.60
   6   0   7  111.99    8.30
   6   0   7  120.59    8.90
  -7   0  -7    9.20    2.90
  -7   0  -7    7.50    2.20
  -7   0  -7    8.10    2.70
  -7   0  -7    5.10    3.10
   7   0   7    7.60    2.70
   7   0   7    0.40    2.00
   7   0   7    9.80    2.80
  -8   0  -7    7.20    3.00
  -8   0  -7    5.30    2.60
   8   0   7    0.50    2.30
   8   0   7    0.40    2.70
  -9   0  -7  116.19    9.40
  -9   0  -7   99.39    9.80
   9   0   7  120.89    9.30
   9   0   7  115.59    9.60
 -10   0  -7   13.80    3.90
  10   0   7   15.70    4.00
  10   0   7    7.20    3.20
 -11   0  -7   49.00    6.80
  11   0   7   61.39    7.20
  10  -1  -7   59.89    6.80
  10  -1  -7   42.50    6.10
   9  -1  -7    4.40    3.00
   9  -1  -7    0.60    2.90
   9  -1  -7    6.10    3.10
   8  -1  -7   49.40    5.70
   8  -1  -7   56.29    5.90
   8  -1  -7   59.99    6.00
   8  -1  -7   52.99    5.20
   7  -1  -7   10.60    3.00
   7  -1  -7    8.20    2.60
   7  -1  -7    3.80    2.60
   6  -1  -7    1.60    2.20
   6  -1  -7    2.70    2.00
   6  -1  -7    2.20    1.80
   6  -1  -7    0.10    2.30
   6  -1  -7   -3.40    2.10
  -6   1   7   -0.10    1.50
   5  -1  -7   81.59    6.40
   5  -1  -7   72.29    6.00
   5  -1  -7   71.89    6.30
   5  -1  -7   80.69    6.50
   5  -1  -7   75.59    5.80
  -5   1   7   69.39    5.60
   4  -1  -7   17.30    2.80
   4  -1  -7   18.50    2.10
   4  -1  -7   14.70    2.50
   4  -1  -7   18.80    3.00
   4  -1  -7   17.30    2.60
  -4   1   7   19.60    2.30
   3  -1  -7  210.48   14.30
   3  -1  -7  205.98   14.20
   3  -1  -7  227.98   14.40
   3  -1  -7  213.48   14.40
   3  -1  -7  219.28   13.70
   3  -1  -7  217.78   13.60
  -3   1   7  216.68   13.90
   2  -1  -7   21.90    2.70
   2  -1  -7   21.80    2.10
   2  -1  -7   21.70    2.90
   2  -1  -7   24.10    2.60
   2  -1  -7   24.50    2.90
  -2   1   7   25.00    2.40
  -2   1   7   28.30    2.30
   1  -1  -7  285.77   17.90
   1  -1  -7  279.47   18.10
   1  -1  -7  286.87   18.60
   1  -1  -7  299.77   18.30
   1  -1  -7  296.47   18.50
  -1   1   7  281.57   18.20
   0  -1  -7    0.50    1.40
   0  -1  -7    4.50    1.50
   0  -1  -7    1.60    1.30
   0  -1  -7    2.30    0.90
   0   1   7    0.10    0.70
   0   1   7    2.40    1.00
   0   1   7    0.40    1.10
  -1  -1  -7   -0.50    1.20
  -1  -1  -7    0.40    1.10
  -1  -1  -7    1.30    0.80
  -1  -1  -7    1.00    1.10
  -1  -1  -7    2.50    1.30
   1   1   7    1.30    0.90
   1   1   7    1.30    0.80
   1   1   7    0.10    1.10
  -2  -1  -7    2.20    1.10
  -2  -1  -7    0.70    1.20
  -2  -1  -7   -0.40    1.10
  -2  -1  -7    0.90    1.20
  -2  -1  -7    2.00    1.20
   2   1   7    0.70    1.30
   2   1   7   -0.20    1.00
  -3  -1  -7   64.39    5.10
  -3  -1  -7   58.49    4.70
  -3  -1  -7   67.29    4.90
  -3  -1  -7   65.79    4.60
   3   1   7   51.79    4.90
   3   1   7   51.99    4.60
  -4  -1  -7  109.99    7.80
  -4  -1  -7   94.79    7.30
  -4  -1  -7   96.99    7.80
  -4  -1  -7  104.69    7.40
  -4  -1  -7  102.19    7.00
   4   1   7   95.09    7.20
   4   1   7  109.99    7.70
  -5  -1  -7  296.87   23.40
  -5  -1  -7  380.66   24.00
  -5  -1  -7  365.96   23.50
  -5  -1  -7  384.66   23.40
   5   1   7  373.96   23.30
   5   1   7  368.96   23.80
   5   1   7  379.56   23.50
  -6  -1  -7    5.80    2.70
  -6  -1  -7    5.40    2.00
  -6  -1  -7    5.80    2.30
  -6  -1  -7    7.10    2.40
   6   1   7    5.50    2.00
   6   1   7    6.10    2.40
   6   1   7    4.40    2.40
  -7  -1  -7  676.83   42.30
  -7  -1  -7  647.94   42.60
  -7  -1  -7  665.23   42.70
   7   1   7  693.63   42.80
   7   1   7  646.84   42.40
   7   1   7  695.83   43.00
  -8  -1  -7   40.50    4.90
  -8  -1  -7   48.80    5.60
   8   1   7   41.00    5.20
   8   1   7   44.90    4.80
  -9  -1  -7  184.38   13.70
   9   1   7  171.58   13.30
   9   1   7  176.48   13.00
 -10  -1  -7   57.09    7.00
  10   1   7   66.49    7.40
  10   1   7   57.79    6.40
 -11  -1  -7   87.69    9.60
  11   1   7  117.49   10.20
  10  -2  -7   11.60    4.00
  10  -2  -7    3.70    3.40
   9  -2  -7   32.60    4.80
   9  -2  -7   22.20    4.50
   9  -2  -7   30.70    4.50
   8  -2  -7   45.80    5.50
   8  -2  -7   55.19    5.60
   8  -2  -7   41.40    5.20
   7  -2  -7   20.90    3.60
   7  -2  -7   17.20    3.30
   7  -2  -7   18.60    3.30
   6  -2  -7   11.10    2.50
   6  -2  -7   14.90    3.00
   6  -2  -7   12.90    2.60
   6  -2  -7    8.30    2.70
   6  -2  -7   10.60    2.90
   5  -2  -7   -1.40    1.80
   5  -2  -7   -0.10    2.10
   5  -2  -7    0.40    1.60
   5  -2  -7    1.70    2.00
   5  -2  -7    1.20    1.90
   4  -2  -7   82.79    6.30
   4  -2  -7   82.49    5.60
   4  -2  -7   80.59    5.90
   4  -2  -7   69.29    6.40
   4  -2  -7   81.79    6.30
   4  -2  -7   79.69    6.30
   3  -2  -7  602.14   37.20
   3  -2  -7  599.34   36.70
   3  -2  -7  589.44   37.20
   3  -2  -7  580.54   37.00
   3  -2  -7  577.84   36.60
   3  -2  -7  593.54   37.20
   2  -2  -7   95.09    6.40
   2  -2  -7   91.49    7.10
   2  -2  -7   90.69    7.00
   2  -2  -7  105.29    7.20
   2  -2  -7   98.59    6.90
   2  -2  -7   96.19    6.50
  -2   2   7  100.19    6.50
   1  -2  -7   26.40    2.30
   1  -2  -7   23.60    2.80
   1  -2  -7   22.80    2.20
   1  -2  -7   20.00    3.00
   1  -2  -7   24.20    2.80
  -1   2   7   23.00    2.30
  -1   2   7   21.90    2.40
   0  -2  -7   98.19    6.30
   0  -2  -7   87.29    6.50
   0  -2  -7   85.29    6.20
   0  -2  -7   88.59    6.60
   0   2   7   95.79    6.40
   0   2   7   96.09    6.00
   0   2   7   88.99    6.20
   0   2   7   86.99    6.30
  -1  -2  -7  270.87   17.20
  -1  -2  -7  271.37   17.00
  -1  -2  -7  274.27   17.40
  -1  -2  -7  268.37   17.30
  -1  -2  -7  286.47   17.30
   1   2   7  285.67   17.00
   1   2   7  231.98   17.20
   1   2   7  268.47   17.00
  -2  -2  -7  818.72   47.60
  -2  -2  -7  791.82   47.20
  -2  -2  -7  717.43   47.40
  -2  -2  -7  786.92   47.30
  -2  -2  -7  779.02   47.10
   2   2   7  695.53   47.40
   2   2   7  748.43   47.00
   2   2   7  748.53   47.20
  -3  -2  -7 1932.91  119.69
  -3  -2  -7 1846.12  119.69
  -3  -2  -7 1845.82  119.49
  -3  -2  -7 1907.11  119.99
   3   2   7 1908.51  119.59
   3   2   7 2221.18  120.09
  -4  -2  -7  301.47   21.10
  -4  -2  -7  383.16   21.80
  -4  -2  -7  325.77   20.90
  -4  -2  -7  337.97   20.80
  -4  -2  -7  316.47   21.20
   4   2   7  322.27   21.40
   4   2   7  322.77   21.10
  -5  -2  -7 2413.36  148.39
  -5  -2  -7 2394.56  148.29
   5   2   7 2331.67  148.59
   5   2   7 2420.26  148.19
   5   2   7 2463.35  148.39
  -6  -2  -7  317.77   20.90
  -6  -2  -7  323.37   21.60
  -6  -2  -7  330.37   21.10
   6   2   7  320.57   21.30
   6   2   7  333.97   21.20
   6   2   7  297.67   20.80
  -7  -2  -7  415.76   25.00
  -7  -2  -7  386.46   25.50
  -7  -2  -7  393.26   24.60
   7   2   7  318.67   24.60
   7   2   7  377.06   25.10
   7   2   7  377.86   24.60
  -8  -2  -7  194.08   14.10
   8   2   7  183.18   14.00
   8   2   7  204.48   13.80
  -9  -2  -7  220.78   15.30
   9   2   7  200.38   14.60
   9   2   7  198.88   15.10
 -10  -2  -7   50.59    6.40
  10   2   7   49.00    5.80
  10   2   7   47.70    6.30
 -11  -2  -7   10.80    4.00
  11   2   7   17.10    4.60
  10  -3  -7   15.00    4.20
  10  -3  -7   15.40    4.40
   9  -3  -7   26.80    4.40
   9  -3  -7   22.80    4.50
   9  -3  -7   33.10    4.80
   8  -3  -7    6.40    3.20
   8  -3  -7    8.20    3.20
   8  -3  -7    9.00    3.20
   7  -3  -7    5.60    2.80
   7  -3  -7    2.60    2.40
   7  -3  -7    3.50    2.70
   6  -3  -7   21.50    3.50
   6  -3  -7   27.00    3.70
   6  -3  -7   27.80    3.60
   6  -3  -7   25.40    3.80
   5  -3  -7   21.10    3.10
   5  -3  -7   16.90    3.00
   5  -3  -7   17.50    3.00
   5  -3  -7   16.80    1.80
   5  -3  -7   21.10    2.40
   5  -3  -7   19.30    3.00
   5  -3  -7   20.30    2.90
   4  -3  -7    8.10    1.60
   4  -3  -7    9.20    1.90
   4  -3  -7    8.60    2.30
   4  -3  -7    8.80    2.20
   4  -3  -7    9.80    2.20
   4  -3  -7    9.20    2.20
   3  -3  -7  815.42   50.59
   3  -3  -7  835.62   50.69
   3  -3  -7  800.62   50.69
   3  -3  -7  797.02   50.29
   3  -3  -7  819.62   50.39
   3  -3  -7  798.92   50.69
   2  -3  -7    7.90    1.90
   2  -3  -7    9.50    0.90
   2  -3  -7    8.90    1.50
   2  -3  -7    8.30    1.40
   2  -3  -7    5.30    1.80
   2  -3  -7    9.30    2.10
  -2   3   7    7.80    1.10
  -2   3   7    7.90    1.80
   1  -3  -7 2527.15  161.58
   1  -3  -7 2668.53  161.88
   1  -3  -7 2593.64  161.88
   1  -3  -7 2635.04  161.58
   1  -3  -7 2647.04  161.88
  -1   3   7 2688.53  161.78
  -1   3   7 2657.13  161.48
   0  -3  -7  293.07   18.20
   0  -3  -7  277.67   18.20
   0  -3  -7  250.47   18.00
   0  -3  -7  294.67   18.00
   0  -3  -7  278.57   18.20
   0   3   7  290.57   18.00
   0   3   7  293.17   17.80
   0   3   7  279.07   17.90
   0   3   7  293.57   18.00
  -1  -3  -7 3803.12  222.28
  -1  -3  -7 3664.13  222.38
  -1  -3  -7 3663.43  222.38
  -1  -3  -7 3332.77  222.28
  -1  -3  -7 3775.02  222.08
  -1  -3  -7 3689.73  222.28
  -1  -3  -7 3743.03  222.08
   1   3   7 3603.34  222.08
   1   3   7 3588.34  222.18
   1   3   7 3338.87  222.28
  -2  -3  -7   95.99    6.90
  -2  -3  -7  112.19    6.80
  -2  -3  -7   83.19    7.10
  -2  -3  -7  102.39    7.20
  -2  -3  -7  108.89    6.90
   2   3   7   92.79    7.10
   2   3   7   90.29    6.70
   2   3   7  101.99    6.70
  -3  -3  -7 3324.77  207.28
  -3  -3  -7 3704.43  208.08
  -3  -3  -7 3329.97  207.68
  -3  -3  -7 3262.87  207.58
  -3  -3  -7 3403.86  207.38
   3   3   7 3258.27  207.28
   3   3   7 3287.17  207.78
   3   3   7 3453.05  207.48
  -4  -3  -7   64.19    5.10
  -4  -3  -7   66.49    5.40
  -4  -3  -7   69.79    5.50
  -4  -3  -7   66.89    5.90
  -4  -3  -7   58.39    5.40
   4   3   7   71.59    5.40
   4   3   7   70.09    5.60
   4   3   7   67.99    5.80
   4   3   7   76.39    5.70
  -5  -3  -7  120.59    9.00
  -5  -3  -7  122.89    9.60
  -5  -3  -7  132.79    8.80
  -5  -3  -7  123.69    9.10
   5   3   7  113.99    9.20
   5   3   7  135.99    9.20
   5   3   7  123.59    8.80
  -6  -3  -7   60.79    5.70
  -6  -3  -7   58.99    5.20
  -6  -3  -7   71.19    6.40
  -6  -3  -7   59.29    5.50
   6   3   7   67.19    5.80
   6   3   7   49.70    5.60
   6   3   7   55.69    5.30
  -7  -3  -7   65.49    5.80
  -7  -3  -7   63.29    6.00
  -7  -3  -7   67.59    6.20
  -7  -3  -7   63.79    6.80
   7   3   7   55.19    5.70
   7   3   7   62.29    6.10
   7   3   7   68.29    6.30
  -8  -3  -7    2.30    2.70
   8   3   7    1.90    2.60
   8   3   7    2.50    2.30
  -9  -3  -7    1.70    3.00
   9   3   7    0.10    2.90
   9   3   7    1.70    2.50
 -10  -3  -7    6.10    3.40
  10   3   7    7.90    3.20
  10   3   7    9.30    3.70
 -11  -3  -7   17.10    4.60
  11   3   7   11.60    4.00
  10  -4  -7    2.20    3.70
 -10   4   7    3.40    3.40
   9  -4  -7   41.90    5.90
   9  -4  -7   47.00    5.70
  -9   4   7   47.20    5.80
   8  -4  -7   -0.90    2.60
   8  -4  -7    0.10    2.70
   8  -4  -7   -2.40    2.40
   7  -4  -7  108.49    7.60
   7  -4  -7  112.89    9.10
   7  -4  -7  104.59    9.00
   7  -4  -7  119.89    9.20
   6  -4  -7  100.89    8.20
   6  -4  -7   97.19    8.20
   6  -4  -7  100.89    7.00
   6  -4  -7  106.99    8.00
   6  -4  -7  109.59    7.60
   6  -4  -7   95.09    8.10
   5  -4  -7 1320.57   81.79
   5  -4  -7 1329.97   81.49
   5  -4  -7 1307.27   81.19
   5  -4  -7 1272.97   81.99
   5  -4  -7 1356.86   81.99
   4  -4  -7  332.67   19.70
   4  -4  -7  323.87   20.40
   4  -4  -7  298.87   20.50
   4  -4  -7  302.97   20.20
   4  -4  -7  297.27   19.90
  -4   4   7  315.47   20.40
   3  -4  -7 3138.99  191.58
   3  -4  -7 3122.19  191.28
   3  -4  -7 3107.09  191.28
   3  -4  -7 3330.57  190.88
   3  -4  -7 2968.50  191.48
   3  -4  -7 3067.09  191.08
  -3   4   7 3032.30  191.48
   2  -4  -7 1100.69   69.99
   2  -4  -7 1139.99   70.19
   2  -4  -7 1135.99   70.39
   2  -4  -7 1176.88   70.19
  -2   4   7 1110.49   70.29
   1  -4  -7 2294.57  144.79
   1  -4  -7 2387.66  145.09
   1  -4  -7 2424.56  144.89
   1  -4  -7 2296.07  144.89
  -1   4   7 2409.56  144.49
  -1   4   7 2310.57  144.89
   0  -4  -7  563.14   33.90
   0  -4  -7  537.75   33.70
   0  -4  -7  529.25   33.80
   0  -4  -7  500.95   33.80
   0   4   7  533.75   33.60
   0   4   7  560.34   33.70
   0   4   7  541.15   33.50
  -1  -4  -7 2270.87  139.89
  -1  -4  -7 2275.37  139.99
  -1  -4  -7 2203.68  139.99
  -1  -4  -7 2435.86  140.09
  -1  -4  -7 2341.37  139.59
  -1  -4  -7 2203.38  139.79
   1   4   7 2335.77  139.79
   1   4   7 2237.48  139.89
   1   4   7 2152.98  139.79
  -2  -4  -7   67.69    4.70
  -2  -4  -7   60.49    4.90
  -2  -4  -7   55.39    5.30
  -2  -4  -7   67.69    4.90
  -2  -4  -7   66.99    5.20
  -2  -4  -7   69.59    5.00
   2   4   7   69.39    5.00
   2   4   7   63.49    5.10
   2   4   7   64.79    4.90
  -3  -4  -7    4.40    1.60
  -3  -4  -7    5.80    2.10
  -3  -4  -7    4.50    1.30
  -3  -4  -7    8.20    1.70
   3   4   7    2.50    1.40
   3   4   7    1.70    1.60
   3   4   7    5.40    1.40
  -4  -4  -7   24.10    2.90
  -4  -4  -7   20.60    2.50
  -4  -4  -7   21.40    2.90
  -4  -4  -7   21.40    3.30
   4   4   7   22.60    3.10
   4   4   7   18.20    2.40
   4   4   7   23.10    2.90
   4   4   7   23.50    2.80
  -5  -4  -7    1.90    1.80
  -5  -4  -7   -2.00    1.60
  -5  -4  -7    0.10    2.30
  -5  -4  -7    2.20    1.60
   5   4   7   -3.30    1.70
   5   4   7   -2.50    1.70
   5   4   7   -0.30    1.50
   5   4   7    2.50    1.40
  -6  -4  -7   79.09    7.10
  -6  -4  -7   67.59    5.70
  -6  -4  -7   63.99    5.90
  -6  -4  -7   67.39    6.20
   6   4   7   61.69    6.10
   6   4   7   69.99    6.30
   6   4   7   61.39    5.80
  -7  -4  -7    2.80    2.10
  -7  -4  -7   -0.40    2.80
  -7  -4  -7    2.80    2.60
   7   4   7    3.20    2.20
   7   4   7    6.50    2.70
   7   4   7    1.80    2.50
  -8  -4  -7   77.19    7.10
  -8  -4  -7   75.99    7.60
   8   4   7   82.09    7.60
   8   4   7   88.69    7.30
  -9  -4  -7   43.90    5.60
   9   4   7   54.59    5.50
   9   4   7   26.90    4.90
 -10  -4  -7   93.99    9.60
  10   4   7  111.19    9.10
  10   4   7  110.89    9.70
 -11  -4  -7    3.00    3.70
  11   4   7    8.40    4.00
  10  -5  -7    3.60    3.80
 -10   5   7    4.30    3.40
   9  -5  -7  274.47   20.20
   9  -5  -7  258.47   19.50
  -9   5   7  319.27   20.10
   8  -5  -7  141.39   11.20
   8  -5  -7  138.59   10.90
   8  -5  -7  125.49    9.30
  -8   5   7  140.29   10.90
   7  -5  -7  749.62   46.70
   7  -5  -7  752.72   45.40
   7  -5  -7  713.43   46.40
  -7   5   7  688.03   46.40
   6  -5  -7  165.18   11.90
   6  -5  -7  181.78   12.70
   6  -5  -7  179.98   12.70
   6  -5  -7  176.58   11.60
  -6   5   7  166.38   12.50
   5  -5  -7 1071.89   66.39
   5  -5  -7 1051.29   66.79
   5  -5  -7 1075.89   65.99
   5  -5  -7 1140.69   66.89
   5  -5  -7 1049.89   66.19
  -5   5   7 1003.00   66.69
   4  -5  -7  212.88   14.10
   4  -5  -7  209.88   14.30
   4  -5  -7  218.78   14.90
   4  -5  -7  230.48   14.80
   4  -5  -7  217.48   14.50
  -4   5   7  224.38   14.90
   3  -5  -7   76.69    5.50
   3  -5  -7   71.09    5.40
   3  -5  -7   62.19    5.60
  -3   5   7   70.69    5.80
   2  -5  -7    0.90    1.40
   2  -5  -7    1.80    1.40
   2  -5  -7    2.10    1.30
  -2   5   7    2.50    1.60
   1  -5  -7   16.60    2.50
   1  -5  -7   19.10    2.30
   1  -5  -7   24.20    2.60
  -1   5   7   22.40    2.70
   0  -5  -7  291.97   19.90
   0  -5  -7  320.77   20.00
   0  -5  -7  326.97   20.20
   0   5   7  320.37   19.70
   0   5   7  289.47   19.70
   0   5   7  323.17   20.00
  -1  -5  -7  760.42   50.39
  -1  -5  -7  809.12   50.59
  -1  -5  -7  811.02   50.59
  -1  -5  -7  814.62   50.19
  -1  -5  -7  840.02   50.89
   1   5   7  812.42   50.49
   1   5   7  837.22   50.49
   1   5   7  814.72   50.49
  -2  -5  -7  149.09    9.90
  -2  -5  -7  153.58   10.10
  -2  -5  -7  145.59    9.70
  -2  -5  -7  147.59   10.00
   2   5   7  133.59    9.80
   2   5   7  146.89    9.90
   2   5   7  148.59   10.00
  -3  -5  -7  281.87   17.90
  -3  -5  -7  272.67   17.50
  -3  -5  -7  292.87   18.30
  -3  -5  -7  255.77   17.80
   3   5   7  259.77   17.60
   3   5   7  282.27   18.00
   3   5   7  273.67   17.70
  -4  -5  -7  368.46   23.60
  -4  -5  -7  379.96   23.90
  -4  -5  -7  364.86   23.90
   4   5   7  357.96   24.00
   4   5   7  354.96   23.70
   4   5   7  406.36   24.10
   4   5   7  361.16   23.50
  -5  -5  -7   22.00    2.90
  -5  -5  -7   26.70    3.30
  -5  -5  -7   19.30    3.70
  -5  -5  -7   21.70    3.20
   5   5   7   21.00    3.30
   5   5   7   25.00    2.90
   5   5   7   26.90    3.60
   5   5   7   24.40    2.90
   5   5   7   28.50    3.30
  -6  -5  -7  280.47   18.00
  -6  -5  -7  251.97   17.30
  -6  -5  -7  248.28   16.80
  -6  -5  -7  241.98   17.10
   6   5   7  243.88   16.70
   6   5   7  278.87   17.60
   6   5   7  250.47   17.30
   6   5   7  242.98   17.00
  -7  -5  -7  132.89   10.70
  -7  -5  -7  131.79   10.20
   7   5   7  156.88   10.90
   7   5   7  143.99   10.50
  -8  -5  -7  168.98   12.60
  -8  -5  -7  172.78   12.10
   8   5   7  167.78   12.60
   8   5   7  156.18   12.10
  -9  -5  -7    7.40    3.40
  -9  -5  -7   13.90    3.30
   9   5   7   10.60    3.60
   9   5   7    6.30    3.00
 -10  -5  -7   80.49    8.70
  10   5   7   84.89    8.80
  10   5   7   96.59    8.20
 -11  -5  -7   28.50    5.40
  11   5   7   31.20    5.60
  10  -6  -7  179.18   14.70
   9  -6  -7  183.88   14.70
   9  -6  -7  184.78   13.90
   8  -6  -7  105.89    9.40
   8  -6  -7  116.19    9.90
   8  -6  -7  101.29    8.00
  -8   6   7  120.69    9.80
   7  -6  -7  226.58   15.10
   7  -6  -7  213.28   15.70
   7  -6  -7  239.48   16.30
   7  -6  -7  209.08   14.80
  -7   6   7  226.18   15.90
   6  -6  -7   25.60    4.30
   6  -6  -7   32.30    3.30
   6  -6  -7   31.40    3.60
   6  -6  -7   29.40    4.30
  -6   6   7   27.90    4.10
   5  -6  -7   10.60    2.00
   5  -6  -7    6.20    2.10
   5  -6  -7    9.80    2.70
  -5   6   7   10.70    2.70
   4  -6  -7   70.49    5.80
   4  -6  -7   80.39    5.70
   4  -6  -7   69.59    6.30
  -4   6   7   67.89    6.10
   3  -6  -7    0.70    1.40
   3  -6  -7    1.30    1.50
   3  -6  -7    0.20    1.70
  -3   6   7   -1.50    1.70
   2  -6  -7  434.86   27.40
   2  -6  -7  437.96   27.50
   2  -6  -7  423.86   27.80
  -2   6   7  438.56   27.70
   1  -6  -7  125.39    8.80
   1  -6  -7  131.39    8.90
   1  -6  -7  133.79    8.80
   1  -6  -7  118.09    9.20
  -1   6   7  141.69    9.30
   0  -6  -7  149.69   10.50
   0  -6  -7  138.19   10.90
   0  -6  -7  155.68   10.60
   0   6   7  163.98   10.80
   0   6   7  178.98   10.50
  -1  -6  -7    9.10    1.60
  -1  -6  -7    8.80    1.80
  -1  -6  -7   11.90    2.00
  -1  -6  -7   10.20    2.30
  -1  -6  -7    6.50    1.80
   1   6   7    6.80    1.80
   1   6   7    8.10    1.70
  -2  -6  -7  363.26   23.80
  -2  -6  -7  383.66   23.10
  -2  -6  -7  369.06   23.30
  -2  -6  -7  356.66   23.40
  -2  -6  -7  366.46   23.40
   2   6   7  341.87   23.30
   2   6   7  372.16   23.30
  -3  -6  -7  143.29    9.20
  -3  -6  -7  129.09   10.00
  -3  -6  -7  124.09    9.50
  -3  -6  -7  139.39    9.60
   3   6   7  132.99    9.40
   3   6   7  140.29    9.40
   3   6   7  131.09    9.80
  -4  -6  -7  413.86   25.70
  -4  -6  -7  374.46   25.00
  -4  -6  -7  370.46   25.00
  -4  -6  -7  387.56   24.70
   4   6   7  405.16   25.00
   4   6   7  377.46   24.70
   4   6   7  388.16   25.10
  -5  -6  -7   34.30    4.60
  -5  -6  -7   36.30    3.90
  -5  -6  -7   29.10    3.50
  -5  -6  -7   25.90    3.80
   5   6   7   28.80    3.60
   5   6   7   34.60    3.60
   5   6   7   31.10    3.50
   5   6   7   36.60    4.30
  -6  -6  -7  198.88   14.20
  -6  -6  -7  186.38   14.70
  -6  -6  -7  204.08   13.80
   6   6   7  220.78   14.40
   6   6   7  201.88   13.70
   6   6   7  203.48   14.00
  -7  -6  -7    2.70    2.10
  -7  -6  -7    6.90    2.90
   7   6   7    3.50    2.30
   7   6   7   10.10    2.40
   7   6   7    6.80    3.10
  -8  -6  -7  106.89    8.50
  -8  -6  -7  106.49    9.20
   8   6   7  119.99    8.70
   8   6   7   81.09    9.00
  -9  -6  -7   -1.50    2.40
  -9  -6  -7    0.20    3.00
   9   6   7   -2.50    2.90
   9   6   7    1.30    2.60
 -10  -6  -7   -5.00    2.80
  10   6   7   -1.90    3.30
  10   6   7    5.90    3.70
   9  -7  -7    1.20    3.50
   9  -7  -7   -2.10    3.10
  -9   7   7    2.30    3.00
   8  -7  -7   26.70    3.50
   8  -7  -7   22.00    4.80
   8  -7  -7   20.60    4.40
  -8   7   7   20.10    4.00
   7  -7  -7  119.39    9.10
   7  -7  -7  116.19   10.40
   7  -7  -7  120.79    9.40
   7  -7  -7  135.29   10.20
  -7   7   7  139.59   10.10
   6  -7  -7  132.49   10.80
   6  -7  -7  147.49   10.10
   6  -7  -7  147.49   11.30
   6  -7  -7  134.69   10.20
  -6   7   7  139.89   10.70
   5  -7  -7   78.49    6.60
   5  -7  -7   94.19    7.80
   5  -7  -7   91.79    7.00
  -5   7   7   81.59    7.40
   4  -7  -7  290.87   19.10
   4  -7  -7  271.07   19.60
  -4   7   7  319.27   19.60
   3  -7  -7  183.68   12.50
   3  -7  -7  168.98   11.90
  -3   7   7  173.38   12.30
   2  -7  -7   68.99    5.90
   2  -7  -7   64.69    5.30
  -2   7   7   62.69    5.70
   1  -7  -7  206.08   12.50
   1  -7  -7  183.58   12.20
   1  -7  -7  186.88   12.30
   1  -7  -7  159.38   12.80
  -1   7   7  197.58   12.70
   0  -7  -7  142.19    9.60
   0  -7  -7  135.09   10.10
   0  -7  -7  138.29    9.60
   0   7   7  147.49    9.90
   0   7   7  134.59    9.30
  -1  -7  -7    1.20    1.20
  -1  -7  -7    0.80    1.50
  -1  -7  -7    5.30    2.10
  -1  -7  -7    2.90    1.60
  -1  -7  -7    3.10    1.50
   1   7   7    1.50    1.50
   1   7   7    0.90    1.60
  -2  -7  -7  237.28   14.60
  -2  -7  -7  231.78   14.90
  -2  -7  -7  190.58   14.80
  -2  -7  -7  233.28   14.90
  -2  -7  -7  232.08   15.50
   2   7   7  219.88   14.90
   2   7   7  223.38   14.80
  -3  -7  -7  254.67   16.60
  -3  -7  -7  237.78   16.90
  -3  -7  -7  258.07   17.10
  -3  -7  -7  248.88   16.90
   3   7   7  243.68   17.00
   3   7   7  280.77   17.00
   3   7   7  269.57   16.90
  -4  -7  -7   43.60    5.20
  -4  -7  -7   48.20    4.90
  -4  -7  -7   49.20    4.40
  -4  -7  -7   48.00    4.60
   4   7   7   45.20    4.50
   4   7   7   44.40    4.90
   4   7   7   40.40    4.30
  -5  -7  -7    4.20    2.00
  -5  -7  -7    5.80    2.30
  -5  -7  -7    3.30    3.30
  -5  -7  -7    3.90    2.90
   5   7   7    4.80    2.10
   5   7   7    6.50    2.20
   5   7   7    7.60    2.20
   5   7   7    4.40    2.50
  -6  -7  -7    6.00    2.70
  -6  -7  -7    5.90    2.30
   6   7   7    7.60    2.80
   6   7   7   11.80    2.50
   6   7   7    8.50    2.50
   6   7   7    6.10    2.50
  -7  -7  -7   -1.00    2.00
  -7  -7  -7    0.30    2.50
   7   7   7    3.00    2.60
   7   7   7    0.10    2.20
   7   7   7    2.40    2.20
  -8  -7  -7   34.20    4.40
  -8  -7  -7   41.00    5.50
   8   7   7   26.70    4.70
   8   7   7   31.00    4.40
  -9  -7  -7   -0.50    2.50
  -9  -7  -7    5.10    3.30
   9   7   7    7.00    3.50
   9   7   7    2.90    2.60
 -10  -7  -7   21.20    4.70
  10   7   7   24.60    4.90
   9  -8  -7   12.40    2.80
   9  -8  -7   16.00    4.70
   9  -8  -7   12.00    4.00
  -9   8   7    7.60    3.80
   8  -8  -7   34.10    5.70
   8  -8  -7   35.50    5.30
   8  -8  -7   39.30    4.30
  -8   8   7   26.60    4.90
   7  -8  -7   13.30    3.60
   7  -8  -7    3.70    2.30
   7  -8  -7   12.90    3.90
   7  -8  -7    9.40    2.60
  -7   8   7    8.50    3.30
   6  -8  -7   74.39    6.20
   6  -8  -7   65.89    6.40
   6  -8  -7   74.49    7.60
  -6   8   7   70.79    7.10
   5  -8  -7    2.60    2.10
   5  -8  -7    1.00    1.90
   5  -8  -7   -2.00    2.40
  -5   8   7    6.40    2.80
   4  -8  -7   26.90    4.20
   4  -8  -7   24.00    3.30
  -4   8   7   21.60    3.60
   3  -8  -7   30.40    3.70
   3  -8  -7   36.00    4.50
  -3   8   7   37.20    4.20
   2  -8  -7  162.38   11.30
   2  -8  -7  143.79   10.60
  -2   8   7  149.49   10.90
   1  -8  -7   50.29    5.50
   1  -8  -7   61.29    4.80
   1  -8  -7   64.89    5.20
  -1   8   7   64.89    5.60
   0  -8  -7  310.07   19.90
   0  -8  -7  284.07   19.70
   0  -8  -7  305.07   20.50
   0   8   7  305.27   20.10
   0   8   7  325.27   19.60
  -1  -8  -7   38.20    4.50
  -1  -8  -7   50.99    5.30
  -1  -8  -7   54.59    4.30
  -1  -8  -7   52.79    4.60
  -1  -8  -7   44.80    4.40
   1   8   7   53.89    5.00
   1   8   7   50.79    4.60
  -2  -8  -7   33.50    4.50
  -2  -8  -7   47.20    4.50
  -2  -8  -7   35.70    3.90
  -2  -8  -7   37.90    4.00
  -2  -8  -7   33.80    3.60
   2   8   7   40.00    4.20
   2   8   7   40.10    3.90
  -3  -8  -7   10.40    2.40
  -3  -8  -7   10.70    2.50
  -3  -8  -7    8.60    2.10
  -3  -8  -7   12.00    2.60
  -3  -8  -7    9.40    2.90
   3   8   7   12.00    2.60
   3   8   7   12.30    2.70
   3   8   7   12.60    2.40
  -4  -8  -7    0.00    1.90
  -4  -8  -7    1.50    2.10
  -4  -8  -7    1.00    2.60
  -4  -8  -7    1.40    1.70
   4   8   7    1.40    2.10
   4   8   7    5.40    2.10
   4   8   7    2.90    2.00
  -5  -8  -7   43.20    4.60
  -5  -8  -7   49.20    6.00
  -5  -8  -7   42.90    5.20
   5   8   7   42.00    4.60
   5   8   7   39.90    4.60
   5   8   7   54.99    5.40
  -6  -8  -7   20.70    3.80
  -6  -8  -7   19.00    3.30
   6   8   7   24.10    3.80
   6   8   7   21.90    3.50
   6   8   7   19.60    3.40
   6   8   7   27.80    3.60
  -7  -8  -7   16.80    3.10
  -7  -8  -7    6.00    3.10
   7   8   7    4.90    2.60
   7   8   7    7.00    2.80
   7   8   7    6.80    3.40
   7   8   7   10.00    2.80
  -8  -8  -7    4.20    2.50
  -8  -8  -7    5.00    3.10
   8   8   7    4.40    3.30
   8   8   7    1.70    2.50
   8   8   7   -1.50    2.40
  -9  -8  -7   75.09    8.10
  -9  -8  -7   76.49    7.30
   9   8   7   73.29    7.90
   9   8   7   72.79    7.20
 -10  -8  -7   48.90    6.70
  10   8   7   46.00    6.40
   8  -9  -7    8.70    4.10
   8  -9  -7    8.60    2.70
   8  -9  -7    7.90    3.80
  -8   9   7    3.50    3.50
   7  -9  -7    8.00    3.90
   7  -9  -7   12.10    3.70
   7  -9  -7   10.80    2.90
  -7   9   7   11.40    3.70
   6  -9  -7   -1.40    2.00
   6  -9  -7   -0.20    2.10
   6  -9  -7    0.90    3.00
  -6   9   7    3.10    2.80
   5  -9  -7   45.10    4.90
   5  -9  -7   50.89    6.20
   5  -9  -7   50.49    5.10
  -5   9   7   47.10    5.50
   4  -9  -7   10.50    2.70
   4  -9  -7   14.30    3.60
  -4   9   7   12.70    3.10
   3  -9  -7   39.50    4.10
   3  -9  -7   38.60    5.00
  -3   9   7   27.00    4.00
   2  -9  -7    7.70    2.20
   2  -9  -7    8.60    2.90
  -2   9   7    5.60    2.40
   1  -9  -7    3.20    2.30
   1  -9  -7    4.00    1.90
  -1   9   7    4.50    2.30
   0  -9  -7   92.69    6.90
   0  -9  -7   77.19    7.50
   0  -9  -7   99.19    6.80
   0   9   7   82.09    7.20
  -1  -9  -7    8.10    2.10
  -1  -9  -7    8.30    1.90
  -1  -9  -7   13.40    3.10
  -1  -9  -7    8.00    2.20
   1   9   7   10.80    2.30
   1   9   7   11.30    2.60
  -2  -9  -7  111.99    7.80
  -2  -9  -7  106.79    8.00
  -2  -9  -7   91.89    8.20
  -2  -9  -7  109.69    8.00
  -2  -9  -7  109.29    9.00
   2   9   7   99.19    7.90
   2   9   7  117.79    8.40
  -3  -9  -7  106.59    9.10
  -3  -9  -7   98.99    8.10
  -3  -9  -7  100.29    8.30
  -3  -9  -7  107.29    8.10
  -3  -9  -7  115.69    7.90
   3   9   7   98.99    8.40
   3   9   7  105.99    8.30
   3   9   7  108.69    8.10
  -4  -9  -7   39.70    4.70
  -4  -9  -7   36.10    4.00
  -4  -9  -7   43.00    5.40
   4   9   7   33.70    4.20
   4   9   7   33.90    4.50
   4   9   7   39.80    4.50
  -5  -9  -7    4.40    2.10
  -5  -9  -7   -2.60    2.10
   5   9   7    2.80    2.20
   5   9   7    0.70    2.20
   5   9   7    0.70    2.40
  -6  -9  -7   11.90    2.80
  -6  -9  -7    8.50    3.10
   6   9   7    9.00    2.80
   6   9   7    7.30    2.80
   6   9   7   11.00    3.00
   6   9   7    5.00    3.00
  -7  -9  -7   71.49    6.60
  -7  -9  -7   68.99    7.30
   7   9   7   62.49    6.70
   7   9   7   77.29    6.80
   7   9   7   67.99    7.30
   7   9   7   70.99    6.70
  -8  -9  -7  141.99   11.70
  -8  -9  -7  127.49   10.90
   8   9   7  150.88   11.20
   8   9   7  146.19   11.60
   8   9   7  151.88   11.20
  -9  -9  -7   -0.10    3.30
   9   9   7   -1.40    2.80
   8 -10  -7   12.60    4.00
   8 -10  -7    8.10    2.80
   8 -10  -7    9.70    4.40
  -8  10   7   11.20    3.90
   7 -10  -7   11.80    3.10
   7 -10  -7   13.40    4.30
  -7  10   7   11.70    3.90
   6 -10  -7    8.60    3.40
   6 -10  -7   10.40    2.90
   6 -10  -7   12.70    4.20
  -6  10   7   18.10    3.90
   5 -10  -7   84.99    9.50
   5 -10  -7  112.99    8.70
  -5  10   7  122.59    9.20
   4 -10  -7    8.30    3.50
   4 -10  -7    8.90    2.70
  -4  10   7    9.40    3.10
   3 -10  -7    7.90    2.50
   3 -10  -7    8.90    3.30
  -3  10   7   11.10    3.00
   2 -10  -7   21.00    3.90
   2 -10  -7   15.50    3.00
  -2  10   7   19.10    3.40
   1 -10  -7    6.80    2.80
   1 -10  -7    7.10    2.30
  -1  10   7    5.40    2.60
  -1  10   7    7.30    1.70
   0 -10  -7    3.50    2.00
   0 -10  -7   -0.50    2.30
   0  10   7    1.00    2.00
   0  10   7    4.00    2.40
  -1 -10  -7    7.30    2.30
  -1 -10  -7   12.50    3.30
   1  10   7    5.60    2.10
   1  10   7   10.70    3.00
  -2 -10  -7  112.09    8.90
  -2 -10  -7  112.79    9.00
  -2 -10  -7  120.39    9.50
  -2 -10  -7  121.19    9.20
  -2 -10  -7  159.88   10.80
   2  10   7  121.79    9.20
   2  10   7  124.49    9.50
  -3 -10  -7   82.99    7.30
  -3 -10  -7   85.09    7.10
  -3 -10  -7  105.39    8.50
  -3 -10  -7   87.59    7.60
   3  10   7   86.39    7.70
   3  10   7   87.19    7.40
   3  10   7   91.29    7.80
  -4 -10  -7  262.57   17.90
  -4 -10  -7  254.77   17.30
  -4 -10  -7  283.07   19.20
   4  10   7  233.58   17.70
   4  10   7  252.47   17.70
   4  10   7  265.17   17.50
  -5 -10  -7    0.50    2.60
  -5 -10  -7    0.40    2.10
   5  10   7    0.20    2.30
   5  10   7   -0.70    2.40
   5  10   7   -0.20    2.20
  -6 -10  -7  351.76   23.70
  -6 -10  -7  354.26   23.20
   6  10   7  337.07   23.20
   6  10   7  353.36   23.40
   6  10   7  356.66   23.70
   6  10   7  337.57   23.30
  -7 -10  -7   30.60    5.20
  -7 -10  -7   41.60    5.00
   7  10   7   55.69    5.70
   7  10   7   47.00    6.00
   7  10   7   36.20    5.00
   7  10   7   52.79    5.60
  -8 -10  -7   62.29    7.00
  -8 -10  -7   60.39    6.20
   8  10   7   54.29    6.10
   8  10   7   48.40    5.90
   8  10   7   45.50    6.30
  -9 -10  -7   41.90    6.00
   9  10   7   22.50    5.00
   9  10   7   38.00    5.50
   7 -11  -7   10.80    3.20
   7 -11  -7   15.80    5.00
  -7  11   7    9.40    3.60
   6 -11  -7   18.40    4.90
   6 -11  -7   20.90    3.70
  -6  11   7   11.40    3.90
   5 -11  -7   12.20    4.10
  -5  11   7    9.80    3.60
   4 -11  -7   37.70    4.60
   4 -11  -7   41.20    5.90
  -4  11   7   39.50    5.20
   3 -11  -7  121.39    9.30
   3 -11  -7  106.39   10.20
  -3  11   7  126.09    9.70
   2 -11  -7   -1.00    2.80
   2 -11  -7    2.90    2.10
  -2  11   7   -3.70    2.10
   1 -11  -7    1.90    2.10
   1 -11  -7    2.50    2.90
  -1  11   7    4.40    1.70
  -1  11   7    4.70    2.60
   0 -11  -7   85.59    8.50
   0 -11  -7   95.49    7.70
   0  11   7   99.69    8.40
   0  11   7  102.79    7.80
  -1 -11  -7  110.89    9.30
  -1 -11  -7   98.69    8.10
   1  11   7   98.69    8.10
   1  11   7  101.69    8.60
  -2 -11  -7   94.39    7.70
  -2 -11  -7  105.59    9.10
  -2 -11  -7   87.89    7.70
   2  11   7  104.19    8.40
   2  11   7   96.69    7.90
  -3 -11  -7    2.90    2.30
  -3 -11  -7    5.00    2.20
  -3 -11  -7    0.30    3.00
  -3 -11  -7    2.70    2.50
   3  11   7    2.30    2.80
   3  11   7    1.10    2.30
   3  11   7    3.60    2.70
  -4 -11  -7   55.69    5.70
  -4 -11  -7   66.59    6.80
   4  11   7   67.19    6.30
   4  11   7   65.09    6.80
   4  11   7   58.79    6.40
  -5 -11  -7    9.90    3.50
  -5 -11  -7    8.30    2.60
   5  11   7   10.90    3.60
   5  11   7   13.20    3.20
   5  11   7    9.70    3.30
   5  11   7    6.60    3.10
  -6 -11  -7    2.70    2.50
  -6 -11  -7   11.20    3.60
   6  11   7    4.10    2.80
   6  11   7    6.00    3.20
   6  11   7   10.30    3.30
   6  11   7    9.40    3.40
  -7 -11  -7   22.00    4.70
  -7 -11  -7   18.10    3.60
   7  11   7   25.20    4.30
   7  11   7   20.50    4.50
   7  11   7   22.00    4.30
   7  11   7   19.70    4.00
  -8 -11  -7   19.60    4.60
   8  11   7   15.90    4.20
   8  11   7   19.20    4.20
   8  11   7   20.00    4.60
  -7  12   7   70.39    7.70
   6 -12  -7   21.30    5.20
   6 -12  -7   14.10    3.60
  -6  12   7   11.20    4.00
   5 -12  -7  261.67   18.00
  -5  12   7  197.58   16.30
   4 -12  -7   59.59    7.50
  -4  12   7   53.69    6.30
   3 -12  -7   23.20    5.00
   3 -12  -7   26.60    3.90
  -3  12   7   26.30    4.50
   2 -12  -7  103.19    9.30
   2 -12  -7   86.99    8.00
  -2  12   7  101.99    8.60
   1 -12  -7   91.89    8.60
   1 -12  -7   77.99    7.40
  -1  12   7   86.39    7.90
   0 -12  -7    5.70    3.30
   0 -12  -7   11.60    2.80
   0  12   7    7.50    3.20
   0  12   7    4.70    2.50
  -1 -12  -7   10.60    2.90
  -1 -12  -7   14.30    3.90
   1  12   7   17.10    3.70
   1  12   7   22.50    3.60
  -2 -12  -7    5.00    2.60
  -2 -12  -7    1.10    3.60
   2  12   7    3.50    2.50
   2  12   7    2.80    2.80
  -3 -12  -7    8.20    2.50
  -3 -12  -7   10.00    2.80
  -3 -12  -7    8.10    3.30
   3  12   7    9.30    3.30
   3  12   7   10.00    3.30
   3  12   7    9.50    2.80
  -4 -12  -7   41.20    5.50
  -4 -12  -7   52.59    5.10
   4  12   7   33.20    4.70
   4  12   7   38.30    5.40
   4  12   7   42.40    5.50
  -5 -12  -7   42.50    4.90
  -5 -12  -7   42.80    5.70
   5  12   7   36.30    5.20
   5  12   7   34.50    5.10
   5  12   7   35.80    5.40
   5  12   7   43.00    5.20
  -6 -12  -7   14.40    3.40
  -6 -12  -7   23.10    4.60
   6  12   7   16.30    3.60
   6  12   7   20.80    4.30
   6  12   7   10.10    4.00
   6  12   7   15.90    4.20
  -7 -12  -7   18.60    4.70
   7  12   7   28.50    5.20
   7  12   7   28.30    4.60
   7  12   7   24.00    4.60
  -8 -12  -7   18.00    4.70
   8  12   7   19.20    4.10
   8  12   7   15.10    4.10
   8  12   7   14.00    4.50
   6 -13  -7    1.50    3.00
   6 -13  -7    3.20    4.30
  -6  13   7    0.50    3.30
   5 -13  -7   16.50    5.10
  -5  13   7   20.90    4.60
   4 -13  -7   31.70    5.80
  -4  13   7   20.80    4.60
   3 -13  -7    1.00    3.50
  -3  13   7    4.20    3.30
   2 -13  -7   85.19    9.00
  -2  13   7   79.59    8.20
   1 -13  -7    7.00    2.70
   1 -13  -7   -1.70    3.10
  -1  13   7    5.90    3.30
  -1  13   7    5.60    2.60
   0 -13  -7   37.30    6.20
   0 -13  -7   53.79    5.60
   0  13   7   53.99    5.50
   0  13   7   44.10    5.70
  -1 -13  -7   20.00    3.70
   1  13   7   19.50    3.80
   1  13   7   25.50    4.30
  -2 -13  -7    9.90    3.00
   2  13   7    8.30    3.00
   2  13   7    7.90    3.50
  -3 -13  -7    2.00    2.50
   3  13   7    0.10    2.40
   3  13   7    3.20    3.10
   3  13   7   -0.10    3.00
  -4 -13  -7    7.50    3.50
   4  13   7    3.10    3.20
   4  13   7    8.50    3.00
   4  13   7    6.10    3.40
  -5 -13  -7  109.49   10.20
  -5 -13  -7  116.39   10.00
   5  13   7  118.39   10.30
   5  13   7  119.29   10.20
   5  13   7  118.89   10.20
   5  13   7  104.89   10.20
  -6 -13  -7   76.19    8.30
   6  13   7   79.79    8.10
   6  13   7   76.49    8.10
   6  13   7   69.69    7.80
  -7 -13  -7   32.90    5.60
   7  13   7   20.10    4.90
   7  13   7   26.10    4.90
   7  13   7   19.10    4.60
   4 -14  -7   30.10    6.00
  -4  14   7   22.50    4.90
   3 -14  -7   26.20    5.70
  -3  14   7   28.90    5.10
  -2  14   7    4.20    3.60
  -1  14   7    3.10    3.40
  -1  14   7    3.00    2.60
   0  14   7    9.10    3.80
   0  14   7   13.80    3.50
   1  14   7   -3.20    2.40
   1  14   7   -4.40    3.00
   2  14   7    5.70    3.60
   2  14   7   12.60    3.40
   3  14   7   91.99   12.20
   3  14   7  132.99   10.70
   3  14   7  127.39   10.70
   4  14   7   17.50    4.40
   4  14   7   15.90    4.40
  -5 -14  -7   21.60    5.00
   5  14   7   27.60    4.90
   5  14   7   27.20    4.90
   5  14   7   25.80    5.10
  -3  15   7  128.59   11.20
  -2  15   7   18.20    4.70
  -1  15   7  130.99   11.30
   0  15   7   -0.80    3.30
   1  15   7  218.28   16.40
   2  15   7    3.70    3.60
   3  15   7   64.29    7.50
   4  15   7    2.60    3.50
   4  15   7   11.60    4.10
   4  15   7    8.10    4.00
   1  13  -8    6.30    4.20
   1  13  -8   10.30    3.80
   0  13  -8    5.00    4.00
   0  13  -8    9.10    3.90
  -1  13  -8   78.69    7.30
  -1  13  -8   79.19    8.70
  -1  13  -8  102.19    9.90
   3  12  -8   -0.50    3.20
   3  12  -8    5.20    3.30
   2  12  -8   37.50    5.80
   2  12  -8   42.00    5.80
   1  12  -8    4.10    3.60
   1  12  -8    3.00    3.30
   0  12  -8   45.60    6.50
   0  12  -8   30.70    5.30
   0  12  -8   39.80    4.30
  -1  12  -8   54.49    6.70
  -1  12  -8   48.60    5.40
  -1  12  -8   70.39    7.60
  -2  12  -8   64.99    6.70
  -2  12  -8   78.99    8.90
  -2  12  -8   75.69    8.10
  -3  12  -8  108.79    9.80
  -3  12  -8   92.19   10.20
  -3  12  -8   96.09    8.50
  -4  12  -8    0.10    3.90
  -4  12  -8    2.50    3.00
  -4  12  -8   -1.10    3.20
   5  11  -8   41.50    5.80
   4  11  -8   37.60    5.50
   4  11  -8   31.80    5.20
   3  11  -8   40.90    5.50
   3  11  -8   33.00    5.40
   2  11  -8    3.00    3.00
   2  11  -8    2.20    3.00
  -2 -11   8    2.50    2.00
   1  11  -8  140.09   12.50
   1  11  -8  169.88   12.70
  -1 -11   8  173.58   11.60
   0  11  -8   10.90    3.70
   0  11  -8   11.60    4.00
   0  11  -8   14.30    2.70
   0 -11   8    9.70    2.70
  -1  11  -8  236.78   16.60
  -1  11  -8  219.48   15.40
  -1  11  -8  224.18   16.90
   1 -11   8  232.38   15.80
  -2  11  -8   25.80    4.80
  -2  11  -8   26.00    5.30
  -2  11  -8   24.90    3.80
   2 -11   8   23.20    3.70
  -3  11  -8   42.70    5.80
  -3  11  -8   35.50    5.20
  -3  11  -8   37.10    4.80
  -3  11  -8   39.70    6.20
   3 -11   8   38.90    4.80
  -4  11  -8    0.70    3.90
  -4  11  -8   -0.40    2.50
  -4  11  -8    1.40    3.20
  -4  11  -8    3.30    3.80
  -5  11  -8   55.49    6.70
  -5  11  -8   69.89    7.30
  -5  11  -8   79.49    8.80
  -6  11  -8   23.20    4.60
  -6  11  -8   30.20    6.10
   6  10  -8  111.59    9.80
   5  10  -8  130.19   10.50
   5  10  -8  125.69   10.50
   4  10  -8   29.90    4.70
   4  10  -8   28.00    4.60
   3  10  -8   57.69    6.40
   3  10  -8   47.50    5.90
   2  10  -8   86.49    7.80
   2  10  -8   70.59    7.30
  -2 -10   8   74.29    6.40
   1  10  -8   30.80    4.30
   1  10  -8   27.20    4.50
   1  10  -8   22.20    4.30
  -1 -10   8   31.90    3.70
   0  10  -8    8.30    3.30
   0  10  -8   12.30    3.50
   0  10  -8   12.20    2.50
   0 -10   8   12.40    2.70
  -1  10  -8   46.60    6.60
  -1  10  -8   61.89    5.50
  -1  10  -8   63.59    6.50
   1 -10   8   69.69    5.90
  -2  10  -8   72.99    7.10
  -2  10  -8   75.29    6.40
  -2  10  -8   65.49    7.10
   2 -10   8   65.79    6.40
  -3  10  -8    3.00    2.80
  -3  10  -8   -5.70    2.80
  -3  10  -8   -2.40    3.00
  -3  10  -8    0.40    2.40
   3 -10   8    0.90    2.10
  -4  10  -8  255.57   18.20
  -4  10  -8  256.97   19.00
  -4  10  -8  308.57   20.10
  -4  10  -8  259.97   18.70
   4 -10   8  255.37   18.20
  -5  10  -8   18.60    4.30
  -5  10  -8   13.70    3.70
  -5  10  -8    7.60    3.40
  -5  10  -8   18.20    4.80
   5 -10   8   13.50    5.20
  -6  10  -8  145.09   11.30
  -6  10  -8  120.39   12.20
  -7  10  -8   -3.30    2.90
   7   9  -8   23.80    4.30
   7   9  -8   16.80    4.20
   6   9  -8   -0.70    2.60
   6   9  -8    1.60    3.00
   5   9  -8   47.30    5.40
   5   9  -8   36.30    5.20
   4   9  -8    9.90    3.30
   4   9  -8    5.40    2.70
   3   9  -8   10.90    3.10
   3   9  -8   17.30    3.60
   2   9  -8    2.10    2.50
   2   9  -8    0.70    2.60
  -2  -9   8    0.70    1.60
   1   9  -8  114.89    8.90
   1   9  -8  107.79    7.80
   1   9  -8   91.09    8.80
  -1  -9   8  105.79    8.00
   0   9  -8   33.50    5.00
   0   9  -8   50.59    4.30
   0   9  -8   44.70    5.30
   0  -9   8   48.20    4.60
  -1   9  -8   55.79    6.10
  -1   9  -8   41.00    5.50
  -1   9  -8   48.10    4.70
   1  -9   8   47.40    4.80
  -2   9  -8  256.67   17.30
  -2   9  -8  251.47   17.90
  -2   9  -8  275.77   18.10
  -2   9  -8  256.57   18.40
   2  -9   8  256.37   17.40
  -3   9  -8  108.49    8.70
  -3   9  -8   87.89    8.80
  -3   9  -8   77.99    7.50
  -3   9  -8   97.19    8.40
   3  -9   8  101.79    7.80
  -4   9  -8   67.69    7.50
  -4   9  -8   51.69    6.20
  -4   9  -8   60.59    6.80
  -4   9  -8   57.19    6.00
   4  -9   8   64.89    6.20
  -5   9  -8   50.39    6.50
  -5   9  -8   58.49    6.20
  -5   9  -8   60.09    7.30
  -5   9  -8   49.10    5.80
   5  -9   8   55.99    5.80
  -6   9  -8   14.90    3.70
  -6   9  -8   14.00    4.60
  -6   9  -8   15.60    4.20
   6  -9   8   15.20    3.60
  -7   9  -8  112.09   10.00
  -8   9  -8    2.00    3.30
   7   8  -8  230.98   17.00
   7   8  -8  242.78   17.10
   6   8  -8   25.80    4.20
   6   8  -8   18.30    3.80
   5   8  -8   31.80    4.40
   5   8  -8   24.90    4.00
   5   8  -8   34.60    4.40
   4   8  -8   60.59    6.70
   4   8  -8   79.89    6.70
   3   8  -8   16.30    3.80
   3   8  -8   15.70    3.10
   3   8  -8   22.80    3.80
   2   8  -8   99.49    8.80
   2   8  -8  122.99    9.00
   2   8  -8   97.69    8.60
  -2  -8   8  114.69    8.00
   1   8  -8  165.68   11.30
   1   8  -8  154.98   11.10
   1   8  -8  150.58   10.40
   1   8  -8  130.19   11.20
  -1  -8   8  150.88   10.40
   0   8  -8  329.67   23.30
   0   8  -8  364.66   22.40
   0  -8   8  356.66   22.70
  -1   8  -8  160.48   10.90
  -1   8  -8  151.58   11.90
  -1   8  -8  170.78   11.70
  -1   8  -8  156.28   11.80
   1  -8   8  153.58   11.00
  -2   8  -8   45.70    5.50
  -2   8  -8   44.20    4.50
  -2   8  -8   42.20    5.20
  -2   8  -8   40.20    5.00
   2  -8   8   42.00    4.40
  -3   8  -8    0.10    2.60
  -3   8  -8    0.20    2.40
  -3   8  -8   -3.20    2.40
  -3   8  -8   -0.60    2.00
   3  -8   8    2.50    2.00
  -4   8  -8    5.60    2.60
  -4   8  -8    2.20    2.90
  -4   8  -8    6.40    2.90
  -4   8  -8   -0.20    2.90
   4  -8   8    2.10    2.30
  -5   8  -8    1.30    3.10
  -5   8  -8    3.70    3.20
  -5   8  -8    1.70    2.70
  -5   8  -8    1.10    2.70
   5  -8   8    4.70    2.50
  -6   8  -8   -3.40    2.60
  -6   8  -8    3.50    3.70
  -6   8  -8   -1.30    3.00
   6  -8   8   -1.10    2.30
  -7   8  -8   44.80    6.30
  -7   8  -8   43.50    6.70
  -7   8  -8   41.50    5.70
   7  -8   8   38.00    6.10
  -8   8  -8   -7.80    2.90
   8   7  -8    7.10    3.30
   8   7  -8    9.20    3.70
   7   7  -8   39.50    5.00
   7   7  -8   41.80    5.40
   6   7  -8   42.80    5.20
   6   7  -8   51.19    5.50
   5   7  -8   89.79    7.90
   5   7  -8  111.49    8.20
   5   7  -8   92.39    8.20
   4   7  -8   48.30    5.20
   4   7  -8   46.80    5.60
   4   7  -8   37.80    4.60
   4   7  -8   44.80    4.70
   3   7  -8  269.87   19.10
   3   7  -8  284.67   18.70
   3   7  -8  286.97   19.10
   2   7  -8  183.48   14.60
   2   7  -8  256.37   15.30
   2   7  -8  215.28   15.10
  -2  -7   8  224.38   14.30
   1   7  -8  135.29   10.80
   1   7  -8  168.68   10.90
   1   7  -8  146.99   11.00
  -1  -7   8  143.09   10.10
   0   7  -8   18.10    3.30
   0   7  -8   24.90    2.50
   0   7  -8   30.10    3.70
   0   7  -8   25.10    3.40
   0   7  -8   19.70    3.30
   0  -7   8   24.80    2.90
  -1   7  -8   90.79    6.20
  -1   7  -8   74.49    7.00
  -1   7  -8   84.49    7.20
  -1   7  -8   78.69    7.00
   1  -7   8   77.09    7.10
   1  -7   8   83.89    6.40
  -2   7  -8   14.50    2.40
  -2   7  -8    9.80    2.90
  -2   7  -8    8.50    2.90
  -2   7  -8   11.50    3.00
   2  -7   8    9.40    2.20
   2  -7   8    6.30    2.40
  -3   7  -8   -1.30    2.30
  -3   7  -8    2.50    2.60
  -3   7  -8    3.30    2.00
  -3   7  -8   -3.40    2.10
   3  -7   8   -2.10    1.80
   3  -7   8   -1.50    1.70
  -4   7  -8   32.40    4.70
  -4   7  -8   29.30    4.00
  -4   7  -8   19.00    3.40
  -4   7  -8   17.10    3.80
   4  -7   8   22.70    3.30
  -5   7  -8    8.30    3.00
  -5   7  -8    6.00    3.40
  -5   7  -8    9.50    3.40
  -5   7  -8   10.30    3.00
   5  -7   8   10.80    2.80
  -6   7  -8    6.90    3.10
  -6   7  -8    4.70    3.60
  -6   7  -8    4.80    3.30
   6  -7   8    4.40    2.60
  -7   7  -8    6.10    3.30
  -7   7  -8    6.80    3.70
   7  -7   8    8.60    3.00
  -8   7  -8   10.90    3.90
  -9   7  -8   23.90    4.80
   8   6  -8   42.40    5.50
   8   6  -8   36.10    5.00
   7   6  -8   17.30    3.90
   7   6  -8   20.10    3.70
   6   6  -8    9.90    3.60
   6   6  -8   11.80    2.90
   6   6  -8   12.10    4.10
   6   6  -8    6.30    3.10
   5   6  -8   11.10    2.50
   5   6  -8    9.20    2.80
   5   6  -8    7.80    3.40
   5   6  -8    0.40    2.50
   4   6  -8   83.99    7.80
   4   6  -8   82.69    7.40
   4   6  -8   88.69    7.10
   4   6  -8   94.69    7.80
   4   6  -8   80.19    6.80
   3   6  -8   45.90    5.40
   3   6  -8   42.50    4.60
   3   6  -8   61.09    6.00
   3   6  -8   60.39    5.00
   3   6  -8   51.99    5.30
   2   6  -8   -1.80    2.10
   2   6  -8    3.30    2.40
   2   6  -8    0.30    1.50
   1   6  -8  587.64   36.50
   1   6  -8  539.05   36.20
   1   6  -8  556.34   36.50
  -1  -6   8  606.94   35.80
   0   6  -8   16.30    1.80
   0   6  -8   13.80    2.60
   0   6  -8   14.50    2.70
   0   6  -8   16.80    2.90
   0   6  -8   10.20    2.60
   0  -6   8   13.60    2.10
  -1   6  -8    0.80    1.90
  -1   6  -8    1.80    1.40
  -1   6  -8    3.30    2.20
  -1   6  -8    0.50    1.90
  -1   6  -8   -0.40    1.90
   1  -6   8    5.20    2.20
   1  -6   8    5.70    1.60
  -2   6  -8    3.40    2.30
  -2   6  -8    2.00    1.60
  -2   6  -8    1.80    2.30
  -2   6  -8    1.10    2.10
  -2   6  -8    1.60    2.00
   2  -6   8    2.50    2.10
   2  -6   8   -0.30    1.50
  -3   6  -8   16.90    2.80
  -3   6  -8   20.70    3.70
  -3   6  -8   20.00    3.20
  -3   6  -8   20.20    3.50
   3  -6   8   18.30    2.80
   3  -6   8   21.40    3.50
  -4   6  -8   12.10    2.80
  -4   6  -8   17.30    3.70
  -4   6  -8   15.50    3.10
  -4   6  -8   14.40    3.40
   4  -6   8   15.00    2.70
   4  -6   8   20.10    3.50
  -5   6  -8   45.70    5.20
  -5   6  -8   58.69    5.30
  -5   6  -8   52.79    6.00
  -5   6  -8   51.99    6.20
   5  -6   8   43.40    4.90
  -6   6  -8   -0.30    2.60
  -6   6  -8    5.30    3.10
  -6   6  -8    5.40    3.40
   6  -6   8   -0.40    2.20
  -7   6  -8   79.69    8.40
  -7   6  -8   69.49    7.70
  -7   6  -8   77.99    7.30
   7  -6   8   60.99    6.50
  -8   6  -8   29.00    4.90
  -8   6  -8   28.90    5.30
   8  -6   8   29.00    4.40
  -9   6  -8   -2.40    3.00
   9   5  -8    4.50    3.50
   9   5  -8   10.50    3.30
   8   5  -8    0.70    3.00
   8   5  -8    2.70    2.40
   8   5  -8   -1.80    3.30
   7   5  -8   23.50    3.70
   7   5  -8   38.90    4.80
   7   5  -8   33.20    4.90
   6   5  -8   28.80    3.60
   6   5  -8   24.90    4.50
   6   5  -8   29.60    4.00
   6   5  -8   24.50    3.70
   5   5  -8    0.10    2.20
   5   5  -8    2.30    2.90
   5   5  -8   -0.60    2.60
   5   5  -8   -2.20    1.50
   5   5  -8    5.20    2.40
   4   5  -8   -1.10    2.00
   4   5  -8    4.00    2.80
   4   5  -8   -0.70    1.90
   4   5  -8    1.40    1.60
   4   5  -8    0.40    2.70
   3   5  -8   26.40    3.60
   3   5  -8   20.70    2.90
   3   5  -8   32.00    4.00
   3   5  -8   24.20    3.80
   3   5  -8   21.20    2.80
   2   5  -8    6.10    2.40
   2   5  -8    4.60    2.50
   2   5  -8    9.20    2.60
   2   5  -8    4.90    1.60
   1   5  -8  399.76   26.60
   1   5  -8  438.96   27.10
   1   5  -8  431.16   27.00
   1   5  -8  423.66   27.10
  -1  -5   8  408.86   26.20
   0   5  -8   65.19    5.90
   0   5  -8   69.59    5.90
   0   5  -8   64.49    5.60
   0   5  -8   73.79    6.00
   0   5  -8   72.89    4.80
   0  -5   8   71.69    5.20
  -1   5  -8  541.45   34.70
  -1   5  -8  532.15   34.70
  -1   5  -8  532.15   34.50
  -1   5  -8  558.94   34.60
  -1   5  -8  546.45   33.90
   1  -5   8  538.35   34.90
   1  -5   8  555.74   34.10
  -2   5  -8   16.00    2.90
  -2   5  -8   15.20    2.70
  -2   5  -8   10.80    2.70
  -2   5  -8   14.30    2.70
  -2   5  -8   14.90    2.20
   2  -5   8   17.30    2.30
   2  -5   8   13.20    2.80
  -3   5  -8   60.69    4.90
  -3   5  -8   58.79    5.40
  -3   5  -8   55.19    5.00
  -3   5  -8   55.69    5.70
  -3   5  -8   47.30    5.60
   3  -5   8   51.29    4.80
   3  -5   8   59.09    5.60
  -4   5  -8   70.59    5.90
  -4   5  -8   60.99    5.80
  -4   5  -8   71.99    5.80
  -4   5  -8   60.79    6.30
  -4   5  -8   67.99    6.60
   4  -5   8   62.99    6.20
   4  -5   8   65.69    5.70
  -5   5  -8   14.00    3.00
  -5   5  -8   13.00    3.60
  -5   5  -8   16.90    3.60
  -5   5  -8   13.80    2.80
   5  -5   8   16.70    2.90
   5  -5   8   15.00    3.20
  -6   5  -8   32.70    4.50
  -6   5  -8   33.50    4.90
  -6   5  -8   29.90    5.00
   6  -5   8   36.90    4.30
  -7   5  -8  113.09    9.60
  -7   5  -8   91.89    8.90
  -7   5  -8  119.39   10.20
   7  -5   8   96.29    8.60
  -8   5  -8   35.50    5.60
  -8   5  -8   30.90    8.50
  -8   5  -8   35.40    5.10
   8  -5   8   37.00    4.90
  -9   5  -8   16.10    4.30
  -9   5  -8   12.50    4.70
 -10   5  -8   73.89    8.20
   9   4  -8   25.70    4.30
   9   4  -8   32.80    5.00
   8   4  -8    1.30    3.00
   8   4  -8   -1.60    2.30
   8   4  -8   -6.00    2.70
   7   4  -8   33.20    4.20
   7   4  -8   31.20    4.60
   7   4  -8   36.10    5.00
   6   4  -8   10.30    2.40
   6   4  -8    8.10    2.80
   6   4  -8   12.80    2.80
   6   4  -8    8.90    3.30
   5   4  -8   26.80    3.20
   5   4  -8   37.40    4.90
   5   4  -8   31.80    3.90
   5   4  -8   27.30    3.80
   5   4  -8   29.40    4.30
   4   4  -8   61.49    6.50
   4   4  -8   56.29    6.10
   4   4  -8   76.09    5.90
   4   4  -8   66.79    6.10
   4   4  -8   74.49    5.40
   3   4  -8  363.16   23.80
   3   4  -8  376.96   23.30
   3   4  -8  366.06   23.70
   3   4  -8  343.27   22.90
   3   4  -8  372.06   23.80
   2   4  -8   28.80    2.80
   2   4  -8   27.10    3.70
   2   4  -8   31.80    3.80
   2   4  -8   28.60    2.90
   2   4  -8   26.90    3.70
   1   4  -8  205.88   14.10
   1   4  -8  200.88   14.10
   1   4  -8  220.78   13.60
   1   4  -8  194.28   14.10
  -1  -4   8  208.98   13.20
   0   4  -8    9.20    2.20
   0   4  -8   10.00    2.40
   0   4  -8   12.40    2.70
   0   4  -8    9.00    2.40
   0   4  -8   11.20    2.00
   0  -4   8   12.60    1.60
  -1   4  -8  275.27   17.80
  -1   4  -8  264.87   17.60
  -1   4  -8  267.87   16.90
  -1   4  -8  255.87   17.50
   1  -4   8  278.07   17.90
   1  -4   8  260.07   17.00
  -2   4  -8   64.29    5.80
  -2   4  -8   61.19    5.20
  -2   4  -8   62.79    5.30
  -2   4  -8   56.59    4.70
  -2   4  -8   63.19    5.40
   2  -4   8   56.39    4.70
   2  -4   8   57.79    5.50
  -3   4  -8  151.38   10.10
  -3   4  -8  153.38   10.70
  -3   4  -8  139.29   10.20
  -3   4  -8  142.69   10.20
  -3   4  -8  148.79   10.80
   3  -4   8  141.09   10.60
   3  -4   8  142.69   10.00
  -4   4  -8   38.10    4.00
  -4   4  -8   42.80    4.10
  -4   4  -8   39.40    4.70
  -4   4  -8   37.90    4.80
   4  -4   8   33.50    4.30
   4  -4   8   38.70    3.90
  -5   4  -8  301.27   21.50
  -5   4  -8  256.47   21.40
  -5   4  -8  342.47   20.80
  -5   4  -8  336.77   21.10
   5  -4   8  338.67   21.50
   5  -4   8  340.07   20.90
  -6   4  -8   10.80    3.40
  -6   4  -8    4.30    2.50
  -6   4  -8    5.20    3.10
   6  -4   8    6.00    2.30
   6  -4   8    5.10    2.70
  -7   4  -8    6.10    3.40
  -7   4  -8   10.70    3.20
  -7   4  -8   10.80    3.90
   7  -4   8   14.00    3.00
  -8   4  -8   23.40    4.30
  -8   4  -8   25.80    4.70
  -8   4  -8   20.70    4.80
   8  -4   8   21.30    3.80
  -9   4  -8    9.80    3.90
  -9   4  -8   14.10    3.90
   9  -4   8    6.20    3.20
 -10   4  -8    5.40    3.60
   9   3  -8   77.39    7.80
   9   3  -8  101.89    8.90
   8   3  -8    7.70    3.30
   8   3  -8    7.50    2.70
   8   3  -8   -1.80    2.80
   7   3  -8   49.99    5.80
   7   3  -8   52.79    5.30
   7   3  -8   52.89    5.80
   6   3  -8    5.80    2.90
   6   3  -8    4.80    3.20
   6   3  -8    6.00    2.30
   6   3  -8    3.60    2.60
   6   3  -8    3.90    2.00
   5   3  -8   18.20    3.00
   5   3  -8   20.70    3.20
   5   3  -8   15.70    3.40
   5   3  -8   16.50    3.40
   4   3  -8  283.07   19.10
   4   3  -8  287.77   19.00
   4   3  -8  282.27   19.20
   4   3  -8  284.27   18.80
   4   3  -8  289.57   18.20
   3   3  -8   29.20    3.70
   3   3  -8   22.10    3.30
   3   3  -8   28.20    3.00
   3   3  -8   25.00    2.40
   3   3  -8   19.30    3.20
   2   3  -8  263.27   16.30
   2   3  -8  253.37   15.90
   2   3  -8  245.58   16.80
   2   3  -8  247.98   16.80
   2   3  -8  245.88   16.80
   1   3  -8 1542.75   91.29
   1   3  -8 1422.66   91.89
   1   3  -8 1436.06   91.79
   1   3  -8 1468.75   91.79
  -1  -3   8 1527.15   91.29
   0   3  -8  166.58   12.10
   0   3  -8  165.48   12.20
   0   3  -8  182.68   12.20
   0   3  -8  174.38   12.20
   0   3  -8  200.48   11.80
   0  -3   8  174.08   11.40
   0  -3   8  179.38   12.30
  -1   3  -8  424.26   26.60
  -1   3  -8  421.66   27.40
  -1   3  -8  424.56   27.40
  -1   3  -8  437.06   27.30
  -1   3  -8  414.16   27.30
   1  -3   8  452.65   27.60
   1  -3   8  423.56   26.70
  -2   3  -8   55.49    5.00
  -2   3  -8   56.09    4.30
  -2   3  -8   55.89    5.00
  -2   3  -8   56.19    5.00
  -2   3  -8   68.69    5.40
   2  -3   8   52.59    5.20
   2  -3   8   52.19    4.40
  -3   3  -8  255.67   16.50
  -3   3  -8  250.17   16.20
  -3   3  -8  242.68   16.70
  -3   3  -8  249.97   16.90
   3  -3   8  241.88   16.20
   3  -3   8  261.77   16.90
  -4   3  -8   11.60    2.80
  -4   3  -8   11.80    2.90
  -4   3  -8   12.20    2.40
  -4   3  -8   14.30    2.50
   4  -3   8   11.70    2.80
   4  -3   8   13.10    2.30
  -5   3  -8    4.30    2.40
  -5   3  -8    3.10    2.00
  -5   3  -8    4.10    2.10
  -5   3  -8   -0.10    2.40
   5  -3   8    0.80    2.00
   5  -3   8    1.60    1.90
  -6   3  -8   -0.20    2.40
  -6   3  -8    1.30    2.30
  -6   3  -8    1.90    2.70
   6  -3   8   -3.30    1.80
   6  -3   8   -1.00    2.00
  -7   3  -8   69.69    7.20
  -7   3  -8   76.39    7.80
  -7   3  -8   54.69    6.20
   7  -3   8   64.39    6.20
  -8   3  -8   21.50    4.00
  -8   3  -8   13.20    3.90
  -8   3  -8   15.00    4.30
   8  -3   8   18.00    3.50
  -9   3  -8    0.00    3.10
  -9   3  -8   -1.20    3.00
   9  -3   8   -2.50    2.40
 -10   3  -8   17.60    4.60
  10   2  -8   -0.70    3.40
  10   2  -8    2.80    3.10
   9   2  -8    6.80    3.60
   9   2  -8    1.90    3.10
   9   2  -8    5.30    2.80
   8   2  -8    1.60    2.30
   8   2  -8   -1.80    2.90
   8   2  -8    2.20    3.10
   7   2  -8   32.30    4.00
   7   2  -8   29.10    4.50
   7   2  -8   33.30    4.50
   6   2  -8   45.50    4.70
   6   2  -8   34.70    4.80
   6   2  -8   40.80    4.20
   6   2  -8   38.80    4.70
   6   2  -8   43.80    5.40
   5   2  -8   37.20    4.70
   5   2  -8   43.60    5.00
   5   2  -8   40.90    4.50
   5   2  -8   43.20    4.60
   5   2  -8   46.60    3.90
   4   2  -8    2.30    2.20
   4   2  -8    0.70    1.00
   4   2  -8    1.70    1.90
   4   2  -8    0.70    1.80
   4   2  -8    2.10    1.70
   3   2  -8  624.84   38.20
   3   2  -8  596.54   37.90
   3   2  -8  587.94   38.30
   3   2  -8  592.04   38.20
   3   2  -8  612.04   37.30
   2   2  -8  185.28   12.30
   2   2  -8  177.08   12.80
   2   2  -8  190.28   12.80
   2   2  -8  194.88   11.70
   2   2  -8  184.48   12.80
  -2  -2   8  183.28   12.00
   1   2  -8   16.50    1.80
   1   2  -8   14.00    2.60
   1   2  -8   16.30    1.90
   1   2  -8   17.20    2.50
   1   2  -8   17.30    2.80
   0   2  -8  319.57   20.30
   0   2  -8  322.37   20.20
   0   2  -8  321.67   19.70
   0   2  -8  305.07   20.20
   0  -2   8  301.27   19.50
   0  -2   8  303.27   20.30
  -1   2  -8  195.38   12.90
  -1   2  -8  197.28   12.80
  -1   2  -8  206.88   12.60
  -1   2  -8  190.68   12.10
  -1   2  -8  195.28   12.90
  -1   2  -8  188.78   13.00
   1  -2   8  184.08   12.30
   1  -2   8  172.78   12.90
  -2   2  -8  511.45   31.80
  -2   2  -8  475.95   32.10
  -2   2  -8  502.25   31.70
  -2   2  -8  484.25   31.80
  -2   2  -8  507.65   31.40
   2  -2   8  508.95   32.10
   2  -2   8  532.45   31.50
  -3   2  -8  258.67   17.10
  -3   2  -8  300.67   17.80
  -3   2  -8  252.97   17.00
  -3   2  -8  266.57   17.50
   3  -2   8  249.58   17.60
   3  -2   8  258.67   17.00
  -4   2  -8   54.49    4.70
  -4   2  -8   53.59    5.30
  -4   2  -8   52.09    5.30
  -4   2  -8   55.19    4.60
   4  -2   8   55.49    4.70
   4  -2   8   42.70    4.90
  -5   2  -8  341.77   22.10
  -5   2  -8  314.57   22.60
  -5   2  -8  343.07   21.90
  -5   2  -8  341.67   22.80
   5  -2   8  330.77   22.00
   5  -2   8  369.36   22.60
  -6   2  -8   16.40    3.70
  -6   2  -8   13.80    3.50
  -6   2  -8   15.50    3.00
   6  -2   8   16.30    2.80
   6  -2   8   12.70    2.90
  -7   2  -8    2.10    2.80
  -7   2  -8    1.80    2.50
  -7   2  -8    4.50    3.10
   7  -2   8    4.00    2.20
  -8   2  -8    4.10    3.50
  -8   2  -8    3.90    3.10
  -8   2  -8    4.90    3.20
   8  -2   8    6.50    2.80
  -9   2  -8   15.10    4.20
  -9   2  -8   15.60    4.10
   9  -2   8   23.00    3.90
 -10   2  -8   -0.40    3.10
 -10   2  -8    0.30    3.30
  10   1  -8   -2.00    3.30
  10   1  -8   -1.30    2.80
   9   1  -8   28.10    4.40
   9   1  -8   44.90    5.50
   9   1  -8   22.20    4.40
   8   1  -8   19.10    3.50
   8   1  -8   18.10    3.80
   8   1  -8   11.10    3.70
   7   1  -8   -6.00    2.20
   7   1  -8   -1.00    1.90
   7   1  -8   -0.20    2.50
   6   1  -8   14.30    2.40
   6   1  -8   12.80    3.40
   6   1  -8   11.70    2.80
   6   1  -8   20.20    3.40
   6   1  -8   12.20    3.20
   5   1  -8   71.29    6.50
   5   1  -8   70.59    6.90
   5   1  -8   71.69    6.30
   5   1  -8   70.19    5.50
   5   1  -8   78.79    6.20
   4   1  -8  250.77   16.20
   4   1  -8  272.97   17.20
   4   1  -8  258.27   17.00
   4   1  -8  258.17   17.20
   4   1  -8  249.08   17.20
   3   1  -8  129.79    9.40
   3   1  -8  136.19    9.40
   3   1  -8  130.39    9.40
   3   1  -8  123.89    9.00
   2   1  -8  185.98   13.00
   2   1  -8  196.28   13.00
   2   1  -8  185.08   12.50
   2   1  -8  200.98   13.10
   1   1  -8  293.77   18.20
   1   1  -8  289.67   19.10
   1   1  -8  293.57   19.10
   1   1  -8  284.67   19.00
   1   1  -8  301.27   18.60
  -1  -1   8  295.27   19.00
   0   1  -8  224.88   14.90
   0   1  -8  223.98   14.90
   0   1  -8  230.08   14.20
   0   1  -8  231.58   14.80
   0  -1   8  220.78   14.80
   0  -1   8  216.08   14.00
  -1   1  -8    0.20    0.70
  -1   1  -8   -0.60    1.10
  -1   1  -8    0.80    1.60
  -1   1  -8    1.00    1.60
  -1   1  -8   -0.30    1.40
   1  -1   8   -0.20    0.90
   1  -1   8    1.30    1.30
  -2   1  -8    8.70    1.80
  -2   1  -8    7.90    1.70
  -2   1  -8    5.30    1.80
  -2   1  -8    5.40    1.30
  -2   1  -8    3.60    2.10
   2  -1   8    6.10    1.40
   2  -1   8    4.70    1.80
  -3   1  -8   36.30    3.30
  -3   1  -8   38.40    4.10
  -3   1  -8   32.80    3.40
  -3   1  -8   24.90    3.40
  -3   1  -8   33.20    3.20
  -3   1  -8   35.20    3.40
   3  -1   8   40.50    4.00
   3  -1   8   33.20    3.20
  -4   1  -8    8.60    2.00
  -4   1  -8    8.40    2.50
  -4   1  -8    8.80    2.00
  -4   1  -8   10.80    2.60
  -4   1  -8    8.60    2.10
   4  -1   8    9.60    2.40
   4  -1   8   11.10    1.90
  -5   1  -8  154.68   11.50
  -5   1  -8  172.58   10.90
  -5   1  -8  123.39   11.40
  -5   1  -8  171.58   11.10
   5  -1   8  150.88   10.80
   5  -1   8  170.08   11.40
  -6   1  -8   13.50    2.40
  -6   1  -8    6.10    2.70
  -6   1  -8    7.20    3.00
  -6   1  -8    6.80    2.50
   6  -1   8   12.10    2.90
   6  -1   8   11.20    2.40
  -7   1  -8    2.30    2.70
  -7   1  -8   -0.90    2.30
  -7   1  -8    3.50    3.10
   7  -1   8   -0.10    2.90
   7  -1   8    2.10    2.10
  -8   1  -8    2.70    3.30
  -8   1  -8   -1.40    2.60
  -8   1  -8   -0.30    2.50
   8  -1   8   -1.60    2.20
  -9   1  -8   -1.70    2.70
  -9   1  -8    0.90    3.10
   9  -1   8   -0.70    2.50
 -10   1  -8    4.40    3.70
  10  -1   8    1.50    4.60
  10  -1   8    1.20    3.70
 -11   1  -8   43.90    6.20
  11  -1   8   34.80    5.90
  10   0  -8    3.80    3.60
  10   0  -8    5.80    3.20
   9   0  -8   76.99    7.70
   9   0  -8   69.99    7.30
   9   0  -8   73.69    7.40
   8   0  -8   40.20    5.50
   8   0  -8   48.10    5.20
   8   0  -8   45.90    5.60
   7   0  -8   42.20    5.10
   7   0  -8   39.10    4.50
   7   0  -8   39.80    4.90
  -7   0   8   44.10    4.30
   6   0  -8  242.68   17.50
   6   0  -8  261.77   17.00
   6   0  -8  240.58   17.60
   6   0  -8  264.37   17.30
   6   0  -8  257.87   17.40
   6   0  -8  260.07   16.90
  -6   0   8  264.77   16.90
   5   0  -8  318.37   20.60
   5   0  -8  310.57   21.20
   5   0  -8  320.37   21.00
   5   0  -8  316.67   21.10
   5   0  -8  338.37   20.40
   5   0  -8  302.77   20.90
   4   0  -8   54.59    4.00
   4   0  -8   53.69    5.00
   4   0  -8   48.30    5.10
   4   0  -8   57.49    5.00
   4   0  -8   54.09    5.40
   3   0  -8  587.04   36.80
   3   0  -8  589.44   36.70
   3   0  -8  575.04   36.80
   3   0  -8  568.54   36.40
   2   0  -8   22.00    3.00
   2   0  -8   10.70    2.50
   2   0  -8   18.90    2.70
   2   0  -8   19.90    2.30
  -2   0   8   19.50    2.40
   1   0  -8    0.00    1.30
   1   0  -8   -0.70    1.10
   1   0  -8   -2.10    1.50
   1   0  -8   -0.30    1.40
  -1   0   8   -0.60    1.10
  -1   0   8    1.20    0.90
  -1   0   8    1.60    0.80
   0   0  -8   33.40    2.60
   0   0  -8   27.20    3.30
   0   0  -8   35.10    3.50
   0   0  -8   35.80    3.40
   0   0  -8   30.70    2.70
   0   0   8   30.80    3.20
   0   0   8   33.30    2.50
  -1   0  -8  135.19    9.30
  -1   0  -8  134.89    8.70
  -1   0  -8  142.09    9.50
  -1   0  -8  136.59    9.10
   1   0   8  134.19    8.90
   1   0   8  138.99    9.50
  -2   0  -8    3.50    1.60
  -2   0  -8    3.80    1.50
  -2   0  -8    2.10    1.10
  -2   0  -8    1.40    1.30
  -2   0  -8    1.80    1.40
   2   0   8    2.80    1.20
   2   0   8    1.30    1.50
  -3   0  -8   36.10    3.40
  -3   0  -8   39.00    4.10
  -3   0  -8   37.50    3.50
  -3   0  -8   36.80    3.60
  -3   0  -8   31.60    3.80
   3   0   8   31.60    3.80
   3   0   8   43.40    3.50
  -4   0  -8  105.89    7.10
  -4   0  -8   93.09    7.70
  -4   0  -8   86.39    7.20
  -4   0  -8   97.29    7.70
  -4   0  -8  103.89    7.30
   4   0   8  105.29    7.70
   4   0   8   94.49    7.10
  -5   0  -8    4.70    2.40
  -5   0  -8    0.10    2.00
  -5   0  -8    0.20    1.60
  -5   0  -8    1.60    1.90
   5   0   8    4.20    2.10
   5   0   8    5.30    1.90
  -6   0  -8    2.20    2.60
  -6   0  -8    3.70    1.90
  -6   0  -8    2.10    2.20
  -6   0  -8    1.90    2.10
   6   0   8    1.60    1.80
   6   0   8   -1.90    2.00
  -7   0  -8   -2.60    2.60
  -7   0  -8    4.00    2.50
  -7   0  -8    1.20    2.40
  -7   0  -8    2.90    2.50
   7   0   8    3.20    2.50
   7   0   8    3.50    2.10
  -8   0  -8   91.59    9.20
  -8   0  -8   89.69    8.00
  -8   0  -8   83.79    8.20
   8   0   8   91.09    7.70
  -9   0  -8  214.48   14.80
  -9   0  -8  167.08   14.20
   9   0   8  199.28   14.20
   9   0   8  208.48   15.20
 -10   0  -8  244.08   16.70
  10   0   8  219.38   16.10
  10   0   8  205.98   16.50
 -11   0  -8  107.39   10.40
  11   0   8  109.09   10.20
  10  -1  -8   16.90    4.40
  10  -1  -8   20.10    4.40
   9  -1  -8   15.70    3.70
   9  -1  -8   17.90    4.30
   9  -1  -8   19.80    4.10
   8  -1  -8  120.29    9.70
   8  -1  -8  109.09    9.40
   8  -1  -8  124.89    9.80
   7  -1  -8   48.90    5.10
   7  -1  -8   47.70    5.40
   7  -1  -8   46.20    4.70
   7  -1  -8   41.00    5.30
   6  -1  -8   21.30    3.30
   6  -1  -8   20.20    3.60
   6  -1  -8   21.40    3.50
   6  -1  -8   19.40    3.50
   5  -1  -8  154.48   11.50
   5  -1  -8  157.78   11.40
   5  -1  -8  170.38   11.40
   5  -1  -8  161.48   11.60
   5  -1  -8  172.18   10.90
  -5   1   8  144.29   10.80
   4  -1  -8   53.89    4.60
   4  -1  -8   46.40    4.60
   4  -1  -8   44.40    4.60
   4  -1  -8   46.30    4.80
   4  -1  -8   47.60    3.80
  -4   1   8   44.50    3.90
   3  -1  -8   90.29    6.70
   3  -1  -8   91.39    6.00
   3  -1  -8   92.79    7.10
   3  -1  -8   91.59    7.00
   3  -1  -8   85.49    7.00
   2  -1  -8  114.19    7.50
   2  -1  -8  107.39    8.20
   2  -1  -8  112.99    8.30
   2  -1  -8  111.09    7.90
   2  -1  -8  113.99    8.30
  -2   1   8  117.69    7.80
   1  -1  -8    4.20    0.90
   1  -1  -8    5.90    1.80
   1  -1  -8    5.20    1.80
   1  -1  -8    9.30    2.00
  -1   1   8    3.90    1.10
  -1   1   8    3.20    1.20
  -1   1   8    4.70    0.80
   0  -1  -8  301.07   19.60
   0  -1  -8  308.37   19.20
   0  -1  -8  295.17   19.70
   0  -1  -8  296.37   19.70
   0   1   8  318.57   19.40
   0   1   8  310.97   19.60
   0   1   8  306.17   19.10
  -1  -1  -8  162.68   11.80
  -1  -1  -8  179.88   12.10
  -1  -1  -8  180.48   12.00
  -1  -1  -8  182.48   11.40
   1   1   8  181.78   11.60
   1   1   8  188.58   11.60
   1   1   8  193.38   12.10
  -2  -1  -8  488.85   32.00
  -2  -1  -8  532.15   32.10
  -2  -1  -8  539.15   32.40
  -2  -1  -8  499.65   32.40
  -2  -1  -8  493.35   32.30
   2   1   8  530.25   32.50
   2   1   8  512.05   32.00
  -3  -1  -8  160.28   10.80
  -3  -1  -8  173.98   10.90
  -3  -1  -8  131.29   11.00
  -3  -1  -8  173.38   11.10
   3   1   8  158.78   10.70
   3   1   8  182.78   11.30
  -4  -1  -8   31.60    3.90
  -4  -1  -8   35.40    3.60
  -4  -1  -8   32.00    3.00
  -4  -1  -8   31.10    3.40
   4   1   8   26.30    3.60
   4   1   8   28.30    3.20
  -5  -1  -8  128.99    9.80
  -5  -1  -8  146.59    9.70
  -5  -1  -8  113.29    9.90
  -5  -1  -8  129.09    9.50
   5   1   8  133.59    9.40
   5   1   8  150.48   10.10
  -6  -1  -8  510.05   33.70
  -6  -1  -8  452.05   32.90
  -6  -1  -8  565.94   33.40
  -6  -1  -8  494.75   32.80
   6   1   8  563.24   33.50
   6   1   8  514.35   32.80
  -7  -1  -8  711.43   44.60
  -7  -1  -8  690.73   45.00
  -7  -1  -8  703.63   45.00
   7   1   8  675.33   45.10
   7   1   8  749.13   44.70
  -8  -1  -8  664.93   41.50
  -8  -1  -8  620.44   40.60
   8   1   8  649.43   41.50
   8   1   8  589.34   40.10
  -9  -1  -8  214.88   15.70
   9   1   8  224.18   15.80
   9   1   8  206.48   15.30
 -10  -1  -8  319.17   22.40
  10   1   8  309.97   21.80
  10   1   8  332.57   22.50
 -11  -1  -8   62.39    7.30
  11   1   8   60.39    7.30
  10  -2  -8   55.69    6.70
  10  -2  -8   58.19    6.80
   9  -2  -8   57.19    6.60
   9  -2  -8   67.39    6.80
   9  -2  -8   59.09    6.80
   8  -2  -8   17.10    3.90
   8  -2  -8   12.60    3.70
   8  -2  -8   14.70    3.30
   7  -2  -8  234.78   16.40
   7  -2  -8  244.98   16.80
   7  -2  -8  244.48   16.80
   6  -2  -8   17.40    3.10
   6  -2  -8   18.90    3.40
   6  -2  -8   14.30    3.20
   6  -2  -8   20.50    3.60
   6  -2  -8   18.00    2.90
   5  -2  -8    0.20    2.00
   5  -2  -8   -0.30    1.50
   5  -2  -8   -1.70    2.30
   5  -2  -8    4.60    2.20
   5  -2  -8    1.90    2.10
   4  -2  -8   40.80    4.20
   4  -2  -8   37.70    4.40
   4  -2  -8   38.00    4.30
   4  -2  -8   49.60    4.70
   4  -2  -8   43.30    3.70
   3  -2  -8   50.59    3.90
   3  -2  -8   53.39    4.60
   3  -2  -8   56.59    4.90
   3  -2  -8   51.49    5.00
   3  -2  -8   52.79    4.00
   3  -2  -8   54.59    4.90
   2  -2  -8    1.80    1.60
   2  -2  -8   -0.20    1.50
   2  -2  -8   -0.30    0.80
   2  -2  -8   -1.10    1.00
   2  -2  -8    0.50    1.70
  -2   2   8    0.00    0.90
   1  -2  -8   36.80    3.80
   1  -2  -8   33.40    3.60
   1  -2  -8   33.40    3.00
   1  -2  -8   38.60    2.90
   1  -2  -8   31.20    3.60
  -1   2   8   32.70    3.00
  -1   2   8   35.10    3.30
   0  -2  -8   93.79    6.40
   0  -2  -8   82.89    6.80
   0  -2  -8   92.29    6.70
   0  -2  -8   88.29    6.40
   0  -2  -8  102.29    7.00
   0   2   8   85.59    6.40
   0   2   8   95.89    6.10
   0   2   8   90.99    6.50
  -1  -2  -8  386.16   25.20
  -1  -2  -8  400.16   25.30
  -1  -2  -8  398.66   24.80
  -1  -2  -8  377.46   25.10
  -1  -2  -8  405.86   25.20
   1   2   8  384.96   24.80
   1   2   8  391.36   24.90
   1   2   8  436.56   25.30
  -2  -2  -8 1867.41  112.39
  -2  -2  -8 1631.44  112.29
  -2  -2  -8 1800.72  111.99
  -2  -2  -8 1786.42  111.99
  -2  -2  -8 1841.72  112.19
   2   2   8 1811.02  111.99
   2   2   8 2007.90  112.49
  -3  -2  -8  150.88   11.10
  -3  -2  -8  160.68   11.00
  -3  -2  -8  167.78   10.80
  -3  -2  -8  163.28   10.70
   3   2   8  166.78   10.70
   3   2   8  148.99   11.10
  -4  -2  -8 2733.53  158.08
  -4  -2  -8 2542.45  157.58
  -4  -2  -8 2625.94  157.68
  -4  -2  -8 2552.64  157.28
   4   2   8 2453.55  157.48
   4   2   8 2440.16  157.88
  -5  -2  -8  785.92   56.29
  -5  -2  -8  941.81   55.99
  -5  -2  -8  931.41   55.99
   5   2   8  901.31   56.29
   5   2   8  915.71   55.89
  -6  -2  -8 1037.30   66.49
  -6  -2  -8 1170.78   67.39
  -6  -2  -8 1064.69   66.69
   6   2   8 1033.80   66.89
   6   2   8 1022.60   66.39
  -7  -2  -8  104.09    8.90
  -7  -2  -8   85.99    7.70
   7   2   8   88.29    7.80
   7   2   8   77.09    7.20
  -8  -2  -8  187.08   13.60
   8   2   8  178.08   13.50
   8   2   8  181.98   13.10
  -9  -2  -8   -0.90    2.90
   9   2   8   -2.30    2.30
   9   2   8    4.20    3.10
 -10  -2  -8    7.90    3.90
  10   2   8   10.50    3.90
  10   2   8    5.60    3.00
 -11  -2  -8    1.00    3.60
  11   2   8    0.50    3.60
  10  -3  -8    2.70    3.50
   9  -3  -8   43.60    5.80
   9  -3  -8   43.50    5.90
   9  -3  -8   49.99    5.90
   8  -3  -8    4.20    3.10
   8  -3  -8   -0.50    2.60
   8  -3  -8    1.70    2.90
   7  -3  -8   59.99    6.00
   7  -3  -8   45.20    5.30
   7  -3  -8   50.69    5.70
   6  -3  -8    1.40    2.40
   6  -3  -8    0.60    2.00
   6  -3  -8    2.10    2.50
   6  -3  -8   -1.90    2.20
   5  -3  -8   80.99    7.10
   5  -3  -8   90.39    7.20
   5  -3  -8   88.09    7.10
   5  -3  -8   81.79    7.40
   5  -3  -8   90.09    6.80
   4  -3  -8  129.49    8.90
   4  -3  -8  119.39    9.10
   4  -3  -8  128.99    8.30
   4  -3  -8  113.89    9.00
   4  -3  -8  128.79    9.00
   4  -3  -8  110.89    8.50
   3  -3  -8  218.18   13.90
   3  -3  -8  207.38   14.50
   3  -3  -8  217.28   14.50
   3  -3  -8  220.08   13.90
   3  -3  -8  208.88   14.40
   2  -3  -8  500.55   31.00
   2  -3  -8  504.95   31.50
   2  -3  -8  455.45   31.30
   2  -3  -8  517.95   31.50
   2  -3  -8  518.55   31.00
  -2   3   8  474.75   31.30
   1  -3  -8  769.02   47.50
   1  -3  -8  771.42   47.10
   1  -3  -8  758.42   47.40
   1  -3  -8  699.93   47.00
   1  -3  -8  754.42   47.40
  -1   3   8  776.52   47.30
  -1   3   8  781.82   47.00
   0  -3  -8 2001.10  125.29
   0  -3  -8 1987.80  125.39
   0  -3  -8 2028.40  125.29
   0  -3  -8 2072.39  125.59
   0   3   8 2121.59  125.29
   0   3   8 2003.90  124.99
   0   3   8 2030.40  125.29
  -1  -3  -8   37.50    3.50
  -1  -3  -8   34.90    3.40
  -1  -3  -8   37.60    3.60
  -1  -3  -8   33.70    3.00
  -1  -3  -8   37.50    3.60
   1   3   8   34.00    3.10
   1   3   8   33.60    3.40
   1   3   8   37.90    3.20
  -2  -3  -8 1384.66   83.89
  -2  -3  -8 1360.56   83.99
  -2  -3  -8 1356.56   83.89
  -2  -3  -8 1403.76   84.19
  -2  -3  -8 1322.87   84.19
   2   3   8 1393.36   84.19
   2   3   8 1363.76   83.89
   2   3   8 1292.07   83.69
  -3  -3  -8  331.77   21.40
  -3  -3  -8  344.67   21.30
  -3  -3  -8  322.17   21.80
  -3  -3  -8  314.07   21.60
   3   3   8  345.07   21.40
   3   3   8  349.77   21.70
  -4  -3  -8   12.00    1.90
  -4  -3  -8   11.20    2.30
  -4  -3  -8   10.50    2.20
  -4  -3  -8    6.20    2.50
  -4  -3  -8   11.60    2.30
   4   3   8   13.60    2.50
   4   3   8   11.90    2.10
  -5  -3  -8   12.00    2.50
  -5  -3  -8   12.70    2.20
  -5  -3  -8   14.50    3.10
  -5  -3  -8   12.00    2.70
   5   3   8   19.30    2.80
   5   3   8   11.80    2.60
  -6  -3  -8  197.38   14.20
  -6  -3  -8  190.88   14.80
  -6  -3  -8  205.88   14.00
   6   3   8  213.48   14.50
   6   3   8  215.58   14.00
  -7  -3  -8  103.89    8.60
  -7  -3  -8  111.69    9.40
   7   3   8  112.19    8.40
   7   3   8   96.39    8.70
   7   3   8  101.49    8.70
  -8  -3  -8  447.36   29.70
   8   3   8  440.56   29.20
   8   3   8  459.15   29.70
  -9  -3  -8   14.40    3.90
   9   3   8    9.60    3.10
   9   3   8   16.20    3.90
 -10  -3  -8  187.68   15.00
  10   3   8  182.78   14.40
  10   3   8  222.18   15.20
 -11  -3  -8   20.60    5.00
  11   3   8   31.50    5.30
  10  -4  -8   35.60    5.70
 -10   4   8   37.50    5.70
   9  -4  -8   62.49    6.80
   9  -4  -8   65.09    7.20
  -9   4   8   53.39    6.70
   8  -4  -8  110.39    9.20
   8  -4  -8   93.69    8.90
  -8   4   8  102.79    8.80
   7  -4  -8  129.99   10.30
   7  -4  -8  135.79   10.50
   6  -4  -8  441.36   30.30
   6  -4  -8  475.75   30.30
   6  -4  -8  497.05   30.60
   5  -4  -8   54.29    5.50
   5  -4  -8   56.49    5.30
   5  -4  -8   55.39    4.80
   5  -4  -8   57.19    5.30
   4  -4  -8  813.22   50.49
   4  -4  -8  824.22   50.79
   4  -4  -8  814.92   50.89
   4  -4  -8  819.92   51.09
   4  -4  -8  817.72   50.99
  -4   4   8  780.72   50.99
   3  -4  -8  229.08   14.70
   3  -4  -8  209.88   14.50
   3  -4  -8  224.38   14.40
   3  -4  -8  224.28   15.00
   3  -4  -8  223.08   14.90
  -3   4   8  218.38   14.80
   2  -4  -8 1211.78   68.99
   2  -4  -8 1107.99   69.09
   2  -4  -8 1120.89   69.19
   2  -4  -8 1071.69   69.19
   2  -4  -8 1061.29   68.79
  -2   4   8 1092.19   69.09
   1  -4  -8   81.29    6.40
   1  -4  -8   81.19    6.30
   1  -4  -8   82.49    6.10
   1  -4  -8   87.19    6.10
   1  -4  -8   80.09    6.40
  -1   4   8   85.59    6.20
   0  -4  -8  201.28   14.20
   0  -4  -8  214.08   14.40
   0  -4  -8  214.18   14.30
   0  -4  -8  226.68   14.10
   0  -4  -8  208.98   14.20
   0   4   8  221.68   13.90
   0   4   8  222.08   14.00
   0   4   8  213.08   13.90
   0   4   8  224.28   14.10
  -1  -4  -8    4.90    1.60
  -1  -4  -8    4.50    1.60
  -1  -4  -8    6.90    1.40
  -1  -4  -8    6.00    1.80
  -1  -4  -8    6.80    1.90
  -1  -4  -8    8.30    1.70
   1   4   8    6.30    1.40
   1   4   8    9.30    1.70
   1   4   8    6.00    1.60
  -2  -4  -8  436.06   30.00
  -2  -4  -8  468.15   30.20
  -2  -4  -8  554.74   30.70
  -2  -4  -8  476.75   30.10
  -2  -4  -8  456.35   30.40
   2   4   8  481.75   30.40
   2   4   8  481.45   30.00
   2   4   8  481.65   30.10
  -3  -4  -8   69.49    5.70
  -3  -4  -8   69.29    6.20
  -3  -4  -8   72.19    5.50
  -3  -4  -8   67.39    5.60
  -3  -4  -8   70.09    5.80
   3   4   8   71.79    5.30
   3   4   8   76.29    5.60
   3   4   8   74.19    5.80
  -4  -4  -8  772.72   46.80
  -4  -4  -8  692.33   46.20
  -4  -4  -8  739.83   46.30
  -4  -4  -8  754.92   45.90
   4   4   8  728.93   46.50
   4   4   8  731.73   46.10
  -5  -4  -8  155.38   11.20
  -5  -4  -8  158.08   11.90
  -5  -4  -8  150.58   11.10
  -5  -4  -8  159.18   10.80
   5   4   8  160.48   11.40
   5   4   8  159.88   11.00
  -6  -4  -8  348.37   25.10
  -6  -4  -8  374.46   24.20
  -6  -4  -8  377.76   24.60
  -6  -4  -8  389.06   25.50
   6   4   8  392.56   24.90
   6   4   8  374.36   24.40
  -7  -4  -8    0.60    3.00
  -7  -4  -8    2.20    2.50
  -7  -4  -8    3.90    2.20
   7   4   8    2.40    2.60
   7   4   8    0.80    2.20
  -8  -4  -8   41.10    5.70
   8   4   8   50.59    5.50
   8   4   8   58.59    6.20
  -9  -4  -8    3.50    3.10
   9   4   8    5.40    2.90
   9   4   8    4.60    3.10
 -10  -4  -8   -1.70    3.10
  10   4   8   -2.10    4.00
  10   4   8   -1.90    3.00
 -11  -4  -8   -0.40    3.60
  11   4   8    5.40    3.70
   9  -5  -8   60.19    7.00
   9  -5  -8   54.49    6.40
  -9   5   8   45.60    6.20
   8  -5  -8   77.19    8.20
   8  -5  -8   85.59    8.20
  -8   5   8   94.89    8.30
   7  -5  -8   15.40    3.50
   7  -5  -8   11.30    3.60
  -7   5   8    9.30    3.20
   6  -5  -8   64.49    6.40
   6  -5  -8   69.19    6.80
  -6   5   8   66.59    6.70
   5  -5  -8    7.00    1.90
   5  -5  -8    5.50    2.20
   5  -5  -8    4.60    2.30
   5  -5  -8    5.50    1.40
   5  -5  -8    9.40    3.00
  -5   5   8    4.00    2.40
   4  -5  -8    3.70    2.00
   4  -5  -8    8.20    1.90
   4  -5  -8    3.30    1.20
   4  -5  -8    4.70    2.50
   4  -5  -8    4.80    2.00
  -4   5   8    2.90    2.20
   3  -5  -8  396.66   26.00
   3  -5  -8  410.46   25.70
   3  -5  -8  387.96   25.60
   3  -5  -8  387.76   25.00
   3  -5  -8  411.46   25.50
  -3   5   8  416.26   25.90
   2  -5  -8  160.78   11.10
   2  -5  -8  163.18   10.80
   2  -5  -8  163.18   11.00
   2  -5  -8  154.18   11.30
  -2   5   8  166.28   11.20
   1  -5  -8  165.78   10.90
   1  -5  -8  168.08   10.80
   1  -5  -8  148.09   10.90
  -1   5   8  163.78   11.00
   0  -5  -8 1145.89   69.29
   0  -5  -8 1060.89   69.39
   0  -5  -8 1131.09   69.39
   0   5   8 1088.99   69.29
   0   5   8 1101.09   69.09
   0   5   8 1151.28   68.99
   0   5   8 1141.49   69.09
  -1  -5  -8  193.58   12.00
  -1  -5  -8  178.58   11.90
  -1  -5  -8  156.88   12.10
  -1  -5  -8  166.28   11.60
   1   5   8  195.18   11.70
   1   5   8  176.08   11.80
   1   5   8  177.18   11.80
  -2  -5  -8  499.35   32.30
  -2  -5  -8  528.15   32.30
  -2  -5  -8  523.55   32.10
  -2  -5  -8  485.75   32.10
  -2  -5  -8  546.45   32.70
   2   5   8  496.25   32.10
   2   5   8  502.85   32.10
   2   5   8  504.75   32.30
  -3  -5  -8  426.96   25.90
  -3  -5  -8  346.07   26.30
  -3  -5  -8  414.36   26.20
  -3  -5  -8  416.66   26.10
   3   5   8  418.86   26.30
   3   5   8  422.06   26.00
   3   5   8  415.36   25.90
  -4  -5  -8   14.60    3.10
  -4  -5  -8   18.60    2.80
  -4  -5  -8   17.50    2.80
  -4  -5  -8   19.80    2.50
   4   5   8   17.60    2.90
   4   5   8   18.50    2.70
   4   5   8   20.50    2.70
  -5  -5  -8   -1.40    1.80
  -5  -5  -8   -2.10    2.20
  -5  -5  -8    2.40    1.60
  -5  -5  -8    1.50    2.00
   5   5   8    1.00    1.70
   5   5   8    1.60    2.00
  -6  -5  -8   21.40    3.00
  -6  -5  -8   19.50    4.10
  -6  -5  -8   15.10    3.10
   6   5   8   15.60    3.00
   6   5   8   20.70    3.60
   6   5   8   17.20    3.40
  -7  -5  -8   50.79    5.20
  -7  -5  -8   58.59    6.60
  -7  -5  -8   51.19    5.70
   7   5   8   52.29    5.30
   7   5   8   48.30    5.70
  -8  -5  -8   28.10    3.90
  -8  -5  -8   24.60    4.40
   8   5   8   27.30    3.90
   8   5   8   21.30    4.30
  -9  -5  -8   -1.20    3.00
   9   5   8   -0.30    2.50
   9   5   8    2.40    3.10
 -10  -5  -8   -0.30    3.20
  10   5   8    5.10    3.60
   9  -6  -8   73.79    7.60
   9  -6  -8   63.39    7.80
  -9   6   8   69.29    7.60
   8  -6  -8   40.10    5.50
   8  -6  -8   38.70    5.70
  -8   6   8   34.90    5.40
   7  -6  -8   19.60    4.00
   7  -6  -8   17.10    3.90
  -7   6   8   20.30    3.90
   6  -6  -8    6.70    1.80
   6  -6  -8   12.60    2.40
   6  -6  -8   11.10    3.30
   6  -6  -8    7.00    2.80
  -6   6   8    8.90    3.00
   5  -6  -8   86.69    6.80
   5  -6  -8   82.79    7.80
   5  -6  -8   85.09    6.30
   5  -6  -8   95.09    7.60
  -5   6   8   86.19    7.40
   4  -6  -8    3.20    1.40
   4  -6  -8    3.80    1.80
   4  -6  -8   -0.10    2.20
   4  -6  -8    1.80    2.10
  -4   6   8    2.50    2.00
   3  -6  -8    1.20    1.80
   3  -6  -8    4.10    1.80
   3  -6  -8    1.50    1.60
  -3   6   8    2.10    2.00
   2  -6  -8   74.59    5.80
   2  -6  -8   66.59    5.40
   2  -6  -8   62.49    5.40
  -2   6   8   65.99    5.90
   1  -6  -8   39.70    3.70
   1  -6  -8   34.70    3.80
   1  -6  -8   27.50    3.30
  -1   6   8   32.90    3.60
   0  -6  -8    7.90    1.90
   0  -6  -8   10.90    2.20
   0  -6  -8   11.90    2.40
   0   6   8   12.20    1.80
   0   6   8   15.10    2.40
   0   6   8   13.80    2.00
  -1  -6  -8   76.89    5.60
  -1  -6  -8   59.39    5.20
  -1  -6  -8   73.39    6.00
  -1  -6  -8   63.19    5.40
   1   6   8   65.79    5.30
   1   6   8   64.39    5.40
  -2  -6  -8  210.28   13.70
  -2  -6  -8  187.18   13.50
  -2  -6  -8  198.98   13.60
   2   6   8  201.68   13.50
   2   6   8  215.08   13.60
   2   6   8  212.28   13.70
  -3  -6  -8   95.89    7.60
  -3  -6  -8   98.99    7.20
  -3  -6  -8   91.79    7.60
  -3  -6  -8  122.19    8.50
   3   6   8  107.09    7.50
   3   6   8   94.49    7.60
   3   6   8  100.19    7.40
  -4  -6  -8   97.39    7.60
  -4  -6  -8   69.29    6.40
  -4  -6  -8   77.79    6.60
  -4  -6  -8   81.89    6.20
   4   6   8   80.79    6.40
   4   6   8   78.19    6.30
   4   6   8   81.39    6.80
  -5  -6  -8    6.20    1.90
  -5  -6  -8    5.60    2.90
  -5  -6  -8    0.90    2.20
   5   6   8    2.30    1.80
   5   6   8    2.40    1.90
  -6  -6  -8    0.30    1.80
  -6  -6  -8   -1.10    2.70
  -6  -6  -8    3.00    2.40
   6   6   8    5.50    2.30
   6   6   8    5.80    2.70
  -7  -6  -8    0.30    2.10
  -7  -6  -8    2.70    2.70
   7   6   8   -2.70    2.00
   7   6   8   -4.10    2.50
  -8  -6  -8   34.00    4.20
  -8  -6  -8   25.30    4.50
   8   6   8   34.20    4.50
   8   6   8   32.90    5.00
  -9  -6  -8   -2.40    2.90
  -9  -6  -8    1.70    2.70
   9   6   8    3.20    2.80
   9   6   8   -7.20    2.70
 -10  -6  -8    8.60    4.00
  10   6   8    5.00    3.80
   9  -7  -8   23.50    4.50
   9  -7  -8   18.00    4.80
  -9   7   8   16.70    4.10
   8  -7  -8   -0.70    3.10
   8  -7  -8    2.00    3.20
  -8   7   8    1.90    2.90
   7  -7  -8   15.70    3.90
   7  -7  -8   14.70    2.50
   7  -7  -8   16.50    4.00
  -7   7   8   17.70    3.70
   6  -7  -8   -1.10    2.50
   6  -7  -8    0.90    1.70
   6  -7  -8    3.50    2.90
   6  -7  -8   -1.00    1.90
  -6   7   8    1.00    2.40
   5  -7  -8    4.10    2.10
   5  -7  -8    2.00    2.70
   5  -7  -8    5.50    1.80
   5  -7  -8    3.40    2.60
  -5   7   8    3.20    2.40
   4  -7  -8    0.60    1.70
   4  -7  -8   -0.80    2.00
   4  -7  -8    0.00    1.50
  -4   7   8    1.70    2.30
   3  -7  -8    3.40    1.90
   3  -7  -8    3.60    2.20
  -3   7   8    1.10    2.20
   2  -7  -8   73.29    5.60
   2  -7  -8   55.89    5.80
  -2   7   8   68.49    5.80
   1  -7  -8  218.68   14.80
   1  -7  -8  217.08   14.30
   1  -7  -8  195.48   14.00
  -1   7   8  228.08   14.50
   0  -7  -8  190.08   12.50
   0  -7  -8  185.78   12.60
   0  -7  -8  206.28   13.20
   0   7   8  174.68   12.40
   0   7   8  172.88   12.70
  -1  -7  -8    2.40    1.70
  -1  -7  -8    2.40    1.60
  -1  -7  -8    1.50    1.90
  -1  -7  -8    0.90    1.70
   1   7   8    1.70    1.60
   1   7   8    2.00    1.80
  -2  -7  -8   21.90    3.50
  -2  -7  -8   18.20    2.80
  -2  -7  -8   16.60    2.70
  -2  -7  -8   19.50    2.80
   2   7   8   18.00    2.80
   2   7   8   14.10    2.50
  -3  -7  -8   33.20    4.40
  -3  -7  -8   32.50    3.80
  -3  -7  -8   40.70    3.70
  -3  -7  -8   28.50    3.70
   3   7   8   30.00    3.60
   3   7   8   36.70    3.80
  -4  -7  -8   -0.70    2.30
  -4  -7  -8   -4.20    1.60
  -4  -7  -8   -0.50    1.80
  -4  -7  -8    2.80    1.70
   4   7   8    0.90    1.70
   4   7   8    1.70    1.90
  -5  -7  -8   39.00    5.20
  -5  -7  -8   34.60    4.30
  -5  -7  -8   35.10    3.90
   5   7   8   31.20    3.90
   5   7   8   36.80    4.00
   5   7   8   30.90    3.90
  -6  -7  -8    2.80    2.00
  -6  -7  -8    2.20    3.10
  -6  -7  -8    0.70    2.20
   6   7   8    0.50    2.50
   6   7   8    1.10    2.10
   6   7   8   -0.20    2.00
  -7  -7  -8   -1.30    2.10
  -7  -7  -8   -4.30    2.40
   7   7   8    2.70    2.40
   7   7   8    1.80    2.80
  -8  -7  -8    7.30    3.30
  -8  -7  -8    7.20    2.70
   8   7   8   16.80    3.70
   8   7   8   12.40    3.20
  -9  -7  -8   45.10    5.30
  -9  -7  -8   44.10    6.10
   9   7   8   34.50    5.50
   9   7   8   37.00    5.00
 -10  -7  -8   56.39    7.40
  10   7   8   61.39    7.20
  -9   8   8   40.90    6.00
   8  -8  -8    3.80    3.50
   8  -8  -8    1.90    3.60
  -8   8   8    5.50    3.50
   7  -8  -8   21.00    3.20
   7  -8  -8   28.40    4.50
   7  -8  -8   28.90    4.80
   7  -8  -8   28.70    5.00
  -7   8   8   30.50    4.70
   6  -8  -8    4.10    3.20
   6  -8  -8    4.20    2.20
   6  -8  -8    1.30    2.80
   6  -8  -8    0.10    1.80
  -6   8   8   -2.00    2.70
   5  -8  -8   93.29    7.20
   5  -8  -8   88.69    6.80
   5  -8  -8   79.09    8.10
  -5   8   8   79.19    7.50
   4  -8  -8   27.90    4.30
   4  -8  -8   24.30    3.30
  -4   8   8   29.70    4.00
   3  -8  -8   11.50    2.40
   3  -8  -8    6.20    2.60
  -3   8   8    8.50    2.80
   2  -8  -8   50.89    5.30
   2  -8  -8   51.69    4.80
  -2   8   8   43.30    4.80
   1  -8  -8   52.69    5.20
   1  -8  -8   62.09    4.90
   1  -8  -8   65.99    6.00
  -1   8   8   56.29    5.60
   0  -8  -8    0.60    2.10
   0  -8  -8   -0.90    1.60
   0  -8  -8    0.70    1.40
   0   8   8    2.80    1.70
   0   8   8    0.90    1.80
  -1  -8  -8   20.20    3.00
  -1  -8  -8   21.30    3.60
  -1  -8  -8   17.30    3.00
  -1  -8  -8   24.30    3.10
   1   8   8   24.10    3.00
   1   8   8   20.60    3.20
  -2  -8  -8    2.40    1.90
  -2  -8  -8    2.90    1.80
  -2  -8  -8    2.30    2.40
  -2  -8  -8    1.80    1.80
   2   8   8    2.50    1.90
   2   8   8    3.20    2.00
  -3  -8  -8   19.10    3.10
  -3  -8  -8   28.70    4.20
  -3  -8  -8   22.40    3.40
  -3  -8  -8   18.40    3.10
   3   8   8   24.00    3.20
   3   8   8   26.70    3.50
  -4  -8  -8   -2.10    2.50
  -4  -8  -8   -0.50    1.60
  -4  -8  -8    3.60    2.30
   4   8   8    2.90    1.90
   4   8   8   -0.20    2.00
  -5  -8  -8    3.40    2.00
  -5  -8  -8    5.40    3.20
  -5  -8  -8    1.50    2.20
   5   8   8    2.20    2.00
   5   8   8    1.50    2.10
  -6  -8  -8   11.40    2.70
  -6  -8  -8   10.30    3.10
   6   8   8   12.60    3.40
   6   8   8   10.20    3.50
   6   8   8   10.30    2.90
   6   8   8   12.40    2.90
  -7  -8  -8   83.09    7.20
  -7  -8  -8   83.99    7.90
   7   8   8   74.19    7.90
   7   8   8   83.09    7.70
   7   8   8   84.09    7.50
  -8  -8  -8   30.00    4.20
  -8  -8  -8   30.40    4.90
   8   8   8   27.50    4.80
   8   8   8   18.60    3.90
  -9  -8  -8    1.60    3.40
  -9  -8  -8    5.10    3.10
   9   8   8   -0.20    3.10
 -10  -8  -8    2.90    3.70
  10   8   8    0.70    3.50
   8  -9  -8    2.90    3.70
   8  -9  -8    6.00    3.70
  -8   9   8    7.70    3.70
   7  -9  -8   -0.10    3.30
   7  -9  -8    8.80    3.50
   7  -9  -8    0.00    2.00
  -7   9   8    6.70    3.50
   6  -9  -8   41.50    4.60
   6  -9  -8   51.49    6.60
   6  -9  -8   50.39    5.10
  -6   9   8   37.60    5.40
   5  -9  -8   42.50    5.80
   5  -9  -8   39.00    4.60
   5  -9  -8   43.30    4.50
  -5   9   8   40.30    5.30
   4  -9  -8  113.69    8.50
   4  -9  -8  110.09    9.50
  -4   9   8   99.89    9.00
   3  -9  -8    1.10    2.00
   3  -9  -8    0.70    2.40
  -3   9   8    0.40    2.40
   2  -9  -8   43.60    5.20
   2  -9  -8   35.40    4.30
  -2   9   8   40.00    4.70
   1  -9  -8   -0.90    1.90
   1  -9  -8   -0.40    2.20
  -1   9   8   -0.90    1.20
  -1   9   8   -0.40    2.00
   0  -9  -8   27.70    4.30
   0  -9  -8   41.40    4.10
   0  -9  -8   30.40    3.60
   0   9   8   35.60    4.30
   0   9   8   40.20    4.10
  -1  -9  -8  197.78   13.10
  -1  -9  -8  156.18   11.80
  -1  -9  -8  180.18   12.10
   1   9   8  171.78   12.30
   1   9   8  164.18   12.00
  -2  -9  -8   48.80    4.90
  -2  -9  -8   52.59    5.40
  -2  -9  -8   62.49    5.20
  -2  -9  -8   44.20    5.80
   2   9   8   53.99    5.50
   2   9   8   52.19    5.00
  -3  -9  -8   13.90    3.00
  -3  -9  -8   16.00    3.70
  -3  -9  -8   15.50    2.90
   3   9   8   10.70    2.70
   3   9   8   15.00    3.10
  -4  -9  -8   18.50    3.10
  -4  -9  -8   18.10    4.20
  -4  -9  -8   20.30    3.50
   4   9   8   22.50    3.60
   4   9   8   28.10    3.50
  -5  -9  -8  145.29   11.20
  -5  -9  -8  130.59   11.90
  -5  -9  -8  152.38   10.70
   5   9   8  155.68   11.00
   5   9   8  151.68   12.00
   5   9   8  144.69   10.90
  -6  -9  -8   12.60    2.80
  -6  -9  -8    9.60    3.40
   6   9   8   14.60    3.30
   6   9   8   16.40    3.30
   6   9   8   11.20    3.40
   6   9   8   11.30    3.10
  -7  -9  -8   11.40    2.80
  -7  -9  -8   10.30    3.50
   7   9   8    8.70    3.40
   7   9   8   10.00    3.00
   7   9   8    3.60    2.60
  -8  -9  -8    3.50    3.30
  -8  -9  -8    3.90    2.70
   8   9   8   10.80    3.70
   8   9   8    6.40    3.10
  -9  -9  -8    5.00    3.50
   9   9   8   -3.10    3.00
  -8  10   8    3.30    3.30
   7 -10  -8   -1.20    3.40
   7 -10  -8   -1.20    3.20
   7 -10  -8    3.10    2.30
  -7  10   8    3.60    3.20
   6 -10  -8   -0.20    2.10
   6 -10  -8   -0.10    3.30
  -6  10   8    0.50    3.10
   5 -10  -8   10.60    3.80
   5 -10  -8   11.50    2.90
   5 -10  -8    9.50    2.80
  -5  10   8    9.30    3.30
   4 -10  -8   13.00    2.90
   4 -10  -8   11.20    3.70
  -4  10   8   17.50    3.70
   3 -10  -8   17.00    3.10
   3 -10  -8    9.70    3.50
  -3  10   8   12.90    3.20
   2 -10  -8   44.10    5.50
   2 -10  -8   36.00    4.30
  -2  10   8   34.30    4.50
   1 -10  -8  167.98   11.80
   1 -10  -8  158.78   12.40
  -1  10   8  154.68   11.10
  -1  10   8  177.88   12.20
   0 -10  -8   18.00    3.10
   0 -10  -8   17.50    3.70
   0  10   8   20.50    3.20
   0  10   8   13.50    3.20
  -1 -10  -8   30.80    3.90
  -1 -10  -8   32.50    4.80
   1  10   8   43.10    4.70
   1  10   8   26.40    3.80
  -2 -10  -8   23.50    3.60
  -2 -10  -8   17.50    3.90
  -2 -10  -8   15.10    3.00
   2  10   8   10.00    3.20
   2  10   8   21.00    3.30
  -3 -10  -8  151.78   10.60
  -3 -10  -8  135.49   11.10
  -3 -10  -8  125.39   10.00
   3  10   8  127.89   10.40
   3  10   8  136.59   10.20
  -4 -10  -8   -0.60    3.00
  -4 -10  -8    0.10    2.30
   4  10   8   -3.90    2.00
   4  10   8   -2.30    2.30
  -5 -10  -8   34.90    4.80
  -5 -10  -8   37.40    4.90
   5  10   8   33.00    5.50
   5  10   8   26.60    4.20
   5  10   8   33.80    4.60
  -6 -10  -8    0.60    2.30
  -6 -10  -8    1.80    2.90
   6  10   8    2.00    2.80
   6  10   8    3.80    2.60
   6  10   8    3.20    2.70
   6  10   8   -2.00    2.60
  -7 -10  -8    4.70    3.30
  -7 -10  -8    4.10    3.30
   7  10   8   -3.10    2.80
   7  10   8    1.70    2.70
   7  10   8    3.70    2.90
  -8 -10  -8    7.60    3.70
   8  10   8    8.10    4.30
   8  10   8    0.40    3.20
  -9 -10  -8   42.90    6.60
   9  10   8   66.99    7.30
   7 -11  -8    0.20    2.40
   7 -11  -8    4.20    3.90
   7 -11  -8    2.40    3.70
  -7  11   8    0.20    3.30
   6 -11  -8    4.20    2.60
   6 -11  -8    6.60    4.00
  -6  11   8   -2.40    3.00
   5 -11  -8   -0.50    3.30
   5 -11  -8    1.40    2.60
  -5  11   8    3.10    3.20
   4 -11  -8    1.50    3.30
   4 -11  -8    0.10    2.40
  -4  11   8    0.00    2.70
   3 -11  -8  246.38   17.00
   3 -11  -8  227.68   15.70
  -3  11   8  203.48   15.90
   2 -11  -8   21.20    3.40
   2 -11  -8   16.30    4.10
  -2  11   8   16.30    3.70
   1 -11  -8   53.19    5.60
   1 -11  -8   52.69    6.40
  -1  11   8   52.69    5.80
   0 -11  -8  102.19    7.70
   0 -11  -8   98.59    8.50
   0  11   8   72.69    7.30
   0  11   8   85.99    8.10
  -1 -11  -8   65.09    6.20
  -1 -11  -8   61.79    7.00
   1  11   8   72.29    6.90
   1  11   8   59.09    6.00
  -2 -11  -8  201.18   13.80
  -2 -11  -8  191.88   15.00
   2  11   8  191.78   14.10
   2  11   8  195.28   13.80
  -3 -11  -8   46.50    6.20
  -3 -11  -8   38.40    5.30
  -3 -11  -8   52.59    5.30
   3  11   8   46.40    5.10
   3  11   8   47.00    5.60
  -4 -11  -8  164.08   13.10
   4  11   8  184.68   12.70
   4  11   8  172.38   12.90
  -5 -11  -8    0.90    2.80
   5  11   8   -1.00    2.50
   5  11   8    1.20    2.40
   5  11   8   -5.10    2.70
  -6 -11  -8   96.19    8.70
   6  11   8   88.19    8.30
   6  11   8   88.59    8.50
   6  11   8   86.49    8.10
   6  11   8   93.29    8.60
  -7 -11  -8   41.00    6.20
   7  11   8   59.79    6.10
   7  11   8   52.99    6.00
   7  11   8   42.80    6.20
  -8 -11  -8   70.29    8.20
   8  11   8   77.99    8.30
   8  11   8   80.49    7.80
   6 -12  -8   -2.50    2.30
   6 -12  -8   -0.20    3.90
  -6  12   8    3.10    3.40
   5 -12  -8  258.27   20.70
   5 -12  -8  294.27   19.30
  -5  12   8  289.67   19.90
   4 -12  -8   32.80    6.00
  -4  12   8   47.00    5.80
   3 -12  -8  155.08   12.50
  -3  12   8  126.49   11.30
   2 -12  -8  133.39   11.00
   2 -12  -8  124.49    9.60
  -2  12   8  117.39    9.90
  -2  12   8  113.99    8.70
   1 -12  -8   85.29    7.50
   1 -12  -8   85.99    8.80
  -1  12   8   87.29    7.90
  -1  12   8   76.89    7.40
   0 -12  -8  187.28   13.50
   0 -12  -8  195.98   14.70
   0  12   8  183.28   14.10
   0  12   8  187.28   13.50
  -1 -12  -8   92.39    9.10
  -1 -12  -8   93.49    8.30
   1  12   8  111.99    8.50
   1  12   8  101.59    8.80
  -2 -12  -8  102.79    8.90
   2  12   8  120.19    9.60
   2  12   8  108.19    8.90
  -3 -12  -8   -4.50    2.10
   3  12   8    0.40    2.50
   3  12   8   -2.40    2.80
  -4 -12  -8   19.60    4.10
   4  12   8   16.80    3.50
   4  12   8   13.40    3.70
  -5 -12  -8   17.00    4.30
   5  12   8   18.30    3.70
   5  12   8   18.10    3.90
   5  12   8   18.90    6.40
   5  12   8   13.30    3.60
  -6 -12  -8   13.40    4.20
   6  12   8   16.30    4.10
   6  12   8   17.10    3.90
   6  12   8    9.60    4.00
  -7 -12  -8   53.19    7.00
   7  12   8   72.89    7.10
   7  12   8   66.69    6.90
   7  12   8   45.80    6.70
   5 -13  -8   21.40    4.10
   5 -13  -8   25.30    6.00
  -5  13   8   28.00    5.00
   4 -13  -8  146.09   13.50
  -4  13   8  163.18   12.50
   3 -13  -8    7.70    4.10
  -3  13   8    2.50    3.20
   2 -13  -8  103.39   10.20
  -2  13   8  108.09    9.70
   1 -13  -8    0.50    3.30
  -1  13   8    0.30    2.50
  -1  13   8   -0.40    3.00
   0 -13  -8   18.40    4.60
   0  13   8   23.00    3.80
   0  13   8   12.50    4.00
  -1 -13  -8  113.59   12.00
   1  13   8  168.48   12.00
   1  13   8  174.28   11.70
   2  13   8    2.60    3.10
   2  13   8    1.30    2.60
   3  13   8  122.59    9.70
   3  13   8  108.89   10.10
  -4 -13  -8   -1.00    3.00
   4  13   8    2.30    2.80
   4  13   8   -1.40    3.00
  -5 -13  -8  366.86   25.10
   5  13   8  347.07   24.60
   5  13   8  372.56   24.80
  -6 -13  -8    0.60    3.50
   6  13   8    3.70    3.40
   6  13   8   -1.60    3.30
   6  13   8    3.90    3.50
   4 -14  -8    2.30    4.20
  -4  14   8   -3.70    3.20
   3 -14  -8    3.50    4.20
  -3  14   8    2.20    3.50
   2 -14  -8    5.60    4.30
  -2  14   8    7.90    3.90
   1 -14  -8  141.69   12.90
  -1  14   8  159.68   12.50
   0  14   8    9.10    3.80
   1  14   8  139.69   11.80
   2  14   8    2.70    3.60
   3  14   8  219.68   16.30
   4  14   8   16.30    4.30
   5  14   8  247.48   17.80
   5  14   8  233.58   17.60
  -2  15   8    4.90    3.80
  -1  15   8  238.18   17.60
   0  15   8    2.70    3.70
   1  15   8  172.48   13.80
   2  15   8    4.30    3.70
   3  15   8  149.79   12.60
   2  12  -9    5.20    3.60
   2  12  -9   11.00    4.00
   1  12  -9    9.40    3.90
   1  12  -9    0.40    3.20
   0  12  -9    0.40    3.20
   0  12  -9    3.00    3.50
  -1  12  -9    2.90    3.70
  -1  12  -9    4.10    3.50
  -2  12  -9   48.60    6.80
  -2  12  -9   41.80    4.70
  -2  12  -9   39.70    6.00
  -3  12  -9    4.20    2.70
  -3  12  -9    3.90    3.60
  -3  12  -9   14.20    4.70
   4  11  -9    1.60    3.10
   4  11  -9   -1.50    3.00
   3  11  -9   10.40    3.90
   3  11  -9   13.40    3.80
   2  11  -9   14.70    3.80
   2  11  -9   13.80    3.90
   1  11  -9   78.89    8.10
   1  11  -9   73.69    8.00
   0  11  -9   12.90    3.80
   0  11  -9    5.40    3.50
   0 -11   9    3.40    2.30
  -1  11  -9    1.30    3.20
  -1  11  -9    5.60    2.40
  -1  11  -9   12.90    4.20
   1 -11   9    8.70    3.00
  -2  11  -9    2.30    3.50
  -2  11  -9   -1.80    2.00
  -2  11  -9    0.30    3.40
  -3  11  -9   83.19    9.30
  -3  11  -9   87.39    7.50
  -3  11  -9   82.59    8.40
  -4  11  -9    8.60    3.90
  -4  11  -9    9.40    3.10
  -4  11  -9    5.40    4.30
  -5  11  -9    5.20    4.20
  -5  11  -9    6.30    3.20
  -5  11  -9    3.90    3.70
   5  10  -9    5.90    3.20
   5  10  -9    3.00    3.30
   4  10  -9    3.10    3.10
   4  10  -9    1.20    2.80
   3  10  -9  126.29   10.30
   3  10  -9  119.49   10.50
   2  10  -9   27.40    4.40
   2  10  -9   35.10    5.10
   1  10  -9   14.60    3.80
   1  10  -9    7.00    3.20
   0  10  -9   37.40    5.40
   0  10  -9   25.60    4.60
   0 -10   9   35.40    4.00
  -1  10  -9  105.29    9.70
  -1  10  -9  111.29    8.30
  -1  10  -9  115.99   10.10
   1 -10   9  124.09    9.00
  -2  10  -9    2.20    2.10
  -2  10  -9    3.20    3.40
  -2  10  -9    2.70    3.10
   2 -10   9    4.50    2.30
  -3  10  -9   17.70    4.50
  -3  10  -9   16.20    3.90
  -3  10  -9   19.00    3.30
  -3  10  -9   12.80    3.90
   3 -10   9   14.50    3.30
  -4  10  -9   33.00    4.50
  -4  10  -9   36.80    6.10
  -4  10  -9   30.20    5.00
  -4  10  -9   33.70    5.30
  -5  10  -9    8.50    3.30
  -5  10  -9   14.10    4.80
  -5  10  -9    9.10    3.70
  -6  10  -9   24.10    4.40
  -6  10  -9   22.70    5.60
   6   9  -9    6.30    3.10
   5   9  -9   88.79    7.90
   5   9  -9   83.59    8.20
   4   9  -9    2.70    2.90
   4   9  -9   -0.50    2.50
   3   9  -9    6.80    3.30
   3   9  -9   11.00    3.10
   2   9  -9    1.80    2.80
   2   9  -9    1.40    2.50
   1   9  -9   48.70    5.80
   1   9  -9   50.39    5.80
   0   9  -9   17.00    4.00
   0   9  -9   26.30    4.30
   0  -9   9   25.10    3.20
  -1   9  -9    7.30    3.10
  -1   9  -9    6.20    2.90
  -1   9  -9    5.10    1.90
   1  -9   9    3.70    2.00
  -2   9  -9    3.60    3.20
  -2   9  -9    1.30    1.90
  -2   9  -9    5.20    2.70
  -2   9  -9    5.40    3.10
   2  -9   9    2.20    2.10
  -3   9  -9   61.99    6.50
  -3   9  -9   62.09    5.80
  -3   9  -9   54.79    7.10
  -3   9  -9   60.89    6.60
   3  -9   9   54.29    5.60
  -4   9  -9    0.80    2.40
  -4   9  -9    1.60    2.90
  -4   9  -9    0.30    3.00
  -4   9  -9    1.40    3.40
   4  -9   9    4.30    2.50
  -5   9  -9    5.30    3.40
  -5   9  -9    2.80    3.00
  -5   9  -9    3.90    3.70
  -5   9  -9    2.30    2.70
   5  -9   9    5.50    2.60
  -6   9  -9   -2.80    2.80
  -6   9  -9   -2.90    3.30
  -7   9  -9   11.70    3.70
  -7   9  -9    7.10    4.50
   7   8  -9  109.99    9.00
   7   8  -9   92.69   10.00
   6   8  -9    0.70    2.50
   5   8  -9   54.19    6.10
   5   8  -9   52.49    5.70
   4   8  -9    4.70    3.00
   4   8  -9    6.20    2.50
   3   8  -9   93.79    7.90
   3   8  -9   94.99    8.50
   3   8  -9   93.29    8.40
   2   8  -9   14.50    3.50
   2   8  -9   10.50    3.40
   2   8  -9   18.60    3.30
   1   8  -9   64.79    6.50
   1   8  -9   69.59    6.90
   1   8  -9   78.89    6.80
   0   8  -9    0.50    2.30
   0   8  -9    0.30    2.40
   0  -8   9    0.30    1.60
  -1   8  -9    9.40    1.90
  -1   8  -9    5.30    3.00
  -1   8  -9    7.70    2.60
  -1   8  -9    7.00    2.80
   1  -8   9    7.40    2.20
  -2   8  -9    0.50    2.60
  -2   8  -9    4.10    2.90
  -2   8  -9    5.10    2.70
  -2   8  -9    3.00    2.00
   2  -8   9    1.20    1.90
  -3   8  -9   71.49    8.00
  -3   8  -9   93.79    8.00
  -3   8  -9   82.89    6.90
  -3   8  -9   81.59    7.70
   3  -8   9   87.69    7.00
  -4   8  -9   18.60    4.00
  -4   8  -9   14.00    3.10
  -4   8  -9   18.90    3.80
  -4   8  -9   12.90    4.00
   4  -8   9   13.10    3.00
  -5   8  -9    5.30    3.80
  -5   8  -9   14.20    3.30
  -5   8  -9   13.40    3.60
  -5   8  -9   16.70    4.20
   5  -8   9   10.20    2.90
  -6   8  -9   12.80    4.50
  -6   8  -9   15.90    4.30
  -6   8  -9   12.50    3.60
   6  -8   9   13.10    3.20
  -7   8  -9    5.10    3.10
  -7   8  -9   -0.70    3.70
  -8   8  -9   11.50    3.90
   7   7  -9   27.80    4.20
   7   7  -9   28.50    4.60
   6   7  -9    0.20    2.40
   6   7  -9   -2.50    2.60
   5   7  -9    2.30    2.20
   5   7  -9    4.50    2.80
   4   7  -9   81.59    7.50
   4   7  -9   73.99    6.70
   4   7  -9   90.69    8.20
   3   7  -9    6.70    2.30
   3   7  -9    7.20    3.30
   3   7  -9   13.10    3.20
   2   7  -9   31.40    4.00
   2   7  -9   38.10    4.80
   2   7  -9   40.60    5.00
   1   7  -9  138.79    9.60
   1   7  -9  114.69    9.90
   1   7  -9  123.79    9.80
   0   7  -9   30.70    4.10
   0   7  -9   30.30    4.20
   0   7  -9   41.50    4.50
   0  -7   9   25.90    3.20
  -1   7  -9    3.40    2.30
  -1   7  -9    4.80    1.60
  -1   7  -9    5.80    2.50
  -1   7  -9    2.80    2.50
   1  -7   9    5.10    1.80
  -2   7  -9   41.60    5.00
  -2   7  -9   37.90    4.90
  -2   7  -9   41.90    5.20
  -2   7  -9   42.80    4.20
   2  -7   9   44.10    4.30
  -3   7  -9   21.80    3.00
  -3   7  -9   17.50    3.60
  -3   7  -9   12.60    3.40
  -3   7  -9   21.60    4.10
   3  -7   9   17.30    2.90
  -4   7  -9    2.40    2.70
  -4   7  -9    1.10    2.20
  -4   7  -9    1.40    3.00
  -4   7  -9   -0.10    2.70
   4  -7   9    1.70    2.10
  -5   7  -9   95.79    8.20
  -5   7  -9   98.69    9.30
  -5   7  -9   95.99    8.10
  -5   7  -9   94.19    8.80
   5  -7   9   87.19    7.80
  -6   7  -9   -0.80    2.60
  -6   7  -9   -2.60    2.90
  -6   7  -9    2.70    3.40
   6  -7   9    1.00    2.40
  -7   7  -9   49.70    6.00
  -7   7  -9   51.99    7.20
  -7   7  -9   49.20    6.70
   7  -7   9   52.39    6.40
  -8   7  -9    4.80    3.40
   8   6  -9    3.80    2.90
   8   6  -9    0.00    3.30
   7   6  -9   -3.50    2.70
   7   6  -9   -0.50    2.30
   6   6  -9   99.39    8.90
   6   6  -9  101.19    8.90
   6   6  -9  112.69    8.40
   6   6  -9  103.79    9.60
   5   6  -9   27.80    4.10
   5   6  -9   27.80    3.90
   5   6  -9   31.00    4.90
   5   6  -9   23.20    3.50
   5   6  -9   29.20    5.10
   4   6  -9   64.99    5.70
   4   6  -9   65.69    7.00
   4   6  -9   64.79    6.50
   4   6  -9   63.99    6.80
   3   6  -9   34.60    3.70
   3   6  -9   35.80    4.90
   3   6  -9   36.60    4.80
   3   6  -9   31.80    4.50
   2   6  -9   17.00    3.40
   2   6  -9   13.90    3.30
   2   6  -9   17.50    2.80
   1   6  -9   26.10    4.00
   1   6  -9   33.10    4.30
   1   6  -9   34.60    3.80
   0   6  -9   48.40    4.60
   0   6  -9   35.30    4.50
   0   6  -9   36.60    4.30
   0   6  -9   43.20    4.70
   0  -6   9   34.30    3.50
  -1   6  -9    1.40    2.00
  -1   6  -9   -2.10    2.10
  -1   6  -9   -0.50    1.20
  -1   6  -9   -0.60    2.10
  -1   6  -9   -2.00    1.80
   1  -6   9   -3.60    1.20
   1  -6   9    1.30    2.00
  -2   6  -9    0.10    1.40
  -2   6  -9    1.50    2.30
  -2   6  -9   -1.00    2.30
  -2   6  -9    4.10    2.40
  -2   6  -9    3.60    2.20
   2  -6   9    0.00    2.10
   2  -6   9   -0.40    1.50
  -3   6  -9  107.39    9.10
  -3   6  -9  136.19    9.60
  -3   6  -9  101.69    8.10
  -3   6  -9  113.49    8.80
   3  -6   9  100.69    8.20
  -4   6  -9    7.20    3.00
  -4   6  -9    4.70    2.50
  -4   6  -9    6.60    2.30
  -4   6  -9   -1.40    2.50
   4  -6   9    7.20    2.20
  -5   6  -9    5.30    3.30
  -5   6  -9    5.70    2.60
  -5   6  -9    0.60    2.90
  -5   6  -9    2.80    2.50
   5  -6   9    3.20    2.30
  -6   6  -9    3.70    3.30
  -6   6  -9   -1.40    2.40
  -6   6  -9   -2.00    3.10
   6  -6   9    3.50    2.40
  -7   6  -9   18.60    3.90
  -7   6  -9   17.20    4.60
  -7   6  -9   20.30    4.60
   7  -6   9   17.50    3.50
  -8   6  -9    2.60    3.20
  -8   6  -9    7.50    4.40
  -9   6  -9   21.90    4.70
   8   5  -9   75.29    7.90
   8   5  -9   71.29    6.90
   8   5  -9   72.29    7.50
   7   5  -9    6.30    3.60
   7   5  -9   -2.50    2.70
   7   5  -9    0.10    2.20
   6   5  -9    5.80    2.70
   6   5  -9   13.10    2.80
   6   5  -9    8.50    3.70
   6   5  -9   12.80    3.10
   5   5  -9   77.59    7.20
   5   5  -9   85.69    6.60
   5   5  -9   78.99    7.80
   5   5  -9   87.49    8.30
   5   5  -9   77.69    7.10
   4   5  -9   29.20    4.60
   4   5  -9   17.20    3.60
   4   5  -9   25.50    3.40
   4   5  -9   24.60    4.20
   4   5  -9   22.40    3.00
   3   5  -9   14.30    3.00
   3   5  -9   12.30    3.20
   3   5  -9   11.20    3.20
   3   5  -9    7.80    1.90
   2   5  -9    0.20    2.10
   2   5  -9    1.20    2.60
   2   5  -9    3.60    2.60
   2   5  -9    1.40    1.60
   1   5  -9   34.20    3.60
   1   5  -9   30.70    4.10
   1   5  -9   34.30    4.20
   1   5  -9   35.00    4.40
   0   5  -9   17.10    2.90
   0   5  -9   19.60    3.30
   0   5  -9   15.40    2.70
   0   5  -9   18.50    3.30
   0  -5   9   16.00    2.10
  -1   5  -9  359.06   23.40
  -1   5  -9  352.86   23.40
  -1   5  -9  355.76   22.40
  -1   5  -9  372.06   23.30
  -1   5  -9  337.07   23.30
   1  -5   9  368.96   23.70
   1  -5   9  352.76   22.70
  -2   5  -9    0.90    2.00
  -2   5  -9    1.00    2.20
  -2   5  -9   -0.20    1.90
  -2   5  -9    0.00    1.30
  -2   5  -9    0.20    2.10
   2  -5   9    0.70    2.00
   2  -5   9   -0.20    1.40
  -3   5  -9    1.50    1.70
  -3   5  -9    1.70    2.40
  -3   5  -9   -2.10    2.00
  -3   5  -9    0.80    2.20
  -3   5  -9    3.60    2.20
   3  -5   9    5.90    2.40
   3  -5   9    1.30    1.70
  -4   5  -9    1.30    2.50
  -4   5  -9    1.70    2.20
  -4   5  -9   -0.50    1.90
  -4   5  -9    1.70    2.20
  -4   5  -9    2.60    2.60
   4  -5   9    4.70    2.50
   4  -5   9    6.40    2.20
  -5   5  -9    7.10    3.10
  -5   5  -9    2.40    2.40
  -5   5  -9    6.50    2.90
  -5   5  -9    5.30    2.50
   5  -5   9    0.30    2.10
  -6   5  -9    5.30    3.20
  -6   5  -9    1.50    2.50
  -6   5  -9    2.60    3.30
   6  -5   9    4.00    2.50
  -7   5  -9   34.30    5.30
  -7   5  -9   31.50    5.60
  -7   5  -9   38.10    4.90
   7  -5   9   34.50    4.60
  -8   5  -9   22.90    4.90
  -8   5  -9   25.70    5.30
  -8   5  -9   16.90    4.10
   8  -5   9   18.60    3.80
  -9   5  -9   12.50    4.10
   9   4  -9    3.00    2.80
   9   4  -9    3.80    3.40
   8   4  -9    2.50    3.40
   8   4  -9    1.80    2.40
   8   4  -9   -1.10    3.10
   7   4  -9   21.00    4.30
   7   4  -9   18.00    3.80
   7   4  -9   18.10    3.10
   6   4  -9   22.00    4.60
   6   4  -9   26.30    3.90
   6   4  -9   25.00    4.30
   6   4  -9   22.00    3.70
   6   4  -9   19.40    2.90
   5   4  -9   23.90    3.70
   5   4  -9   19.30    2.70
   5   4  -9   15.30    3.70
   5   4  -9   18.60    4.10
   5   4  -9   21.70    3.50
   4   4  -9   34.50    4.40
   4   4  -9   35.50    4.00
   4   4  -9   37.60    3.60
   4   4  -9   40.10    5.10
   4   4  -9   27.70    4.50
   3   4  -9   24.40    2.80
   3   4  -9   11.60    2.90
   3   4  -9   13.00    3.20
   3   4  -9   10.60    2.90
   3   4  -9   11.40    1.90
   2   4  -9  125.29    9.70
   2   4  -9  118.59    8.60
   2   4  -9  134.19    9.70
   2   4  -9  141.69    9.70
   1   4  -9  415.46   25.90
   1   4  -9  392.26   25.80
   1   4  -9  390.96   25.80
   1   4  -9  391.06   25.10
   0   4  -9  314.87   20.90
   0   4  -9  332.27   21.00
   0   4  -9  316.17   21.00
   0   4  -9  290.97   20.50
   0  -4   9  330.57   21.20
   0  -4   9  332.87   20.20
  -1   4  -9    0.10    0.90
  -1   4  -9    1.90    1.70
  -1   4  -9   -5.10    1.70
  -1   4  -9    2.20    2.20
  -1   4  -9   -2.30    1.60
   1  -4   9    0.00    1.80
   1  -4   9    1.30    1.30
  -2   4  -9  306.67   21.20
  -2   4  -9  347.17   21.40
  -2   4  -9  315.07   21.40
  -2   4  -9  318.57   20.50
  -2   4  -9  314.27   21.20
   2  -4   9  341.37   21.50
   2  -4   9  320.87   20.70
  -3   4  -9    6.30    2.60
  -3   4  -9    7.70    1.90
  -3   4  -9    7.20    2.60
  -3   4  -9    3.20    2.20
  -3   4  -9    7.50    2.50
   3  -4   9   11.10    2.70
   3  -4   9    5.60    1.80
  -4   4  -9  144.69   10.60
  -4   4  -9  136.49   11.10
  -4   4  -9  141.69   10.30
  -4   4  -9  168.48   11.40
  -4   4  -9  145.19   10.40
   4  -4   9  144.59   10.20
   4  -4   9  137.89   10.90
  -5   4  -9    2.60    2.20
  -5   4  -9   -0.50    2.60
  -5   4  -9    0.70    2.70
  -5   4  -9    4.50    2.20
   5  -4   9    0.80    1.90
   5  -4   9    1.80    2.50
  -6   4  -9  187.68   13.20
  -6   4  -9  160.98   12.10
  -6   4  -9  170.18   13.30
   6  -4   9  160.28   12.10
  -7   4  -9    7.20    3.50
  -7   4  -9   -2.00    2.60
  -7   4  -9    7.20    3.80
   7  -4   9    4.60    2.60
  -8   4  -9   77.19    7.70
  -8   4  -9   71.29    8.70
  -8   4  -9   87.79    8.60
   8  -4   9   81.49    7.50
  -9   4  -9  113.79   10.20
 -10   4  -9   46.50    6.40
   9   3  -9   60.39    6.40
   9   3  -9   51.79    6.60
   9   3  -9   60.29    6.80
   8   3  -9   10.60    3.80
   8   3  -9   11.90    3.70
   8   3  -9   11.10    2.90
   7   3  -9  140.79   10.70
   7   3  -9  138.99   11.00
   7   3  -9  129.59    9.90
   6   3  -9   84.19    7.80
   6   3  -9   64.69    6.60
   6   3  -9   71.09    6.20
   6   3  -9   88.09    7.60
   6   3  -9   89.09    7.30
   5   3  -9   62.59    6.30
   5   3  -9   60.19    5.70
   5   3  -9   58.29    4.80
   5   3  -9   58.49    5.80
   5   3  -9   53.99    6.20
   4   3  -9  158.58   11.80
   4   3  -9  187.28   11.60
   4   3  -9  162.28   12.10
   4   3  -9  174.78   12.20
   4   3  -9  152.68   10.70
   3   3  -9  455.15   30.40
   3   3  -9  465.45   30.40
   3   3  -9  475.45   29.80
   3   3  -9  455.55   29.30
   3   3  -9  506.95   30.40
   2   3  -9  123.89    8.70
   2   3  -9  104.99    7.30
   2   3  -9  108.09    8.50
   2   3  -9  116.19    8.60
   1   3  -9    2.10    2.20
   1   3  -9    1.70    1.90
   1   3  -9    1.40    1.10
   1   3  -9    0.70    2.00
   0   3  -9   66.19    5.70
   0   3  -9   61.19    5.50
   0   3  -9   56.19    5.30
   0   3  -9   55.79    4.70
   0  -3   9   61.99    4.40
   0  -3   9   66.89    5.60
  -1   3  -9    3.80    2.10
  -1   3  -9    4.30    2.10
  -1   3  -9    2.30    1.60
  -1   3  -9    4.50    2.10
  -1   3  -9    1.90    0.80
  -1   3  -9    1.50    2.10
   1  -3   9   -0.10    1.70
   1  -3   9    0.80    1.00
  -2   3  -9    5.90    2.10
  -2   3  -9    3.90    2.20
  -2   3  -9    2.10    1.80
  -2   3  -9    4.50    1.30
  -2   3  -9    4.90    2.20
   2  -3   9    6.00    2.10
   2  -3   9    2.90    1.40
  -3   3  -9   30.90    3.80
  -3   3  -9   33.30    4.20
  -3   3  -9   31.40    3.80
  -3   3  -9   28.20    3.10
  -3   3  -9   29.90    3.60
   3  -3   9   32.80    3.30
   3  -3   9   29.10    3.90
  -4   3  -9   65.49    6.70
  -4   3  -9   73.39    6.70
  -4   3  -9   70.89    6.10
  -4   3  -9   73.59    5.90
   4  -3   9   72.79    6.60
   4  -3   9   75.99    6.00
  -5   3  -9    3.40    2.20
  -5   3  -9   -0.60    2.40
  -5   3  -9   -1.60    2.40
   5  -3   9    1.20    2.10
   5  -3   9    2.30    2.00
  -6   3  -9   96.79    8.80
  -6   3  -9   93.69    7.70
  -6   3  -9   83.69    8.30
   6  -3   9   95.69    7.70
  -7   3  -9  127.09   10.40
  -7   3  -9  102.09   10.30
  -7   3  -9  127.09    9.90
   7  -3   9  134.89    9.60
  -8   3  -9   62.69    7.40
  -8   3  -9   80.59    7.60
  -8   3  -9   84.59    8.80
   8  -3   9   64.39    6.80
  -9   3  -9    5.00    3.60
  -9   3  -9    1.30    3.10
   9  -3   9    4.90    3.60
 -10   3  -9   44.90    6.30
   9   2  -9  107.19    9.00
   9   2  -9   99.19    9.60
   9   2  -9  116.89    9.80
   8   2  -9  192.08   14.80
   8   2  -9  228.38   15.70
   8   2  -9  237.28   15.80
   7   2  -9   25.10    4.20
   7   2  -9   20.10    3.10
   7   2  -9   19.80    3.90
   6   2  -9  217.38   14.90
   6   2  -9  236.88   15.80
   6   2  -9  226.98   16.10
   6   2  -9  227.18   16.20
   6   2  -9  228.38   15.70
   5   2  -9  245.28   17.40
   5   2  -9  241.68   17.10
   5   2  -9  242.48   17.00
   5   2  -9  257.97   16.30
   5   2  -9  272.27   17.70
   4   2  -9   56.69    5.90
   4   2  -9   52.19    5.20
   4   2  -9   61.39    4.40
   4   2  -9   60.69    5.60
   4   2  -9   62.19    5.90
   3   2  -9    9.80    2.20
   3   2  -9   11.60    2.80
   3   2  -9    6.20    2.70
   3   2  -9   11.20    2.80
  -3  -2   9   13.30    1.80
   2   2  -9   40.30    4.50
   2   2  -9   43.00    3.80
   2   2  -9   43.30    4.50
   2   2  -9   33.10    4.10
   1   2  -9   12.00    2.50
   1   2  -9    4.90    2.20
   1   2  -9    8.30    1.30
   1   2  -9   10.60    2.60
  -1  -2   9    6.80    2.10
   0   2  -9   30.80    3.90
   0   2  -9   36.20    3.90
   0   2  -9   37.60    4.10
   0   2  -9   33.00    3.20
   0  -2   9   37.30    3.90
   0  -2   9   39.70    3.20
  -1   2  -9  250.57   17.50
  -1   2  -9  257.57   17.60
  -1   2  -9  297.07   17.40
  -1   2  -9  263.17   17.70
   1  -2   9  261.07   16.90
   1  -2   9  267.87   17.70
  -2   2  -9  337.07   21.30
  -2   2  -9  332.07   20.50
  -2   2  -9  311.27   21.00
  -2   2  -9  320.87   21.10
  -2   2  -9  306.27   21.30
  -2   2  -9  322.47   20.90
   2  -2   9  335.07   20.60
   2  -2   9  329.37   21.30
  -3   2  -9   39.30    4.00
  -3   2  -9   42.50    3.70
  -3   2  -9   33.50    4.20
  -3   2  -9   40.30    4.40
   3  -2   9   45.00    4.70
   3  -2   9   36.00    3.60
  -4   2  -9  444.26   28.00
  -4   2  -9  452.45   28.10
  -4   2  -9  466.95   28.80
  -4   2  -9  411.66   28.50
   4  -2   9  431.66   28.00
   4  -2   9  432.26   28.60
  -5   2  -9  259.07   19.00
  -5   2  -9  278.67   18.40
  -5   2  -9  255.07   19.00
   5  -2   9  313.27   19.10
   5  -2   9  288.47   18.40
  -6   2  -9  199.58   14.80
  -6   2  -9  201.18   14.20
  -6   2  -9  215.78   15.20
   6  -2   9  201.58   14.10
  -7   2  -9   11.50    3.50
  -7   2  -9   10.40    3.10
  -7   2  -9    7.70    3.70
   7  -2   9   16.80    3.20
  -8   2  -9   63.79    7.30
  -8   2  -9   60.79    7.90
  -8   2  -9   78.39    7.20
   8  -2   9   81.69    7.10
  -9   2  -9   -1.10    2.80
  -9   2  -9   -1.80    3.00
   9  -2   9    0.50    2.70
 -10   2  -9    7.10    3.70
   9   1  -9   -4.00    3.20
   9   1  -9    1.30    3.20
   9   1  -9    0.70    2.40
   8   1  -9   -0.70    2.80
   8   1  -9    1.10    2.40
   8   1  -9   -0.70    3.10
   7   1  -9   73.29    6.20
   7   1  -9   67.99    6.90
   7   1  -9   66.99    7.10
   6   1  -9   62.99    6.70
   6   1  -9   64.49    6.60
   6   1  -9   72.39    6.40
   6   1  -9   59.19    5.20
   6   1  -9   58.39    5.90
   5   1  -9    3.00    2.20
   5   1  -9    1.60    2.60
   5   1  -9    5.30    2.80
   5   1  -9    4.80    1.50
   5   1  -9    5.80    2.50
   4   1  -9   10.40    2.90
   4   1  -9    6.20    2.10
   4   1  -9    7.80    2.40
   4   1  -9    4.90    1.20
   4   1  -9    4.60    2.60
   3   1  -9    4.80    2.30
   3   1  -9    6.80    2.40
   3   1  -9    5.40    2.30
   3   1  -9    3.20    1.80
   2   1  -9   43.90    4.60
   2   1  -9   44.70    4.60
   2   1  -9   41.40    4.00
   2   1  -9   44.70    4.50
  -2  -1   9   46.90    4.20
  -2  -1   9   42.80    3.50
   1   1  -9  218.48   15.00
   1   1  -9  225.08   15.10
   1   1  -9  215.18   15.00
   1   1  -9  230.28   14.10
  -1  -1   9  223.98   14.90
   0   1  -9  496.15   31.90
   0   1  -9  518.05   31.40
   0   1  -9  509.35   32.10
   0   1  -9  487.05   32.00
   0  -1   9  482.75   31.90
   0  -1   9  520.25   31.30
  -1   1  -9   -1.00    1.70
  -1   1  -9    2.20    1.70
  -1   1  -9   -0.20    1.70
  -1   1  -9   -0.10    1.20
   1  -1   9    2.30    1.10
   1  -1   9   -1.00    1.40
  -2   1  -9  618.34   38.60
  -2   1  -9  638.34   38.80
  -2   1  -9  564.94   38.70
  -2   1  -9  639.04   38.20
   2  -1   9  593.74   38.30
   2  -1   9  646.34   39.10
  -3   1  -9  155.88   10.70
  -3   1  -9  162.48   11.00
  -3   1  -9  150.68   10.40
  -3   1  -9  145.39   11.20
   3  -1   9  162.88   10.50
   3  -1   9  151.18   11.10
  -4   1  -9  134.29   10.10
  -4   1  -9  158.68   11.00
  -4   1  -9  155.78   10.30
  -4   1  -9  160.98   10.40
  -4   1  -9  148.49   10.90
   4  -1   9  134.89   10.80
   4  -1   9  142.79   10.10
  -5   1  -9    4.20    2.50
  -5   1  -9    1.50    1.70
  -5   1  -9   -0.50    2.10
  -5   1  -9    1.70    1.90
   5  -1   9    0.50    1.70
   5  -1   9    1.50    2.00
  -6   1  -9   14.00    3.50
  -6   1  -9   11.10    3.20
  -6   1  -9   12.40    2.80
  -6   1  -9   10.60    2.80
   6  -1   9   10.30    2.60
   6  -1   9   13.10    3.30
  -7   1  -9    8.80    2.90
  -7   1  -9    6.40    3.30
  -7   1  -9    4.60    2.90
   7  -1   9    7.80    2.60
  -8   1  -9   18.60    4.10
  -8   1  -9   28.00    5.20
  -8   1  -9   22.70    4.30
   8  -1   9   16.60    3.50
  -9   1  -9   18.90    4.10
  -9   1  -9   18.90    4.30
   9  -1   9   14.60    3.60
 -10   1  -9   65.09    7.60
   9   0  -9   58.99    6.50
   9   0  -9   60.69    6.80
   9   0  -9   62.29    7.00
   8   0  -9   12.60    3.80
   8   0  -9   14.50    3.20
   8   0  -9   11.80    3.60
   7   0  -9   74.89    7.20
   7   0  -9   77.09    7.20
   7   0  -9   69.39    6.20
   6   0  -9   67.69    6.80
   6   0  -9   80.19    7.30
   6   0  -9   90.49    7.20
   6   0  -9   71.89    7.10
   6   0  -9   78.09    6.10
  -6   0   9   72.29    6.10
   5   0  -9   22.80    2.90
   5   0  -9   22.00    3.90
   5   0  -9   18.10    3.20
   5   0  -9   26.80    2.70
   5   0  -9   19.00    3.80
   5   0  -9   22.40    3.40
  -5   0   9   23.00    2.80
   4   0  -9  455.95   27.50
   4   0  -9  424.06   26.90
   4   0  -9  433.36   28.10
   4   0  -9  440.36   27.80
   4   0  -9  419.76   27.90
   4   0  -9  428.76   28.10
  -4   0   9  426.16   27.40
   3   0  -9  631.84   39.00
   3   0  -9  622.64   39.40
   3   0  -9  609.44   39.30
   3   0  -9  629.04   38.70
   3   0  -9  607.54   39.30
  -3   0   9  615.14   38.70
   2   0  -9  742.33   46.90
   2   0  -9  761.12   46.50
   2   0  -9  728.03   47.00
   2   0  -9  743.93   47.00
   2   0  -9  749.62   46.30
  -2   0   9  743.23   46.60
  -2   0   9  752.12   46.30
   1   0  -9  158.58   10.30
   1   0  -9  154.78   11.00
   1   0  -9  159.68   11.00
   1   0  -9  155.48   11.00
   1   0  -9  156.88   10.00
  -1   0   9  159.08   10.70
   0   0  -9  294.47   18.80
   0   0  -9  285.97   18.90
   0   0  -9  297.17   18.20
   0   0  -9  288.77   18.80
   0   0   9  280.47   18.70
   0   0   9  280.17   18.00
  -1   0  -9  466.75   29.80
  -1   0  -9  459.25   29.70
  -1   0  -9  477.15   29.50
  -1   0  -9  448.86   29.30
   1   0   9  457.25   29.00
   1   0   9  493.95   29.80
  -2   0  -9   32.40    3.30
  -2   0  -9   33.20    2.90
  -2   0  -9   35.20    3.60
  -2   0  -9   27.30    3.40
   2   0   9   29.80    2.90
   2   0   9   32.30    3.70
  -3   0  -9  144.69    9.80
  -3   0  -9  124.69    9.90
  -3   0  -9  144.89    9.70
  -3   0  -9  130.09    9.30
   3   0   9  142.29    9.50
   3   0   9  151.98   10.20
  -4   0  -9  190.98   13.60
  -4   0  -9  202.38   13.00
  -4   0  -9  181.18   13.00
  -4   0  -9  179.38   13.10
  -4   0  -9  193.08   13.60
   4   0   9  203.68   13.00
   4   0   9  215.48   13.70
  -5   0  -9   -2.60    1.60
  -5   0  -9    4.20    2.40
  -5   0  -9    0.20    1.80
  -5   0  -9    0.10    2.30
   5   0   9    0.60    2.20
   5   0   9    0.20    1.70
  -6   0  -9  272.57   18.30
  -6   0  -9  274.17   17.80
  -6   0  -9  237.38   17.50
  -6   0  -9  246.28   18.50
   6   0   9  277.87   18.30
   6   0   9  282.97   17.70
  -7   0  -9   64.29    7.10
  -7   0  -9   72.19    8.00
  -7   0  -9   85.69    7.30
   7   0   9   84.29    6.80
  -8   0  -9  223.48   18.10
  -8   0  -9  287.37   18.60
  -8   0  -9  289.27   19.60
   8   0   9  255.37   18.00
  -9   0  -9    0.20    3.10
   9   0   9    3.10    2.70
 -10   0  -9  160.48   12.90
   9  -1  -9   13.30    4.10
   9  -1  -9   13.20    3.60
   9  -1  -9   16.30    4.20
   8  -1  -9  107.89    9.40
   8  -1  -9  112.69    9.40
   8  -1  -9  103.49    8.80
   7  -1  -9   11.20    2.60
   7  -1  -9    9.90    3.40
   7  -1  -9    4.80    3.00
   7  -1  -9    5.20    2.70
   7  -1  -9    7.70    2.60
   6  -1  -9  229.98   16.40
   6  -1  -9  238.78   16.70
   6  -1  -9  240.08   16.50
   6  -1  -9  232.88   16.60
   6  -1  -9  235.48   15.80
   6  -1  -9  253.27   16.10
   5  -1  -9  118.19    8.80
   5  -1  -9  114.89    8.00
   5  -1  -9  112.99    9.10
   5  -1  -9  113.49    9.00
   5  -1  -9  109.59    8.90
   4  -1  -9   90.89    7.40
   4  -1  -9   82.99    7.40
   4  -1  -9   97.39    7.40
   4  -1  -9   93.39    7.20
   4  -1  -9   89.39    6.30
   3  -1  -9    1.20    2.10
   3  -1  -9   -1.30    1.70
   3  -1  -9    0.90    0.90
   3  -1  -9    1.20    2.00
   3  -1  -9    0.50    1.70
   2  -1  -9   28.10    3.50
   2  -1  -9   24.10    3.40
   2  -1  -9   22.10    3.30
   2  -1  -9   27.30    2.90
  -2   1   9   24.90    3.20
   1  -1  -9    8.50    2.40
   1  -1  -9    8.40    1.30
   1  -1  -9    9.00    2.30
   1  -1  -9    7.00    2.10
  -1   1   9    8.60    1.70
   0  -1  -9  522.95   33.40
   0  -1  -9  512.65   33.50
   0  -1  -9  538.85   33.00
   0  -1  -9  500.75   33.50
   0   1   9  536.45   33.40
   0   1   9  535.75   32.70
   0   1   9  546.55   33.10
  -1  -1  -9    4.00    1.50
  -1  -1  -9    7.70    1.90
  -1  -1  -9    5.80    0.90
  -1  -1  -9    5.10    1.90
   1   1   9    8.60    1.90
   1   1   9    5.30    1.30
  -2  -1  -9  424.76   26.70
  -2  -1  -9  432.06   26.80
  -2  -1  -9  412.16   26.20
  -2  -1  -9  428.16   26.40
  -2  -1  -9  415.46   26.70
   2   1   9  401.66   26.80
   2   1   9  416.66   26.30
  -3  -1  -9  130.39   10.30
  -3  -1  -9  143.49   10.00
  -3  -1  -9  150.18   10.20
  -3  -1  -9  149.39    9.80
   3   1   9  141.89    9.80
   3   1   9  159.18   10.40
  -4  -1  -9  177.48   11.20
  -4  -1  -9  141.39   11.80
  -4  -1  -9  177.98   11.60
  -4  -1  -9  169.88   11.40
   4   1   9  165.38   11.30
   4   1   9  168.48   11.90
  -5  -1  -9   28.70    3.60
  -5  -1  -9   26.50    3.60
  -5  -1  -9   40.30    4.70
   5   1   9   34.70    4.20
   5   1   9   27.20    3.50
  -6  -1  -9   94.09    8.90
  -6  -1  -9  119.89    8.30
  -6  -1  -9  113.39    8.40
   6   1   9  103.79    8.10
   6   1   9   91.39    8.40
  -7  -1  -9   10.90    3.60
  -7  -1  -9   11.80    3.00
   7   1   9    7.00    2.40
  -8  -1  -9   37.60    5.90
  -8  -1  -9   33.00    4.90
   8   1   9   42.20    4.80
  -9  -1  -9   -0.60    2.90
   9   1   9   -0.70    2.60
 -10  -1  -9    7.40    3.80
   9  -2  -9    5.90    3.10
   9  -2  -9    0.60    3.10
   9  -2  -9    0.60    3.30
   8  -2  -9   16.70    4.10
   8  -2  -9   16.00    3.50
   8  -2  -9   15.00    4.00
   7  -2  -9   97.89    8.40
   7  -2  -9   91.69    7.70
   7  -2  -9   90.19    8.40
   6  -2  -9   51.29    5.60
   6  -2  -9   58.89    6.10
   6  -2  -9   50.29    5.00
   6  -2  -9   51.29    5.50
   6  -2  -9   52.99    5.60
   5  -2  -9   25.10    4.10
   5  -2  -9   29.00    4.10
   5  -2  -9   33.20    4.10
   5  -2  -9   33.80    3.40
   5  -2  -9   29.30    4.00
   4  -2  -9  343.17   22.80
   4  -2  -9  343.97   22.80
   4  -2  -9  355.56   23.00
   4  -2  -9  354.56   22.70
   4  -2  -9  344.97   22.10
   3  -2  -9    8.50    2.50
   3  -2  -9    5.60    1.30
   3  -2  -9    4.90    2.30
   3  -2  -9    6.80    2.00
   3  -2  -9    8.30    2.50
   2  -2  -9  702.73   43.50
   2  -2  -9  727.73   43.60
   2  -2  -9  688.83   44.30
   2  -2  -9  674.83   44.20
   2  -2  -9  715.93   44.30
   1  -2  -9   95.19    7.00
   1  -2  -9   86.99    6.80
   1  -2  -9   88.59    6.90
   1  -2  -9   87.19    6.10
   1  -2  -9   97.59    6.30
  -1   2   9   86.49    6.30
  -1   2   9   89.29    6.50
  -1   2   9   82.89    6.40
  -1   2   9   86.99    6.30
   0  -2  -9  253.57   16.90
   0  -2  -9  251.47   17.10
   0  -2  -9  265.97   17.10
   0  -2  -9  272.27   16.60
   0   2   9  255.07   16.30
   0   2   9  256.77   16.60
   0   2   9  255.77   16.80
  -1  -2  -9   51.69    4.30
  -1  -2  -9   42.70    4.40
  -1  -2  -9   45.90    4.20
  -1  -2  -9   49.30    3.50
   1   2   9   42.30    4.20
   1   2   9   54.09    3.80
  -2  -2  -9   22.20    3.10
  -2  -2  -9   30.80    3.40
  -2  -2  -9   33.70    3.60
  -2  -2  -9   26.70    2.90
  -2  -2  -9   27.10    2.70
   2   2   9   28.90    2.80
   2   2   9   29.60    3.30
  -3  -2  -9  232.28   15.20
  -3  -2  -9  221.98   14.90
  -3  -2  -9  224.78   14.70
  -3  -2  -9  211.48   14.60
   3   2   9  222.78   14.60
   3   2   9  232.88   15.20
  -4  -2  -9   51.09    4.30
  -4  -2  -9   46.60    4.60
  -4  -2  -9   46.20    5.10
  -4  -2  -9   46.80    4.50
   4   2   9   43.40    4.30
   4   2   9   54.69    5.00
  -5  -2  -9   26.90    3.60
  -5  -2  -9   33.20    3.70
  -5  -2  -9   37.00    4.50
   5   2   9   22.90    3.70
   5   2   9   30.60    3.50
  -6  -2  -9   20.70    4.00
  -6  -2  -9   21.30    3.50
  -6  -2  -9   29.30    4.50
   6   2   9   19.80    3.20
   6   2   9   25.00    3.80
  -7  -2  -9   12.00    3.70
  -7  -2  -9    8.10    3.00
   7   2   9    8.40    2.60
  -8  -2  -9    9.90    3.90
  -8  -2  -9    3.50    2.90
   8   2   9    3.10    2.50
  -9  -2  -9   24.90    4.70
   9   2   9   34.80    4.80
 -10  -2  -9    0.30    3.50
   9  -3  -9   13.70    3.80
   9  -3  -9   11.40    3.80
   8  -3  -9   31.40    4.90
   8  -3  -9   30.10    4.60
   8  -3  -9   38.80    5.20
   7  -3  -9   -3.20    2.70
   7  -3  -9   -2.20    2.60
   7  -3  -9   -1.80    2.20
   6  -3  -9   35.00    4.50
   6  -3  -9   29.40    4.30
   6  -3  -9   29.20    4.60
   6  -3  -9   35.60    4.00
   5  -3  -9   49.10    4.80
   5  -3  -9   55.39    5.50
   5  -3  -9   50.09    5.30
   5  -3  -9   53.39    5.50
   5  -3  -9   51.09    5.60
   4  -3  -9    5.70    2.30
   4  -3  -9    5.20    1.80
   4  -3  -9    2.90    2.30
   4  -3  -9    1.90    2.30
   3  -3  -9    7.90    2.50
   3  -3  -9    8.10    1.70
   3  -3  -9   10.20    2.40
   3  -3  -9    9.40    1.70
   3  -3  -9    6.60    2.50
  -3   3   9    8.30    2.10
   2  -3  -9   96.59    7.50
   2  -3  -9  103.29    7.70
   2  -3  -9  100.09    6.90
   2  -3  -9   87.39    7.50
   2  -3  -9   99.19    6.90
  -2   3   9  103.19    7.40
   1  -3  -9   55.49    4.70
   1  -3  -9   49.30    4.10
   1  -3  -9   53.29    4.80
   1  -3  -9   46.50    4.70
   1  -3  -9   43.60    4.10
  -1   3   9   54.59    4.10
  -1   3   9   51.49    3.70
  -1   3   9   56.49    4.50
   0  -3  -9  211.28   14.00
   0  -3  -9  196.08   13.50
   0  -3  -9  211.98   13.80
   0  -3  -9  206.18   13.90
   0  -3  -9  192.78   13.50
   0   3   9  217.88   13.60
   0   3   9  217.88   13.60
   0   3   9  203.58   13.20
  -1  -3  -9  245.28   19.00
  -1  -3  -9  301.87   19.00
  -1  -3  -9  317.57   19.30
  -1  -3  -9  311.57   19.30
  -1  -3  -9  305.97   18.60
   1   3   9  299.67   19.10
   1   3   9  296.57   18.80
   1   3   9  294.87   18.70
  -2  -3  -9    0.90    1.40
  -2  -3  -9    0.30    1.10
  -2  -3  -9    1.20    1.70
  -2  -3  -9    1.90    1.60
  -2  -3  -9    1.20    1.70
   2   3   9    3.00    1.40
   2   3   9    1.00    1.60
  -3  -3  -9  190.18   12.80
  -3  -3  -9  195.28   12.80
  -3  -3  -9  196.58   13.40
  -3  -3  -9  203.58   13.20
   3   3   9  186.98   13.10
   3   3   9  183.78   12.70
  -4  -3  -9   15.40    2.60
  -4  -3  -9   15.80    3.10
  -4  -3  -9   15.70    3.00
  -4  -3  -9   11.00    2.30
   4   3   9   10.90    2.60
   4   3   9   13.20    2.30
  -5  -3  -9   21.90    3.80
  -5  -3  -9   18.80    3.00
  -5  -3  -9   18.10    2.90
   5   3   9   16.70    2.80
   5   3   9   18.00    3.20
  -6  -3  -9    6.10    2.90
  -6  -3  -9    1.20    2.20
   6   3   9    2.60    2.00
   6   3   9    0.40    2.20
  -7  -3  -9   72.99    7.30
  -7  -3  -9   94.89    8.40
   7   3   9   83.29    7.20
  -8  -3  -9   -1.50    2.80
  -8  -3  -9   -0.10    3.30
   8   3   9    2.40    2.30
  -9  -3  -9   -2.00    3.00
   9   3   9   -2.80    2.40
 -10  -3  -9    5.70    3.60
   9  -4  -9    3.80    3.20
   9  -4  -9    3.70    3.30
  -9   4   9    0.10    3.10
   8  -4  -9    2.50    2.80
   8  -4  -9   -1.00    2.80
  -8   4   9    1.10    2.80
   7  -4  -9   37.60    4.70
   7  -4  -9   31.70    5.00
  -7   4   9   33.70    4.80
   6  -4  -9    0.60    2.40
   6  -4  -9    0.10    2.70
   6  -4  -9    0.00    2.10
  -6   4   9   -2.80    2.30
   5  -4  -9   31.70    4.00
   5  -4  -9   25.90    3.60
   5  -4  -9   28.30    4.30
  -5   4   9   28.30    4.10
   4  -4  -9   -3.20    1.80
   4  -4  -9    0.40    1.40
   4  -4  -9    2.70    2.40
   4  -4  -9   -0.30    1.60
   4  -4  -9    3.00    2.40
  -4   4   9   -0.20    2.00
   3  -4  -9    1.80    1.40
   3  -4  -9    1.10    2.10
   3  -4  -9    1.60    1.30
   3  -4  -9    1.70    2.00
   3  -4  -9    4.30    2.30
  -3   4   9    1.30    1.90
   2  -4  -9   50.69    4.60
   2  -4  -9   60.29    5.40
   2  -4  -9   51.69    5.20
   2  -4  -9   62.49    4.70
   2  -4  -9   56.29    5.00
  -2   4   9   58.79    5.10
   1  -4  -9  277.07   18.10
   1  -4  -9  290.87   18.10
   1  -4  -9  287.37   18.40
   1  -4  -9  269.27   18.40
   1  -4  -9  284.47   18.60
  -1   4   9  273.17   18.20
   0  -4  -9  518.65   33.40
   0  -4  -9  515.55   33.50
   0  -4  -9  525.55   33.20
   0  -4  -9  521.65   33.30
   0  -4  -9  546.25   33.50
   0   4   9  536.85   33.30
   0   4   9  539.25   32.90
   0   4   9  518.25   33.10
  -1  -4  -9  163.58   11.00
  -1  -4  -9  163.38   11.00
  -1  -4  -9  166.38   10.80
  -1  -4  -9  147.89   10.90
  -1  -4  -9  163.78   10.40
  -1  -4  -9  153.48   10.70
   1   4   9  151.88   10.50
   1   4   9  163.58   10.60
   1   4   9  154.18   10.70
  -2  -4  -9  490.75   32.40
  -2  -4  -9  497.85   32.50
  -2  -4  -9  583.44   32.90
  -2  -4  -9  502.45   32.20
  -2  -4  -9  517.65   32.20
   2   4   9  498.25   32.20
   2   4   9  509.15   32.10
   2   4   9  504.85   32.50
  -3  -4  -9   53.89    5.10
  -3  -4  -9   56.09    4.80
  -3  -4  -9   50.69    4.60
  -3  -4  -9   63.49    5.60
   3   4   9   48.00    5.00
   3   4   9   57.09    4.70
  -4  -4  -9  127.59    9.80
  -4  -4  -9  136.09    9.10
  -4  -4  -9  126.09    9.20
   4   4   9  108.19    9.20
   4   4   9  122.59    8.90
  -5  -4  -9    7.80    2.30
  -5  -4  -9    3.40    2.00
  -5  -4  -9    4.20    2.80
   5   4   9    8.40    2.20
   5   4   9    6.10    2.40
  -6  -4  -9   24.80    4.50
  -6  -4  -9   21.70    3.60
   6   4   9   18.10    3.50
   6   4   9   18.80    3.20
  -7  -4  -9   36.70    5.40
  -7  -4  -9   30.60    4.50
   7   4   9   36.00    4.30
  -8  -4  -9    4.00    3.00
   8   4   9    3.40    2.70
  -9  -4  -9   -0.60    2.80
   9   4   9   -3.00    2.50
 -10  -4  -9    7.80    3.80
   9  -5  -9   33.20    5.40
   9  -5  -9   44.90    5.90
  -9   5   9   35.20    5.50
   8  -5  -9    2.00    3.30
   8  -5  -9    2.90    3.10
  -8   5   9    0.50    3.10
   7  -5  -9   33.20    4.60
   7  -5  -9   30.20    4.90
  -7   5   9   26.60    4.60
   6  -5  -9    4.10    2.50
   6  -5  -9    2.20    2.90
  -6   5   9   -2.00    2.40
   5  -5  -9   28.10    3.70
   5  -5  -9   26.50    3.70
   5  -5  -9   26.80    4.20
  -5   5   9   25.40    4.00
   4  -5  -9   53.99    4.90
   4  -5  -9   50.09    5.10
   4  -5  -9   43.20    4.30
   4  -5  -9   43.70    4.70
  -4   5   9   50.99    5.10
   3  -5  -9  111.09    8.70
   3  -5  -9  124.39    9.20
   3  -5  -9  116.19    8.80
   3  -5  -9  132.99    8.60
  -3   5   9  122.09    9.00
   2  -5  -9  196.58   13.60
   2  -5  -9  197.68   13.60
   2  -5  -9  208.98   13.90
   2  -5  -9  208.18   13.30
   2  -5  -9  205.58   13.80
  -2   5   9  191.28   13.60
   1  -5  -9   76.79    6.00
   1  -5  -9   84.79    6.30
   1  -5  -9   86.69    6.70
   1  -5  -9   72.59    6.40
   1  -5  -9   72.09    6.20
  -1   5   9   84.79    6.40
   0  -5  -9   93.69    7.40
   0  -5  -9  105.09    7.70
   0  -5  -9  107.79    7.70
   0  -5  -9   98.69    7.40
   0  -5  -9   96.09    7.70
   0  -5  -9  100.09    7.60
   0   5   9  103.29    7.10
   0   5   9  104.69    7.50
  -1  -5  -9  218.88   14.10
  -1  -5  -9  219.28   13.80
  -1  -5  -9  183.48   14.30
  -1  -5  -9  211.28   14.10
  -1  -5  -9  210.78   14.20
  -1  -5  -9  228.68   14.30
   1   5   9  210.88   13.80
   1   5   9  225.48   14.00
   1   5   9  199.38   13.90
  -2  -5  -9   -1.00    1.80
  -2  -5  -9    1.80    1.70
  -2  -5  -9    2.70    1.50
  -2  -5  -9   -1.60    1.40
   2   5   9    1.10    1.60
   2   5   9    4.40    1.60
   2   5   9    1.70    1.40
  -3  -5  -9    7.70    2.20
  -3  -5  -9    7.50    2.60
  -3  -5  -9    8.60    2.10
   3   5   9   10.60    2.20
   3   5   9   11.70    2.40
   3   5   9   11.40    3.20
  -4  -5  -9   -1.80    1.70
  -4  -5  -9   -1.40    2.10
  -4  -5  -9   -0.30    1.70
   4   5   9   -1.60    1.80
   4   5   9    0.70    1.70
  -5  -5  -9    0.30    2.70
  -5  -5  -9    2.50    2.00
   5   5   9   -1.20    1.70
   5   5   9   -2.30    1.80
  -6  -5  -9    0.80    2.20
  -6  -5  -9    1.30    2.90
   6   5   9    0.10    2.10
   6   5   9    0.30    2.30
  -7  -5  -9   39.20    4.90
  -7  -5  -9   45.00    6.00
   7   5   9   38.40    4.70
  -8  -5  -9   11.50    3.50
   8   5   9   14.80    3.40
  -9  -5  -9   58.39    7.00
   9   5   9   70.29    6.90
 -10  -5  -9    3.80    3.40
  10   5   9    2.90    3.70
   9  -6  -9   13.50    4.20
   8  -6  -9   33.90    5.30
   8  -6  -9   42.10    5.60
  -8   6   9   33.40    5.30
   7  -6  -9   12.20    3.50
   7  -6  -9   10.40    3.70
  -7   6   9   11.90    3.50
   6  -6  -9   60.99    6.80
   6  -6  -9   70.09    6.80
  -6   6   9   73.29    7.00
   5  -6  -9    1.90    2.40
   5  -6  -9    3.70    2.80
   5  -6  -9    2.10    1.70
  -5   6   9   -2.50    2.10
   4  -6  -9  114.09    9.20
   4  -6  -9  113.59    8.90
   4  -6  -9  117.49    8.50
  -4   6   9  123.49    9.00
   3  -6  -9   31.00    3.50
   3  -6  -9   22.80    3.80
   3  -6  -9   28.10    2.70
   3  -6  -9   25.10    3.50
   3  -6  -9   24.80    3.10
  -3   6   9   27.30    3.70
   2  -6  -9   32.30    4.30
   2  -6  -9   37.00    4.10
   2  -6  -9   38.80    3.90
   2  -6  -9   33.10    3.60
  -2   6   9   36.40    4.10
   1  -6  -9  670.03   41.00
   1  -6  -9  629.14   40.90
   1  -6  -9  631.04   40.70
   1  -6  -9  637.44   40.70
  -1   6   9  667.13   40.90
   0  -6  -9   -0.90    1.50
   0  -6  -9    1.70    1.70
   0  -6  -9    0.20    1.60
   0  -6  -9    0.10    1.70
   0   6   9    2.80    1.70
   0   6   9   -0.70    1.30
  -1  -6  -9    1.80    1.70
  -1  -6  -9    7.50    1.80
  -1  -6  -9    5.80    1.80
  -1  -6  -9    3.10    1.90
  -1  -6  -9    9.70    2.40
   1   6   9    4.70    1.60
   1   6   9    3.70    1.80
  -2  -6  -9   24.70    3.30
  -2  -6  -9   25.90    3.30
  -2  -6  -9   28.40    3.90
  -2  -6  -9   28.90    3.20
  -2  -6  -9   27.60    3.10
   2   6   9   28.70    3.30
   2   6   9   23.00    3.00
   2   6   9   25.90    3.20
  -3  -6  -9    0.70    1.80
  -3  -6  -9    2.60    1.80
  -3  -6  -9    0.30    2.30
   3   6   9   -0.10    1.80
   3   6   9    2.70    1.70
   3   6   9    3.90    1.80
  -4  -6  -9   45.30    5.70
  -4  -6  -9   58.69    5.20
  -4  -6  -9   41.50    5.40
   4   6   9   51.59    4.90
   4   6   9   57.39    5.30
  -5  -6  -9    8.70    2.60
  -5  -6  -9    9.40    3.40
   5   6   9   14.30    3.10
   5   6   9   14.10    2.70
  -6  -6  -9   42.80    5.70
  -6  -6  -9   34.70    4.80
   6   6   9   44.70    4.80
  -7  -6  -9   22.00    4.70
  -7  -6  -9   23.90    4.20
   7   6   9   19.20    3.60
  -8  -6  -9    2.20    2.90
   8   6   9    6.80    2.80
  -9  -6  -9   33.70    5.50
   9   6   9   47.50    5.90
 -10  -6  -9    2.50    3.70
  10   6   9    1.10    3.30
   8  -7  -9   -0.40    3.20
   8  -7  -9    2.10    3.50
  -8   7   9   -0.20    3.00
   7  -7  -9   16.40    4.10
   7  -7  -9   19.80    4.20
  -7   7   9   13.40    3.60
   6  -7  -9    4.70    2.90
   6  -7  -9   -2.30    2.90
  -6   7   9    1.00    2.50
   5  -7  -9    6.00    2.20
   5  -7  -9    5.00    2.10
   5  -7  -9    5.80    2.80
   5  -7  -9   12.30    3.40
  -5   7   9    2.70    2.60
   4  -7  -9    6.50    2.90
   4  -7  -9   -0.60    1.70
   4  -7  -9    1.70    1.50
   4  -7  -9    2.50    2.20
  -4   7   9    0.80    2.40
   3  -7  -9  102.09    8.70
   3  -7  -9  109.99    8.20
  -3   7   9  125.09    8.90
   2  -7  -9    7.60    2.20
   2  -7  -9    6.70    2.20
   2  -7  -9    5.20    2.30
  -2   7   9    7.00    2.40
   1  -7  -9  118.69    8.30
   1  -7  -9  118.19    8.40
   1  -7  -9   99.59    8.70
  -1   7   9  119.09    8.60
  -1   7   9  112.19    8.00
   0  -7  -9   98.49    7.20
   0  -7  -9  100.29    7.20
   0  -7  -9   90.29    7.60
   0   7   9   84.19    7.20
   0   7   9   91.29    6.90
  -1  -7  -9  214.98   14.40
  -1  -7  -9  195.78   13.80
  -1  -7  -9  206.18   13.90
  -1  -7  -9  198.28   13.70
   1   7   9  206.98   13.70
   1   7   9  206.88   13.90
  -2  -7  -9  119.89    8.60
  -2  -7  -9   97.59    9.00
  -2  -7  -9  122.69    8.70
  -2  -7  -9  122.29    8.60
   2   7   9  117.49    8.60
   2   7   9  117.19    8.40
  -3  -7  -9    1.20    1.90
  -3  -7  -9    2.20    2.50
  -3  -7  -9    3.60    1.90
   3   7   9    2.50    1.90
   3   7   9    1.80    1.80
  -4  -7  -9   23.60    3.40
  -4  -7  -9   18.40    3.90
   4   7   9   20.90    3.10
   4   7   9   18.10    3.10
  -5  -7  -9    0.20    2.20
  -5  -7  -9    1.00    2.80
   5   7   9    3.60    3.20
   5   7   9    1.30    2.10
  -6  -7  -9    0.00    2.30
  -6  -7  -9    3.70    3.30
   6   7   9    0.70    2.10
  -7  -7  -9  112.89    9.50
   7   7   9  114.49    9.30
  -8  -7  -9   17.70    4.20
   8   7   9   12.50    3.40
  -9  -7  -9   -4.50    3.20
   9   7   9    5.40    3.90
 -10  -7  -9    3.80    3.70
  10   7   9   -1.20    3.40
   8  -8  -9   23.50    4.90
   8  -8  -9   16.10    4.40
  -8   8   9   18.30    4.30
   7  -8  -9   28.40    4.90
   7  -8  -9   27.20    5.00
  -7   8   9   24.80    4.70
   6  -8  -9   20.40    4.40
   6  -8  -9   22.60    4.40
   6  -8  -9   22.00    3.40
  -6   8   9   21.50    4.30
   5  -8  -9   83.79    8.10
   5  -8  -9   89.59    6.60
   5  -8  -9   92.69    7.20
   5  -8  -9   87.89    8.30
  -5   8   9   80.39    7.80
   4  -8  -9   11.40    2.30
   4  -8  -9   10.90    2.60
   4  -8  -9    7.50    3.10
  -4   8   9   12.30    3.20
   3  -8  -9    0.80    1.90
   3  -8  -9    1.70    2.30
  -3   8   9   -2.70    2.30
   2  -8  -9    5.30    2.40
   2  -8  -9    2.40    2.10
  -2   8   9    3.10    2.40
   1  -8  -9    1.20    1.80
   1  -8  -9   -0.50    2.10
  -1   8   9    2.60    1.40
  -1   8   9    1.50    2.20
   0  -8  -9    4.90    2.50
   0  -8  -9    4.80    1.80
   0  -8  -9    3.60    2.00
   0  -8  -9    6.30    2.00
   0   8   9    6.20    1.90
   0   8   9    2.70    2.10
  -1  -8  -9  438.36   28.50
  -1  -8  -9  400.46   28.30
  -1  -8  -9  492.05   29.30
   1   8   9  458.15   28.50
   1   8   9  428.56   28.30
  -2  -8  -9  105.29    8.00
  -2  -8  -9  118.59    9.00
  -2  -8  -9  104.59    8.00
  -2  -8  -9   94.59    7.80
   2   8   9   98.39    8.00
   2   8   9   98.49    7.80
  -3  -8  -9  175.38   11.50
  -3  -8  -9  156.38   12.20
   3   8   9  136.19   11.10
   3   8   9  165.68   11.40
  -4  -8  -9  109.69    9.50
  -4  -8  -9  101.49    8.30
   4   8   9   98.29    8.20
   4   8   9  109.99    8.20
  -5  -8  -9  170.08   11.90
  -5  -8  -9  146.69   12.60
   5   8   9  157.78   11.50
  -6  -8  -9   63.09    6.70
  -6  -8  -9   64.69    7.60
   6   8   9   64.29    6.40
  -7  -8  -9   44.90    5.60
   7   8   9   39.70    5.10
  -8  -8  -9    0.70    3.00
   8   8   9    0.90    2.70
  -9  -8  -9  252.17   18.00
   9   8   9  232.18   17.90
   8  -9  -9    3.90    3.40
   8  -9  -9    0.40    3.60
  -8   9   9    4.60    3.50
   7  -9  -9    1.90    3.50
   7  -9  -9    2.00    3.50
  -7   9   9    8.20    3.70
   6  -9  -9   16.00    2.60
   6  -9  -9    8.40    3.50
   6  -9  -9   16.70    4.30
  -6   9   9    9.70    3.60
   5  -9  -9   -0.10    1.80
   5  -9  -9   -1.40    2.90
   5  -9  -9   -3.40    1.90
   5  -9  -9    1.50    3.00
  -5   9   9    0.70    2.70
   4  -9  -9   26.00    4.70
   4  -9  -9   35.00    4.20
  -4   9   9   34.90    4.70
   3  -9  -9    2.20    2.20
   3  -9  -9    6.80    3.00
  -3   9   9    7.50    2.90
   2  -9  -9   49.20    5.80
   2  -9  -9   54.89    5.20
  -2   9   9   49.40    5.50
   1  -9  -9  328.17   22.20
   1  -9  -9  304.37   22.70
  -1   9   9  390.96   22.70
  -1   9   9  341.27   21.90
   0  -9  -9   87.39    7.50
   0  -9  -9   73.79    6.30
   0   9   9   67.99    6.10
   0   9   9   64.99    6.50
  -1  -9  -9   -1.90    1.80
  -1  -9  -9    5.60    2.80
  -1  -9  -9    1.00    1.70
   1   9   9    1.90    2.00
   1   9   9    1.70    2.20
  -2  -9  -9    5.10    2.20
  -2  -9  -9    5.70    2.30
  -2  -9  -9    7.60    3.10
   2   9   9    7.10    2.40
   2   9   9    5.10    2.50
  -3  -9  -9   50.79    5.90
  -3  -9  -9   74.99    7.30
   3   9   9   60.59    6.00
   3   9   9   66.99    5.90
  -4  -9  -9   13.00    3.10
  -4  -9  -9    6.00    3.40
   4   9   9   12.20    3.00
   4   9   9    8.90    2.70
  -5  -9  -9  636.84   38.70
  -5  -9  -9  557.94   37.70
   5   9   9  569.94   37.30
   5   9   9  571.64   37.40
  -6  -9  -9   53.89    6.20
   6   9   9   53.09    5.80
   6   9   9   53.49    5.70
  -7  -9  -9  855.71   53.59
   7   9   9  814.82   53.09
  -8  -9  -9   71.49    7.80
  -9  -9  -9  179.08   14.40
   9   9   9  180.98   14.30
   7 -10  -9   43.00    6.60
   7 -10  -9   55.29    6.60
  -7  10   9   53.59    6.50
   6 -10  -9   74.79    8.30
   6 -10  -9   90.79    7.00
   6 -10  -9   81.69    9.00
  -6  10   9   85.29    8.50
   5 -10  -9   26.60    3.40
   5 -10  -9   20.90    4.70
  -5  10   9   18.20    4.10
   4 -10  -9   48.80    6.40
   4 -10  -9   50.59    5.40
  -4  10   9   57.99    6.30
   3 -10  -9   68.89    7.60
   3 -10  -9   85.49    7.00
  -3  10   9   74.79    7.30
   2 -10  -9   22.80    4.40
   2 -10  -9   21.30    3.60
  -2  10   9   23.90    4.00
   1 -10  -9  193.88   13.40
   1 -10  -9  171.28   14.00
  -1  10   9  209.78   13.90
   0 -10  -9    1.90    2.20
   0 -10  -9   -0.60    2.50
   0  10   9    1.70    2.00
   0  10   9   -1.40    2.40
  -1 -10  -9  883.81   52.39
  -1 -10  -9  763.82   51.19
   1  10   9  767.02   51.09
   1  10   9  835.72   51.59
  -2 -10  -9   22.40    3.40
  -2 -10  -9   19.40    4.30
   2  10   9   24.00    3.50
   2  10   9   18.40    3.60
  -3 -10  -9 1185.58   69.79
  -3 -10  -9 1142.99   68.99
  -3 -10  -9 1061.49   68.79
   3  10   9 1042.70   68.69
   3  10   9 1050.89   68.79
  -4 -10  -9   23.50    4.90
  -4 -10  -9   23.70    4.10
   4  10   9   28.20    4.20
   4  10   9   29.40    4.10
  -5 -10  -9  764.52   49.60
  -5 -10  -9  711.53   50.19
   5  10   9  802.22   49.30
   5  10   9  822.22   49.30
  -6 -10  -9   25.10    4.60
   6  10   9   27.80    4.30
   6  10   9   32.80    4.50
  -7 -10  -9   18.10    4.20
   7  10   9   14.10    4.00
  -8 -10  -9    0.00    3.10
   6 -11  -9   32.00    3.90
   6 -11  -9   21.60    5.30
   6 -11  -9   28.00    5.20
  -6  11   9   25.60    4.80
   5 -11  -9   60.19    7.60
   5 -11  -9   62.89    6.20
  -5  11   9   65.89    7.20
   4 -11  -9   69.89    8.00
  -4  11   9   66.39    7.20
   3 -11  -9  660.93   41.90
   3 -11  -9  635.14   42.90
  -3  11   9  672.33   42.40
   2 -11  -9   54.69    6.90
   2 -11  -9   63.89    6.10
  -2  11   9   51.09    6.00
  -2  11   9   55.29    5.00
   1 -11  -9 1040.10   64.29
   1 -11  -9 1027.00   65.19
  -1  11   9 1016.20   64.19
  -1  11   9 1006.30   64.59
   0 -11  -9   41.30    5.90
   0 -11  -9   43.70    4.90
   0  11   9   42.60    5.40
   0  11   9   38.20    4.70
  -1 -11  -9  413.96   27.00
  -1 -11  -9  438.26   28.10
   1  11   9  396.46   27.00
   1  11   9  401.16   27.40
  -2 -11  -9    6.80    2.70
  -2 -11  -9    9.50    3.70
   2  11   9    8.80    3.00
   2  11   9    7.50    2.70
  -3 -11  -9  131.29   10.40
  -3 -11  -9  130.79   11.70
  -3 -11  -9  132.09   10.60
   3  11   9  147.39   10.80
   3  11   9  137.99   10.40
  -4 -11  -9    3.90    3.40
  -4 -11  -9    3.60    3.00
   4  11   9    0.80    2.70
   4  11   9    2.60    2.50
  -5 -11  -9  112.89   10.60
   5  11   9  132.29   10.40
   5  11   9  147.09   10.60
  -6 -11  -9   15.10    3.90
   6  11   9    8.50    3.30
   6  11   9    9.00    3.50
   6  11   9    5.40    2.90
  -7 -11  -9   96.39    9.20
   7  11   9   94.69    8.80
  -8 -11  -9   -2.30    3.30
  -6  12   9   -2.70    3.10
   5 -12  -9  451.75   29.10
   5 -12  -9  415.46   30.70
  -5  12   9  476.75   30.20
   4 -12  -9   48.70    6.90
  -4  12   9   43.50    5.90
   3 -12  -9  536.35   34.50
  -3  12   9  480.85   33.40
   2 -12  -9   73.29    8.10
  -2  12   9   58.29    6.90
   1 -12  -9   36.80    5.60
   1 -12  -9   27.50    4.10
  -1  12   9   34.50    4.40
  -1  12   9   19.20    4.40
   0 -12  -9   77.79    8.20
   0 -12  -9   72.89    7.00
   0  12   9   75.19    7.10
   0  12   9   74.19    7.60
  -1 -12  -9   -1.80    2.90
  -1 -12  -9   -0.40    2.20
   1  12   9   -3.80    2.60
   1  12   9    3.60    2.50
  -2 -12  -9   30.40    5.60
  -2 -12  -9   31.30    4.40
   2  12   9   35.80    4.50
   2  12   9   38.10    5.20
  -3 -12  -9  143.59   13.50
   3  12   9  175.98   12.40
   3  12   9  176.08   12.80
  -4 -12  -9   26.70    4.50
   4  12   9   21.00    4.00
   4  12   9   32.50    4.80
  -5 -12  -9   55.29    7.00
   5  12   9   80.39    7.20
   5  12   9   65.59    9.00
   5  12   9   57.59    6.80
  -6 -12  -9    0.50    3.20
   6  12   9    5.30    3.40
   6  12   9    2.40    3.20
  -7 -12  -9    6.80    3.90
   7  12   9    8.70    3.60
   4 -13  -9   22.20    5.40
  -4  13   9   20.60    4.50
   3 -13  -9   38.00    6.40
  -3  13   9   35.30    5.40
   2 -13  -9    9.00    4.20
  -2  13   9   10.80    3.80
   1 -13  -9   26.40    5.40
  -1  13   9   33.50    4.70
  -1  13   9   36.00    5.40
   0 -13  -9    2.00    3.50
   0  13   9   -6.10    2.70
   0  13   9   -1.80    2.40
  -1 -13  -9  135.59   12.00
   1  13   9  134.39   10.80
   1  13   9  141.99   11.30
  -2 -13  -9    3.60    3.40
   2  13   9    3.40    3.30
   2  13   9    1.30    2.70
   3  13   9   91.89    8.90
   3  13   9   93.49   10.40
   4  13   9    3.10    3.30
  -5 -13  -9   11.50    3.90
   5  13   9   17.00    4.10
   5  13   9   19.90    4.20
  -6 -13  -9   32.40    5.50
   6  13   9   39.30    5.70
   6  13   9   40.50    5.70
   3 -14  -9   -2.70    3.80
  -3  14   9    3.50    3.70
   2 -14  -9   -2.30    3.70
  -2  14   9   -1.20    3.30
   1 -14  -9    4.30    4.10
  -1  14   9   10.40    3.90
   0 -14  -9    4.90    3.90
   0  14   9    4.20    3.40
   1  14   9   33.00    5.40
   2  14   9    3.40    3.50
   3  14   9    3.10    3.40
   4  14   9   31.50    5.30
   0  15   9   -0.30    3.30
   1  15   9    3.30    4.00
   2  15   9    0.70    3.40
   2  11 -10    3.60    3.30
   2  11 -10   -4.20    3.10
   1  11 -10   76.99    8.20
   1  11 -10   74.49    8.00
   0  11 -10    0.60    3.40
   0  11 -10    4.50    3.50
  -1  11 -10   -1.50    3.20
  -1  11 -10    0.60    3.40
  -2  11 -10   11.20    4.30
  -2  11 -10   13.80    4.30
  -3  11 -10   36.50    4.30
  -3  11 -10   37.80    6.30
  -3  11 -10   33.20    5.40
   4  10 -10    2.20    3.20
   4  10 -10    0.40    2.70
   3  10 -10   10.60    3.80
   3  10 -10    7.80    3.20
   2  10 -10   36.20    5.20
   2  10 -10   40.00    5.80
   1  10 -10    2.30    3.10
   1  10 -10    2.50    3.30
   0  10 -10   27.90    4.80
   0  10 -10   29.00    4.90
  -1  10 -10   60.29    7.30
  -1  10 -10   58.39    6.80
   1 -10  10   62.49    5.80
  -2  10 -10   57.19    7.10
  -2  10 -10   77.99    8.00
   2 -10  10   67.09    6.90
  -3  10 -10  267.27   18.40
  -3  10 -10  324.67   20.90
  -3  10 -10  249.68   19.40
  -4  10 -10    7.60    2.80
  -4  10 -10    9.50    3.70
  -4  10 -10   13.90    4.50
  -5  10 -10   38.30    5.40
  -5  10 -10   34.70    4.70
  -5  10 -10   38.20    6.50
   5   9 -10    9.80    3.20
   5   9 -10   11.10    3.60
   4   9 -10  132.29   10.90
   4   9 -10  124.79   10.30
   3   9 -10   22.60    3.90
   3   9 -10   22.70    4.50
   2   9 -10   31.50    5.20
   2   9 -10   35.10    4.70
   1   9 -10   73.79    7.10
   1   9 -10   56.79    6.70
   0   9 -10   20.20    3.90
   0   9 -10   24.50    4.40
  -1   9 -10  258.27   19.40
  -1   9 -10  325.67   20.00
   1  -9  10  254.37   18.50
  -2   9 -10   -0.10    1.90
  -2   9 -10    0.90    3.00
  -2   9 -10    1.90    3.00
   2  -9  10    0.70    2.00
  -3   9 -10   -0.30    3.00
  -3   9 -10    2.70    2.80
  -3   9 -10    0.10    2.00
  -3   9 -10    2.50    3.40
   3  -9  10    0.10    2.20
  -4   9 -10    8.70    3.60
  -4   9 -10   12.10    4.20
  -4   9 -10   10.00    2.80
  -4   9 -10    7.50    3.50
   4  -9  10    9.20    3.10
  -5   9 -10    6.50    3.40
  -5   9 -10    0.70    2.60
  -5   9 -10    2.90    4.00
  -6   9 -10    4.90    4.20
  -6   9 -10   -4.20    2.60
   6   8 -10    0.70    2.50
   5   8 -10  116.69   10.50
   5   8 -10  138.49   10.10
   4   8 -10   79.59    7.70
   4   8 -10  110.99    8.90
   3   8 -10  112.09   10.10
   3   8 -10  114.49   10.00
   3   8 -10  131.29    9.70
   2   8 -10   79.09    8.40
   2   8 -10  104.89    8.00
   2   8 -10   88.79    8.40
   1   8 -10  405.06   25.70
   1   8 -10  372.16   25.80
   1   8 -10  382.56   26.00
   0   8 -10   42.70    5.40
   0   8 -10   55.29    5.90
  -1   8 -10   15.30    3.60
  -1   8 -10    6.80    3.40
   1  -8  10   10.40    2.50
  -2   8 -10   16.20    3.70
  -2   8 -10    9.70    3.60
  -2   8 -10   18.50    2.50
  -2   8 -10   13.10    3.60
   2  -8  10   15.50    2.80
  -3   8 -10   13.90    2.70
  -3   8 -10    8.60    3.70
  -3   8 -10   15.80    3.70
  -3   8 -10   15.10    3.70
   3  -8  10   13.90    3.00
  -4   8 -10    2.30    3.20
  -4   8 -10    0.40    3.10
  -4   8 -10   -2.00    2.70
  -4   8 -10    3.10    2.30
   4  -8  10    1.10    2.30
  -5   8 -10   17.10    3.80
  -5   8 -10   12.30    4.30
  -5   8 -10    9.20    2.90
  -5   8 -10    5.50    3.50
   5  -8  10    9.30    2.90
  -6   8 -10    8.90    3.20
  -6   8 -10    9.20    4.60
  -7   8 -10    6.10    4.20
  -7   8 -10    4.80    3.10
   6   7 -10  123.39    9.50
   5   7 -10   50.19    6.10
   5   7 -10   61.69    5.70
   4   7 -10   20.40    3.20
   4   7 -10   26.50    4.40
   4   7 -10   21.50    4.60
   3   7 -10  196.28   12.80
   3   7 -10  173.08   13.30
   3   7 -10  158.48   13.30
   2   7 -10    4.50    3.20
   2   7 -10    1.90    2.80
   2   7 -10    8.00    2.40
   1   7 -10   18.40    3.70
   1   7 -10   15.30    3.60
   1   7 -10   15.40    3.00
   0   7 -10   17.70    3.40
   0   7 -10   18.70    3.50
   0   7 -10   17.60    3.80
  -1   7 -10   45.30    5.40
  -1   7 -10   38.10    4.80
  -1   7 -10   40.90    5.20
   1  -7  10   42.30    4.10
  -2   7 -10   43.20    5.30
  -2   7 -10   47.00    4.00
  -2   7 -10   37.70    5.20
  -2   7 -10   39.80    5.20
   2  -7  10   44.30    4.40
  -3   7 -10   16.50    3.80
  -3   7 -10   21.60    2.90
  -3   7 -10   10.30    3.50
  -3   7 -10   19.50    4.00
   3  -7  10   21.90    3.20
  -4   7 -10   22.70    4.00
  -4   7 -10   22.60    3.30
  -4   7 -10   18.00    4.30
  -4   7 -10   19.70    4.20
   4  -7  10   19.50    3.30
  -5   7 -10  177.68   12.60
  -5   7 -10  172.78   12.20
  -5   7 -10  162.98   13.20
  -5   7 -10  146.99   13.30
   5  -7  10  171.38   12.20
  -6   7 -10   26.70    4.30
  -6   7 -10   35.10    6.10
  -6   7 -10   34.40    5.60
   6  -7  10   31.30    4.40
  -7   7 -10   35.00    6.40
  -7   7 -10   49.00    5.60
  -8   7 -10   25.40    4.60
  -8   7 -10   26.00    6.00
   7   6 -10   56.69    6.30
   7   6 -10   56.19    5.90
   6   6 -10    0.60    2.70
   6   6 -10   -3.40    3.70
   6   6 -10    1.10    2.20
   5   6 -10  113.29    9.70
   5   6 -10  112.09    8.90
   5   6 -10  101.89    9.50
   5   6 -10   92.69    7.80
   4   6 -10   25.70    4.80
   4   6 -10   27.20    4.80
   4   6 -10   29.10    4.40
   4   6 -10   28.00    3.40
   3   6 -10   12.10    2.50
   3   6 -10    9.60    3.60
   3   6 -10   13.50    3.80
   3   6 -10   12.40    3.20
   2   6 -10    9.60    3.30
   2   6 -10   10.10    2.30
   2   6 -10   13.10    3.40
   1   6 -10  108.39    9.50
   1   6 -10  100.09    9.10
   1   6 -10  132.49    8.90
   0   6 -10   31.00    4.20
   0   6 -10   23.50    4.10
   0   6 -10   33.40    4.00
  -1   6 -10   29.90    4.00
  -1   6 -10   24.30    4.00
  -1   6 -10   24.60    3.80
  -1   6 -10   20.60    3.70
   1  -6  10   27.80    3.10
  -2   6 -10   33.60    4.80
  -2   6 -10   34.30    4.70
  -2   6 -10   43.30    5.10
  -2   6 -10   48.20    4.90
  -2   6 -10   41.10    3.60
   2  -6  10   43.60    4.20
  -3   6 -10  231.38   18.90
  -3   6 -10  290.77   19.30
  -3   6 -10  297.27   18.90
  -3   6 -10  284.97   18.00
   3  -6  10  280.57   18.30
  -4   6 -10  107.29    9.60
  -4   6 -10  103.89    8.30
  -4   6 -10  111.09    9.20
  -4   6 -10  113.49    9.80
   4  -6  10  120.29    8.70
  -5   6 -10   49.60    6.30
  -5   6 -10   54.79    5.80
  -5   6 -10   55.19    6.70
  -5   6 -10   47.00    5.30
   5  -6  10   59.49    5.70
  -6   6 -10  171.28   13.00
  -6   6 -10  150.88   11.40
  -6   6 -10  138.09   12.30
   6  -6  10  149.19   11.40
  -7   6 -10   28.00    5.70
  -7   6 -10   35.50    4.80
  -7   6 -10   25.50    5.20
   7  -6  10   29.50    5.30
  -8   6 -10   77.49    9.10
  -8   6 -10   63.69    7.10
   8   5 -10    4.30    2.70
   8   5 -10    1.50    3.30
   8   5 -10   -2.90    3.60
   7   5 -10    4.80    3.20
   7   5 -10    3.90    3.90
   7   5 -10    3.80    2.30
   6   5 -10   10.10    3.20
   6   5 -10   18.50    3.70
   6   5 -10   11.40    2.60
   6   5 -10   15.00    4.10
   5   5 -10  165.28   12.80
   5   5 -10  153.28   12.50
   5   5 -10  158.58   11.10
   5   5 -10  166.88   12.10
   4   5 -10    1.00    3.20
   4   5 -10    1.40    1.60
   4   5 -10    2.20    3.20
   4   5 -10    4.80    2.70
   3   5 -10  504.95   34.10
   3   5 -10  504.95   34.10
   3   5 -10  544.45   33.10
   3   5 -10  539.75   34.30
   2   5 -10    4.40    3.10
   2   5 -10    4.00    2.70
   2   5 -10    1.20    2.50
   2   5 -10    0.20    1.50
   1   5 -10  134.99   10.70
   1   5 -10  153.78    9.90
   1   5 -10  132.59   10.50
   1   5 -10  125.69   10.50
   0   5 -10   53.69    5.50
   0   5 -10   42.20    4.70
   0   5 -10   63.39    5.80
   0  -5  10   55.39    5.70
  -1   5 -10  428.96   29.30
  -1   5 -10  507.75   29.30
  -1   5 -10  413.86   29.10
  -1   5 -10  432.86   29.30
   1  -5  10  435.66   28.50
   1  -5  10  485.55   29.70
  -2   5 -10  164.68   11.70
  -2   5 -10  154.98   11.70
  -2   5 -10  159.58   10.40
  -2   5 -10  174.18   11.60
  -2   5 -10  131.29   11.40
   2  -5  10  164.88   10.80
   2  -5  10  158.28   11.80
  -3   5 -10   44.20    5.00
  -3   5 -10   33.00    3.60
  -3   5 -10   36.90    4.90
  -3   5 -10   40.20    4.80
  -3   5 -10   45.40    4.80
   3  -5  10   34.60    3.90
  -4   5 -10  180.38   11.70
  -4   5 -10  178.68   12.30
  -4   5 -10  163.88   12.80
  -4   5 -10  166.98   12.80
  -4   5 -10  159.28   12.10
   4  -5  10  157.98   11.80
  -5   5 -10   -1.60    2.60
  -5   5 -10   -0.40    2.90
  -5   5 -10    1.00    2.40
  -5   5 -10    0.40    2.00
   5  -5  10    0.50    2.20
  -6   5 -10   31.40    5.20
  -6   5 -10   29.50    4.20
  -6   5 -10   26.00    4.90
   6  -5  10   30.30    4.20
  -7   5 -10   -1.00    3.20
  -7   5 -10   -2.80    3.30
  -7   5 -10    5.30    3.00
   7  -5  10    1.50    2.70
  -8   5 -10    2.40    3.90
  -8   5 -10    2.20    3.00
  -9   5 -10   20.20    4.50
   8   4 -10   17.10    3.10
   8   4 -10   14.20    3.90
   8   4 -10   18.20    4.60
   7   4 -10   49.99    5.20
   7   4 -10   46.60    6.00
   7   4 -10   60.09    6.70
   6   4 -10   10.30    3.70
   6   4 -10   10.40    3.10
   6   4 -10    8.80    3.70
   6   4 -10    5.40    2.70
   6   4 -10    8.90    2.30
   5   4 -10  200.48   14.90
   5   4 -10  195.58   14.90
   5   4 -10  199.78   14.10
   5   4 -10  213.58   14.60
   4   4 -10  104.69    9.10
   4   4 -10  106.79    9.00
   4   4 -10  110.89    7.60
   4   4 -10  104.19    9.20
   3   4 -10    3.90    2.70
   3   4 -10    2.50    1.30
   3   4 -10    7.30    3.00
   3   4 -10    4.60    2.50
   2   4 -10  351.16   21.60
   2   4 -10  324.47   21.40
   2   4 -10  290.67   20.20
   2   4 -10  331.47   21.40
   1   4 -10   32.00    4.50
   1   4 -10   34.00    4.40
   1   4 -10   36.80    3.70
   1   4 -10   41.60    4.90
  -1  -4  10   29.20    4.10
   0   4 -10  386.76   24.80
   0   4 -10  383.46   25.40
   0   4 -10  395.36   25.40
   0   4 -10  380.16   25.40
   0  -4  10  390.96   25.50
  -1   4 -10   11.10    3.00
  -1   4 -10    7.20    2.70
  -1   4 -10   16.00    2.90
  -1   4 -10   15.40    2.60
   1  -4  10   11.10    2.80
   1  -4  10   12.10    1.90
  -2   4 -10  178.68   13.00
  -2   4 -10  193.18   11.80
  -2   4 -10  172.38   12.80
  -2   4 -10  181.18   12.80
  -2   4 -10  186.68   12.90
   2  -4  10  183.48   12.20
   2  -4  10  166.78   12.90
  -3   4 -10   32.60    4.40
  -3   4 -10   36.50    4.70
  -3   4 -10   34.60    3.50
  -3   4 -10   40.80    4.50
  -3   4 -10   37.10    4.40
   3  -4  10   37.20    4.70
   3  -4  10   35.60    3.80
  -4   4 -10    4.10    2.80
  -4   4 -10    5.50    2.70
  -4   4 -10    7.90    2.90
  -4   4 -10    7.70    2.60
  -4   4 -10    2.70    1.90
   4  -4  10    6.10    2.10
  -5   4 -10   11.30    3.10
  -5   4 -10   17.30    3.80
  -5   4 -10    7.40    3.20
  -5   4 -10    9.80    2.60
   5  -4  10   10.60    2.60
  -6   4 -10   -1.10    3.00
  -6   4 -10   -1.40    2.30
  -6   4 -10    3.80    3.20
   6  -4  10   -1.30    2.10
  -7   4 -10    3.80    3.60
  -7   4 -10    1.10    3.00
  -7   4 -10   -0.80    2.50
   7  -4  10   -0.40    2.40
  -8   4 -10    6.40    4.00
  -8   4 -10   14.10    3.80
  -8   4 -10   16.30    4.80
   8  -4  10   14.10    3.70
  -9   4 -10   45.60    6.00
   8   3 -10    8.60    2.70
   8   3 -10   14.50    3.90
   8   3 -10   13.40    4.20
   7   3 -10   71.89    7.70
   7   3 -10   72.99    7.20
   7   3 -10   74.69    6.20
   6   3 -10   70.99    6.80
   6   3 -10   79.99    6.90
   6   3 -10   61.59    7.10
   6   3 -10   66.39    7.30
   6   3 -10   64.39    5.50
   5   3 -10   39.70    4.80
   5   3 -10   34.10    4.30
   5   3 -10   35.10    5.10
   5   3 -10   35.70    3.40
   5   3 -10   35.00    4.90
   4   3 -10   96.89    8.10
   4   3 -10   89.49    8.30
   4   3 -10   97.59    6.70
   4   3 -10  105.39    7.80
   4   3 -10   90.19    8.30
   3   3 -10    1.70    2.40
   3   3 -10    2.30    2.40
   3   3 -10    1.60    1.10
   3   3 -10   -2.30    2.20
   2   3 -10    6.30    2.70
   2   3 -10    0.80    2.20
   2   3 -10    5.10    2.60
   2   3 -10    1.70    1.20
   1   3 -10    4.50    2.50
   1   3 -10    8.90    2.60
   1   3 -10    1.50    2.20
   1   3 -10    5.80    1.50
  -1  -3  10    5.30    2.10
   0   3 -10   77.09    6.80
   0   3 -10   71.99    6.80
   0   3 -10   85.39    6.00
   0   3 -10   81.49    6.70
   0  -3  10   68.59    6.60
  -1   3 -10    0.40    2.20
  -1   3 -10    2.00    1.80
  -1   3 -10    2.50    2.30
  -1   3 -10    1.90    2.20
   1  -3  10    4.10    1.30
   1  -3  10   -1.00    1.80
  -2   3 -10  227.48   14.20
  -2   3 -10  240.08   15.40
  -2   3 -10  200.88   15.00
  -2   3 -10  214.48   15.40
  -2   3 -10  235.88   15.30
   2  -3  10  225.08   15.40
   2  -3  10  222.68   14.50
  -3   3 -10  176.18   13.10
  -3   3 -10  171.98   13.00
  -3   3 -10  176.78   12.80
  -3   3 -10  196.38   13.00
  -3   3 -10  196.08   12.10
   3  -3  10  178.38   12.30
   3  -3  10  181.28   13.20
  -4   3 -10   65.49    6.40
  -4   3 -10   54.89    5.00
  -4   3 -10   58.49    5.50
  -4   3 -10   54.99    6.10
   4  -3  10   53.49    5.10
   4  -3  10   53.99    5.90
  -5   3 -10    7.80    3.20
  -5   3 -10    6.40    3.00
  -5   3 -10    7.30    2.50
   5  -3  10    5.80    2.20
  -6   3 -10   17.60    4.20
  -6   3 -10   15.50    3.20
  -6   3 -10   21.10    4.30
   6  -3  10   15.70    3.10
  -7   3 -10   40.20    5.10
  -7   3 -10   37.60    5.60
  -7   3 -10   39.20    6.00
   7  -3  10   48.20    5.20
  -8   3 -10   54.69    6.60
  -8   3 -10   60.19    7.90
  -8   3 -10   79.09    7.90
   8  -3  10   67.79    6.70
  -9   3 -10    4.20    3.40
   8   2 -10   45.90    5.60
   8   2 -10   32.20    5.20
   8   2 -10   24.10    3.80
   7   2 -10   41.00    5.80
   7   2 -10   45.60    5.50
   7   2 -10   43.30    4.60
   6   2 -10   29.10    4.10
   6   2 -10   19.40    4.10
   6   2 -10   14.70    3.50
   6   2 -10   20.60    2.70
   6   2 -10   17.60    4.30
   5   2 -10    1.20    2.30
   5   2 -10    3.30    3.00
   5   2 -10    1.60    1.30
   5   2 -10    3.80    3.00
   5   2 -10    1.40    2.40
   4   2 -10   26.90    2.40
   4   2 -10   26.60    3.90
   4   2 -10   31.70    4.30
   4   2 -10   30.30    3.60
   4   2 -10   22.40    4.00
   3   2 -10  144.29   10.70
   3   2 -10  130.09   10.50
   3   2 -10  135.99   10.50
   3   2 -10  149.09   10.00
   2   2 -10  108.09    8.70
   2   2 -10  111.89    8.80
   2   2 -10  109.89    8.80
  -2  -2  10  117.69    8.50
   1   2 -10   40.30    4.30
   1   2 -10   29.80    3.90
   1   2 -10   29.50    2.90
   1   2 -10   38.00    4.40
  -1  -2  10   37.30    4.00
   0   2 -10   65.69    5.30
   0   2 -10   68.79    6.20
   0   2 -10   73.19    6.30
   0   2 -10   72.49    6.10
   0  -2  10   76.49    6.20
  -1   2 -10  402.06   26.10
  -1   2 -10  415.16   25.80
  -1   2 -10  377.46   26.20
  -1   2 -10  401.76   26.20
   1  -2  10  397.66   25.40
   1  -2  10  435.56   26.40
  -2   2 -10   20.50    2.00
  -2   2 -10   20.00    2.90
  -2   2 -10   14.10    3.00
  -2   2 -10   23.00    3.40
  -2   2 -10   19.40    3.00
   2  -2  10   18.10    2.30
   2  -2  10   17.90    3.20
  -3   2 -10    6.50    2.30
  -3   2 -10    5.40    2.30
  -3   2 -10    1.70    2.30
  -3   2 -10    1.10    2.40
  -3   2 -10    5.70    1.60
   3  -2  10    2.70    1.60
   3  -2  10    1.90    2.10
  -4   2 -10  226.88   15.20
  -4   2 -10  201.58   15.00
  -4   2 -10  222.88   14.50
  -4   2 -10  218.58   14.20
   4  -2  10  203.08   14.20
   4  -2  10  206.08   15.00
  -5   2 -10   10.20    2.40
  -5   2 -10    4.10    2.90
  -5   2 -10   13.40    3.50
   5  -2  10    5.90    3.20
   5  -2  10    5.70    2.30
  -6   2 -10  111.69   10.30
  -6   2 -10  118.99    9.70
  -6   2 -10  160.28   11.20
   6  -2  10  129.69    9.70
  -7   2 -10   -3.10    2.80
  -7   2 -10    7.60    3.70
  -7   2 -10    6.40    2.80
   7  -2  10    6.00    2.80
  -8   2 -10    8.30    3.30
  -8   2 -10    7.50    3.40
  -8   2 -10    6.20    4.10
   8  -2  10    2.70    2.80
  -9   2 -10    5.00    4.10
  -9   2 -10    4.90    3.50
 -10   2 -10    8.10    3.70
   9   1 -10    8.60    3.90
   9   1 -10   14.00    4.20
   9   1 -10   10.90    3.00
   8   1 -10   26.00    3.60
   8   1 -10   20.70    4.40
   8   1 -10   28.90    4.90
   7   1 -10    0.70    3.00
   7   1 -10    0.30    2.80
   7   1 -10    1.70    1.90
   6   1 -10  156.48   11.60
   6   1 -10  156.48   10.40
   6   1 -10  148.89   11.90
   6   1 -10  147.49   11.80
   6   1 -10  148.39   11.40
  -6  -1  10  150.78   10.70
   5   1 -10  118.09    8.90
   5   1 -10  118.59    9.50
   5   1 -10  107.59    9.10
   5   1 -10  110.29    7.70
   5   1 -10  111.69    9.30
  -5  -1  10  117.89    8.30
   4   1 -10  149.29   11.50
   4   1 -10  149.88   11.50
   4   1 -10  158.28   11.00
   4   1 -10  157.98   11.30
   3   1 -10   22.60    3.50
   3   1 -10   14.80    3.30
   3   1 -10   14.90    3.10
   3   1 -10   25.50    3.00
  -3  -1  10   20.50    2.30
   2   1 -10   26.20    3.70
   2   1 -10   33.50    4.10
   2   1 -10   20.40    3.70
  -2  -1  10   24.90    3.10
  -2  -1  10   26.00    2.60
   1   1 -10    6.20    1.20
   1   1 -10    4.40    2.30
   1   1 -10    7.50    2.40
   1   1 -10    4.80    2.10
  -1  -1  10    6.10    1.90
   0   1 -10   45.40    4.60
   0   1 -10   42.80    3.60
   0   1 -10   37.00    4.20
   0   1 -10   42.30    4.70
   0  -1  10   43.10    4.20
  -1   1 -10  204.08   14.00
  -1   1 -10  208.58   13.90
  -1   1 -10  193.28   13.50
  -1   1 -10  211.38   14.20
   1  -1  10  208.18   14.00
   1  -1  10  209.98   13.20
  -2   1 -10  112.09    8.70
  -2   1 -10  122.69    7.70
  -2   1 -10  125.69    8.70
  -2   1 -10  103.59    8.40
  -2   1 -10  108.79    8.40
   2  -1  10  125.29    8.00
   2  -1  10  109.69    8.80
  -3   1 -10  136.29   10.10
  -3   1 -10  137.79    9.30
  -3   1 -10  134.59    9.90
   3  -1  10  134.59    9.40
   3  -1  10  146.29   10.30
  -4   1 -10    5.00    2.60
  -4   1 -10    7.90    2.60
  -4   1 -10    3.90    2.20
  -4   1 -10    2.50    1.80
   4  -1  10   -0.80    1.90
   4  -1  10    1.80    1.60
  -5   1 -10   -1.10    1.80
  -5   1 -10   -1.20    2.30
  -5   1 -10   -2.30    2.30
   5  -1  10    0.10    2.10
   5  -1  10    1.60    1.90
  -6   1 -10   42.30    4.70
  -6   1 -10   38.20    5.50
  -6   1 -10   46.60    5.70
   6  -1  10   40.00    4.60
  -7   1 -10   19.70    4.30
  -7   1 -10   32.70    4.30
  -7   1 -10   28.60    5.10
   7  -1  10   28.10    4.10
  -8   1 -10   34.90    5.90
  -8   1 -10   28.70    4.60
  -8   1 -10   32.30    4.90
   8  -1  10   24.90    4.10
  -9   1 -10   10.60    3.70
 -10   1 -10   -0.10    3.30
   9   0 -10    8.20    3.70
   9   0 -10    4.80    2.70
   9   0 -10    7.20    3.60
   8   0 -10   16.90    3.20
   8   0 -10   12.40    4.10
   8   0 -10   20.00    4.30
   7   0 -10   92.19    8.70
   7   0 -10   96.99    8.60
   7   0 -10  101.29    8.80
   7   0 -10   83.99    7.20
   7   0 -10   89.39    8.50
   6   0 -10    2.10    2.90
   6   0 -10   -0.50    2.40
   6   0 -10   -2.70    2.60
   6   0 -10   -0.70    2.40
   6   0 -10    1.20    1.60
   5   0 -10   37.00    4.90
   5   0 -10   34.30    4.80
   5   0 -10   35.70    4.70
   5   0 -10   34.80    3.40
   5   0 -10   35.60    4.40
   4   0 -10   32.80    4.40
   4   0 -10   39.20    4.20
   4   0 -10   29.70    4.40
   4   0 -10   36.80    4.70
   3   0 -10   -0.50    2.10
   3   0 -10    5.10    2.00
   3   0 -10    1.10    2.10
   3   0 -10    3.50    2.50
   3   0 -10   -0.70    1.30
   2   0 -10   87.09    7.60
   2   0 -10   97.69    7.70
   2   0 -10  103.79    7.00
   2   0 -10   84.59    7.50
   1   0 -10   40.60    4.40
   1   0 -10   37.30    4.60
   1   0 -10   44.00    3.30
   1   0 -10   41.10    4.60
  -1   0  10   44.90    4.10
   0   0 -10   47.00    4.80
   0   0 -10   50.39    4.10
   0   0 -10   56.99    5.10
   0   0 -10   47.90    4.90
   0   0  10   54.69    4.80
  -1   0 -10   14.50    2.60
  -1   0 -10   10.60    2.00
  -1   0 -10   11.40    2.40
  -1   0 -10    9.00    2.60
   1   0  10    9.70    2.30
   1   0  10    9.50    1.50
  -2   0 -10   23.70    3.10
  -2   0 -10   20.60    2.80
  -2   0 -10   20.60    2.00
  -2   0 -10   22.90    3.00
   2   0  10   17.10    2.20
   2   0  10   16.00    2.90
  -3   0 -10  231.68   15.00
  -3   0 -10  261.97   15.80
  -3   0 -10  227.88   15.40
   3   0  10  218.68   15.10
   3   0  10  214.68   15.80
  -4   0 -10   84.79    7.30
  -4   0 -10   85.29    6.80
  -4   0 -10   80.59    6.60
  -4   0 -10   89.49    6.50
   4   0  10   80.69    6.50
   4   0  10   83.29    7.10
  -5   0 -10   -1.70    1.70
  -5   0 -10    4.60    2.10
  -5   0 -10   -1.00    2.30
   5   0  10   -2.90    1.90
   5   0  10   -0.30    1.70
  -6   0 -10    4.90    2.50
  -6   0 -10    7.00    3.30
   6   0  10    6.60    2.40
  -7   0 -10   30.40    5.20
  -7   0 -10   25.00    4.00
   7   0  10   24.90    3.80
  -8   0 -10   -0.40    2.60
  -8   0 -10   -0.50    3.40
   8   0  10    1.60    2.40
  -9   0 -10    1.50    3.00
   9   0  10    0.50    2.70
 -10   0 -10    0.80    3.30
   9  -1 -10   12.70    4.10
   9  -1 -10   16.00    4.10
   9  -1 -10   16.80    3.60
   8  -1 -10    2.30    3.10
   8  -1 -10    1.80    2.40
   8  -1 -10   10.00    3.60
   7  -1 -10  110.09    9.10
   7  -1 -10  100.29    8.00
   7  -1 -10   99.69    9.30
   7  -1 -10  102.49    8.70
   7  -1 -10   99.59    8.90
   6  -1 -10    8.50    3.30
   6  -1 -10   16.30    2.70
   6  -1 -10   10.30    2.30
   6  -1 -10    9.00    3.20
   6  -1 -10   13.80    3.30
   6  -1 -10   11.70    3.60
   5  -1 -10   57.59    6.50
   5  -1 -10   65.19    6.40
   5  -1 -10   68.29    5.70
   5  -1 -10   71.29    6.80
   5  -1 -10   68.49    5.30
   5  -1 -10   68.19    6.40
   4  -1 -10   17.50    3.20
   4  -1 -10   12.70    1.80
   4  -1 -10   13.00    2.80
   4  -1 -10   17.80    3.30
   4  -1 -10    9.90    3.00
   3  -1 -10   32.10    2.60
   3  -1 -10   30.50    3.50
   3  -1 -10   33.50    4.30
   3  -1 -10   30.80    4.10
   3  -1 -10   27.10    4.00
   2  -1 -10    1.30    2.10
   2  -1 -10    1.70    2.20
   2  -1 -10    2.70    2.30
  -2   1  10    3.70    1.30
   1  -1 -10   70.19    5.00
   1  -1 -10   71.69    6.10
   1  -1 -10   71.09    6.10
   1  -1 -10   73.09    6.20
  -1   1  10   74.89    5.60
  -1   1  10   69.19    5.60
   0  -1 -10   13.10    2.80
   0  -1 -10   13.10    2.60
   0  -1 -10   13.80    2.70
   0  -1 -10   11.90    1.80
   0   1  10   10.70    2.20
  -1  -1 -10   60.69    5.30
  -1  -1 -10   70.29    5.90
  -1  -1 -10   77.39    5.90
  -1  -1 -10   66.29    5.60
   1   1  10   68.39    4.90
   1   1  10   66.39    5.60
  -2  -1 -10    3.50    1.90
  -2  -1 -10    5.00    1.20
  -2  -1 -10    3.80    1.90
  -2  -1 -10    3.80    1.90
   2   1  10    4.90    1.50
   2   1  10    2.70    1.90
  -3  -1 -10  167.88   10.70
  -3  -1 -10  150.48   11.20
  -3  -1 -10  157.18   11.50
  -3  -1 -10  169.28   11.20
   3   1  10  163.28   10.90
   3   1  10  152.58   11.40
  -4  -1 -10   28.80    4.30
  -4  -1 -10   40.70    4.00
  -4  -1 -10   36.80    4.20
  -4  -1 -10   41.30    3.90
   4   1  10   40.80    4.60
   4   1  10   42.70    3.90
  -5  -1 -10   62.59    6.70
  -5  -1 -10   67.29    6.00
  -5  -1 -10   64.59    5.80
   5   1  10   72.99    5.90
   5   1  10   68.19    6.60
  -6  -1 -10   54.99    6.30
  -6  -1 -10   54.29    5.40
   6   1  10   50.19    5.20
  -7  -1 -10   36.20    4.50
  -7  -1 -10   27.90    5.00
   7   1  10   36.80    4.40
  -8  -1 -10    0.70    2.70
  -8  -1 -10    1.60    3.60
   8   1  10    0.80    2.30
  -9  -1 -10   23.60    4.50
   9   1  10   27.70    4.40
 -10  -1 -10   11.20    3.90
   9  -2 -10   23.10    4.10
   9  -2 -10   28.90    5.00
   9  -2 -10   25.30    4.80
   8  -2 -10    5.80    3.40
   8  -2 -10    4.20    3.50
   8  -2 -10   13.80    3.20
   7  -2 -10   11.90    2.80
   7  -2 -10    9.20    3.40
   7  -2 -10    9.10    3.60
   7  -2 -10    4.40    3.50
   6  -2 -10    8.20    2.90
   6  -2 -10    5.50    2.10
   6  -2 -10    8.60    3.20
   6  -2 -10   -1.50    2.80
   6  -2 -10    5.50    2.90
   5  -2 -10   16.00    3.40
   5  -2 -10   14.70    3.10
   5  -2 -10   13.10    2.40
   5  -2 -10   20.80    3.60
   5  -2 -10    8.30    3.20
   4  -2 -10    1.20    1.40
   4  -2 -10    6.90    2.60
   4  -2 -10    3.30    2.50
   4  -2 -10    4.40    2.50
   3  -2 -10   21.40    2.30
   3  -2 -10   20.10    3.30
   3  -2 -10   18.40    3.30
   3  -2 -10   13.10    3.10
   2  -2 -10    4.60    2.20
   2  -2 -10    3.80    1.10
   2  -2 -10    5.00    2.30
   2  -2 -10    1.80    2.10
  -2   2  10    1.70    1.60
   1  -2 -10   25.40    3.40
   1  -2 -10   25.10    2.60
   1  -2 -10   22.20    3.40
   1  -2 -10   21.30    3.30
  -1   2  10   25.80    3.00
   0  -2 -10    2.70    2.10
   0  -2 -10    6.60    2.10
   0  -2 -10    3.80    1.50
   0  -2 -10    5.30    2.10
   0   2  10    5.20    1.30
   0   2  10    3.80    1.60
   0   2  10    4.20    1.50
  -1  -2 -10  311.77   20.60
  -1  -2 -10  313.47   20.80
  -1  -2 -10  326.17   20.60
   1   2  10  319.57   20.20
   1   2  10  322.57   20.70
  -2  -2 -10    1.50    1.80
  -2  -2 -10   -1.20    1.60
  -2  -2 -10    2.80    1.20
  -2  -2 -10    2.20    1.90
  -2  -2 -10    0.80    1.60
   2   2  10    0.50    1.30
   2   2  10    1.50    1.60
  -3  -2 -10  167.68   11.00
  -3  -2 -10  130.99   11.20
  -3  -2 -10  155.08   11.10
  -3  -2 -10  166.28   10.70
   3   2  10  167.78   11.30
   3   2  10  161.78   10.70
  -4  -2 -10    6.10    2.20
  -4  -2 -10    4.50    2.50
  -4  -2 -10    5.40    1.90
  -4  -2 -10    4.90    1.90
   4   2  10    1.70    1.80
   4   2  10    4.20    2.10
  -5  -2 -10    0.50    2.50
  -5  -2 -10    0.50    1.90
   5   2  10    1.70    2.20
   5   2  10    0.00    1.70
  -6  -2 -10   84.79    7.20
  -6  -2 -10   82.09    8.40
   6   2  10   90.09    7.20
  -7  -2 -10    4.50    2.70
  -7  -2 -10    1.90    3.40
   7   2  10    6.50    2.50
  -8  -2 -10   87.19    8.50
  -8  -2 -10  106.99    9.90
   8   2  10   89.69    8.00
  -9  -2 -10   36.20    5.50
   9   2  10   40.60    5.10
 -10  -2 -10   27.10    5.10
   9  -3 -10   44.20    5.50
   9  -3 -10   35.50    5.40
  -9   3  10   30.60    5.20
   8  -3 -10   12.00    3.40
   8  -3 -10   16.50    4.20
   7  -3 -10   -2.40    2.20
   7  -3 -10    3.90    3.10
   6  -3 -10   34.60    4.60
   6  -3 -10   31.90    4.60
   6  -3 -10   31.20    4.00
   5  -3 -10  172.78   12.70
   5  -3 -10  181.48   12.00
   5  -3 -10  167.18   12.90
   5  -3 -10  172.48   12.70
   4  -3 -10   22.40    3.90
   4  -3 -10   23.00    3.80
   4  -3 -10   27.10    3.90
   4  -3 -10   25.80    3.00
  -4   3  10   28.20    3.70
   3  -3 -10   75.99    5.60
   3  -3 -10   78.89    6.90
   3  -3 -10   65.99    6.40
   3  -3 -10   76.79    6.80
  -3   3  10   80.59    6.40
   2  -3 -10   20.40    3.40
   2  -3 -10   26.60    3.50
   2  -3 -10   21.70    3.40
   2  -3 -10   26.30    2.70
   2  -3 -10   25.20    2.60
  -2   3  10   22.80    3.20
   1  -3 -10  520.95   31.00
   1  -3 -10  481.65   31.40
   1  -3 -10  510.15   31.00
   1  -3 -10  472.95   31.50
   1  -3 -10  498.55   31.60
  -1   3  10  490.55   31.00
  -1   3  10  465.95   31.10
   0  -3 -10   37.50    4.20
   0  -3 -10   31.90    3.80
   0  -3 -10   34.10    3.60
   0  -3 -10   43.60    4.40
   0   3  10   36.30    3.10
   0   3  10   39.50    3.60
  -1  -3 -10  234.58   14.20
  -1  -3 -10  211.08   14.90
  -1  -3 -10  226.18   14.90
  -1  -3 -10  233.18   15.10
   1   3  10  213.08   14.90
   1   3  10  226.98   14.50
  -2  -3 -10    4.20    1.80
  -2  -3 -10    7.30    2.20
  -2  -3 -10    4.00    2.00
  -2  -3 -10    4.30    2.10
  -2  -3 -10    6.50    1.50
   2   3  10    4.20    1.60
   2   3  10    7.10    2.10
  -3  -3 -10   49.10    4.50
  -3  -3 -10   46.00    5.00
  -3  -3 -10   46.20    4.70
  -3  -3 -10   51.19    4.30
   3   3  10   46.80    4.90
   3   3  10   46.50    4.40
  -4  -3 -10   15.30    2.80
  -4  -3 -10   16.80    2.70
  -4  -3 -10   20.90    3.50
   4   3  10   24.00    3.40
   4   3  10   21.20    2.90
  -5  -3 -10   -1.30    2.40
  -5  -3 -10    2.30    2.00
   5   3  10    1.50    2.00
   5   3  10   -1.20    1.70
  -6  -3 -10    8.90    3.30
  -6  -3 -10   13.40    3.00
   6   3  10    7.10    2.60
  -7  -3 -10   40.90    5.00
  -7  -3 -10   43.30    6.00
   7   3  10   38.20    4.70
  -8  -3 -10    1.50    3.40
  -8  -3 -10   -1.60    2.60
   8   3  10    1.00    2.50
  -9  -3 -10   -0.80    3.00
   9   3  10   -0.80    2.60
 -10  -3 -10    0.70    3.50
   9  -4 -10    5.40    3.70
   9  -4 -10    5.20    3.50
  -9   4  10   10.50    3.90
   8  -4 -10    5.90    3.10
   8  -4 -10    4.50    3.50
  -8   4  10    9.50    3.70
   7  -4 -10   61.09    6.00
   7  -4 -10   47.50    6.20
  -7   4  10   44.10    5.80
   6  -4 -10   -0.20    2.20
   6  -4 -10    3.50    2.60
   6  -4 -10    2.40    3.30
  -6   4  10   -1.80    2.50
   5  -4 -10   26.60    3.60
   5  -4 -10   27.80    4.50
   5  -4 -10   28.50    4.00
  -5   4  10   23.50    3.90
   4  -4 -10    7.70    2.60
   4  -4 -10    3.80    2.60
   4  -4 -10    0.30    2.60
   4  -4 -10    4.70    2.00
  -4   4  10    1.60    2.20
   3  -4 -10   88.59    8.10
   3  -4 -10  103.09    7.20
   3  -4 -10   93.89    7.80
   3  -4 -10   91.09    8.00
  -3   4  10  109.69    7.90
   2  -4 -10    0.00    1.80
   2  -4 -10    4.20    1.60
   2  -4 -10   -0.40    2.10
   2  -4 -10    3.40    2.30
   2  -4 -10    0.40    1.50
  -2   4  10    1.00    1.70
   1  -4 -10   53.79    5.40
   1  -4 -10   56.39    5.40
   1  -4 -10   65.69    5.00
   1  -4 -10   58.59    4.80
   1  -4 -10   60.49    5.80
  -1   4  10   64.79    4.80
  -1   4  10   49.90    5.10
  -1   4  10   58.39    4.40
   0  -4 -10    5.90    2.40
   0  -4 -10    6.50    1.80
   0  -4 -10    9.80    2.30
   0  -4 -10    5.70    1.90
   0  -4 -10    8.10    2.30
   0   4  10    6.60    1.80
   0   4  10    5.90    1.50
  -1  -4 -10  158.78   11.10
  -1  -4 -10  155.08   11.20
  -1  -4 -10  168.68   11.20
  -1  -4 -10  155.78   10.40
  -1  -4 -10  160.58   11.00
   1   4  10  164.98   10.60
   1   4  10  153.38   10.70
   1   4  10  152.98   10.90
  -2  -4 -10   46.10    4.50
  -2  -4 -10   55.09    4.30
  -2  -4 -10   55.79    4.90
  -2  -4 -10   53.29    4.90
  -2  -4 -10   45.30    5.00
   2   4  10   56.69    4.90
   2   4  10   49.50    4.40
  -3  -4 -10   27.80    3.60
  -3  -4 -10   30.40    3.40
  -3  -4 -10   37.10    3.80
  -3  -4 -10   33.70    4.20
   3   4  10   30.00    3.40
   3   4  10   39.20    4.00
  -4  -4 -10   13.90    3.30
  -4  -4 -10   15.90    2.70
   4   4  10   14.70    2.70
   4   4  10   20.00    3.20
  -5  -4 -10    9.30    3.30
  -5  -4 -10   13.40    2.80
   5   4  10   14.90    3.00
   5   4  10   17.90    2.90
  -6  -4 -10    3.70    2.30
  -6  -4 -10    1.70    2.90
   6   4  10    1.60    2.10
  -7  -4 -10   99.29    9.20
  -7  -4 -10   83.19    7.70
   7   4  10   79.39    7.40
  -8  -4 -10   -4.20    3.00
  -8  -4 -10    1.40    2.80
   8   4  10    1.10    2.50
  -9  -4 -10   74.59    7.90
   9   4  10   84.79    9.10
 -10  -4 -10    1.40    3.40
   8  -5 -10   -1.70    3.30
   8  -5 -10    5.60    3.20
  -8   5  10    5.20    3.50
   7  -5 -10   37.20    5.40
   7  -5 -10   34.70    4.90
  -7   5  10   35.20    5.20
   6  -5 -10   17.10    4.00
   6  -5 -10   16.80    3.40
  -6   5  10   16.90    3.80
   5  -5 -10   16.50    3.80
   5  -5 -10   20.00    3.50
   5  -5 -10   20.30    3.30
  -5   5  10   23.30    3.90
   4  -5 -10   68.39    6.10
   4  -5 -10   65.79    6.60
   4  -5 -10   64.19    5.90
  -4   5  10   70.79    6.30
   3  -5 -10   28.40    3.60
   3  -5 -10   30.00    4.20
   3  -5 -10   37.00    4.10
   3  -5 -10   40.60    3.60
  -3   5  10   30.70    3.90
   2  -5 -10   65.59    6.20
   2  -5 -10   70.09    5.80
   2  -5 -10   75.39    6.30
   2  -5 -10   58.79    5.60
  -2   5  10   68.69    5.80
   1  -5 -10   97.69    8.00
   1  -5 -10  104.69    7.40
   1  -5 -10   97.39    8.00
   1  -5 -10  105.79    7.70
   1  -5 -10  103.49    7.90
  -1   5  10   95.79    7.20
  -1   5  10  101.09    7.10
  -1   5  10  100.69    7.60
   0  -5 -10    8.80    2.20
   0  -5 -10    9.00    2.10
   0  -5 -10   12.70    2.80
   0  -5 -10    9.60    2.40
   0  -5 -10    6.90    2.30
   0   5  10    6.60    2.10
   0   5  10   12.80    1.90
  -1  -5 -10   90.69    7.00
  -1  -5 -10  101.59    7.20
  -1  -5 -10   73.79    7.20
  -1  -5 -10   94.89    7.30
  -1  -5 -10  102.09    7.30
   1   5  10   94.09    6.90
   1   5  10   91.79    6.70
  -2  -5 -10    1.90    2.00
  -2  -5 -10    3.10    2.40
  -2  -5 -10    5.60    2.00
  -2  -5 -10    1.00    1.40
   2   5  10    2.00    1.70
   2   5  10    2.50    1.60
  -3  -5 -10   88.69    7.20
  -3  -5 -10   82.29    7.60
  -3  -5 -10   86.09    6.90
   3   5  10   99.59    7.40
   3   5  10   92.29    6.90
  -4  -5 -10    3.20    2.60
  -4  -5 -10    4.20    2.00
   4   5  10    2.70    2.10
   4   5  10    4.40    2.10
  -5  -5 -10   80.89    7.50
  -5  -5 -10   67.99    6.50
   5   5  10   70.99    6.40
   5   5  10   77.39    6.80
  -6  -5 -10    5.00    2.50
  -6  -5 -10   -0.30    2.90
   6   5  10   -1.50    2.00
  -7  -5 -10   99.39    8.00
  -7  -5 -10   92.29    9.10
   7   5  10   72.49    7.40
  -8  -5 -10    2.20    2.90
   8   5  10    2.80    2.70
  -9  -5 -10   -2.40    3.00
 -10  -5 -10    4.20    3.40
   8  -6 -10    5.50    3.30
   8  -6 -10    2.80    3.60
  -8   6  10    0.70    3.00
   7  -6 -10    7.50    3.20
   7  -6 -10    7.40    3.80
  -7   6  10    3.00    3.00
   6  -6 -10   14.30    3.90
   6  -6 -10   10.70    3.30
  -6   6  10   17.60    3.70
   5  -6 -10   50.59    5.40
   5  -6 -10   51.49    5.80
  -5   6  10   44.00    5.30
   4  -6 -10   -2.50    2.40
   4  -6 -10    0.50    1.70
   4  -6 -10    2.60    2.20
  -4   6  10    4.90    2.50
   3  -6 -10    1.40    2.10
   3  -6 -10    1.70    2.50
   3  -6 -10    2.40    2.00
   3  -6 -10    0.60    1.60
  -3   6  10    2.90    2.30
   2  -6 -10   24.00    3.00
   2  -6 -10   17.40    3.10
   2  -6 -10   22.30    3.30
   2  -6 -10   22.00    3.60
  -2   6  10   24.10    3.40
   1  -6 -10  283.37   18.90
   1  -6 -10  316.47   19.30
   1  -6 -10  307.67   19.10
   1  -6 -10  274.77   19.10
  -1   6  10  271.27   18.70
  -1   6  10  293.87   19.10
  -1   6  10  274.37   18.50
   0  -6 -10   18.50    2.80
   0  -6 -10   17.90    3.10
   0  -6 -10   21.80    3.30
   0  -6 -10   23.90    3.20
   0   6  10   21.30    3.10
   0   6  10   21.90    2.70
  -1  -6 -10  380.26   25.20
  -1  -6 -10  412.16   25.70
  -1  -6 -10  390.86   25.20
  -1  -6 -10  391.76   25.40
   1   6  10  393.26   25.00
   1   6  10  383.56   25.20
  -2  -6 -10    3.30    1.70
  -2  -6 -10    5.90    2.50
  -2  -6 -10    5.80    2.10
   2   6  10    2.80    1.90
   2   6  10    2.20    1.70
  -3  -6 -10  118.69   10.50
  -3  -6 -10  140.79    9.90
   3   6  10  149.79   10.20
   3   6  10  144.29    9.90
  -4  -6 -10    9.40    3.20
  -4  -6 -10    7.60    2.40
   4   6  10    7.80    2.30
   4   6  10    6.30    2.50
  -5  -6 -10  316.07   19.90
  -5  -6 -10  267.87   18.70
   5   6  10  257.57   18.60
   5   6  10  273.67   19.00
  -6  -6 -10   29.90    4.40
  -6  -6 -10   44.30    5.70
   6   6  10   27.30    4.00
  -7  -6 -10   24.10    4.00
  -7  -6 -10   14.90    4.30
   7   6  10    7.40    2.90
  -8  -6 -10    6.60    3.40
   8   6  10    6.70    3.10
  -9  -6 -10   61.49    7.20
   8  -7 -10   51.69    6.50
   8  -7 -10   58.39    6.70
  -8   7  10   35.80    5.70
   7  -7 -10    1.30    3.30
   7  -7 -10    4.70    3.20
  -7   7  10    5.40    3.20
   6  -7 -10   18.10    4.20
   6  -7 -10   13.80    3.70
  -6   7  10   11.00    3.60
   5  -7 -10    6.50    2.90
   5  -7 -10    8.50    3.30
  -5   7  10    9.60    3.10
   4  -7 -10    1.80    2.40
   4  -7 -10    2.90    2.80
   4  -7 -10    0.60    1.90
  -4   7  10    0.60    2.50
   3  -7 -10   88.79    7.70
   3  -7 -10   88.69    6.90
   3  -7 -10   80.29    7.30
  -3   7  10   87.19    7.40
   2  -7 -10    9.70    2.30
   2  -7 -10    6.80    2.50
   2  -7 -10   10.20    2.40
   2  -7 -10    8.30    2.90
  -2   7  10   19.30    3.20
   1  -7 -10  198.58   15.10
   1  -7 -10  228.28   14.80
   1  -7 -10  218.38   14.80
   1  -7 -10  222.68   15.20
  -1   7  10  211.88   15.00
  -1   7  10  229.58   14.50
  -1   7  10  225.38   14.60
   0  -7 -10  119.59    8.80
   0  -7 -10  106.79    8.90
   0  -7 -10  123.09    8.90
   0  -7 -10  120.69    9.40
   0  -7 -10  134.29    9.00
   0   7  10  119.89    9.00
   0   7  10  116.39    8.60
  -1  -7 -10   20.80    3.00
  -1  -7 -10   18.50    3.00
  -1  -7 -10   16.80    2.90
  -1  -7 -10   23.60    3.70
   1   7  10   22.10    3.20
   1   7  10   25.10    3.00
  -2  -7 -10  119.59    8.90
  -2  -7 -10  100.99    7.80
   2   7  10   93.99    7.70
   2   7  10   99.89    7.90
  -3  -7 -10  125.49   11.20
  -3  -7 -10  147.29   10.50
   3   7  10  142.59   10.40
   3   7  10  166.48   10.50
  -4  -7 -10   63.09    6.10
  -4  -7 -10   73.89    7.50
   4   7  10   65.69    6.10
  -5  -7 -10   -2.50    2.90
  -5  -7 -10    1.70    2.40
   5   7  10   -1.00    2.00
  -6  -7 -10    5.90    2.60
  -6  -7 -10    5.60    3.70
   6   7  10    2.10    2.30
  -7  -7 -10    1.60    3.60
  -7  -7 -10    0.40    2.80
   7   7  10    1.20    2.50
  -8  -7 -10    4.50    3.20
   8   7  10    2.20    2.60
  -9  -7 -10   29.70    5.30
  -8   8  10   -0.20    3.20
   7  -8 -10   27.30    5.00
   7  -8 -10   31.10    5.10
  -7   8  10   26.10    4.80
   6  -8 -10   -0.20    3.20
   6  -8 -10    5.40    3.20
  -6   8  10    3.90    3.10
   5  -8 -10  191.18   14.10
   5  -8 -10  182.88   14.20
   5  -8 -10  197.68   13.40
  -5   8  10  191.18   14.10
   4  -8 -10   11.30    3.30
   4  -8 -10   15.80    3.60
   4  -8 -10   14.80    2.80
  -4   8  10   15.90    3.50
   3  -8 -10  432.86   27.80
   3  -8 -10  417.66   27.70
   3  -8 -10  432.36   27.20
  -3   8  10  394.06   27.50
   2  -8 -10  109.39    9.10
   2  -8 -10  112.39    8.60
  -2   8  10  124.09    9.30
   1  -8 -10   52.89    5.70
   1  -8 -10   42.50    4.80
  -1   8  10   42.70    5.00
  -1   8  10   55.39    4.60
  -1   8  10   52.59    4.70
   0  -8 -10   70.99    6.00
   0  -8 -10   66.99    6.70
   0  -8 -10   67.99    5.90
   0  -8 -10   67.89    5.90
   0   8  10   65.89    5.80
   0   8  10   65.69    6.10
  -1  -8 -10  129.59    9.40
  -1  -8 -10  100.39    9.80
   1   8  10  138.69    9.30
   1   8  10  141.29    9.60
  -2  -8 -10   12.20    2.70
  -2  -8 -10   16.10    2.90
  -2  -8 -10   13.30    3.40
   2   8  10    9.20    2.50
   2   8  10   13.20    3.00
  -3  -8 -10   10.90    3.50
  -3  -8 -10   11.80    2.70
   3   8  10    9.20    2.80
   3   8  10   14.90    2.80
  -4  -8 -10    2.90    2.30
  -4  -8 -10    2.50    3.10
   4   8  10   -2.60    2.00
  -5  -8 -10  100.79    9.40
  -5  -8 -10   87.49    7.90
   5   8  10   93.09    7.80
  -6  -8 -10    8.00    3.20
  -6  -8 -10    5.30    3.90
   6   8  10    6.50    2.80
  -7  -8 -10  169.38   13.80
   7   8  10  199.48   13.70
  -8  -8 -10  101.19    9.50
  -9  -8 -10  474.95   31.90
   7  -9 -10   30.50    5.30
   7  -9 -10   35.00    5.60
  -7   9  10   22.90    4.80
   6  -9 -10    3.00    3.50
   6  -9 -10    2.60    3.40
  -6   9  10    8.20    3.50
   5  -9 -10   55.29    5.50
   5  -9 -10   47.00    6.10
   5  -9 -10   57.29    6.70
  -5   9  10   50.79    6.20
   4  -9 -10   14.90    2.40
   4  -9 -10    9.00    2.70
   4  -9 -10   11.60    3.60
   4  -9 -10   11.60    3.70
  -4   9  10   21.10    3.90
   3  -9 -10   71.59    7.20
   3  -9 -10   70.49    6.50
  -3   9  10   71.09    7.00
   2  -9 -10    1.10    2.40
   2  -9 -10   -0.80    2.00
  -2   9  10    0.30    1.60
  -2   9  10    1.20    2.50
   1  -9 -10   69.39    6.90
   1  -9 -10   70.59    6.30
  -1   9  10   64.89    6.00
  -1   9  10   71.69    6.60
   0  -9 -10   24.20    3.70
   0  -9 -10   27.90    4.40
   0   9  10   27.60    4.10
   0   9  10   25.60    3.40
  -1  -9 -10  369.76   24.50
  -1  -9 -10  347.47   23.60
   1   9  10  343.17   23.50
   1   9  10  383.36   23.90
  -2  -9 -10    1.30    2.20
  -2  -9 -10    0.60    2.10
  -2  -9 -10    1.60    2.80
   2   9  10    2.00    2.60
   2   9  10    1.90    2.10
  -3  -9 -10  665.43   42.20
  -3  -9 -10  779.72   43.50
   3   9  10  602.34   41.90
   3   9  10  607.94   42.00
  -4  -9 -10   50.69    6.40
  -4  -9 -10   40.50    5.10
   4   9  10   49.80    5.20
   4   9  10   36.20    4.80
  -5  -9 -10  331.37   24.10
  -5  -9 -10  416.16   25.60
   5   9  10  341.07   23.90
  -6  -9 -10  280.37   19.00
  -6  -9 -10  273.67   20.00
   6   9  10  251.87   18.50
  -7  -9 -10  463.35   30.00
   7   9  10  430.56   29.80
  -8  -9 -10  139.49   11.60
   6 -10 -10    2.20    3.40
   6 -10 -10   13.20    4.20
  -6  10  10    5.80    3.60
   5 -10 -10  107.79   10.00
   5 -10 -10  100.19    9.60
  -5  10  10  116.89    9.90
   4 -10 -10    2.10    3.30
   4 -10 -10    1.20    2.00
   4 -10 -10    1.50    2.40
  -4  10  10   -0.50    2.90
   3 -10 -10  134.89   10.00
   3 -10 -10  131.89   11.00
  -3  10  10  122.79   10.50
   2 -10 -10    9.90    3.30
   2 -10 -10    5.60    2.60
  -2  10  10    8.80    2.10
  -2  10  10    7.50    3.10
   1 -10 -10  227.38   17.60
   1 -10 -10  251.17   17.00
  -1  10  10  264.07   17.40
  -1  10  10  257.17   16.90
   0 -10 -10  168.98   12.70
   0 -10 -10  194.18   13.80
   0  10  10  165.78   12.50
   0  10  10  184.78   13.10
  -1 -10 -10  394.96   29.50
  -1 -10 -10  424.86   28.80
   1  10  10  468.65   28.80
   1  10  10  486.95   29.20
  -2 -10 -10  499.55   31.80
  -2 -10 -10  476.85   32.70
   2  10  10  461.65   31.60
   2  10  10  529.85   32.10
  -3 -10 -10   94.19    9.60
  -3 -10 -10  112.69    8.80
   3  10  10  110.49    8.60
   3  10  10  105.39    8.90
  -4 -10 -10  729.83   45.00
  -4 -10 -10  712.13   45.80
   4  10  10  675.53   44.60
   4  10  10  681.03   44.60
  -5 -10 -10  152.68   13.00
  -5 -10 -10  146.09   11.90
   5  10  10  159.38   11.60
  -6 -10 -10  231.28   16.20
   6  10  10  206.18   15.60
  -7 -10 -10    1.50    3.20
  -8 -10 -10    8.40    3.90
   6 -11 -10    5.90    4.10
   6 -11 -10    5.90    3.70
  -6  11  10    3.70    3.50
   5 -11 -10  138.99   12.00
   5 -11 -10  151.38   10.30
  -5  11  10  127.39   11.80
   4 -11 -10    5.70    2.50
   4 -11 -10   10.30    3.90
  -4  11  10   -3.00    2.80
   3 -11 -10   81.59    8.90
  -3  11  10  102.49    8.90
   2 -11 -10  160.18   12.00
   2 -11 -10  162.68   13.10
  -2  11  10  160.18   12.40
   1 -11 -10  225.08   15.10
   1 -11 -10  191.08   13.80
  -1  11  10  177.48   13.60
  -1  11  10  179.78   14.20
   0 -11 -10  300.57   21.80
   0 -11 -10  325.17   21.00
   0  11  10  309.47   20.80
   0  11  10  309.07   21.30
  -1 -11 -10    8.10    3.50
  -1 -11 -10    6.90    2.70
   1  11  10    6.90    2.60
   1  11  10    2.70    2.90
  -2 -11 -10  231.68   15.30
  -2 -11 -10  221.88   16.50
   2  11  10  193.48   15.00
   2  11  10  218.48   15.60
  -3 -11 -10   24.10    5.00
  -3 -11 -10   23.70    4.10
   3  11  10   20.10    3.60
   3  11  10   15.70    3.90
  -4 -11 -10    5.90    3.60
  -4 -11 -10    5.60    3.00
   4  11  10    0.20    2.60
   4  11  10    2.10    2.80
  -5 -11 -10   12.70    3.70
   5  11  10   12.40    3.60
   5  11  10    7.30    3.00
  -6 -11 -10   62.09    7.10
  -7 -11 -10   50.79    6.60
   5 -12 -10   13.30    4.80
   5 -12 -10   10.60    4.00
   5 -12 -10   11.90    2.80
  -5  12  10   15.30    4.10
   4 -12 -10  301.67   21.40
  -4  12  10  276.57   20.50
   3 -12 -10   62.39    8.00
  -3  12  10   89.89    8.20
   2 -12 -10  251.97   19.40
  -2  12  10  277.77   18.80
  -2  12  10  259.97   18.10
   1 -12 -10    1.90    3.40
  -1  12  10    1.10    2.40
  -1  12  10    2.00    3.10
   0 -12 -10   69.79    7.60
   0  12  10   56.99    6.60
   0  12  10   50.79    5.80
  -1 -12 -10   17.50    4.60
   1  12  10   10.80    3.70
   1  12  10   11.00    3.20
  -2 -12 -10    4.10    3.50
   2  12  10    5.30    3.40
   2  12  10    5.90    2.90
  -3 -12 -10   -1.60    3.40
   3  12  10    1.80    2.60
   3  12  10    1.60    3.00
  -4 -12 -10   61.39    6.90
  -4 -12 -10   44.00   10.10
   4  12  10   68.79    7.00
  -5 -12 -10   15.40    4.20
   5  12  10   24.50    4.30
   5  12  10   20.10    4.20
  -6 -12 -10    0.60    3.10
   6  12  10    5.10    3.30
   4 -13 -10   17.70    5.30
  -4  13  10   18.90    4.60
   3 -13 -10   -4.80    3.60
  -3  13  10    3.90    3.40
   2 -13 -10    8.80    4.20
  -2  13  10   14.40    4.10
   1 -13 -10    2.80    3.70
  -1  13  10   -1.00    3.30
   0 -13 -10   69.89    8.20
   0  13  10   63.79    7.30
  -1 -13 -10   -0.60    3.40
   1  13  10    0.80    3.30
  -2 -13 -10   48.80    7.00
   2  13  10   46.20    6.10
   3  13  10   47.80    6.20
   4  13  10    5.60    3.40
  -5 -13 -10    6.70    3.60
   5  13  10    4.40    3.40
   5  13  10    7.00    3.50
   2 -14 -10   18.70    5.00
   1 -14 -10   46.20    7.10
  -1  14  10   45.30    6.30
   0 -14 -10   -1.30    3.70
   0  14  10    0.80    3.30
  -1 -14 -10    1.00    3.60
   1  14  10    7.20    3.80
   2  14  10   29.50    5.20
   3  14  10  132.79   11.40
   2  10 -11   22.40    4.70
   2  10 -11   14.60    3.90
   1  10 -11    2.30    3.40
   1  10 -11   -2.00    2.60
   0  10 -11  136.09   12.60
   0  10 -11  179.78   13.10
  -1  10 -11    1.20    3.30
  -1  10 -11    2.80    3.40
  -2  10 -11  369.16   25.00
  -2  10 -11  341.27   24.50
  -3  10 -11  254.67   19.50
  -3  10 -11  272.57   19.00
   4   9 -11   54.59    5.90
   4   9 -11   50.79    6.40
   3   9 -11   96.29    8.40
   3   9 -11   94.59    9.10
   2   9 -11  259.47   20.00
   2   9 -11  300.17   19.70
   1   9 -11   70.89    7.10
   1   9 -11   59.69    7.20
   0   9 -11  342.97   24.60
   0   9 -11  393.66   25.10
  -1   9 -11  312.67   21.30
  -1   9 -11  294.67   21.30
  -2   9 -11  291.37   20.10
  -2   9 -11  263.67   19.70
  -3   9 -11   32.10    5.60
  -3   9 -11   43.90    5.60
  -3   9 -11   39.20    5.90
  -4   9 -11   59.49    7.60
  -4   9 -11   63.19    5.80
  -4   9 -11   70.49    7.20
  -5   9 -11   20.80    3.50
  -5   9 -11   24.10    5.80
  -5   9 -11   20.30    5.30
   5   8 -11  276.57   20.40
   5   8 -11  303.27   19.80
   4   8 -11  344.27   25.10
   4   8 -11  451.95   26.30
   3   8 -11   87.69    8.30
   3   8 -11   65.89    6.70
   3   8 -11   83.19    8.10
   2   8 -11  574.84   36.90
   2   8 -11  558.04   36.70
   2   8 -11  557.14   36.20
   1   8 -11  162.58   11.90
   1   8 -11  137.09   11.10
   0   8 -11  233.58   17.20
   0   8 -11  263.27   17.80
  -1   8 -11   -1.60    2.50
  -1   8 -11   -1.50    3.00
  -2   8 -11   31.50    5.00
  -2   8 -11   32.70    5.20
   2  -8  11   35.30    4.30
  -3   8 -11  110.29   10.00
  -3   8 -11  118.09   10.30
  -3   8 -11  124.49   10.60
   3  -8  11  116.29    9.20
  -4   8 -11    5.90    3.30
  -4   8 -11    3.00    3.60
  -4   8 -11    2.90    2.20
  -4   8 -11    4.40    3.20
   4  -8  11    3.40    2.40
  -5   8 -11   20.90    5.00
  -5   8 -11   18.60    4.90
  -5   8 -11   16.20    3.20
  -6   8 -11    8.30    4.40
  -6   8 -11    7.20    3.00
   6   7 -11  261.97   17.60
   5   7 -11    2.20    2.20
   5   7 -11   -0.20    2.90
   4   7 -11  281.37   18.20
   4   7 -11  254.17   19.00
   4   7 -11  271.57   19.50
   3   7 -11    4.00    2.20
   3   7 -11    8.60    3.50
   3   7 -11    0.40    3.30
   2   7 -11   46.60    5.90
   2   7 -11   56.69    6.40
   2   7 -11   52.09    5.30
   1   7 -11   55.69    5.70
   1   7 -11   55.39    6.20
   1   7 -11   49.70    6.10
   0   7 -11    0.50    2.90
   0   7 -11    4.00    2.60
   0   7 -11    3.70    2.90
  -1   7 -11  250.07   17.80
  -1   7 -11  267.17   18.20
  -2   7 -11   49.20    5.70
  -2   7 -11   37.20    5.10
  -2   7 -11   32.30    5.00
   2  -7  11   42.40    4.40
  -3   7 -11    1.00    2.80
  -3   7 -11    2.80    2.90
  -3   7 -11    1.80    2.10
   3  -7  11    0.70    2.00
  -4   7 -11   23.90    3.20
  -4   7 -11   26.30    4.30
  -4   7 -11   21.10    4.40
  -4   7 -11   22.00    4.70
   4  -7  11   24.90    3.60
  -5   7 -11   -2.40    3.00
  -5   7 -11    3.80    3.90
  -5   7 -11   -0.50    3.40
  -5   7 -11    1.10    2.30
   5  -7  11   -1.10    2.20
  -6   7 -11   20.70    5.20
  -6   7 -11   16.40    3.40
  -7   7 -11   11.40    3.40
  -7   7 -11    3.30    4.20
   6   6 -11   83.29    7.00
   6   6 -11   99.19    8.70
   5   6 -11    1.00    1.80
   5   6 -11    0.10    3.60
   5   6 -11   -3.30    3.60
   5   6 -11    2.00    2.90
   4   6 -11    5.80    3.20
   4   6 -11   -2.70    3.20
   4   6 -11    1.70    1.90
   4   6 -11    5.60    3.90
   3   6 -11   31.60    4.90
   3   6 -11   37.40    5.00
   3   6 -11   23.20    3.30
   2   6 -11   70.69    7.00
   2   6 -11   66.39    7.00
   2   6 -11   60.49    5.60
   1   6 -11   -0.10    2.80
   1   6 -11   -0.80    2.00
   1   6 -11   -1.60    2.60
   0   6 -11   97.19    8.30
   0   6 -11  112.79    9.00
   0   6 -11  102.29    8.60
  -1   6 -11  226.28   16.10
  -1   6 -11  234.78   16.40
  -1   6 -11  230.58   16.00
  -2   6 -11   52.39    5.70
  -2   6 -11   52.19    5.80
  -2   6 -11   53.99    5.90
  -2   6 -11   58.59    6.10
   2  -6  11   49.50    4.80
  -3   6 -11   88.49    7.80
  -3   6 -11   67.29    7.20
  -3   6 -11   78.09    5.90
  -3   6 -11   65.09    7.30
   3  -6  11   87.79    6.60
  -4   6 -11   45.30    5.40
  -4   6 -11   45.20    4.40
  -4   6 -11   50.69    6.00
  -4   6 -11   37.10    5.60
   4  -6  11   39.50    4.60
  -5   6 -11   16.80    3.20
  -5   6 -11   18.80    4.60
  -5   6 -11   18.50    4.40
   5  -6  11   28.40    3.80
  -6   6 -11   43.10    5.10
  -6   6 -11   50.59    6.80
  -6   6 -11   36.70    5.90
   6  -6  11   41.00    5.00
  -7   6 -11    2.30    3.90
  -7   6 -11    0.70    2.80
   7   5 -11   -0.90    2.00
   7   5 -11    0.80    3.80
   6   5 -11   99.69    7.80
   6   5 -11  101.79    9.10
   6   5 -11  121.39   10.10
   5   5 -11   97.19    9.30
   5   5 -11  109.29    9.50
   5   5 -11   98.19    8.80
   5   5 -11   93.69    7.20
   4   5 -11  157.38   11.50
   4   5 -11  127.89   10.90
   4   5 -11  126.89   11.10
   4   5 -11  131.39    9.30
   3   5 -11   -2.20    2.80
   3   5 -11    0.30    2.70
   3   5 -11   -0.10    3.20
   3   5 -11    1.40    1.60
   2   5 -11   56.09    6.30
   2   5 -11   47.50    5.80
   2   5 -11   50.19    6.00
   2   5 -11   54.09    4.70
   1   5 -11   94.89    8.00
   1   5 -11   84.89    7.70
   1   5 -11   80.59    7.90
   1   5 -11   84.19    6.70
   0   5 -11    2.10    2.70
   0   5 -11    0.50    1.90
   0   5 -11    3.20    2.80
  -1   5 -11   -2.30    2.50
  -1   5 -11    5.50    2.80
  -1   5 -11    0.80    2.00
  -2   5 -11    5.40    2.80
  -2   5 -11    7.20    2.90
  -2   5 -11    4.00    2.50
  -2   5 -11    2.50    2.70
   2  -5  11    4.70    1.90
  -3   5 -11   81.39    7.30
  -3   5 -11   73.09    7.50
  -3   5 -11   77.09    5.90
  -3   5 -11   81.59    7.30
  -3   5 -11   80.89    7.60
   3  -5  11   84.09    6.50
  -4   5 -11   12.70    3.40
  -4   5 -11   14.00    3.80
  -4   5 -11   16.20    2.70
  -4   5 -11   15.90    4.00
  -4   5 -11   12.30    3.70
   4  -5  11   16.00    2.90
  -5   5 -11   42.60    5.80
  -5   5 -11   29.30    5.10
  -5   5 -11   38.90    4.30
   5  -5  11   32.90    4.30
  -6   5 -11   53.89    5.60
  -6   5 -11   45.30    6.50
  -6   5 -11   57.59    7.20
   6  -5  11   52.39    5.60
  -7   5 -11   90.39    9.90
  -7   5 -11   90.39    8.20
  -8   5 -11   71.59    7.70
  -8   5 -11   99.99   10.10
   7   4 -11  152.38   11.80
   7   4 -11  145.89   10.60
   7   4 -11  166.18   12.80
   6   4 -11   49.70    6.50
   6   4 -11   45.60    4.40
   6   4 -11   51.49    6.60
   6   4 -11   56.09    6.00
   5   4 -11    0.00    3.10
   5   4 -11   -4.90    2.90
   5   4 -11    0.00    2.80
   5   4 -11   -1.20    1.40
   4   4 -11    3.40    3.40
   4   4 -11    0.90    1.30
   4   4 -11    5.50    3.30
   4   4 -11    0.70    2.60
   3   4 -11    7.70    3.30
   3   4 -11   11.30    3.50
   3   4 -11    7.30    1.70
   3   4 -11   10.40    3.40
   2   4 -11   18.40    3.90
   2   4 -11   30.20    3.10
   2   4 -11   16.70    3.90
   2   4 -11   32.80    4.70
  -2  -4  11   24.80    3.90
   1   4 -11    2.10    2.80
   1   4 -11    2.00    2.90
   1   4 -11    3.90    1.70
   1   4 -11    5.00    2.70
  -1  -4  11    1.80    2.10
   0   4 -11   48.30    4.50
   0   4 -11   42.30    5.30
   0   4 -11   36.70    5.10
   0   4 -11   49.00    5.40
   0  -4  11   46.90    5.30
  -1   4 -11  122.29    9.30
  -1   4 -11  110.69    9.20
  -1   4 -11  121.59    8.70
   1  -4  11   98.19    8.90
  -2   4 -11   64.59    6.40
  -2   4 -11   56.29    6.40
  -2   4 -11   75.29    6.70
  -2   4 -11   67.89    6.20
   2  -4  11   70.99    5.50
  -3   4 -11   -0.20    2.50
  -3   4 -11    0.90    1.40
  -3   4 -11    0.50    2.60
  -3   4 -11   -1.60    2.30
  -3   4 -11   -2.40    2.30
   3  -4  11    0.50    1.70
  -4   4 -11  129.79    9.70
  -4   4 -11  107.19    8.00
  -4   4 -11  105.79    8.80
  -4   4 -11   98.69    9.20
  -4   4 -11  105.99    8.80
   4  -4  11  111.09    8.40
  -5   4 -11   34.90    4.60
  -5   4 -11   30.10    3.80
  -5   4 -11   32.60    5.00
  -5   4 -11   30.40    5.00
   5  -4  11   28.60    3.90
  -6   4 -11   93.59    8.60
  -6   4 -11   78.69    7.30
  -6   4 -11   77.89    8.60
   6  -4  11   87.09    7.40
  -7   4 -11   14.50    3.60
  -7   4 -11   17.40    4.80
  -7   4 -11    8.30    3.90
   7  -4  11   14.20    3.30
  -8   4 -11   16.30    4.90
  -8   4 -11    8.10    3.50
   8   3 -11    4.30    2.10
   8   3 -11    5.40    3.70
   8   3 -11   -1.00    3.20
   7   3 -11   62.99    6.90
   7   3 -11   69.19    7.60
   7   3 -11   65.69    5.60
   6   3 -11   82.69    8.40
   6   3 -11   88.69    8.90
   6   3 -11   86.89    7.80
   6   3 -11   83.29    7.70
   6   3 -11   82.89    6.40
   5   3 -11   18.70    3.90
   5   3 -11   21.20    4.60
   5   3 -11   26.30    4.90
   5   3 -11   23.00    2.40
   4   3 -11  171.48   12.80
   4   3 -11  178.58   12.80
   4   3 -11  157.38   12.80
   4   3 -11  169.68   10.90
   3   3 -11   -0.10    1.00
   3   3 -11   -2.10    2.60
   3   3 -11    1.30    2.50
   3   3 -11   -1.70    2.70
   2   3 -11  200.78   13.00
   2   3 -11  197.38   14.40
   2   3 -11  211.88   14.50
   2   3 -11  201.88   14.50
  -2  -3  11  199.48   14.20
   1   3 -11   28.60    4.70
   1   3 -11   39.60    3.40
   1   3 -11   34.50    4.60
   1   3 -11   34.80    4.40
  -1  -3  11   30.50    4.10
   0   3 -11  163.78   12.90
   0   3 -11  174.08   12.10
   0   3 -11  180.48   12.80
   0   3 -11  194.18   13.10
   0  -3  11  186.18   12.90
  -1   3 -11   83.29    7.20
  -1   3 -11   96.89    7.90
  -1   3 -11   92.89    7.80
  -1   3 -11  102.59    8.10
   1  -3  11  101.39    7.90
  -2   3 -11  171.68   11.70
  -2   3 -11  163.98   11.90
  -2   3 -11  158.58   11.90
   2  -3  11  154.98   11.90
   2  -3  11  159.18   10.90
  -3   3 -11    8.90    2.80
  -3   3 -11    4.90    2.60
  -3   3 -11    8.70    3.00
  -3   3 -11    1.00    2.50
  -3   3 -11    4.00    1.50
   3  -3  11    3.50    1.80
  -4   3 -11   62.19    6.30
  -4   3 -11   67.19    6.10
  -4   3 -11   59.79    6.50
  -4   3 -11   57.69    5.10
  -4   3 -11   64.99    6.70
   4  -3  11   52.69    5.20
  -5   3 -11   63.99    6.80
  -5   3 -11   50.69    5.20
  -5   3 -11   49.70    6.20
   5  -3  11   60.49    5.50
  -6   3 -11   -1.10    2.90
  -6   3 -11    3.50    3.40
  -6   3 -11   -1.70    2.20
   6  -3  11    2.00    2.30
  -7   3 -11   57.49    6.10
  -7   3 -11   57.49    7.00
  -7   3 -11   64.49    7.70
   7  -3  11   53.69    5.90
  -8   3 -11   21.90    5.30
  -8   3 -11   21.50    4.20
  -9   3 -11    0.90    3.00
  -9   3 -11   -5.80    4.60
   8   2 -11   26.50    4.70
   8   2 -11   36.20    5.50
   8   2 -11   27.90    3.60
   7   2 -11    1.50    3.10
   7   2 -11   -0.60    1.70
   7   2 -11   -1.20    3.30
   6   2 -11   16.50    2.30
   6   2 -11   20.30    4.00
   6   2 -11   25.00    4.80
   6   2 -11   17.50    3.80
   6   2 -11   23.40    4.60
   5   2 -11  132.79   10.80
   5   2 -11  151.48   11.40
   5   2 -11  140.09   10.20
   5   2 -11  127.79    8.80
   5   2 -11  131.89   10.60
  -5  -2  11  134.99    9.60
   4   2 -11    5.40    2.80
   4   2 -11    8.20    3.20
   4   2 -11   -1.70    2.70
   3   2 -11    0.10    2.50
   3   2 -11    0.30    2.40
   3   2 -11    0.70    2.60
   2   2 -11    6.90    2.90
   2   2 -11    4.50    2.70
   2   2 -11    8.00    2.90
   1   2 -11  117.09    9.30
   1   2 -11  116.29    7.90
   1   2 -11  123.99    9.30
   1   2 -11  117.19    9.30
  -1  -2  11  111.29    8.90
   0   2 -11   11.20    2.10
   0   2 -11   15.40    3.30
   0   2 -11   12.70    2.90
   0   2 -11   14.80    3.30
   0  -2  11   13.40    2.70
  -1   2 -11    1.10    1.70
  -1   2 -11    1.20    2.20
  -1   2 -11    2.80    2.40
  -1   2 -11   -1.20    2.20
   1  -2  11    1.80    2.00
  -2   2 -11   37.30    4.30
  -2   2 -11   36.80    4.70
  -2   2 -11   34.50    4.30
  -2   2 -11   41.70    4.50
   2  -2  11   35.60    4.60
   2  -2  11   41.70    3.70
  -3   2 -11   -1.40    1.30
  -3   2 -11    1.10    2.20
  -3   2 -11    0.10    2.50
  -3   2 -11    0.10    2.20
   3  -2  11   -0.40    1.60
   3  -2  11   -1.30    2.00
  -4   2 -11   59.19    5.10
  -4   2 -11   68.39    6.50
  -4   2 -11   53.09    6.30
  -4   2 -11   57.59    5.70
   4  -2  11   61.69    5.50
  -5   2 -11   24.10    3.40
  -5   2 -11   15.60    3.80
  -5   2 -11   29.40    4.60
   5  -2  11   25.70    3.40
  -6   2 -11   35.20    5.40
  -6   2 -11   47.30    6.20
  -6   2 -11   47.30    5.10
   6  -2  11   50.69    5.10
  -7   2 -11   11.30    4.30
  -7   2 -11    8.70    3.10
  -7   2 -11    8.90    3.70
   7  -2  11   10.80    3.20
  -8   2 -11    4.40    3.20
  -8   2 -11   -2.00    2.70
  -8   2 -11    3.40    3.90
   8  -2  11    1.40    2.80
  -9   2 -11    5.80    3.60
  -9   2 -11    2.30    4.20
   8   1 -11    3.10    3.80
   8   1 -11    5.90    3.30
   8   1 -11    6.00    2.30
   7   1 -11  106.49    9.40
   7   1 -11   99.79    7.60
   7   1 -11  102.19    9.20
   6   1 -11   -0.80    3.00
   6   1 -11   -1.70    3.10
   6   1 -11    4.00    2.90
   6   1 -11    1.80    2.90
   6   1 -11   -1.30    1.40
   5   1 -11   22.20    3.60
   5   1 -11   20.50    4.20
   5   1 -11   17.50    4.20
   5   1 -11   19.10    3.80
  -5  -1  11   20.40    2.90
   4   1 -11    2.60    2.90
   4   1 -11    0.20    2.70
   4   1 -11   -0.50    2.20
   4   1 -11    3.80    2.60
  -4  -1  11    4.80    1.60
   3   1 -11    0.00    2.60
   3   1 -11   -1.40    2.40
   3   1 -11    0.20    2.50
  -3  -1  11    2.40    1.40
   2   1 -11   -0.80    2.20
   2   1 -11   -2.50    2.30
   2   1 -11    0.30    2.40
   1   1 -11    6.00    2.50
   1   1 -11    3.60    2.50
   1   1 -11    9.20    1.50
   1   1 -11    7.00    2.70
  -1  -1  11    7.30    2.10
   0   1 -11    0.20    1.30
   0   1 -11    2.80    2.10
   0   1 -11    1.00    2.10
   0   1 -11    0.40    2.30
   0  -1  11   -2.90    1.50
  -1   1 -11   -0.60    2.30
  -1   1 -11    2.40    2.10
  -1   1 -11    1.40    2.20
  -1   1 -11    2.20    1.60
   1  -1  11    0.50    1.80
  -2   1 -11    1.10    2.50
  -2   1 -11    2.10    2.20
  -2   1 -11    1.60    1.90
  -2   1 -11    1.10    2.00
   2  -1  11    1.60    1.90
   2  -1  11    2.30    1.40
  -3   1 -11  198.88   13.80
  -3   1 -11  213.28   14.20
  -3   1 -11  194.78   13.00
  -3   1 -11  196.58   14.20
   3  -1  11  213.08   14.30
   3  -1  11  192.48   13.30
  -4   1 -11   -0.20    1.60
  -4   1 -11    0.70    2.40
  -4   1 -11    0.90    2.20
   4  -1  11    1.40    1.80
   4  -1  11    2.30    2.20
  -5   1 -11   16.60    3.80
  -5   1 -11   20.30    3.10
   5  -1  11   17.70    3.00
  -6   1 -11   18.90    3.30
  -6   1 -11   18.00    4.20
   6  -1  11   17.60    3.20
  -7   1 -11  100.09    9.70
  -7   1 -11   92.99    8.20
   7  -1  11   96.09    8.20
  -8   1 -11   21.00    4.20
  -8   1 -11   16.00    4.90
   8  -1  11   29.30    4.30
  -9   1 -11   41.80    7.40
  -9   1 -11   47.90    5.90
   8   0 -11   18.20    4.40
   8   0 -11   15.30    2.80
   8   0 -11   16.80    4.30
   7   0 -11  170.08   14.10
   7   0 -11  187.58   12.60
   7   0 -11  172.58   14.30
   7   0 -11  190.78   13.80
   7   0 -11  191.08   13.90
   6   0 -11   24.70    3.00
   6   0 -11   32.10    4.50
   6   0 -11   39.70    5.50
   6   0 -11   32.40    4.60
   6   0 -11   23.90    4.60
   5   0 -11   94.59    8.70
   5   0 -11   94.79    8.80
   5   0 -11  113.69    8.50
   5   0 -11   95.29    6.80
   5   0 -11  116.59    9.00
   4   0 -11    2.20    2.80
   4   0 -11    3.90    2.40
   4   0 -11    3.50    2.80
   4   0 -11    4.70    2.70
   3   0 -11   12.70    2.60
   3   0 -11   14.10    3.40
   3   0 -11   19.60    3.60
   3   0 -11   16.00    3.40
  -3   0  11   17.70    2.30
   2   0 -11   -1.30    2.40
   2   0 -11    0.90    2.20
   2   0 -11    2.10    2.40
   1   0 -11    1.40    2.40
   1   0 -11    5.00    2.40
   1   0 -11    1.30    2.20
   1   0 -11    0.80    1.10
   0   0 -11    7.10    2.50
   0   0 -11    0.90    2.30
   0   0 -11    4.70    1.50
   0   0 -11    4.90    2.50
   0   0  11    5.00    2.00
  -1   0 -11  277.57   18.40
  -1   0 -11  296.27   18.80
  -1   0 -11  286.87   19.00
  -1   0 -11  296.67   19.20
   1   0  11  267.77   18.80
  -2   0 -11    4.90    2.00
  -2   0 -11    4.60    2.30
  -2   0 -11    2.20    1.80
  -2   0 -11    3.70    2.60
   2   0  11    2.70    2.00
   2   0  11    2.00    1.40
  -3   0 -11   15.70    2.80
  -3   0 -11   15.10    3.00
  -3   0 -11   10.10    1.80
   3   0  11    9.90    2.10
   3   0  11    9.40    2.60
  -4   0 -11    0.90    2.40
  -4   0 -11    1.30    1.70
  -4   0 -11    3.00    2.10
   4   0  11   -1.30    1.90
   4   0  11    4.50    2.00
  -5   0 -11   62.09    5.50
  -5   0 -11   53.99    6.40
   5   0  11   55.69    5.30
  -6   0 -11   -0.50    2.80
  -6   0 -11    0.90    2.20
   6   0  11   -2.00    1.90
  -7   0 -11   60.69    7.40
  -7   0 -11   61.39    6.30
   7   0  11   61.89    6.20
  -8   0 -11   18.70    5.00
  -8   0 -11   21.40    4.00
   8   0  11   22.50    3.90
  -9   0 -11    4.20    5.40
  -9   0 -11   12.60    3.60
   8  -1 -11    5.60    3.70
   8  -1 -11    6.20    3.70
   8  -1 -11    1.80    2.20
   7  -1 -11    5.80    4.00
   7  -1 -11   15.70    3.80
   7  -1 -11   10.00    3.60
   7  -1 -11   10.50    2.50
   7  -1 -11    7.60    3.70
   6  -1 -11   15.00    3.60
   6  -1 -11   11.50    2.30
   6  -1 -11   18.50    4.10
   6  -1 -11    8.70    3.50
   6  -1 -11   12.80    3.40
   5  -1 -11  116.99    9.30
   5  -1 -11  106.59    7.60
   5  -1 -11  112.19    8.80
   5  -1 -11  104.39    9.00
   5  -1 -11  111.79    9.30
   5  -1 -11  108.09    8.10
   4  -1 -11   18.20    3.70
   4  -1 -11   20.00    3.80
   4  -1 -11   21.50    2.90
   4  -1 -11   17.70    3.70
   4  -1 -11   21.70    3.40
   3  -1 -11   98.59    8.30
   3  -1 -11   98.29    8.30
   3  -1 -11  103.09    7.30
   3  -1 -11  104.89    8.60
  -3   1  11   96.89    7.20
   2  -1 -11    3.40    2.40
   2  -1 -11    5.10    2.60
   2  -1 -11    1.60    1.00
   2  -1 -11    3.00    2.50
   2  -1 -11    1.20    1.40
  -2   1  11   -1.00    1.50
   1  -1 -11  528.15   34.10
   1  -1 -11  539.65   33.20
   1  -1 -11  520.45   34.00
   1  -1 -11  537.75   34.30
   0  -1 -11   11.90    2.80
   0  -1 -11    6.60    2.60
   0  -1 -11   12.10    2.00
   0  -1 -11   13.30    3.00
   0   1  11   14.80    2.50
  -1  -1 -11   31.00    3.60
  -1  -1 -11   36.70    4.10
  -1  -1 -11   36.50    4.00
  -1  -1 -11   33.10    4.20
   1   1  11   40.00    4.10
  -2  -1 -11   70.09    5.60
  -2  -1 -11   55.39    4.30
  -2  -1 -11   56.69    5.50
  -2  -1 -11   63.39    5.20
   2   1  11   59.89    5.50
   2   1  11   62.09    4.80
  -3  -1 -11   61.99    4.70
  -3  -1 -11   55.99    5.40
  -3  -1 -11   62.99    5.80
   3   1  11   57.39    4.90
   3   1  11   49.99    5.50
  -4  -1 -11   53.69    6.10
  -4  -1 -11   54.29    5.30
  -4  -1 -11   64.79    5.10
   4   1  11   54.09    5.20
   4   1  11   65.59    6.20
  -5  -1 -11  130.19   11.30
  -5  -1 -11  146.99   10.40
   5   1  11  157.28   10.50
  -6  -1 -11   77.29    6.30
  -6  -1 -11   46.00    6.70
   6   1  11   70.69    6.20
  -7  -1 -11   22.10    4.80
  -7  -1 -11   24.30    4.00
   7   1  11   29.40    4.10
  -8  -1 -11    5.00    3.00
  -8  -1 -11   -0.10    4.00
   8   1  11    2.60    2.50
  -9  -1 -11   49.30    6.20
 -10  -1 -11    3.70    3.40
   8  -2 -11   11.30    2.90
   8  -2 -11   14.70    4.10
   7  -2 -11   42.90    4.50
   7  -2 -11   32.30    5.30
   7  -2 -11   32.60    5.40
   6  -2 -11    8.50    3.50
   6  -2 -11    8.80    3.50
   6  -2 -11    7.10    3.30
   5  -2 -11   11.90    2.20
   5  -2 -11    8.80    3.40
   5  -2 -11    3.60    3.00
   5  -2 -11    7.10    3.00
   4  -2 -11    7.80    3.00
   4  -2 -11    5.50    3.00
   4  -2 -11    9.00    3.10
   4  -2 -11   10.30    1.80
   3  -2 -11    1.50    2.60
   3  -2 -11    3.40    2.50
   3  -2 -11    2.40    1.20
   3  -2 -11    5.70    2.80
  -3   2  11    0.70    2.00
   2  -2 -11   54.49    5.60
   2  -2 -11   58.09    5.60
   2  -2 -11   52.39    4.10
   2  -2 -11   49.80    5.40
  -2   2  11   54.59    5.10
  -2   2  11   49.40    4.40
   1  -2 -11   90.09    7.60
   1  -2 -11   92.99    6.40
   1  -2 -11   86.69    7.60
   1  -2 -11   97.19    7.60
  -1   2  11   85.99    6.80
   0  -2 -11   70.89    6.40
   0  -2 -11   72.49    5.60
   0  -2 -11   68.09    6.20
   0  -2 -11   73.89    6.50
  -1  -2 -11   13.90    2.70
  -1  -2 -11   18.10    3.10
  -1  -2 -11   11.40    3.00
  -1  -2 -11   14.80    2.50
   1   2  11   16.80    2.10
   1   2  11   12.70    2.40
  -2  -2 -11    9.50    2.40
  -2  -2 -11    9.90    2.50
  -2  -2 -11    8.30    1.40
   2   2  11   13.50    2.60
   2   2  11    9.00    1.90
  -3  -2 -11  215.48   13.80
  -3  -2 -11  211.58   13.20
  -3  -2 -11  189.18   14.10
   3   2  11  196.68   13.40
   3   2  11  190.88   14.00
  -4  -2 -11    1.50    1.70
  -4  -2 -11    1.60    2.90
  -4  -2 -11    2.00    2.40
   4   2  11    0.40    1.60
   4   2  11   -2.30    2.00
  -5  -2 -11   36.70    5.00
  -5  -2 -11   26.80    3.60
   5   2  11   34.60    5.40
   5   2  11   28.90    3.70
  -6  -2 -11   23.70    3.50
  -6  -2 -11   15.00    4.00
   6   2  11   18.20    3.20
  -7  -2 -11  105.79    9.70
  -7  -2 -11   96.49    8.40
   7   2  11   90.89    8.10
  -8  -2 -11   33.00    5.80
  -8  -2 -11   28.20    4.70
   8   2  11   37.80    4.70
  -9  -2 -11    4.10    3.30
 -10  -2 -11    6.80    3.60
   8  -3 -11   -5.00    3.10
   8  -3 -11    0.70    2.50
  -8   3  11    4.90    3.40
   7  -3 -11   19.10    3.50
   7  -3 -11   15.60    4.30
   7  -3 -11   30.00    5.00
  -7   3  11   19.20    4.10
   6  -3 -11   50.89    6.10
   6  -3 -11   59.19    6.30
   6  -3 -11   46.30    5.10
  -6   3  11   48.60    5.80
   5  -3 -11    1.00    2.60
   5  -3 -11    1.30    1.80
   5  -3 -11    2.20    3.10
   5  -3 -11   -2.40    2.50
  -5   3  11    0.30    2.40
   4  -3 -11   76.29    7.40
   4  -3 -11   88.59    7.60
   4  -3 -11   81.09    6.20
   4  -3 -11   76.19    7.20
  -4   3  11   77.69    7.00
   3  -3 -11   13.70    2.10
   3  -3 -11   13.10    3.30
   3  -3 -11   14.90    3.30
   3  -3 -11   19.10    3.60
  -3   3  11   12.00    2.80
   2  -3 -11   57.59    5.70
   2  -3 -11   49.90    5.50
   2  -3 -11   57.99    5.80
   2  -3 -11   61.59    4.60
  -2   3  11   55.69    4.70
  -2   3  11   54.59    5.30
   1  -3 -11  131.39    9.10
   1  -3 -11  134.89    9.90
   1  -3 -11  123.79    9.70
   1  -3 -11  146.19   10.10
  -1   3  11  125.19    9.40
   0  -3 -11    5.40    2.20
   0  -3 -11    5.00    1.80
   0  -3 -11    2.50    2.30
   0  -3 -11    7.00    2.50
  -1  -3 -11 1054.29   63.49
  -1  -3 -11  999.30   63.39
  -1  -3 -11 1011.40   63.69
  -1  -3 -11  977.10   63.79
   1   3  11  996.70   62.99
   1   3  11 1065.09   63.99
  -2  -3 -11    2.20    1.20
  -2  -3 -11    6.00    2.40
  -2  -3 -11   -0.30    1.90
  -2  -3 -11    7.30    2.30
   2   3  11    2.60    1.60
   2   3  11    2.10    1.90
  -3  -3 -11  200.08   13.50
  -3  -3 -11  203.38   14.40
  -3  -3 -11  205.48   14.00
   3   3  11  214.48   13.70
   3   3  11  201.88   14.30
  -4  -3 -11   -0.10    2.20
  -4  -3 -11    2.00    1.70
   4   3  11    3.40    2.20
   4   3  11    1.00    1.80
  -5  -3 -11  145.29   11.20
  -5  -3 -11  135.29   10.10
   5   3  11  140.09   11.70
   5   3  11  132.69   10.00
  -6  -3 -11    1.20    2.20
  -6  -3 -11    1.20    3.00
   6   3  11    2.50    2.20
  -7  -3 -11   22.30    3.80
  -7  -3 -11   14.50    4.40
   7   3  11   26.20    3.90
  -8  -3 -11   14.80    4.90
  -8  -3 -11   17.70    3.90
   8   3  11   11.00    3.20
  -9  -3 -11    1.20    3.20
   8  -4 -11   16.20    3.70
   8  -4 -11   14.60    4.40
  -8   4  11   15.70    4.20
   7  -4 -11   23.20    3.90
   7  -4 -11   15.90    4.30
  -7   4  11   17.80    4.20
   6  -4 -11    2.20    2.30
   6  -4 -11   -1.70    2.70
   6  -4 -11    2.80    3.20
  -6   4  11    1.80    2.70
   5  -4 -11  182.48   12.70
   5  -4 -11  180.38   13.20
   5  -4 -11  169.78   12.00
  -5   4  11  152.28   12.60
   4  -4 -11   22.70    3.00
   4  -4 -11   24.00    4.20
   4  -4 -11   15.40    3.70
   4  -4 -11   19.30    3.50
  -4   4  11   24.90    3.80
   3  -4 -11  258.57   17.80
   3  -4 -11  268.27   18.10
   3  -4 -11  265.67   18.10
   3  -4 -11  252.97   17.10
  -3   4  11  274.37   17.80
   2  -4 -11   70.09    6.40
   2  -4 -11   67.59    6.20
   2  -4 -11   67.39    6.00
   2  -4 -11   66.19    5.30
  -2   4  11   53.79    5.10
  -2   4  11   58.79    5.60
   1  -4 -11  841.12   54.49
   1  -4 -11  884.11   54.49
   1  -4 -11  907.01   55.19
   1  -4 -11  885.31   54.99
   1  -4 -11  892.01   55.09
  -1   4  11  844.02   54.69
   0  -4 -11    9.10    2.80
   0  -4 -11    4.70    2.40
   0  -4 -11    5.80    2.40
   0  -4 -11    6.70    2.20
   0   4  11    6.00    1.60
   0   4  11   10.30    2.10
  -1  -4 -11   45.30    4.80
  -1  -4 -11   53.69    5.20
  -1  -4 -11   53.39    4.90
  -1  -4 -11   51.39    5.40
   1   4  11   47.30    4.20
  -2  -4 -11   10.00    2.70
  -2  -4 -11   11.60    1.90
  -2  -4 -11   11.60    2.70
   2   4  11   11.60    2.10
   2   4  11    9.50    2.40
  -3  -4 -11    2.50    2.40
  -3  -4 -11   10.00    2.50
  -3  -4 -11    5.80    1.80
   3   4  11    1.00    2.00
   3   4  11    6.90    2.00
  -4  -4 -11   11.40    3.20
  -4  -4 -11   12.20    2.40
   4   4  11   13.50    2.60
   4   4  11    6.70    2.60
  -5  -4 -11    5.20    2.30
  -5  -4 -11   11.10    3.40
   5   4  11    8.80    2.50
   5   4  11    5.70    4.00
  -6  -4 -11   10.00    3.90
  -6  -4 -11   12.30    3.10
   6   4  11   15.40    3.00
  -7  -4 -11    3.60    2.70
  -7  -4 -11    1.70    3.30
   7   4  11    5.10    2.60
  -8  -4 -11    2.30    2.90
  -8  -4 -11    3.20    3.80
   8   4  11    2.00    2.60
  -9  -4 -11   95.59    8.80
   8  -5 -11    3.20    3.50
  -8   5  11    6.70    3.60
   7  -5 -11  274.97   18.60
   7  -5 -11  271.07   19.20
  -7   5  11  252.17   19.00
   6  -5 -11    5.60    2.60
   6  -5 -11    3.50    3.30
  -6   5  11   -2.00    2.60
   5  -5 -11  105.29    9.00
   5  -5 -11  102.79    8.30
   5  -5 -11  101.49    8.50
  -5   5  11   97.09    8.60
   4  -5 -11    5.90    3.20
   4  -5 -11    8.30    2.40
   4  -5 -11    5.50    2.60
  -4   5  11    7.30    2.80
   3  -5 -11  147.69   10.50
   3  -5 -11  151.88   10.90
   3  -5 -11  149.29   11.30
  -3   5  11  146.19   10.80
   2  -5 -11  125.99   10.20
   2  -5 -11  134.39   10.40
   2  -5 -11  124.79    9.90
   2  -5 -11  141.09    9.80
   2  -5 -11  143.29    9.50
  -2   5  11  135.79    9.50
  -2   5  11  131.99   10.00
   1  -5 -11   83.99    7.00
   1  -5 -11   70.69    5.90
   1  -5 -11   78.59    6.50
   1  -5 -11   69.49    6.70
   1  -5 -11   68.99    6.10
  -1   5  11   72.59    6.30
   0  -5 -11  287.97   18.60
   0  -5 -11  277.27   18.00
   0  -5 -11  275.37   18.40
   0  -5 -11  291.57   18.40
   0  -5 -11  250.27   18.20
   0   5  11  286.77   17.70
   0   5  11  258.47   18.00
  -1  -5 -11  141.59   10.10
  -1  -5 -11  125.29    9.70
  -1  -5 -11  137.59   10.10
   1   5  11  133.79    9.30
  -2  -5 -11   72.69    6.30
  -2  -5 -11   75.99    5.70
  -2  -5 -11   63.59    6.60
   2   5  11   80.29    6.00
  -3  -5 -11    2.60    1.80
  -3  -5 -11    2.70    2.30
   3   5  11    2.30    2.10
   3   5  11    2.30    1.80
  -4  -5 -11    8.00    2.30
  -4  -5 -11   11.50    3.20
   4   5  11    4.70    2.20
   4   5  11    7.80    2.70
  -5  -5 -11    3.20    2.20
  -5  -5 -11   -0.10    2.90
   5   5  11    4.10    2.30
  -6  -5 -11   26.70    4.00
  -6  -5 -11   21.90    4.70
   6   5  11   26.50    3.90
  -7  -5 -11  161.28   12.50
  -7  -5 -11  132.59   11.00
   7   5  11  133.19   10.70
  -8  -5 -11   22.50    5.20
  -8  -5 -11   19.80    4.20
   8   5  11   19.10    3.80
  -9  -5 -11    7.40    3.50
   8  -6 -11   11.50    3.70
   8  -6 -11    8.70    4.00
  -8   6  11    8.60    3.50
   7  -6 -11   -0.80    3.50
   7  -6 -11    1.60    3.00
  -7   6  11    2.00    2.90
   6  -6 -11    5.20    3.50
   6  -6 -11    4.90    2.80
  -6   6  11    8.40    3.00
   5  -6 -11   -4.20    2.70
   5  -6 -11   -0.90    2.30
  -5   6  11    0.90    2.50
   4  -6 -11   42.10    4.50
   4  -6 -11   23.30    4.30
  -4   6  11   30.30    4.40
   3  -6 -11   56.09    5.70
   3  -6 -11   47.10    5.30
   3  -6 -11   62.49    6.20
   3  -6 -11   57.79    5.20
  -3   6  11   61.19    5.90
   2  -6 -11   16.10    2.70
   2  -6 -11   17.90    3.10
   2  -6 -11   17.20    3.10
   2  -6 -11   19.30    3.60
  -2   6  11   16.90    3.10
  -2   6  11   22.00    2.80
   1  -6 -11   14.40    2.60
   1  -6 -11   12.00    3.00
   1  -6 -11   12.30    2.80
   1  -6 -11   14.80    3.00
  -1   6  11   13.90    2.20
  -1   6  11   12.20    2.80
   0  -6 -11   72.59    6.90
   0  -6 -11   87.19    7.10
   0  -6 -11   88.19    6.60
   0  -6 -11   83.79    7.00
   0   6  11   83.99    6.80
   0   6  11   83.79    6.30
  -1  -6 -11  281.97   18.60
  -1  -6 -11  281.67   19.10
   1   6  11  286.97   18.40
   1   6  11  276.77   18.50
  -2  -6 -11  144.09   12.70
  -2  -6 -11  188.48   12.00
   2   6  11  195.48   12.10
  -3  -6 -11  107.59    9.00
  -3  -6 -11  142.29   10.30
   3   6  11  128.29    9.20
  -4  -6 -11  159.38   11.70
  -4  -6 -11  192.58   13.00
   4   6  11  154.98   12.00
   4   6  11  158.68   11.70
  -5  -6 -11  203.38   14.90
  -5  -6 -11  190.18   13.70
   5   6  11  191.88   13.80
  -6  -6 -11   29.00    4.20
  -6  -6 -11   24.40    4.80
   6   6  11   21.60    3.70
  -7  -6 -11    1.30    2.60
  -7  -6 -11    4.90    3.70
   7   6  11   -0.60    2.40
  -8  -6 -11    7.30    3.50
  -9  -6 -11   18.40    4.50
   7  -7 -11   -2.10    3.30
   7  -7 -11   -0.10    2.90
  -7   7  11    2.90    3.20
   6  -7 -11    9.40    4.10
   6  -7 -11   16.00    3.80
  -6   7  11   20.20    4.20
   5  -7 -11    2.50    2.60
   5  -7 -11   -1.50    2.90
  -5   7  11    0.50    2.90
   4  -7 -11    7.70    3.20
   4  -7 -11    3.80    2.60
  -4   7  11    3.90    2.80
   3  -7 -11   -2.00    1.70
   3  -7 -11    0.10    2.70
   3  -7 -11    2.70    2.30
  -3   7  11    0.60    2.40
   2  -7 -11  204.78   13.60
   2  -7 -11  202.28   13.70
   2  -7 -11  201.38   13.90
   2  -7 -11  197.08   14.10
  -2   7  11  192.08   13.90
  -2   7  11  185.88   13.30
   1  -7 -11  213.38   13.40
   1  -7 -11  176.68   13.60
   1  -7 -11  192.28   13.40
   1  -7 -11  194.08   13.70
  -1   7  11  187.38   12.90
  -1   7  11  198.78   13.60
   0  -7 -11  193.18   13.30
   0  -7 -11  184.78   13.40
   0  -7 -11  186.18   13.60
   0  -7 -11  199.38   13.20
   0   7  11  185.78   12.80
   0   7  11  191.58   13.30
  -1  -7 -11    1.00    2.40
  -1  -7 -11    1.50    2.10
  -1  -7 -11    0.90    1.90
   1   7  11    0.10    2.00
   1   7  11   -0.20    1.70
  -2  -7 -11   34.30    3.70
  -2  -7 -11   28.40    4.40
   2   7  11   26.20    3.50
   2   7  11   34.50    4.00
  -3  -7 -11    4.80    3.00
  -3  -7 -11    6.20    2.20
   3   7  11    4.10    2.20
  -4  -7 -11    7.00    2.60
  -4  -7 -11    9.50    3.60
   4   7  11   10.50    2.60
  -5  -7 -11  103.59    8.50
  -5  -7 -11  116.29   10.00
   5   7  11  102.39    8.70
  -6  -7 -11  109.69    8.60
  -6  -7 -11   88.49    9.40
   6   7  11   93.19    8.20
  -7  -7 -11  214.98   15.60
  -7  -7 -11  234.38   17.10
   7   7  11  196.98   15.20
  -8  -7 -11   43.70    5.90
  -9  -7 -11   19.60    4.60
   7  -8 -11   43.70    5.90
   7  -8 -11   28.10    5.50
  -7   8  11   35.80    5.60
   6  -8 -11   82.49    8.50
   6  -8 -11   84.09    8.50
  -6   8  11   95.29    8.50
   5  -8 -11    7.60    3.30
   5  -8 -11   15.20    4.00
  -5   8  11   19.60    3.90
   4  -8 -11  183.88   13.70
   4  -8 -11  182.18   13.00
   4  -8 -11  192.68   13.90
  -4   8  11  180.98   13.70
   3  -8 -11  139.89    9.50
   3  -8 -11  115.09    9.90
   3  -8 -11  118.59   10.00
  -3   8  11  121.29    9.90
   2  -8 -11   55.59    5.80
   2  -8 -11   44.00    5.50
   2  -8 -11   50.89    5.20
  -2   8  11   51.09    5.70
  -2   8  11   55.19    4.80
   1  -8 -11    8.70    3.00
   1  -8 -11    8.60    2.90
   1  -8 -11    8.70    2.60
  -1   8  11    9.90    2.30
  -1   8  11    9.70    2.90
   0  -8 -11   34.70    4.20
   0  -8 -11   34.60    4.00
   0  -8 -11   27.60    4.30
   0  -8 -11   30.00    3.80
   0   8  11   18.10    3.60
   0   8  11   27.20    3.50
  -1  -8 -11   57.89    5.40
  -1  -8 -11   37.20    5.50
  -1  -8 -11   48.50    5.10
   1   8  11   57.39    5.40
   1   8  11   59.59    5.10
  -2  -8 -11  108.59    9.30
   2   8  11  106.99    8.30
   2   8  11  106.59    8.60
  -3  -8 -11   63.99    7.10
  -3  -8 -11   63.39    5.90
   3   8  11   59.69    5.80
  -4  -8 -11  147.19   11.00
  -4  -8 -11  167.88   12.50
   4   8  11  131.79   10.80
  -5  -8 -11  141.49   11.30
  -5  -8 -11  118.19    9.60
   5   8  11  103.69    9.30
  -6  -8 -11   31.20    4.50
  -6  -8 -11   30.40    5.70
   6   8  11   22.20    4.00
  -7  -8 -11    1.20    4.10
  -7  -8 -11    1.40    2.80
   7   8  11   -2.90    2.70
  -8  -8 -11   40.20    5.90
   6  -9 -11   25.00    5.10
   6  -9 -11   42.70    5.80
  -6   9  11   35.20    5.40
   5  -9 -11    0.70    3.30
   5  -9 -11   -0.60    3.00
  -5   9  11    2.90    3.20
   4  -9 -11    1.70    2.30
   4  -9 -11   -4.00    2.50
   4  -9 -11   -3.20    2.70
  -4   9  11    1.90    2.90
   3  -9 -11   84.89    8.50
   3  -9 -11   96.49    7.70
   3  -9 -11   89.79    8.60
  -3   9  11  100.39    8.40
   2  -9 -11   38.10    4.60
   2  -9 -11   44.10    5.40
   2  -9 -11   35.30    5.20
  -2   9  11   47.00    6.20
  -2   9  11   37.80    5.00
   1  -9 -11  115.09   10.00
   1  -9 -11  117.39   10.10
   1  -9 -11  133.39    9.70
  -1   9  11  122.89   10.00
  -1   9  11  140.79    9.50
   0  -9 -11    5.70    3.00
   0  -9 -11    6.80    2.90
   0  -9 -11    2.50    2.40
   0   9  11    1.50    2.60
   0   9  11    3.60    2.20
  -1  -9 -11   14.60    3.80
  -1  -9 -11   18.50    3.40
  -1  -9 -11   20.50    5.10
  -1  -9 -11   22.40    3.70
   1   9  11   23.90    3.30
   1   9  11   20.90    3.80
  -2  -9 -11    1.10    3.00
   2   9  11    1.00    2.50
   2   9  11    0.80    2.10
  -3  -9 -11   71.89    7.50
  -3  -9 -11   49.90    5.70
   3   9  11   62.49    5.90
   3   9  11   57.59    6.00
  -4  -9 -11   12.90    4.10
  -4  -9 -11    7.40    2.90
   4   9  11   14.80    3.10
  -5  -9 -11   13.90    4.60
  -5  -9 -11    9.40    3.30
   5   9  11   18.90    3.50
  -6  -9 -11    5.40    3.20
  -6  -9 -11    4.00    4.00
   6   9  11    5.20    2.90
  -7  -9 -11   -0.10    3.00
  -8  -9 -11   44.00    6.10
   6 -10 -11    2.10    3.70
   6 -10 -11   -0.90    3.50
  -6  10  11   -0.60    3.30
   5 -10 -11    0.40    3.30
   5 -10 -11    8.30    3.80
  -5  10  11    2.70    3.20
   4 -10 -11   13.20    4.00
   4 -10 -11   10.30    3.80
  -4  10  11   16.90    4.00
   3 -10 -11   -1.50    3.00
   3 -10 -11    1.50    3.00
  -3  10  11    1.60    3.10
   2 -10 -11   -1.40    2.10
   2 -10 -11    4.60    3.00
   2 -10 -11    0.80    2.90
  -2  10  11    0.20    2.80
  -2  10  11    3.60    2.30
   1 -10 -11   40.40    5.60
   1 -10 -11   43.60    4.90
  -1  10  11   39.80    5.20
  -1  10  11   44.10    4.70
   0 -10 -11    1.20    2.30
   0 -10 -11    6.00    3.20
   0  10  11    6.80    2.90
   0  10  11   -1.50    2.10
  -1 -10 -11   -2.10    2.10
  -1 -10 -11    1.40    3.00
   1  10  11    1.40    2.20
   1  10  11    0.70    2.70
  -2 -10 -11    5.80    2.70
  -2 -10 -11    1.60    3.20
   2  10  11    5.70    2.60
   2  10  11    6.30    3.00
  -3 -10 -11   32.20    5.50
  -3 -10 -11   36.10    4.70
   3  10  11   35.00    4.50
   3  10  11   39.60    5.00
  -4 -10 -11   81.19    8.20
  -4 -10 -11   56.79    6.30
   4  10  11   55.19    6.10
  -5 -10 -11   -0.50    2.80
  -5 -10 -11    3.20    3.70
   5  10  11    5.00    2.70
  -6 -10 -11  131.99   11.00
  -7 -10 -11   17.50    4.30
   5 -11 -11    4.70    3.60
   5 -11 -11    5.80    3.80
  -5  11  11    8.60    3.80
   4 -11 -11   22.10    4.90
   4 -11 -11   36.20    5.70
  -4  11  11   25.50    5.00
   3 -11 -11    4.10    3.40
   3 -11 -11    3.90    3.50
  -3  11  11    4.70    3.40
   2 -11 -11    9.10    3.70
  -2  11  11   10.90    3.00
  -2  11  11   14.10    3.70
   1 -11 -11    3.80    3.20
  -1  11  11    2.50    2.40
  -1  11  11    6.80    3.10
   0 -11 -11    4.90    3.50
   0  11  11    9.20    3.60
   0  11  11    8.10    2.80
  -1 -11 -11    9.40    3.80
   1  11  11    7.70    2.80
   1  11  11    2.10    3.10
  -2 -11 -11   28.00    5.30
   2  11  11   25.00    4.50
   2  11  11   31.10    4.20
  -3 -11 -11    0.10    3.30
   3  11  11    1.10    2.50
   3  11  11   -0.30    2.70
  -4 -11 -11   18.60    4.80
  -4 -11 -11   23.90    4.20
   4  11  11   27.20    6.50
   4  11  11   23.40    4.00
  -5 -11 -11   45.80    5.90
  -5 -11 -11   48.50    6.90
  -6 -11 -11   28.40    4.90
   4 -12 -11   19.40    4.60
   4 -12 -11   14.80    4.90
  -4  12  11   19.20    4.50
   3 -12 -11   -0.70    3.50
  -3  12  11    0.30    3.40
   2 -12 -11   59.99    7.60
  -2  12  11   57.99    6.90
   1 -12 -11    2.30    3.60
  -1  12  11    2.70    3.30
  -1  12  11    7.00    3.40
   0 -12 -11   12.40    4.20
   0  12  11   20.80    4.40
   0  12  11   16.80    3.50
  -1 -12 -11   -0.60    3.10
   1  12  11   -0.20    3.10
   1  12  11    0.30    2.50
  -2 -12 -11    0.20    3.50
   2  12  11   -2.20    2.80
   2  12  11   -4.20    2.80
  -3 -12 -11   77.69    9.20
   3  12  11   86.19    8.20
  -4 -12 -11   58.59    8.00
   4  12  11   58.99    6.60
  -5 -12 -11    2.20    3.10
   3 -13 -11    5.10    4.20
  -3  13  11   10.20    4.00
   2 -13 -11   29.90    5.80
  -2  13  11   34.30    5.40
   1 -13 -11   -0.70    3.70
  -1  13  11    3.60    3.70
   0 -13 -11   34.20    6.00
   0  13  11   34.80    5.40
  -1 -13 -11   53.49    7.10
   1  13  11   41.30    6.10
  -2 -13 -11   46.50    6.80
   2  13  11   46.80    6.20
  -3 -13 -11    2.60    3.60
   3  13  11   -3.00    3.10
   4  13  11   -0.50    3.10
   0 -14 -11    4.60    4.10
   0  14  11    7.70    4.00
  -1 -14 -11   -5.00    3.30
   1  14  11   -0.30    3.50
   2   9 -12  107.49    9.50
   2   9 -12  143.39   11.10
   1   9 -12   -2.10    2.70
   1   9 -12    4.90    3.60
   0   9 -12  251.07   17.20
   0   9 -12  212.48   16.30
  -1   9 -12    1.70    3.10
  -1   9 -12    2.60    3.40
  -2   9 -12  250.87   17.70
  -2   9 -12  230.78   17.60
  -3   9 -12   23.60    4.60
  -3   9 -12   14.10    4.30
   3   8 -12    4.80    3.80
   3   8 -12    1.90    2.60
   3   8 -12    3.60    3.50
   2   8 -12  238.38   16.10
   2   8 -12  216.48   16.90
   2   8 -12  233.28   17.00
   1   8 -12    4.10    2.70
   1   8 -12   -1.20    2.90
   0   8 -12   98.79    8.90
   0   8 -12  113.89    9.70
  -1   8 -12   99.29    8.90
  -1   8 -12   91.79    9.10
  -2   8 -12    0.30    2.90
  -2   8 -12   -0.50    3.00
  -3   8 -12    9.50    3.80
  -3   8 -12   16.90    4.40
  -4   8 -12   84.59    7.70
  -4   8 -12   62.69    7.90
  -5   8 -12  108.39   10.90
   4   7 -12    2.90    3.80
   4   7 -12    2.00    2.00
   4   7 -12    3.80    3.50
   3   7 -12    6.80    2.60
   3   7 -12   -0.80    3.60
   3   7 -12    5.10    3.40
   2   7 -12   25.60    3.70
   2   7 -12   21.50    4.60
   2   7 -12   27.80    5.00
   1   7 -12  116.19   11.20
   1   7 -12  123.99   10.80
   1   7 -12  150.18   10.40
   0   7 -12  156.78   11.80
   0   7 -12  145.69   12.60
   0   7 -12  170.68   12.30
  -1   7 -12   12.90    3.40
  -1   7 -12   12.50    3.80
  -2   7 -12  159.18   12.60
  -2   7 -12  168.58   12.70
  -3   7 -12   36.40    5.60
  -3   7 -12   50.59    6.00
  -3   7 -12   44.50    5.90
  -4   7 -12   26.30    4.50
  -4   7 -12   22.00    4.80
  -4   7 -12   13.60    4.30
   4  -7  12   24.30    3.90
  -5   7 -12   -2.40    3.40
  -5   7 -12    0.10    2.10
  -6   7 -12    2.70    2.60
  -6   7 -12    3.50    4.00
   5   6 -12    0.10    3.70
   5   6 -12    1.30    1.80
   5   6 -12   -2.00    3.00
   4   6 -12   45.30    4.50
   4   6 -12   48.60    6.10
   4   6 -12   52.29    6.80
   3   6 -12  294.37   20.60
   3   6 -12  304.77   19.10
   3   6 -12  264.17   20.20
   2   6 -12   64.99    7.10
   2   6 -12   66.59    5.90
   2   6 -12   69.29    7.20
   1   6 -12   49.30    6.00
   1   6 -12   51.49    5.30
   1   6 -12   42.70    5.90
   0   6 -12   24.00    4.30
   0   6 -12   28.90    3.90
   0   6 -12   23.70    4.50
  -1   6 -12   20.70    4.20
  -1   6 -12   14.70    3.40
  -1   6 -12   16.90    3.80
  -2   6 -12   25.50    4.20
  -2   6 -12   28.30    4.40
  -3   6 -12    0.50    3.00
  -3   6 -12    3.00    3.00
  -3   6 -12    1.10    2.60
   3  -6  12   -3.00    2.10
  -4   6 -12   58.59    7.00
  -4   6 -12   56.59    7.00
  -4   6 -12   63.49    6.70
   4  -6  12   66.69    6.00
  -5   6 -12   55.99    5.40
  -5   6 -12   60.69    7.40
  -5   6 -12   51.29    7.00
   5  -6  12   60.39    6.30
  -6   6 -12   11.40    4.50
  -6   6 -12   12.90    3.10
  -7   6 -12    3.50    4.10
  -7   6 -12   -2.20    2.50
   6   5 -12   19.60    5.10
   6   5 -12   24.00    4.40
   5   5 -12   78.79    8.30
   5   5 -12   65.19    7.50
   5   5 -12   72.79    5.60
   5   5 -12   73.09    8.10
   4   5 -12    0.60    3.00
   4   5 -12   -2.40    3.30
   4   5 -12    5.30    3.80
   4   5 -12    3.30    1.60
   3   5 -12   11.10    4.10
   3   5 -12   14.30    4.00
   3   5 -12   16.90    2.50
   3   5 -12   19.80    4.40
   2   5 -12    9.20    2.10
   2   5 -12    9.40    3.50
   2   5 -12    4.50    3.20
   2   5 -12    6.80    3.70
   1   5 -12   99.09    9.10
   1   5 -12  106.79    9.00
   1   5 -12  106.89    8.00
   0   5 -12   86.79    7.20
   0   5 -12   82.79    8.10
   0   5 -12   91.49    8.10
  -1   5 -12   47.70    5.90
  -1   5 -12   50.59    5.30
  -1   5 -12   45.70    5.70
  -2   5 -12   40.60    5.10
  -2   5 -12   32.10    4.60
  -2   5 -12   41.40    5.10
  -3   5 -12  110.79    9.20
  -3   5 -12  109.19    9.00
  -3   5 -12  105.19    8.70
  -3   5 -12  100.79    9.10
   3  -5  12   92.99    7.90
  -4   5 -12   -2.00    2.70
  -4   5 -12    3.00    3.10
  -4   5 -12    4.00    3.20
  -4   5 -12   -1.60    1.80
   4  -5  12    0.30    2.10
  -5   5 -12    9.40    2.50
  -5   5 -12    3.00    3.50
  -5   5 -12   10.00    3.70
   5  -5  12    6.50    2.60
  -6   5 -12   -0.90    3.60
  -6   5 -12    4.30    2.50
  -7   5 -12   -0.50    3.60
  -7   5 -12   -1.50    2.50
   6   4 -12   -3.50    2.90
   6   4 -12   11.80    4.10
   6   4 -12   -1.10    3.60
   5   4 -12   13.90    3.60
   5   4 -12    5.40    3.70
   5   4 -12    5.30    3.70
   4   4 -12    3.20    3.50
   4   4 -12    2.40    3.10
   4   4 -12    7.60    3.60
   3   4 -12   57.39    6.50
   3   4 -12   57.99    4.60
   3   4 -12   68.99    7.10
   3   4 -12   50.49    6.50
   2   4 -12   -3.10    2.80
   2   4 -12    0.40    2.80
   2   4 -12    1.00    2.70
   2   4 -12    1.80    1.50
   1   4 -12   21.50    4.20
   1   4 -12   22.20    4.20
   1   4 -12   21.10    2.80
   1   4 -12   18.60    3.80
   0   4 -12   15.80    3.80
   0   4 -12   27.40    4.20
   0   4 -12   20.40    4.20
   0   4 -12   23.60    3.20
  -1   4 -12   -2.70    2.50
  -1   4 -12   -0.20    1.90
  -1   4 -12   -1.30    2.80
  -2   4 -12  100.49    8.00
  -2   4 -12   75.69    7.40
  -2   4 -12   91.79    8.00
  -3   4 -12  116.19   10.20
  -3   4 -12  139.99   10.40
  -3   4 -12  127.49   10.30
   3  -4  12  130.59    9.30
  -4   4 -12   45.50    5.40
  -4   4 -12   44.70    5.30
  -4   4 -12   39.10    3.90
  -4   4 -12   45.00    5.60
  -4   4 -12   37.30    5.40
   4  -4  12   46.70    4.70
  -5   4 -12    8.40    3.70
  -5   4 -12    5.30    3.00
  -5   4 -12    7.50    3.60
  -5   4 -12   10.70    2.60
   5  -4  12    3.20    2.50
  -6   4 -12    4.10    3.60
  -6   4 -12   -2.10    3.20
  -6   4 -12    2.00    2.40
   6  -4  12    0.60    2.50
  -7   4 -12   19.70    5.10
  -7   4 -12   19.00    3.70
  -8   4 -12   16.70    3.80
  -8   4 -12   17.90    5.40
   7   3 -12   12.90    4.30
   6   3 -12    1.10    3.70
   6   3 -12   -3.00    3.30
   6   3 -12    2.40    3.10
   5   3 -12   42.90    5.90
   5   3 -12   39.60    5.90
   5   3 -12   45.80    5.60
   4   3 -12   -5.10    2.70
   4   3 -12    3.80    3.10
   4   3 -12    1.60    3.00
   3   3 -12   55.99    6.90
   3   3 -12   69.89    7.10
   3   3 -12   71.49    7.00
   2   3 -12    6.20    1.50
   2   3 -12    5.20    2.90
   2   3 -12    6.60    3.20
   2   3 -12    4.40    3.10
   1   3 -12    3.80    3.00
   1   3 -12    0.80    2.90
   1   3 -12   -0.60    1.30
   1   3 -12    5.10    2.90
  -1  -3  12   -1.00    3.30
   0   3 -12   21.40    3.90
   0   3 -12   18.00    3.80
   0   3 -12   15.00    2.50
   0   3 -12   23.20    3.80
  -1   3 -12   10.50    3.20
  -1   3 -12   11.20    3.20
  -1   3 -12   12.90    2.60
  -1   3 -12   15.20    3.70
  -2   3 -12    2.80    2.30
  -2   3 -12    0.70    2.60
  -2   3 -12   -0.20    2.60
  -3   3 -12   33.40    4.40
  -3   3 -12   24.10    4.20
  -3   3 -12   35.70    4.70
   3  -3  12   35.60    3.60
  -4   3 -12   35.00    4.40
  -4   3 -12   27.70    3.10
  -4   3 -12   24.20    4.40
  -4   3 -12   23.40    4.30
   4  -3  12   29.30    3.60
  -5   3 -12  207.08   14.60
  -5   3 -12  181.68   14.60
  -5   3 -12  191.38   13.10
  -5   3 -12  175.28   13.90
   5  -3  12  201.08   13.50
  -6   3 -12   41.80    4.80
  -6   3 -12   48.80    6.00
  -6   3 -12   37.90    6.00
  -6   3 -12   47.50    5.70
   6  -3  12   41.10    4.80
  -7   3 -12   18.00    4.90
  -7   3 -12   13.70    5.20
  -7   3 -12   21.60    3.70
  -8   3 -12    1.80    4.20
  -8   3 -12    1.50    2.90
   7   2 -12    6.60    3.90
   7   2 -12    5.90    3.30
   6   2 -12   26.50    4.90
   6   2 -12   22.70    5.00
   6   2 -12   27.50    4.70
   5   2 -12   69.59    7.50
   5   2 -12   90.79    8.60
   5   2 -12   76.19    8.00
   4   2 -12   22.30    4.20
   4   2 -12   24.80    4.50
   4   2 -12   24.60    4.40
   3   2 -12   12.90    3.50
   3   2 -12    9.70    3.50
   3   2 -12    8.60    3.30
   2   2 -12   50.09    5.80
   2   2 -12   48.70    5.70
   2   2 -12   43.20    5.50
   1   2 -12   90.99    7.90
   1   2 -12   78.89    7.40
   1   2 -12   77.89    7.40
   1   2 -12   80.69    5.90
   0   2 -12    9.00    3.00
   0   2 -12    4.00    2.80
   0   2 -12    0.60    2.70
   0   2 -12    5.30    1.80
   0  -2  12    4.70    2.30
  -1   2 -12  209.78   15.30
  -1   2 -12  217.08   14.50
  -1   2 -12  224.18   15.40
  -1   2 -12  228.28   15.10
   1  -2  12  199.88   15.00
  -2   2 -12    3.40    2.70
  -2   2 -12    0.90    2.60
  -2   2 -12   -0.40    2.40
  -2   2 -12    3.50    2.20
  -3   2 -12  516.35   32.80
  -3   2 -12  520.15   32.70
  -3   2 -12  490.55   32.50
   3  -2  12  486.85   31.90
  -4   2 -12    2.60    2.80
  -4   2 -12    5.10    1.80
  -4   2 -12    2.40    2.80
  -4   2 -12    1.40    2.50
   4  -2  12    2.90    2.10
  -5   2 -12   20.80    3.10
  -5   2 -12   18.90    4.20
   5  -2  12   28.10    3.70
  -6   2 -12   23.90    4.90
  -6   2 -12   22.10    3.60
   6  -2  12   28.00    3.90
  -7   2 -12   10.80    4.40
  -7   2 -12   15.30    3.30
   7  -2  12   15.10    3.50
  -8   2 -12   42.50    6.80
  -8   2 -12   40.60    5.30
   7   1 -12    0.20    3.50
   7   1 -12    0.60    3.20
   6   1 -12    3.40    3.10
   6   1 -12    5.40    3.00
   6   1 -12   -0.70    3.20
   6   1 -12    1.90    3.50
   5   1 -12   89.09    8.90
   5   1 -12   88.09    8.50
   5   1 -12   92.99    8.70
   4   1 -12    0.20    3.00
   4   1 -12    0.60    2.80
   4   1 -12    1.40    3.00
   3   1 -12  337.57   22.40
   3   1 -12  312.57   22.20
   3   1 -12  339.57   22.40
   2   1 -12    6.10    2.90
   2   1 -12    1.30    2.80
   2   1 -12    3.50    2.80
   1   1 -12  218.38   14.30
   1   1 -12  234.38   15.80
   1   1 -12  221.68   15.80
   1   1 -12  221.98   15.50
   0   1 -12    2.40    2.70
   0   1 -12    2.80    2.60
   0   1 -12    0.70    1.50
   0   1 -12    1.00    2.30
   0  -1  12    1.00    1.90
  -1   1 -12  415.06   27.10
  -1   1 -12  423.16   26.90
  -1   1 -12  414.66   26.30
  -1   1 -12  398.56   26.60
   1  -1  12  397.06   26.80
  -2   1 -12    2.30    2.60
  -2   1 -12    0.20    2.30
  -2   1 -12   -0.30    2.00
  -2   1 -12    0.50    2.30
   2  -1  12    4.30    2.40
  -3   1 -12    0.20    2.20
  -3   1 -12   -2.00    2.60
  -3   1 -12    1.90    2.50
   3  -1  12   -0.10    1.60
  -4   1 -12   15.40    3.50
  -4   1 -12   13.50    3.00
  -4   1 -12   11.50    2.20
   4  -1  12   11.50    2.50
  -5   1 -12    2.40    3.00
  -5   1 -12    4.00    2.10
   5  -1  12    3.50    2.20
  -6   1 -12   32.50    5.40
  -6   1 -12   34.00    4.20
   6  -1  12   29.50    4.10
  -7   1 -12    5.60    3.90
  -7   1 -12    2.80    2.70
   7  -1  12    1.10    2.50
  -8   1 -12   -1.20    3.60
  -8   1 -12    5.50    3.00
  -9   1 -12    1.90    3.10
  -9   1 -12    0.30    4.30
   7   0 -12  190.08   15.30
   7   0 -12  202.88   13.30
   7   0 -12  203.68   14.80
   7   0 -12  204.88   15.00
   7   0 -12  192.78   15.20
   6   0 -12   26.90    4.30
   6   0 -12   18.10    4.50
   6   0 -12    8.50    3.90
   6   0 -12   18.40    3.90
   5   0 -12  609.94   39.90
   5   0 -12  574.04   39.60
   5   0 -12  644.24   39.30
   5   0 -12  623.94   39.90
   4   0 -12   21.00    4.20
   4   0 -12   14.60    3.70
   4   0 -12   12.40    3.50
   3   0 -12  342.87   23.70
   3   0 -12  349.57   23.60
   3   0 -12  363.16   23.70
   2   0 -12   16.10    3.50
   2   0 -12    7.80    3.10
   2   0 -12    9.90    3.00
   1   0 -12  700.13   44.30
   1   0 -12  652.43   44.30
   1   0 -12  693.33   44.20
   1   0 -12  723.13   43.10
   0   0 -12   31.40    4.00
   0   0 -12   26.10    3.00
   0   0 -12   24.60    4.10
   0   0 -12   26.20    4.00
  -1   0 -12  118.79    9.60
  -1   0 -12  133.29    9.40
  -1   0 -12  130.09    9.00
  -1   0 -12  120.29    9.70
   1   0  12  108.59    9.20
  -2   0 -12   17.20    3.40
  -2   0 -12   15.60    3.00
  -2   0 -12   23.80    3.90
   2   0  12   23.10    3.60
  -3   0 -12  109.59    8.90
  -3   0 -12  125.09    9.10
  -3   0 -12  106.09    9.20
   3   0  12  107.49    8.90
   3   0  12  111.99    8.10
  -4   0 -12   30.90    3.90
  -4   0 -12   26.30    3.00
  -4   0 -12   24.70    4.20
   4   0  12   27.20    3.40
  -5   0 -12  110.99    9.40
  -5   0 -12   99.09    7.90
   5   0  12  106.49    8.20
  -6   0 -12   -1.50    2.20
  -6   0 -12    2.70    3.40
   6   0  12    3.70    2.40
  -7   0 -12   10.10    3.20
  -7   0 -12   13.20    4.30
   7   0  12   10.30    3.20
  -8   0 -12    9.30    3.30
  -8   0 -12    9.70    4.50
  -9   0 -12   25.10    5.80
  -9   0 -12   21.30    4.40
   7  -1 -12  446.76   29.30
   7  -1 -12  451.05   29.00
   7  -1 -12  460.55   29.50
   7  -1 -12  402.66   27.60
   6  -1 -12   -0.10    1.50
   6  -1 -12   -1.60    3.00
   6  -1 -12    3.00    3.00
   6  -1 -12    0.50    3.30
   5  -1 -12  184.08   13.50
   5  -1 -12  165.18   13.50
   5  -1 -12  183.08   13.50
   4  -1 -12    8.40    3.10
   4  -1 -12   11.10    3.40
   4  -1 -12    3.30    3.00
  -4   1  12    9.00    2.10
   3  -1 -12  310.07   21.70
   3  -1 -12  334.87   21.80
   3  -1 -12  329.07   21.70
  -3   1  12  310.37   21.10
   2  -1 -12    1.00    2.50
   2  -1 -12   -0.30    2.60
   2  -1 -12    0.00    2.50
   1  -1 -12   15.30    3.20
   1  -1 -12   13.60    3.20
   1  -1 -12   16.10    3.40
   1  -1 -12   13.10    2.00
   0  -1 -12   -0.50    2.20
   0  -1 -12    0.90    2.30
   0  -1 -12    0.40    1.50
   0  -1 -12    4.00    2.50
  -1  -1 -12   10.00    2.90
  -1  -1 -12   11.10    2.70
  -1  -1 -12    7.30    2.30
  -1  -1 -12   15.60    3.20
   1   1  12    9.30    2.40
  -2  -1 -12    1.70    2.10
  -2  -1 -12    1.80    2.50
  -2  -1 -12    3.40    2.40
   2   1  12    1.30    1.60
   2   1  12    1.90    2.00
  -3  -1 -12   13.40    3.00
  -3  -1 -12   13.90    1.90
  -3  -1 -12   14.00    3.10
   3   1  12   12.30    2.90
   3   1  12   17.60    2.60
  -4  -1 -12   29.70    4.40
  -4  -1 -12   31.10    4.40
  -4  -1 -12   26.70    3.10
   4   1  12   24.40    3.40
  -5  -1 -12  382.76   27.30
  -5  -1 -12  422.06   26.20
   5   1  12  409.96   26.30
  -6  -1 -12   28.90    5.20
  -6  -1 -12   33.50    4.10
   6   1  12   31.30    4.10
  -7  -1 -12  220.28   17.60
  -7  -1 -12  244.88   16.50
   7   1  12  237.98   16.30
  -8  -1 -12   23.00    4.30
  -8  -1 -12   27.10    5.60
  -9  -1 -12  186.48   13.40
  -9  -1 -12  156.48   14.50
  -8   2  12    0.60    3.00
   7  -2 -12  100.89    7.70
   7  -2 -12   96.49    9.40
   7  -2 -12  109.69    9.90
  -7   2  12   94.09    9.10
   6  -2 -12   17.70    2.70
   6  -2 -12   17.50    4.30
   6  -2 -12   13.90    3.80
   6  -2 -12   26.10    4.60
  -6   2  12   26.10    4.20
   5  -2 -12   97.19    9.10
   5  -2 -12  119.19    8.40
   5  -2 -12  106.69    7.60
   5  -2 -12  107.69    9.40
   5  -2 -12  112.89    9.60
  -5   2  12   95.89    8.70
   4  -2 -12   11.00    3.40
   4  -2 -12    9.40    1.80
   4  -2 -12    7.50    3.30
   4  -2 -12   15.10    3.50
  -4   2  12   13.70    2.90
   3  -2 -12    0.20    1.20
   3  -2 -12    3.00    2.90
   3  -2 -12    0.70    2.90
   3  -2 -12    3.30    2.70
  -3   2  12    1.30    2.10
  -3   2  12    3.60    1.70
   2  -2 -12   27.60    4.50
   2  -2 -12   32.30    2.90
   2  -2 -12   26.00    4.30
   2  -2 -12   25.80    4.10
  -2   2  12   29.60    3.70
   1  -2 -12  192.78   13.20
   1  -2 -12  182.18   13.40
   1  -2 -12  185.08   12.20
   1  -2 -12  179.48   13.30
   0  -2 -12   23.30    3.80
   0  -2 -12   26.10    3.70
   0  -2 -12   22.50    2.90
   0  -2 -12   23.80    3.80
  -1  -2 -12  107.69    7.90
  -1  -2 -12   93.69    7.50
  -1  -2 -12   90.89    8.10
  -1  -2 -12  107.49    8.40
  -2  -2 -12  143.49    9.70
  -2  -2 -12  125.29    9.90
  -2  -2 -12  116.09    9.50
   2   2  12  126.69    8.80
   2   2  12  128.29    9.60
  -3  -2 -12  585.04   38.10
  -3  -2 -12  570.44   37.30
  -3  -2 -12  584.14   38.40
   3   2  12  574.74   37.60
   3   2  12  693.63   38.60
  -4  -2 -12  147.19    9.50
  -4  -2 -12  112.29   10.30
   4   2  12  134.39    9.60
   4   2  12  136.79   11.50
  -5  -2 -12  141.79   10.30
  -5  -2 -12  155.08   11.70
   5   2  12  133.69   10.40
  -6  -2 -12   26.30    3.90
  -6  -2 -12   41.90    5.70
   6   2  12   32.00    4.20
  -7  -2 -12   11.70    4.10
  -7  -2 -12    7.60    3.00
   7   2  12   13.70    3.20
  -8  -2 -12   15.50    4.60
  -8  -2 -12    7.50    3.20
  -9  -2 -12    2.90    3.10
  -9  -2 -12    4.30    5.00
   7  -3 -12   32.90    5.50
   7  -3 -12   28.00    5.30
   7  -3 -12   38.80    4.30
  -7   3  12   39.60    5.50
   6  -3 -12   16.00    4.30
   6  -3 -12   17.10    2.90
   6  -3 -12   18.10    4.20
  -6   3  12   19.70    4.00
   5  -3 -12  211.38   16.00
   5  -3 -12  216.08   14.60
   5  -3 -12  222.38   15.90
   5  -3 -12  220.78   15.80
  -5   3  12  228.88   15.80
   4  -3 -12   24.40    4.00
   4  -3 -12   14.90    3.80
   4  -3 -12   24.70    4.30
   4  -3 -12   19.30    2.60
  -4   3  12   18.40    3.60
   3  -3 -12  616.14   38.60
   3  -3 -12  620.44   39.80
   3  -3 -12  619.14   39.70
   3  -3 -12  629.84   39.70
  -3   3  12  600.04   39.40
  -3   3  12  616.84   38.90
   2  -3 -12   23.20    2.80
   2  -3 -12   25.00    3.90
   2  -3 -12   29.20    4.20
   2  -3 -12   22.70    3.90
  -2   3  12   22.40    3.20
   1  -3 -12  157.38   11.90
   1  -3 -12  164.38   11.20
   1  -3 -12  167.48   12.20
   1  -3 -12  167.88   12.10
   0  -3 -12   66.49    5.60
   0  -3 -12   63.29    6.30
   0  -3 -12   70.69    6.40
   0  -3 -12   63.69    6.10
  -1  -3 -12  268.57   17.70
  -1  -3 -12  266.07   18.20
  -1  -3 -12  276.67   18.00
  -1  -3 -12  254.37   17.70
  -2  -3 -12   41.90    4.90
  -2  -3 -12   41.40    4.80
   2   3  12   51.69    4.30
  -3  -3 -12    2.00    2.20
  -3  -3 -12    0.00    2.40
  -3  -3 -12    0.40    1.40
   3   3  12    0.00    1.70
   3   3  12    2.20    2.10
  -4  -3 -12    4.00    2.70
  -4  -3 -12    5.80    2.00
   4   3  12    5.50    2.20
   4   3  12    6.30    2.60
  -5  -3 -12  128.39    9.80
  -5  -3 -12  104.59    8.30
   5   3  12   95.49    8.30
  -6  -3 -12    5.50    3.30
  -6  -3 -12    9.90    2.80
   6   3  12    8.60    2.80
  -7  -3 -12   49.20    5.70
  -7  -3 -12   67.49    7.80
   7   3  12   56.29    5.90
  -8  -3 -12   17.80    3.80
  -8  -3 -12   13.70    4.80
  -9  -3 -12   55.39    6.40
   7  -4 -12   82.89    8.40
  -7   4  12   67.39    7.50
   6  -4 -12   31.10    4.00
   6  -4 -12   28.60    4.80
   6  -4 -12   32.80    5.20
  -6   4  12   22.50    4.40
   5  -4 -12  156.98   10.90
   5  -4 -12  151.88   12.10
   5  -4 -12  151.78   11.60
  -5   4  12  147.69   11.90
   4  -4 -12   56.09    6.60
   4  -4 -12   64.89    5.60
   4  -4 -12   55.19    6.60
   4  -4 -12   69.19    6.70
  -4   4  12   72.89    6.50
   3  -4 -12   10.60    3.60
   3  -4 -12   16.90    3.70
   3  -4 -12   20.30    2.70
   3  -4 -12   14.40    3.90
  -3   4  12   21.90    2.80
  -3   4  12   19.80    3.20
   2  -4 -12  105.59    8.80
   2  -4 -12   97.09    8.70
   2  -4 -12  109.99    9.10
   2  -4 -12  106.19    7.90
  -2   4  12  116.09    8.50
   1  -4 -12   15.00    2.60
   1  -4 -12   18.60    3.40
   1  -4 -12    8.60    3.10
   1  -4 -12   11.70    3.10
  -1   4  12   10.70    2.50
   0  -4 -12  107.59    8.00
   0  -4 -12  103.39    8.20
   0  -4 -12  101.99    8.50
   0  -4 -12   96.99    8.30
  -1  -4 -12  115.79    9.00
  -1  -4 -12  131.39    9.00
  -1  -4 -12  107.89    9.30
  -1  -4 -12  122.69    9.30
   1   4  12  114.99    8.30
  -2  -4 -12   -2.10    2.10
  -2  -4 -12    3.20    2.20
  -2  -4 -12   -0.40    1.20
   2   4  12    0.30    1.60
  -3  -4 -12  247.18   15.60
  -3  -4 -12  246.08   16.30
  -3  -4 -12  202.08   16.50
   3   4  12  241.88   15.90
   3   4  12  258.27   16.50
  -4  -4 -12    6.20    2.00
  -4  -4 -12    1.90    2.80
   4   4  12   10.00    2.40
   4   4  12    4.30    2.50
  -5  -4 -12    3.30    2.10
  -5  -4 -12    4.30    3.20
   5   4  12   -0.20    2.00
  -6  -4 -12    6.60    3.70
  -6  -4 -12   13.60    3.00
   6   4  12   14.90    3.10
  -7  -4 -12   -0.40    3.30
  -7  -4 -12    4.40    2.80
   7   4  12    1.20    2.50
  -8  -4 -12   56.39    6.60
  -8  -4 -12   63.59    7.90
  -9  -4 -12   31.40    5.10
   7  -5 -12   25.70    4.20
   7  -5 -12   19.00    4.70
  -7   5  12   26.80    4.70
   6  -5 -12   14.40    4.20
   6  -5 -12   10.00    3.00
  -6   5  12    8.10    3.30
   5  -5 -12   55.19    6.80
   5  -5 -12   66.69    6.10
   5  -5 -12   56.89    6.30
  -5   5  12   58.39    6.30
   4  -5 -12    6.50    2.90
   4  -5 -12    9.40    2.50
   4  -5 -12    6.50    3.40
  -4   5  12    9.20    2.90
   3  -5 -12   38.80    4.80
   3  -5 -12   31.70    4.80
   3  -5 -12   34.70    4.00
  -3   5  12   37.90    4.60
   2  -5 -12    4.00    2.00
   2  -5 -12   -0.80    2.20
   2  -5 -12    4.90    2.80
   2  -5 -12    5.80    2.80
  -2   5  12    2.00    1.60
  -2   5  12    1.90    2.30
   1  -5 -12    8.80    3.00
   1  -5 -12    9.10    3.20
   1  -5 -12   10.50    3.00
   1  -5 -12   13.70    2.50
   1  -5 -12    7.40    2.30
  -1   5  12    5.60    2.30
   0  -5 -12   28.00    4.30
   0  -5 -12   32.50    4.00
   0  -5 -12   30.00    4.10
   0  -5 -12   35.40    4.50
  -1  -5 -12   64.79    5.90
  -1  -5 -12   55.19    5.70
  -1  -5 -12   58.79    5.40
  -1  -5 -12   43.30    5.20
   1   5  12   52.79    4.70
  -2  -5 -12    1.00    2.20
  -2  -5 -12    2.70    2.40
  -2  -5 -12    1.50    1.50
   2   5  12    0.60    1.70
  -3  -5 -12   38.30    5.00
  -3  -5 -12   38.80    3.90
   3   5  12   38.90    4.10
  -4  -5 -12   25.90    4.50
  -4  -5 -12   30.30    3.70
   4   5  12   33.10    3.90
   4   5  12   41.40    5.80
  -5  -5 -12    0.40    3.00
  -5  -5 -12   -1.30    2.00
   5   5  12    0.90    2.30
  -6  -5 -12   57.59    6.20
  -6  -5 -12   66.59    7.50
   6   5  12   66.49    6.20
  -7  -5 -12    1.40    2.60
  -7  -5 -12    5.80    3.80
   7   5  12    2.20    2.60
  -8  -5 -12   65.79    8.00
  -8  -5 -12   50.19    6.30
  -9  -5 -12   -2.90    3.00
   7  -6 -12   42.10    5.30
   7  -6 -12   32.60    5.60
  -7   6  12   36.10    5.30
   6  -6 -12   32.50    5.30
   6  -6 -12   22.60    4.10
  -6   6  12   30.20    4.80
   5  -6 -12    1.60    2.50
   5  -6 -12   -3.40    3.10
  -5   6  12    4.20    2.90
   4  -6 -12   19.20    4.30
   4  -6 -12   33.00    4.10
  -4   6  12   21.90    4.00
   3  -6 -12   46.20    4.90
   3  -6 -12   43.50    5.50
   3  -6 -12   45.50    5.20
  -3   6  12   39.40    5.10
   2  -6 -12    4.60    2.20
   2  -6 -12    1.50    2.80
   2  -6 -12    3.50    2.50
  -2   6  12    0.40    2.20
  -2   6  12    1.00    1.70
   1  -6 -12   -2.80    2.20
   1  -6 -12    1.00    1.90
   1  -6 -12    1.70    2.10
   1  -6 -12    1.00    2.30
  -1   6  12   -0.50    2.10
   0  -6 -12   63.59    5.90
   0  -6 -12   52.89    5.70
   0  -6 -12   58.29    5.80
   0  -6 -12   55.99    5.40
   0   6  12   51.59    5.30
   0   6  12   53.49    4.80
  -1  -6 -12   57.69    6.10
  -1  -6 -12   62.29    5.80
  -1  -6 -12   61.59    6.10
   1   6  12   59.89    5.20
  -2  -6 -12  169.78   12.90
   2   6  12  177.58   12.00
  -3  -6 -12    3.40    2.00
  -3  -6 -12    1.50    2.80
   3   6  12    1.10    2.00
  -4  -6 -12  111.69    9.70
  -4  -6 -12  105.09    8.40
   4   6  12  115.69    8.70
  -5  -6 -12   14.50    3.00
  -5  -6 -12   11.80    3.90
   5   6  12    9.70    2.90
  -6  -6 -12   53.69    7.00
  -6  -6 -12   55.39    5.90
   6   6  12   57.79    5.90
  -7  -6 -12    2.90    3.70
  -7  -6 -12   -0.60    2.50
   7   6  12    1.40    2.50
  -8  -6 -12    5.80    3.20
  -8  -6 -12   -1.70    3.60
   7  -7 -12   -0.10    3.80
  -7   7  12    5.00    3.50
   6  -7 -12    3.40    3.40
   6  -7 -12   10.50    3.40
  -6   7  12    7.60    3.40
   5  -7 -12   34.40    5.40
   5  -7 -12   36.30    4.90
  -5   7  12   34.10    5.00
   4  -7 -12   10.60    3.00
   4  -7 -12    4.40    3.40
  -4   7  12    8.70    3.10
   3  -7 -12   24.20    3.90
   3  -7 -12   25.30    4.20
  -3   7  12   26.10    4.10
   2  -7 -12    9.90    2.60
   2  -7 -12   11.80    3.30
   2  -7 -12    9.60    2.80
   2  -7 -12    6.60    2.50
  -2   7  12    7.10    2.80
   1  -7 -12    3.20    2.80
   1  -7 -12    8.80    2.80
   1  -7 -12    6.80    2.40
   1  -7 -12    6.10    2.70
  -1   7  12   11.60    3.50
  -1   7  12    7.80    2.70
   0  -7 -12  124.99    9.40
   0  -7 -12  110.89    8.70
   0  -7 -12  120.29    9.10
   0  -7 -12  114.69    9.20
   0   7  12  106.19    8.40
   0   7  12  118.19    9.00
  -1  -7 -12   54.69    5.50
  -1  -7 -12   50.49    5.70
  -1  -7 -12   57.89    6.20
   1   7  12   49.10    5.50
   1   7  12   56.79    5.10
  -2  -7 -12   60.89    6.60
   2   7  12   55.49    5.40
  -3  -7 -12   59.79    6.70
  -3  -7 -12   55.99    5.30
   3   7  12   50.89    5.30
  -4  -7 -12   71.79    7.60
  -4  -7 -12   56.49    6.00
   4   7  12   70.69    6.30
  -5  -7 -12   12.10    3.00
  -5  -7 -12    9.30    3.80
   5   7  12    7.80    2.90
  -6  -7 -12    8.40    4.00
  -6  -7 -12    4.80    2.80
   6   7  12    4.40    2.70
  -7  -7 -12    6.10    4.30
  -7  -7 -12    5.40    3.00
  -8  -7 -12   17.60    4.20
   6  -8 -12   -1.20    3.70
   6  -8 -12    6.00    3.30
  -6   8  12    5.20    3.40
   5  -8 -12    4.10    3.50
   5  -8 -12    1.00    2.90
  -5   8  12   -0.40    2.80
   4  -8 -12   50.09    6.00
   4  -8 -12   46.20    6.00
  -4   8  12   58.49    6.30
   3  -8 -12    7.40    3.50
   3  -8 -12    7.10    3.00
  -3   8  12    9.10    3.30
   2  -8 -12  205.98   14.20
   2  -8 -12  206.28   14.70
   2  -8 -12  208.88   14.80
  -2   8  12  192.48   14.50
   1  -8 -12   40.80    4.90
   1  -8 -12   33.10    4.20
   1  -8 -12   37.10    4.80
  -1   8  12   29.50    4.30
  -1   8  12   29.90    3.80
   0  -8 -12   96.59    8.50
   0  -8 -12   89.49    7.80
   0  -8 -12   99.59    7.90
   0  -8 -12   98.99    8.00
   0   8  12   85.19    7.90
   0   8  12   95.69    7.40
  -1  -8 -12   41.80    5.30
  -1  -8 -12   34.00    4.60
  -1  -8 -12   44.90    5.80
   1   8  12   36.70    4.20
   1   8  12   38.60    4.70
  -2  -8 -12   77.29    7.70
   2   8  12   71.49    6.50
  -3  -8 -12  233.18   15.80
   3   8  12  231.08   15.90
  -4  -8 -12   17.40    3.30
  -4  -8 -12   17.40    4.30
   4   8  12   18.60    3.30
  -5  -8 -12   25.10    3.90
  -5  -8 -12   16.20    4.60
   5   8  12   16.90    3.60
  -6  -8 -12   20.40    3.90
  -6  -8 -12   13.60    4.70
   6   8  12   15.00    3.50
  -7  -8 -12    7.40    3.30
  -7  -8 -12    9.60    4.50
  -8  -8 -12   15.20    4.00
   6  -9 -12   33.80    5.70
   6  -9 -12   42.20    5.90
  -6   9  12   34.50    5.60
   5  -9 -12    0.70    3.10
   5  -9 -12   -2.80    3.10
  -5   9  12    2.60    3.20
   4  -9 -12  113.09   10.10
   4  -9 -12  107.79   10.30
  -4   9  12  123.19    9.90
   3  -9 -12   35.30    5.20
   3  -9 -12   45.60    5.50
   3  -9 -12   37.10    4.70
  -3   9  12   32.50    5.00
   2  -9 -12   34.70    4.90
   2  -9 -12   25.10    3.90
   2  -9 -12   28.00    4.60
  -2   9  12   32.70    4.80
  -2   9  12   35.30    3.80
   1  -9 -12   10.90    3.40
   1  -9 -12   11.60    2.90
   1  -9 -12    8.90    3.20
  -1   9  12    6.00    2.40
  -1   9  12    7.50    3.10
   0  -9 -12   11.80    3.70
   0  -9 -12   17.40    3.60
   0  -9 -12   23.10    3.50
   0   9  12   13.30    2.90
   0   9  12   22.60    3.70
  -1  -9 -12   55.79    5.60
  -1  -9 -12   48.80    6.20
   1   9  12   64.69    6.10
   1   9  12   41.70    4.90
  -2  -9 -12    6.70    3.40
   2   9  12    8.30    3.60
   2   9  12    6.40    2.40
  -3  -9 -12   17.60    4.40
  -3  -9 -12   14.50    3.30
   3   9  12   25.10    3.60
  -4  -9 -12    6.00    3.60
  -4  -9 -12    9.50    3.00
   4   9  12    3.40    2.60
  -5  -9 -12   46.30    5.40
  -5  -9 -12   45.20    6.70
   5   9  12   35.30    4.90
  -6  -9 -12   24.30    4.40
  -6  -9 -12   19.20    5.00
  -7  -9 -12    6.50    3.30
   5 -10 -12   67.79    8.10
   5 -10 -12   91.49    9.00
  -5  10  12   87.29    8.50
   4 -10 -12    5.70    3.50
   4 -10 -12    6.00    3.60
  -4  10  12    7.50    3.40
   3 -10 -12    3.50    3.20
   3 -10 -12    8.50    3.60
  -3  10  12    7.40    3.50
   2 -10 -12   17.90    4.10
   2 -10 -12   15.50    4.00
  -2  10  12   15.40    3.10
  -2  10  12   10.60    3.60
   1 -10 -12    1.50    2.90
   1 -10 -12   10.30    3.40
  -1  10  12    3.90    3.10
  -1  10  12    5.80    2.60
   0 -10 -12    3.20    3.10
   0 -10 -12    4.10    2.80
   0  10  12    1.60    2.80
   0  10  12   -3.00    1.90
  -1 -10 -12   41.80    6.20
   1  10  12   54.59    5.90
   1  10  12   50.59    5.30
  -2 -10 -12   -1.10    2.90
   2  10  12   -2.10    2.10
   2  10  12   -0.40    2.60
  -3 -10 -12   50.69    6.70
   3  10  12   46.00    5.30
  -4 -10 -12   17.30    4.50
  -4 -10 -12   13.80    3.40
   4  10  12   15.80    3.40
  -5 -10 -12    1.20    3.80
  -5 -10 -12    0.70    2.80
  -6 -10 -12    3.20    4.10
  -6 -10 -12    7.50    3.20
   4 -11 -12    6.00    3.60
   4 -11 -12    7.80    3.80
  -4  11  12    5.70    3.40
   3 -11 -12   43.10    6.10
   3 -11 -12   32.80    5.50
  -3  11  12   40.10    5.60
   2 -11 -12   64.79    7.10
   2 -11 -12   62.99    7.50
  -2  11  12   58.29    6.90
   1 -11 -12   67.99    7.60
   1 -11 -12   60.19    6.70
  -1  11  12   70.79    7.10
  -1  11  12   59.19    6.10
   0 -11 -12   73.59    7.30
   0 -11 -12   69.99    8.00
   0  11  12   77.69    7.60
   0  11  12   71.99    6.80
  -1 -11 -12   18.90    4.70
   1  11  12   25.00    4.50
   1  11  12   25.20    3.90
  -2 -11 -12  127.09   10.90
   2  11  12  104.49    9.10
   2  11  12  106.09    9.60
  -3 -11 -12   85.29    9.20
  -4 -11 -12    6.50    4.00
  -5 -11 -12    5.00    4.00
  -5 -11 -12    5.80    3.10
  -6 -11 -12    2.60    3.20
   3 -12 -12    1.90    3.40
   3 -12 -12    6.80    3.90
  -3  12  12    5.50    3.50
   2 -12 -12    8.90    4.10
   2 -12 -12    5.40    3.70
  -2  12  12    8.40    3.60
   1 -12 -12    4.50    3.60
   1 -12 -12    3.80    3.50
  -1  12  12    2.90    3.50
   0 -12 -12   10.30    3.70
   0 -12 -12    3.20    3.50
   0  12  12   -0.20    3.30
  -1 -12 -12  101.89    9.80
   1  12  12   91.39    9.10
  -2 -12 -12   33.30    5.70
   2  12  12   22.80    4.70
  -3 -12 -12    5.50    3.90
   3  12  12    1.20    3.20
  -4 -12 -12   39.50    6.70
   1 -13 -12   72.89    7.50
   1 -13 -12   66.49    8.20
  -1  13  12   57.59    7.30
   0 -13 -12   15.30    4.90
   0  13  12   22.00    4.70
  -1 -13 -12    3.50    3.80
   1  13  12    2.60    3.50
  -2 -13 -12    8.80    4.20
   2  13  12    5.50    3.60
   3  13  12    5.90    3.60
   1   8 -13   24.50    4.00
   1   8 -13   21.60    4.80
   0   8 -13    7.70    3.20
   0   8 -13    0.80    3.60
  -1   8 -13   17.00    3.90
  -1   8 -13   15.00    4.30
  -2   8 -13   17.00    4.40
  -2   8 -13   13.00    3.90
  -3   8 -13    6.40    3.70
  -3   8 -13    1.90    3.60
   3   7 -13   80.59    6.60
   3   7 -13   79.69    8.50
   3   7 -13   71.89    8.30
   2   7 -13    3.00    2.30
   2   7 -13    7.70    3.80
   2   7 -13    0.80    3.60
   1   7 -13    0.10    3.60
   1   7 -13    1.10    2.40
   1   7 -13   -1.10    3.10
   0   7 -13    5.40    3.80
   0   7 -13    4.50    3.90
   0   7 -13    7.80    3.00
  -1   7 -13   -2.50    2.50
  -1   7 -13    5.20    3.60
  -2   7 -13  117.49   10.00
  -2   7 -13  111.39   10.10
  -3   7 -13    3.00    3.30
  -3   7 -13    3.80    3.20
  -4   7 -13  101.79    9.80
  -4   7 -13   91.19    9.00
   4   6 -13    8.10    4.20
   4   6 -13   12.10    4.00
   3   6 -13   -0.40    3.50
   3   6 -13   -2.10    1.70
   3   6 -13    0.20    2.90
   2   6 -13   15.50    4.10
   2   6 -13   18.30    2.90
   2   6 -13   14.10    4.30
   1   6 -13    6.60    2.40
   1   6 -13    1.20    3.40
   1   6 -13    8.50    3.70
   0   6 -13   72.89    6.60
   0   6 -13   65.19    7.20
   0   6 -13   67.39    7.40
  -1   6 -13    2.60    2.50
  -1   6 -13    4.70    3.50
  -1   6 -13    8.20    3.20
  -2   6 -13   30.70    4.80
  -2   6 -13   39.90    5.50
  -3   6 -13    4.60    3.60
  -3   6 -13    6.20    3.30
  -4   6 -13    2.30    3.40
  -4   6 -13    2.00    3.10
  -5   6 -13   24.70    5.30
   5   5 -13    2.60    4.40
   5   5 -13    9.20    3.60
   5   5 -13    7.90    4.30
   4   5 -13   -4.00    3.40
   4   5 -13    3.50    4.10
   4   5 -13    1.30    3.30
   3   5 -13    6.90    3.50
   3   5 -13    1.70    4.10
   3   5 -13    2.70    1.60
   3   5 -13    8.70    4.00
   2   5 -13   -5.20    3.30
   2   5 -13    3.50    3.60
   2   5 -13    1.90    3.30
   2   5 -13    3.10    1.80
   1   5 -13   47.70    6.10
   1   5 -13   44.40    4.70
   1   5 -13   53.09    6.20
   0   5 -13    6.30    2.40
   0   5 -13    5.80    3.30
   0   5 -13    7.20    3.60
  -1   5 -13    3.70    3.20
  -1   5 -13   -1.40    2.20
  -1   5 -13   -6.20    2.70
  -2   5 -13   38.20    5.00
  -2   5 -13   47.30    5.80
  -2   5 -13   37.60    5.30
  -3   5 -13   13.70    3.70
  -3   5 -13   12.90    3.70
  -3   5 -13   16.20    3.90
  -4   5 -13   13.30    3.70
  -4   5 -13   15.70    4.10
  -5   5 -13    4.30    3.70
  -6   5 -13    1.10    2.20
  -6   5 -13    0.30    3.90
   5   4 -13   96.89   10.00
   5   4 -13  117.79    9.80
   5   4 -13  108.09   10.40
   4   4 -13   17.80    4.40
   4   4 -13   20.00    4.80
   4   4 -13   20.00    4.70
   3   4 -13   -2.10    3.00
   3   4 -13    0.00    3.50
   3   4 -13   -2.90    2.90
   2   4 -13    4.40    3.40
   2   4 -13    1.90    1.50
   2   4 -13    5.40    3.30
   2   4 -13   -0.80    3.40
   1   4 -13   72.39    7.40
   1   4 -13   73.19    5.70
   1   4 -13   60.69    7.20
   1   4 -13   65.69    7.30
   0   4 -13    2.70    2.00
   0   4 -13    3.90    3.20
   0   4 -13    4.00    3.20
  -1   4 -13   14.20    3.80
  -1   4 -13   17.30    4.00
  -1   4 -13   14.40    3.00
  -2   4 -13   17.90    3.50
  -2   4 -13   20.20    4.20
  -2   4 -13   24.00    4.40
  -3   4 -13   16.60    3.80
  -3   4 -13    5.10    3.00
  -3   4 -13   11.20    3.60
  -4   4 -13   38.50    5.30
  -4   4 -13   30.80    5.10
  -4   4 -13   35.50    4.80
   4  -4  13   32.20    4.10
  -5   4 -13   -3.00    3.30
  -5   4 -13    4.60    3.20
   5  -4  13    0.10    2.30
  -6   4 -13   84.59    9.20
  -6   4 -13   83.29    7.00
  -7   4 -13  250.07   18.50
  -7   4 -13  227.68   16.30
   6   3 -13    2.60    3.90
   6   3 -13   -0.10    3.10
   6   3 -13    3.10    4.00
   5   3 -13   -1.10    3.40
   5   3 -13    2.70    3.50
   5   3 -13    1.50    3.30
   4   3 -13    6.40    3.70
   4   3 -13    4.90    3.30
   4   3 -13    1.00    3.40
   3   3 -13    5.10    3.60
   3   3 -13    7.50    3.80
   3   3 -13   12.10    3.90
   2   3 -13    0.10    3.10
   2   3 -13   -0.10    1.40
   2   3 -13   -2.60    2.90
   2   3 -13    1.40    2.90
   1   3 -13    5.50    3.20
   1   3 -13    6.80    3.50
   1   3 -13   10.30    3.40
   1   3 -13    4.90    1.70
   0   3 -13   28.50    4.40
   0   3 -13   23.40    4.50
   0   3 -13   24.30    3.10
   0   3 -13   15.70    3.90
  -1   3 -13  114.09    9.80
  -1   3 -13  127.49    9.20
  -1   3 -13  118.39   10.20
  -1   3 -13  121.19   10.10
  -2   3 -13   23.80    3.70
  -2   3 -13   23.50    4.40
  -2   3 -13   22.30    4.30
  -3   3 -13  238.18   16.70
  -3   3 -13  236.78   16.60
  -3   3 -13  225.78   16.70
  -4   3 -13   71.79    6.70
  -4   3 -13   50.99    6.60
  -4   3 -13   66.69    6.90
   4  -3  13   59.99    5.60
  -5   3 -13  871.91   56.49
  -5   3 -13  936.31   58.09
  -5   3 -13  957.30   57.69
   5  -3  13  863.21   56.79
  -6   3 -13   30.80    6.00
  -6   3 -13   50.29    4.90
  -6   3 -13   64.59    6.50
   6  -3  13   46.20    6.30
  -7   3 -13  467.05   29.00
  -7   3 -13  417.16   30.60
   6   2 -13   65.19    7.10
   6   2 -13   54.39    7.30
   6   2 -13   59.89    7.60
   5   2 -13   -0.10    3.30
   5   2 -13    5.10    3.60
   5   2 -13    1.30    3.10
   4   2 -13    4.40    3.30
   4   2 -13    5.50    3.50
   4   2 -13   19.50    4.40
   3   2 -13   58.29    6.40
   3   2 -13   48.70    6.20
   3   2 -13   52.39    6.60
   2   2 -13   38.20    5.60
   2   2 -13   52.09    5.90
   2   2 -13   46.70    5.80
   1   2 -13  563.74   36.90
   1   2 -13  563.84   35.50
   1   2 -13  586.64   36.90
   1   2 -13  562.54   37.10
   0   2 -13   69.19    7.20
   0   2 -13   71.19    5.80
   0   2 -13   63.39    6.80
   0   2 -13   79.89    7.50
  -1   2 -13  624.44   43.40
  -1   2 -13  698.33   43.20
  -1   2 -13  689.53   42.80
  -1   2 -13  688.13   43.40
  -2   2 -13  141.39   11.10
  -2   2 -13  158.78   11.70
  -2   2 -13  156.88   12.00
  -3   2 -13 1341.37   86.89
  -3   2 -13 1397.16   86.79
  -3   2 -13 1423.16   86.69
  -4   2 -13  168.08   12.10
  -4   2 -13  164.28   11.70
  -4   2 -13  129.69   11.80
   4  -2  13  160.98   11.10
  -5   2 -13  508.85   33.10
  -5   2 -13  480.75   32.70
  -5   2 -13  501.65   31.40
   5  -2  13  489.65   31.90
  -6   2 -13   58.29    6.60
  -6   2 -13   43.50    5.10
  -6   2 -13   62.09    7.30
   6  -2  13   59.49    5.90
  -7   2 -13   46.50    6.80
  -7   2 -13   43.80    5.10
  -8   2 -13   43.30    6.90
  -8   2 -13   34.50    5.00
   6   1 -13   20.40    4.70
   6   1 -13   16.50    4.20
   6   1 -13   15.80    4.60
   5   1 -13  192.58   14.70
   5   1 -13  196.48   14.50
   5   1 -13  181.58   14.50
   4   1 -13    5.40    3.30
   4   1 -13    1.60    3.20
   4   1 -13    3.90    3.20
   3   1 -13  839.42   54.99
   3   1 -13  853.91   54.89
   3   1 -13  890.61   54.99
   2   1 -13   28.00    4.70
   2   1 -13   34.20    5.00
   2   1 -13   18.00    4.10
   1   1 -13  647.24   40.80
   1   1 -13  648.74   41.00
   1   1 -13  604.24   41.00
   1   1 -13  635.74   39.50
   0   1 -13   76.49    7.50
   0   1 -13   80.09    6.10
   0   1 -13   71.99    7.10
   0   1 -13   76.69    7.50
  -1   1 -13  783.82   49.60
  -1   1 -13  778.62   48.70
  -1   1 -13  773.32   49.40
  -1   1 -13  764.22   49.10
  -2   1 -13  100.39    8.70
  -2   1 -13   92.19    7.90
  -2   1 -13  100.79    8.60
  -3   1 -13  108.29    8.50
  -3   1 -13   89.49    8.70
  -3   1 -13  100.69    8.50
  -4   1 -13   -2.20    2.90
  -4   1 -13   -2.70    2.50
  -4   1 -13    0.90    2.70
   4  -1  13   -2.70    1.80
  -5   1 -13   46.50    6.10
  -5   1 -13   39.70    4.10
   5  -1  13   44.60    4.80
  -6   1 -13   -0.10    3.20
  -6   1 -13    5.00    2.30
   6  -1  13   -1.50    2.30
  -7   1 -13   32.20    5.70
  -7   1 -13   18.40    3.60
  -8   1 -13   33.60    6.40
  -8   1 -13   43.40    5.20
   7   0 -13  193.28   14.90
   7   0 -13  184.98   15.00
   7   0 -13  188.68   14.90
   6   0 -13   68.69    7.70
   6   0 -13   68.69    7.80
   6   0 -13   58.19    6.90
   5   0 -13  626.64   41.40
   5   0 -13  623.94   41.50
   5   0 -13  665.73   41.80
   4   0 -13  252.37   18.40
   4   0 -13  252.97   18.40
   4   0 -13  268.87   18.50
   3   0 -13  298.87   19.60
   3   0 -13  275.57   19.50
   3   0 -13  262.87   19.40
   2   0 -13  204.38   15.10
   2   0 -13  208.58   15.00
   2   0 -13  204.98   15.00
   1   0 -13  183.98   13.90
   1   0 -13  197.78   14.20
   1   0 -13  193.08   13.90
   1   0 -13  189.48   12.40
   0   0 -13   83.59    7.10
   0   0 -13   70.99    7.40
   0   0 -13   76.49    6.00
   0   0 -13   68.49    7.10
  -1   0 -13    2.80    2.50
  -1   0 -13    0.70    1.90
  -1   0 -13    4.50    2.90
  -1   0 -13    0.40    2.60
  -2   0 -13   46.50    5.70
  -2   0 -13   39.80    5.20
  -2   0 -13   54.99    5.40
  -3   0 -13  166.68   11.60
  -3   0 -13  149.29   11.30
  -3   0 -13  138.09   11.80
  -4   0 -13   94.49    8.70
  -4   0 -13   93.29    8.60
   4   0  13  101.49    7.70
  -5   0 -13    3.40    1.90
  -5   0 -13    3.50    3.30
   5   0  13    6.00    2.50
  -6   0 -13  157.78   11.50
  -6   0 -13  165.18   13.30
   6   0  13  161.58   11.80
  -7   0 -13    8.10    4.20
  -7   0 -13    7.70    2.90
  -8   0 -13  136.69   12.80
  -8   0 -13  137.79   10.80
   7  -1 -13  152.98   12.50
   7  -1 -13  151.98   12.60
   7  -1 -13  124.79   11.60
  -7   1  13  154.48   11.80
   6  -1 -13  140.39   11.20
   6  -1 -13  129.99   11.30
   6  -1 -13  122.79   11.30
  -6   1  13  122.49   10.50
   5  -1 -13   -2.60    3.40
   5  -1 -13   -1.70    2.90
   5  -1 -13    4.10    3.50
  -5   1  13    0.90    2.60
   4  -1 -13    3.60    3.00
   4  -1 -13   -2.10    2.80
   4  -1 -13    4.60    3.50
  -4   1  13    5.50    2.60
   3  -1 -13   23.80    4.30
   3  -1 -13   16.60    4.00
   3  -1 -13   19.00    4.10
   2  -1 -13   81.09    7.90
   2  -1 -13   76.39    7.60
   2  -1 -13   78.29    7.70
   1  -1 -13   75.69    5.80
   1  -1 -13   86.79    7.70
   1  -1 -13   86.99    7.80
   1  -1 -13   79.09    7.30
   0  -1 -13  496.05   31.70
   0  -1 -13  490.45   31.50
   0  -1 -13  482.15   30.70
   0  -1 -13  473.35   31.80
  -1  -1 -13  364.56   22.90
  -1  -1 -13  350.96   23.10
  -1  -1 -13  340.17   23.60
  -1  -1 -13  344.77   23.40
  -2  -1 -13  384.16   24.80
  -2  -1 -13  372.76   25.20
  -2  -1 -13  395.26   25.10
   2   1  13  358.76   24.90
  -3  -1 -13   11.90    3.20
  -3  -1 -13   12.20    3.00
  -3  -1 -13   10.10    3.50
   3   1  13   14.00    2.50
  -4  -1 -13  180.18   12.10
  -4  -1 -13  190.78   13.80
   4   1  13  181.78   12.70
  -5  -1 -13   19.40    4.20
  -5  -1 -13   14.30    2.60
   5   1  13   16.00    3.00
  -6  -1 -13   83.49    7.30
  -6  -1 -13   91.49    9.20
   6   1  13   94.99    7.70
  -7  -1 -13    9.70    4.30
  -7  -1 -13    8.90    2.90
   7   1  13   11.30    3.90
  -8  -1 -13   11.20    4.50
  -8  -1 -13    6.20    2.90
   7  -2 -13    2.70    3.70
   7  -2 -13    6.30    4.10
  -7   2  13    7.70    3.50
   6  -2 -13   50.69    6.70
   6  -2 -13   55.29    7.00
   6  -2 -13   77.29    7.80
  -6   2  13   74.39    7.20
   5  -2 -13   25.30    4.60
   5  -2 -13   16.90    4.50
   5  -2 -13   36.20    5.10
  -5   2  13   21.40    4.20
   4  -2 -13  260.97   18.90
   4  -2 -13  259.67   18.90
   4  -2 -13  279.37   19.00
  -4   2  13  274.97   18.50
   3  -2 -13    4.50    3.20
   3  -2 -13    1.70    3.00
   3  -2 -13    0.40    2.70
  -3   2  13    3.70    2.40
   2  -2 -13  427.86   29.00
   2  -2 -13  451.65   27.70
   2  -2 -13  445.86   29.20
   2  -2 -13  436.66   29.20
   1  -2 -13   72.49    7.10
   1  -2 -13   80.19    7.50
   1  -2 -13   74.99    5.80
   1  -2 -13   73.59    7.20
   0  -2 -13  193.18   14.10
   0  -2 -13  218.48   14.60
   0  -2 -13  193.18   13.40
   0  -2 -13  201.28   14.50
  -1  -2 -13   24.00    3.70
  -1  -2 -13   22.40    4.10
  -1  -2 -13   20.30    3.80
  -1  -2 -13   25.10    3.40
  -2  -2 -13   19.20    3.90
  -2  -2 -13   21.00    3.80
  -2  -2 -13   21.00    3.40
  -3  -2 -13    4.20    2.60
  -3  -2 -13    7.40    2.70
   3   2  13    4.30    2.00
  -4  -2 -13   14.60    3.60
  -4  -2 -13   16.50    2.40
   4   2  13   24.30    3.20
  -5  -2 -13    1.00    1.80
  -5  -2 -13    2.20    3.00
   5   2  13   -1.40    2.00
  -6  -2 -13    2.30    2.20
  -6  -2 -13    5.30    3.50
   6   2  13    3.20    2.40
  -7  -2 -13    4.10    2.60
  -7  -2 -13    4.50    3.80
   7   2  13    5.90    3.00
  -8  -2 -13    4.50    4.00
  -8  -2 -13    3.80    2.80
   7  -3 -13   48.50    6.70
   7  -3 -13   52.29    5.20
   7  -3 -13   48.50    6.80
  -7   3  13   63.19    7.00
   6  -3 -13  126.59    9.20
   6  -3 -13  119.29   10.70
   6  -3 -13  133.39   11.40
  -6   3  13  134.59   10.60
   5  -3 -13    4.60    3.70
   5  -3 -13   11.20    3.80
   5  -3 -13   10.00    2.20
   5  -3 -13   12.50    3.70
  -5   3  13    8.50    3.20
   4  -3 -13   30.20    4.80
   4  -3 -13   33.60    5.00
   4  -3 -13   34.90    3.70
   4  -3 -13   26.80    5.00
  -4   3  13   35.40    4.70
   3  -3 -13  116.19   10.00
   3  -3 -13  115.19    8.20
   3  -3 -13  114.69    9.90
   3  -3 -13  128.09   10.10
  -3   3  13  121.39    9.20
   2  -3 -13    2.30    3.00
   2  -3 -13    4.80    1.70
   2  -3 -13    2.60    3.00
   2  -3 -13    2.90    2.80
   1  -3 -13   -2.60    2.60
   1  -3 -13    5.30    2.80
   1  -3 -13    4.10    1.70
   1  -3 -13    2.90    2.70
   0  -3 -13   85.19    7.50
   0  -3 -13   93.39    7.10
   0  -3 -13   72.29    7.70
   0  -3 -13   99.39    8.10
  -1  -3 -13   -1.20    2.60
  -1  -3 -13    3.90    2.80
  -1  -3 -13    0.70    1.90
  -1  -3 -13    1.60    2.30
  -2  -3 -13    8.50    2.70
  -2  -3 -13    7.80    2.90
  -2  -3 -13    7.30    3.20
  -3  -3 -13   34.70    4.40
  -3  -3 -13   30.50    4.50
   3   3  13   31.60    3.60
  -4  -3 -13   32.60    3.40
  -4  -3 -13   26.00    4.50
   4   3  13   31.70    3.80
  -5  -3 -13    2.60    3.10
  -5  -3 -13    8.60    2.40
   5   3  13    8.00    2.60
  -6  -3 -13   15.70    3.20
  -6  -3 -13   18.10    4.50
   6   3  13   18.20    3.40
  -7  -3 -13   -2.40    2.30
  -7  -3 -13    5.90    4.10
   7   3  13    6.30    4.30
  -8  -3 -13    7.30    3.20
  -8  -3 -13    7.40    4.30
  -7   4  13    6.20    3.50
   6  -4 -13    8.30    3.80
   6  -4 -13   18.80    4.40
   6  -4 -13    9.40    2.70
  -6   4  13    7.90    3.30
   5  -4 -13   14.90    4.30
   5  -4 -13   10.10    2.40
   5  -4 -13   12.30    3.70
  -5   4  13   10.90    3.40
   4  -4 -13   17.20    2.80
   4  -4 -13   17.20    3.80
   4  -4 -13   17.10    4.10
   4  -4 -13   15.30    3.90
  -4   4  13   14.20    3.20
   3  -4 -13   17.30    3.60
   3  -4 -13   10.10    2.20
   3  -4 -13    6.20    3.50
   3  -4 -13    8.80    3.50
  -3   4  13    8.20    2.80
   2  -4 -13   24.40    4.30
   2  -4 -13   20.40    4.10
   2  -4 -13   20.10    4.20
   2  -4 -13   21.60    3.00
  -2   4  13   25.30    3.60
   1  -4 -13   28.50    4.60
   1  -4 -13   38.30    4.80
   1  -4 -13   36.00    4.90
   1  -4 -13   38.90    4.10
   0  -4 -13   23.40    3.90
   0  -4 -13   27.50    4.30
   0  -4 -13   18.90    3.20
   0  -4 -13   18.60    3.90
  -1  -4 -13    6.20    3.00
  -1  -4 -13    2.90    2.80
  -1  -4 -13    3.90    2.20
  -1  -4 -13    4.70    2.60
  -2  -4 -13    5.00    2.90
  -2  -4 -13    1.10    2.20
  -2  -4 -13    2.40    2.90
   2   4  13    2.10    1.90
  -3  -4 -13   25.50    4.10
  -3  -4 -13   33.70    3.20
  -3  -4 -13   31.70    4.60
   3   4  13   28.90    3.60
  -4  -4 -13    0.80    2.60
  -4  -4 -13   -1.90    1.60
   4   4  13   -2.70    1.80
  -5  -4 -13    0.10    3.10
  -5  -4 -13    1.10    2.10
   5   4  13    4.90    2.30
  -6  -4 -13    6.10    3.60
  -6  -4 -13    2.30    2.40
   6   4  13    4.90    2.60
  -7  -4 -13   -2.10    2.30
  -7  -4 -13    4.90    3.80
  -8  -4 -13    2.90    3.00
  -8  -4 -13    1.60    4.00
   6  -5 -13    2.50    3.70
   6  -5 -13   15.20    3.20
  -6   5  13   15.60    3.80
   5  -5 -13    7.90    2.60
   5  -5 -13    5.40    3.50
   5  -5 -13    7.80    3.60
  -5   5  13    3.30    2.90
   4  -5 -13   16.70    3.60
   4  -5 -13   14.50    2.90
   4  -5 -13   11.50    4.00
  -4   5  13   14.20    3.50
   3  -5 -13   43.40    5.20
   3  -5 -13   39.70    4.30
   3  -5 -13   32.00    5.10
  -3   5  13   34.30    4.70
   2  -5 -13    2.10    1.90
   2  -5 -13   -3.00    2.70
   2  -5 -13    2.60    2.70
   2  -5 -13    0.10    2.90
  -2   5  13    5.70    2.40
   1  -5 -13   26.90    4.20
   1  -5 -13   23.10    3.30
   1  -5 -13   19.00    3.80
   1  -5 -13   17.90    3.90
   0  -5 -13   11.70    3.00
   0  -5 -13   13.70    3.40
   0  -5 -13   11.30    3.50
   0  -5 -13   10.30    2.70
  -1  -5 -13   -1.20    2.40
  -1  -5 -13    1.60    2.20
  -1  -5 -13   -0.40    2.50
  -2  -5 -13   47.00    5.40
  -2  -5 -13   38.10    4.80
  -2  -5 -13   35.20    4.80
   2   5  13   40.00    4.20
  -3  -5 -13   30.40    4.60
  -3  -5 -13   29.40    3.20
   3   5  13   28.80    3.70
  -4  -5 -13   -0.90    2.70
  -4  -5 -13    2.30    1.90
   4   5  13   -4.30    1.80
  -5  -5 -13   14.90    2.90
  -5  -5 -13   16.30    4.20
   5   5  13   10.50    2.90
  -6  -5 -13    3.10    2.60
  -6  -5 -13    6.10    3.60
   6   5  13    2.10    2.40
  -7  -5 -13   -0.30    2.50
  -7  -5 -13    0.40    3.70
  -8  -5 -13   45.30    5.60
  -8  -5 -13   47.80    7.20
   6  -6 -13    2.60    3.50
   6  -6 -13    3.10    2.70
  -6   6  13    2.50    3.30
   5  -6 -13   -1.90    3.30
   5  -6 -13   11.80    3.10
  -5   6  13   13.60    3.70
   4  -6 -13    0.80    2.30
   4  -6 -13    2.70    3.50
  -4   6  13    3.90    2.90
   3  -6 -13  118.39    9.90
   3  -6 -13  109.39    9.00
   3  -6 -13  101.59    8.60
  -3   6  13  119.99    9.10
   2  -6 -13    0.40    2.90
   2  -6 -13   -0.10    2.60
   2  -6 -13    2.20    2.10
  -2   6  13    6.80    2.60
   1  -6 -13   96.39    8.00
   1  -6 -13   75.29    7.70
   1  -6 -13   88.29    7.50
  -1   6  13   95.89    7.60
   0  -6 -13    7.50    3.00
   0  -6 -13    5.40    2.50
   0  -6 -13    3.20    2.60
  -1  -6 -13  134.69   10.40
  -1  -6 -13  129.99   10.30
   1   6  13  128.59    9.70
  -2  -6 -13   42.10    5.30
  -2  -6 -13   45.20    5.40
   2   6  13   36.40    4.10
  -3  -6 -13   93.79    7.20
  -3  -6 -13   98.59    8.80
   3   6  13   97.29    7.70
  -4  -6 -13   39.20    4.30
  -4  -6 -13   37.30    5.60
   4   6  13   43.50    4.60
  -5  -6 -13    0.50    2.30
  -5  -6 -13   -1.80    3.20
   5   6  13   -1.30    2.20
  -6  -6 -13   67.39    7.80
  -6  -6 -13   58.99    6.30
   6   6  13   69.49    6.60
  -7  -6 -13   19.50    3.80
  -7  -6 -13   17.30    4.90
  -8  -6 -13    7.40    3.40
  -8  -6 -13    1.40    4.20
   6  -7 -13   22.90    4.10
   6  -7 -13   22.30    4.90
  -6   7  13   28.50    4.80
   5  -7 -13  164.08   12.50
   5  -7 -13  157.68   13.10
  -5   7  13  171.38   12.80
   4  -7 -13   18.30    3.80
   4  -7 -13   24.20    4.70
  -4   7  13   20.10    4.10
   3  -7 -13   81.59    8.20
   3  -7 -13   80.19    7.40
  -3   7  13   88.49    7.90
   2  -7 -13   32.30    4.40
   2  -7 -13   35.30    5.00
   2  -7 -13   35.90    4.70
  -2   7  13   31.20    4.40
   1  -7 -13   10.10    3.40
   1  -7 -13   12.30    2.90
   1  -7 -13   12.40    3.10
   1  -7 -13   15.40    3.40
  -1   7  13   13.50    3.10
   0  -7 -13    5.10    2.70
   0  -7 -13    8.50    3.00
   0  -7 -13    9.50    3.00
  -1  -7 -13    9.10    3.10
  -1  -7 -13    4.50    2.70
   1   7  13    5.30    2.20
  -2  -7 -13    3.40    2.70
  -2  -7 -13    2.80    2.80
   2   7  13    3.50    2.10
  -3  -7 -13   44.00    4.20
  -3  -7 -13   22.60    4.70
   3   7  13   40.90    4.30
  -4  -7 -13    1.40    2.10
  -4  -7 -13    2.10    3.30
   4   7  13   -0.30    2.30
  -5  -7 -13    2.20    3.60
  -5  -7 -13    1.90    2.40
   5   7  13    1.80    2.50
  -6  -7 -13    7.80    4.20
  -6  -7 -13    9.70    3.20
  -7  -7 -13    1.70    3.90
  -7  -7 -13   -4.00    2.40
   5  -8 -13   56.89    7.20
   5  -8 -13   59.59    6.70
  -5   8  13   67.19    7.10
   4  -8 -13   14.40    4.10
   4  -8 -13    9.50    3.50
  -4   8  13   13.50    3.80
   3  -8 -13   -2.60    2.50
   3  -8 -13    1.80    3.40
  -3   8  13   -0.30    2.60
   2  -8 -13   -1.60    2.30
   2  -8 -13   -3.30    2.80
  -2   8  13    1.10    2.80
   1  -8 -13    6.10    2.80
   1  -8 -13    6.70    3.20
   1  -8 -13    6.20    2.60
  -1   8  13    5.50    2.80
   0  -8 -13   27.50    4.10
   0  -8 -13   32.90    4.50
   0  -8 -13   33.50    4.80
   0  -8 -13   26.00    4.30
   0   8  13   31.80    4.40
   0   8  13   28.30    3.70
  -1  -8 -13    4.90    3.00
  -1  -8 -13    7.70    2.90
   1   8  13   10.10    2.60
  -2  -8 -13   65.59    7.00
  -2  -8 -13   65.29    6.60
   2   8  13   53.89    5.70
  -3  -8 -13   20.30    4.50
   3   8  13   27.00    3.70
  -4  -8 -13   30.30    4.00
  -4  -8 -13   22.40    4.90
   4   8  13   21.60    3.70
  -5  -8 -13    3.00    2.70
  -5  -8 -13    4.40    3.80
   5   8  13    0.10    2.60
  -6  -8 -13   14.80    4.80
  -6  -8 -13    7.10    3.10
  -7  -8 -13   26.50    4.50
  -7  -8 -13   27.70    6.00
   5  -9 -13   30.40    5.30
   5  -9 -13   53.59    6.60
  -5   9  13   47.30    6.00
   4  -9 -13   78.49    7.90
   4  -9 -13   72.59    7.90
  -4   9  13   63.89    7.50
   3  -9 -13    9.80    3.80
   3  -9 -13    1.70    3.00
  -3   9  13    5.10    3.20
   2  -9 -13   67.59    7.20
   2  -9 -13   65.89    7.20
  -2   9  13   67.89    7.10
   1  -9 -13   29.10    4.60
   1  -9 -13   25.70    4.50
  -1   9  13   28.50    4.40
   0  -9 -13   34.00    4.80
   0  -9 -13   36.40    5.40
   0   9  13   40.70    5.00
   0   9  13   34.40    4.20
  -1  -9 -13    0.40    3.00
   1   9  13    2.70    2.20
  -2  -9 -13    5.00    3.20
  -2  -9 -13    4.70    3.00
   2   9  13    2.70    2.40
  -3  -9 -13   25.50    5.00
   3   9  13   26.10    3.90
  -4  -9 -13    8.30    4.10
  -4  -9 -13    8.70    2.90
   4   9  13    8.80    3.10
  -5  -9 -13  160.18   14.40
  -5  -9 -13  190.88   13.20
  -6  -9 -13   86.39    9.50
  -6  -9 -13   72.49    7.50
   4 -10 -13    9.60    3.80
   4 -10 -13    9.70    4.10
  -4  10  13    7.80    3.80
   3 -10 -13   -0.20    3.00
   3 -10 -13    0.70    3.30
  -3  10  13    2.00    3.10
   2 -10 -13    2.20    3.20
   2 -10 -13   -5.30    2.80
  -2  10  13   -1.60    2.90
   1 -10 -13   20.30    4.20
   1 -10 -13   17.60    4.20
  -1  10  13   20.00    4.20
  -1  10  13   16.10    3.20
   0 -10 -13   45.00    5.40
   0 -10 -13   36.50    5.60
   0  10  13   41.50    4.70
   0  10  13   46.20    5.50
  -1 -10 -13   80.49    8.50
   1  10  13   72.59    7.50
   1  10  13   75.39    6.90
  -2 -10 -13    9.60    4.00
   2  10  13    8.60    2.90
  -3 -10 -13  267.37   19.70
  -4 -10 -13   11.40    4.30
  -5 -10 -13   28.30    4.30
  -5 -10 -13   16.00    4.90
   3 -11 -13  172.38   13.50
   3 -11 -13  161.58   13.70
  -3  11  13  172.88   13.40
   2 -11 -13   79.49    8.30
   2 -11 -13   80.39    8.90
  -2  11  13   92.99    8.60
   1 -11 -13  183.38   13.10
   1 -11 -13  150.28   13.40
  -1  11  13  180.18   13.30
   0 -11 -13    4.30    3.50
   0  11  13    5.00    3.40
  -1 -11 -13  230.68   17.80
   1  11  13  242.48   17.10
  -2 -11 -13    2.60    3.70
  -3 -11 -13   -0.90    3.50
  -4 -11 -13   -2.40    3.40
   1 -12 -13   32.60    5.70
   1 -12 -13   30.30    5.00
  -1  12  13   32.60    5.40
   0 -12 -13   15.40    4.40
   0  12  13   16.10    4.30
  -1 -12 -13   12.40    4.30
   1  12  13    7.00    3.70
  -2 -12 -13   -0.20    3.50
  -3 -12 -13    8.80    4.30
   0   7 -14   -1.30    2.40
   0   7 -14    2.20    3.40
  -1   7 -14   25.30    4.30
  -1   7 -14   20.50    4.80
  -2   7 -14   12.50    3.70
  -2   7 -14   12.30    4.20
   2   6 -14  145.99   12.10
   2   6 -14  142.69   12.00
   2   6 -14  135.19    9.80
   1   6 -14   94.59    9.40
   1   6 -14   86.09    9.10
   1   6 -14   98.59    7.60
   0   6 -14  222.88   15.60
   0   6 -14  231.98   16.90
   0   6 -14  222.18   16.60
  -1   6 -14  120.19    9.70
  -1   6 -14  108.69   10.70
  -1   6 -14  128.99   10.50
  -2   6 -14  152.08   12.10
  -2   6 -14  161.38   12.70
  -3   6 -14  255.87   19.10
  -3   6 -14  291.17   19.40
  -4   6 -14   73.79    7.60
  -4   6 -14   70.99    8.00
   3   5 -14  208.68   16.40
   3   5 -14  222.38   16.50
   2   5 -14  161.38   13.70
   2   5 -14  168.48   13.80
   2   5 -14  189.68   12.60
   1   5 -14   90.19    9.10
   1   5 -14   93.49    9.00
   1   5 -14   96.29    7.40
   0   5 -14   37.00    5.60
   0   5 -14   37.10    4.30
   0   5 -14   37.00    5.70
  -1   5 -14   75.89    7.90
  -1   5 -14   80.19    8.00
  -1   5 -14   68.59    6.90
  -2   5 -14    4.40    3.30
  -2   5 -14    4.20    2.80
  -2   5 -14    3.70    3.40
  -3   5 -14    2.00    3.30
  -3   5 -14    0.80    3.30
  -3   5 -14    0.70    2.90
  -4   5 -14   18.90    4.40
  -4   5 -14   25.20    4.70
  -5   5 -14   73.69    8.20
   4   4 -14   42.10    6.10
   4   4 -14   45.60    6.80
   4   4 -14   51.89    6.80
   3   4 -14   94.69    9.00
   3   4 -14   83.09    8.90
   3   4 -14   91.69    9.40
   2   4 -14    7.80    3.80
   2   4 -14    9.90    3.80
   2   4 -14    6.50    4.10
   1   4 -14   25.10    4.80
   1   4 -14   26.00    4.80
   1   4 -14   23.20    2.90
   1   4 -14   25.80    5.00
   0   4 -14   16.50    4.20
   0   4 -14    9.30    2.50
   0   4 -14   12.60    3.90
  -1   4 -14    0.60    3.20
  -1   4 -14    1.80    2.30
  -1   4 -14    7.20    3.60
  -2   4 -14   40.10    5.00
  -2   4 -14   41.10    5.50
  -2   4 -14   37.80    5.60
  -3   4 -14   94.39    8.90
  -3   4 -14   91.59    9.10
  -3   4 -14  106.79    9.20
  -4   4 -14   13.50    3.90
  -4   4 -14   11.10    3.90
  -4   4 -14   15.90    4.00
  -5   4 -14    7.40    3.70
  -6   4 -14   21.10    5.40
   5   3 -14    4.30    3.40
   5   3 -14   -0.40    3.70
   5   3 -14    3.40    4.00
   4   3 -14   14.20    4.60
   4   3 -14    9.00    4.20
   4   3 -14   14.40    4.20
   3   3 -14   22.50    4.70
   3   3 -14   17.70    4.50
   3   3 -14   24.60    4.90
   2   3 -14    0.90    3.20
   2   3 -14    1.80    3.20
   2   3 -14   -1.40    3.30
   1   3 -14   23.50    4.60
   1   3 -14   20.90    2.60
   1   3 -14   21.30    4.60
   1   3 -14   21.30    4.50
   0   3 -14   -1.90    3.20
   0   3 -14   -1.50    2.90
   0   3 -14    0.50    1.80
   0   3 -14    0.80    3.20
  -1   3 -14  133.99   10.20
  -1   3 -14  140.39   11.20
  -1   3 -14  140.19   11.30
  -2   3 -14    0.60    3.00
  -2   3 -14    0.90    2.40
  -2   3 -14   -0.70    3.10
  -3   3 -14   14.70    3.70
  -3   3 -14    5.30    3.60
  -3   3 -14    4.60    3.00
  -4   3 -14   34.50    5.80
  -4   3 -14   35.10    5.30
  -4   3 -14   29.10    4.90
  -5   3 -14   43.70    5.70
  -5   3 -14   35.60    5.70
  -6   3 -14  178.38   13.90
  -6   3 -14  182.78   14.80
   5   2 -14    7.00    3.70
   5   2 -14   11.10    4.20
   5   2 -14    5.90    3.90
   4   2 -14    7.70    3.80
   4   2 -14   16.60    4.20
   4   2 -14   13.10    4.30
   3   2 -14   -3.60    3.00
   3   2 -14    0.70    3.10
   3   2 -14   -0.40    3.50
   2   2 -14   22.00    4.70
   2   2 -14   22.00    4.60
   2   2 -14   36.10    5.30
   1   2 -14   57.19    4.50
   1   2 -14   46.10    6.30
   1   2 -14   56.99    6.70
   1   2 -14   55.49    6.50
   0   2 -14  171.18   12.80
   0   2 -14  157.98   12.70
   0   2 -14  154.38   11.10
   0   2 -14  166.48   12.40
  -1   2 -14    2.30    2.90
  -1   2 -14   -1.50    1.90
  -1   2 -14   -5.40    2.80
  -1   2 -14   -1.80    2.90
  -2   2 -14  313.17   21.60
  -2   2 -14  315.67   21.10
  -2   2 -14  314.17   21.90
  -3   2 -14   17.80    4.30
  -3   2 -14   21.20    4.00
  -3   2 -14   13.10    3.50
  -4   2 -14  373.56   26.10
  -4   2 -14  403.26   26.20
  -5   2 -14   48.70    6.70
  -5   2 -14   61.39    6.80
   5  -2  14   53.09    5.40
  -6   2 -14   56.69    6.80
  -6   2 -14   52.89    7.10
  -7   2 -14    0.00    2.20
  -7   2 -14    0.90    3.40
  -7   2 -14   -1.20    3.90
   5   1 -14    0.20    3.30
   5   1 -14   -5.60    3.00
   5   1 -14   -2.40    3.50
   4   1 -14   29.00    5.20
   4   1 -14   37.70    5.40
   4   1 -14   23.40    4.90
   3   1 -14   30.80    5.00
   3   1 -14   34.10    5.20
   3   1 -14   30.60    5.10
   2   1 -14  156.18   12.00
   2   1 -14  145.59   11.90
   2   1 -14  142.29   11.90
   1   1 -14    7.20    3.40
   1   1 -14    1.80    3.30
   1   1 -14    0.50    1.30
   1   1 -14   -1.30    2.80
   0   1 -14  106.79    9.30
   0   1 -14  100.59    8.90
   0   1 -14  110.19    9.60
   0   1 -14  105.49    7.80
  -1   1 -14    1.00    2.00
  -1   1 -14   -1.60    2.60
  -1   1 -14    2.50    2.80
  -1   1 -14    3.70    3.20
  -2   1 -14   35.60    5.00
  -2   1 -14   41.20    5.70
  -2   1 -14   37.80    4.70
  -3   1 -14   17.30    4.20
  -3   1 -14   19.50    3.90
  -3   1 -14   16.50    3.70
  -4   1 -14  138.29   10.90
  -4   1 -14  123.59   10.70
  -5   1 -14   20.20    4.60
  -5   1 -14   22.20    4.60
   5  -1  14   27.00    3.80
  -6   1 -14  316.07   23.10
  -6   1 -14  362.26   23.90
  -6   1 -14  324.97   21.70
  -7   1 -14   10.20    2.70
  -7   1 -14    7.20    4.50
  -6   0  14   33.10    5.70
   5   0 -14   14.70    4.60
   5   0 -14   17.40    4.50
   5   0 -14    5.50    3.70
   4   0 -14  114.69   10.10
   4   0 -14  100.49    9.90
   4   0 -14  114.19   10.00
   3   0 -14    6.70    3.60
   3   0 -14   -2.50    2.90
   3   0 -14    2.80    3.30
   2   0 -14    1.10    3.10
   2   0 -14    7.80    3.60
   2   0 -14    0.50    3.00
   1   0 -14   19.20    3.90
   1   0 -14   10.70    3.90
   1   0 -14   24.20    4.40
   1   0 -14   17.30    2.20
   0   0 -14   20.00    4.20
   0   0 -14   21.40    4.00
   0   0 -14   19.00    2.70
   0   0 -14   21.30    4.30
  -1   0 -14   11.10    3.60
  -1   0 -14    5.20    2.90
  -1   0 -14    6.20    3.30
  -1   0 -14   11.80    2.70
  -2   0 -14  285.97   19.90
  -2   0 -14  280.57   19.60
  -2   0 -14  287.07   19.30
  -3   0 -14   31.60    4.60
  -3   0 -14   37.20    4.90
  -3   0 -14   29.10    5.00
  -4   0 -14  284.47   20.20
  -4   0 -14  293.27   20.30
  -5   0 -14   12.40    3.90
  -5   0 -14   11.20    3.90
   5   0  14   17.60    3.20
  -6   0 -14   13.90    4.40
  -6   0 -14   16.60    2.90
  -7   0 -14    8.90    4.30
  -7   0 -14    8.50    2.70
   6  -1 -14    0.50    3.40
   6  -1 -14   -5.20    3.50
   6  -1 -14   -2.80    3.20
  -6   1  14   -0.80    3.00
   5  -1 -14   22.80    5.10
   5  -1 -14   32.30    5.40
   5  -1 -14   31.50    5.20
   4  -1 -14   41.30    5.90
   4  -1 -14   51.59    6.20
   4  -1 -14   30.30    5.30
   3  -1 -14  120.69   10.20
   3  -1 -14  103.49    9.80
   3  -1 -14  117.59   10.10
   2  -1 -14  106.09    9.10
   2  -1 -14   97.59    8.80
   2  -1 -14   87.89    9.00
   1  -1 -14    9.80    3.50
   1  -1 -14    7.70    3.30
   1  -1 -14    8.10    3.50
   1  -1 -14    5.90    1.70
   0  -1 -14   94.99    8.80
   0  -1 -14   87.79    8.10
   0  -1 -14   92.59    8.50
   0  -1 -14   93.69    7.10
  -1  -1 -14  113.29   10.10
  -1  -1 -14  140.89   10.20
  -1  -1 -14  118.69    9.10
  -1  -1 -14  121.19   10.90
  -2  -1 -14    3.40    2.90
  -2  -1 -14    6.30    3.20
  -2  -1 -14    4.70    2.60
  -3  -1 -14   85.19    7.80
  -3  -1 -14   77.39    7.60
  -3  -1 -14   90.29    8.30
  -4  -1 -14  163.28   13.20
  -4  -1 -14  181.68   13.40
   4   1  14  174.38   12.90
  -5  -1 -14   21.50    4.60
   5   1  14   29.40    3.80
  -6  -1 -14  159.78   13.40
  -6  -1 -14  164.68   11.40
   6   1  14  157.28   12.60
  -7  -1 -14   27.70    5.70
  -7  -1 -14   34.10    4.30
   6  -2 -14   -5.60    3.20
   6  -2 -14   -3.50    3.40
   6  -2 -14    2.10    3.80
  -6   2  14    0.50    2.90
   5  -2 -14   29.30    5.10
   5  -2 -14   19.20    4.60
   5  -2 -14   25.50    4.80
  -5   2  14   22.10    4.20
   4  -2 -14    1.40    3.30
   4  -2 -14    7.40    3.60
   4  -2 -14    0.60    3.40
   3  -2 -14   19.30    4.40
   3  -2 -14   17.60    4.40
   3  -2 -14   16.40    4.10
   2  -2 -14   50.69    6.30
   2  -2 -14   51.89    4.10
   2  -2 -14   40.50    5.90
   2  -2 -14   57.29    6.30
   1  -2 -14    1.60    3.10
   1  -2 -14   -0.60    2.90
   1  -2 -14    2.00    3.10
   1  -2 -14    2.20    1.60
   0  -2 -14  114.59    9.10
   0  -2 -14  115.89    9.60
   0  -2 -14   96.79    9.40
   0  -2 -14  115.09    8.30
  -1  -2 -14    4.00    3.10
  -1  -2 -14    5.20    3.10
  -2  -2 -14  418.16   24.90
  -2  -2 -14  351.26   24.80
  -2  -2 -14  338.67   25.00
  -3  -2 -14    9.60    3.60
  -3  -2 -14   10.30    3.20
  -3  -2 -14   12.30    3.30
  -4  -2 -14   43.50    5.80
   4   2  14   55.79    5.10
  -5  -2 -14    4.90    3.40
  -5  -2 -14    4.00    1.90
   5   2  14    4.00    2.40
  -6  -2 -14   -0.70    3.20
  -6  -2 -14    2.50    2.10
   6   2  14   -1.50    2.40
  -7  -2 -14    1.60    4.00
  -7  -2 -14    5.60    2.70
   6  -3 -14   23.90    5.00
   6  -3 -14   17.00    4.70
  -6   3  14   19.50    4.10
   5  -3 -14   27.90    5.10
   5  -3 -14   24.30    4.80
   5  -3 -14   20.20    4.60
  -5   3  14   27.00    4.30
   4  -3 -14  104.09    9.20
   4  -3 -14  111.89    9.80
   4  -3 -14  102.69    9.70
  -4   3  14   90.39    8.30
   3  -3 -14    1.80    1.50
   3  -3 -14    4.90    3.40
   3  -3 -14    0.10    3.20
   3  -3 -14   -1.50    2.70
   2  -3 -14   61.59    7.00
   2  -3 -14   67.29    7.20
   2  -3 -14   70.89    5.40
   2  -3 -14   62.39    7.00
   1  -3 -14   22.40    4.30
   1  -3 -14   22.10    3.00
   1  -3 -14   19.60    4.20
   1  -3 -14   22.70    4.10
   0  -3 -14  110.99    9.00
   0  -3 -14  113.19    8.50
   0  -3 -14  115.79    9.60
   0  -3 -14  104.79    9.50
  -1  -3 -14    4.30    3.00
  -1  -3 -14    3.60    2.30
  -1  -3 -14    8.50    3.30
  -2  -3 -14    3.20    3.10
  -2  -3 -14   -0.40    2.30
  -2  -3 -14   -0.10    2.70
  -3  -3 -14   21.00    4.00
  -3  -3 -14   25.40    4.10
  -3  -3 -14   20.60    4.30
  -4  -3 -14   32.60    5.10
   4   3  14   33.40    3.90
  -5  -3 -14    0.30    1.80
  -5  -3 -14    4.40    3.40
   5   3  14    3.50    2.50
  -6  -3 -14    6.00    2.40
  -6  -3 -14    3.80    3.60
   6   3  14    7.90    3.60
  -7  -3 -14   21.50    3.70
  -7  -3 -14   14.90    4.80
   6  -4 -14    9.50    4.30
  -6   4  14   15.00    3.60
   5  -4 -14   15.80    4.40
   5  -4 -14   24.20    4.50
   5  -4 -14   18.00    2.80
  -5   4  14   12.50    3.40
   4  -4 -14   -4.10    3.20
   4  -4 -14    2.50    2.00
   4  -4 -14    2.50    3.00
  -4   4  14   -0.20    2.40
   3  -4 -14    5.30    3.50
   3  -4 -14    2.00    1.80
   3  -4 -14    0.60    3.30
   3  -4 -14   -3.70    2.60
   2  -4 -14    4.90    3.20
   2  -4 -14   -1.60    2.90
   2  -4 -14    6.80    3.30
   2  -4 -14    1.70    1.80
   1  -4 -14   16.90    4.00
   1  -4 -14   15.00    4.00
   1  -4 -14   20.00    3.90
   1  -4 -14   21.60    3.10
   0  -4 -14   44.70    5.50
   0  -4 -14   37.40    5.10
   0  -4 -14   46.10    5.80
   0  -4 -14   40.90    4.60
  -1  -4 -14   15.40    3.90
  -1  -4 -14   15.00    3.80
  -1  -4 -14   20.20    3.50
  -2  -4 -14   47.10    5.80
  -2  -4 -14   45.30    5.30
  -2  -4 -14   49.30    5.50
  -3  -4 -14   22.20    4.40
  -3  -4 -14   17.20    3.70
  -3  -4 -14   16.40    3.70
   3   4  14   13.60    3.70
  -4  -4 -14   10.20    3.50
   4   4  14   13.60    2.80
  -5  -4 -14   54.79    5.20
  -5  -4 -14   52.69    6.70
   5   4  14   51.49    5.40
  -6  -4 -14   30.40    4.10
  -6  -4 -14   41.50    6.10
  -7  -4 -14   69.69    8.90
  -7  -4 -14   96.59    7.70
   5  -5 -14   37.50    4.30
   5  -5 -14   35.50    5.70
  -5   5  14   36.80    5.30
   4  -5 -14    3.10    2.20
   4  -5 -14    5.30    3.60
   4  -5 -14    5.30    3.30
  -4   5  14    7.00    3.20
   3  -5 -14    0.30    2.00
   3  -5 -14    2.10    2.70
   3  -5 -14    2.50    3.20
  -3   5  14   -4.20    2.20
   2  -5 -14   13.10    3.60
   2  -5 -14   16.60    2.90
   2  -5 -14   15.10    3.80
   1  -5 -14   41.40    5.40
   1  -5 -14   39.90    5.60
   1  -5 -14   45.70    4.80
   1  -5 -14   38.50    5.30
   0  -5 -14   12.60    2.90
   0  -5 -14   20.80    3.90
   0  -5 -14   15.30    3.90
   0  -5 -14   17.20    3.80
  -1  -5 -14   78.29    7.20
  -1  -5 -14   61.79    6.50
  -1  -5 -14   66.59    6.90
  -2  -5 -14  217.48   15.50
  -2  -5 -14  207.98   15.60
  -3  -5 -14   55.39    6.50
   3   5  14   59.99    5.50
  -4  -5 -14  123.19   10.40
  -4  -5 -14  114.79    8.50
   4   5  14  121.59    9.20
  -5  -5 -14  122.59    8.40
  -5  -5 -14   81.89    9.60
   5   5  14  117.69    8.90
  -6  -5 -14   67.89    8.60
  -6  -5 -14   96.39    7.50
  -7  -5 -14    3.10    2.60
  -7  -5 -14    4.70    4.00
   5  -6 -14    4.70    2.60
   5  -6 -14    9.60    4.00
  -5   6  14    6.10    3.40
   4  -6 -14    5.10    2.70
   4  -6 -14   -1.10    3.10
  -4   6  14    4.20    3.10
   3  -6 -14   19.20    3.40
   3  -6 -14   14.20    4.10
   3  -6 -14   18.90    3.90
  -3   6  14   17.60    3.80
   2  -6 -14    1.40    2.80
   2  -6 -14   -3.40    3.00
   2  -6 -14    0.00    2.10
  -2   6  14    0.90    3.20
   1  -6 -14   93.49    8.70
   1  -6 -14   95.99    8.80
   1  -6 -14  105.79    8.30
   0  -6 -14   78.19    7.30
   0  -6 -14   79.59    7.70
   0  -6 -14   74.69    7.10
  -1  -6 -14   71.29    7.00
  -1  -6 -14   70.19    7.20
  -2  -6 -14   27.40    4.60
  -2  -6 -14   40.20    5.20
  -3  -6 -14  230.38   16.00
   3   6  14  200.08   14.70
  -4  -6 -14   37.60    4.00
  -4  -6 -14   39.30    5.70
   4   6  14   33.70    4.40
  -5  -6 -14   40.70    5.90
  -5  -6 -14   36.20    4.30
   5   6  14   28.80    4.60
  -6  -6 -14   15.50    4.90
  -6  -6 -14   19.30    3.60
  -7  -6 -14   29.80    4.50
  -7  -6 -14   36.90    6.40
   5  -7 -14   31.40    5.40
   5  -7 -14   30.70    4.60
  -5   7  14   25.30    4.80
   4  -7 -14   32.20    4.50
   4  -7 -14   31.80    5.40
  -4   7  14   33.40    5.00
   3  -7 -14  164.78   12.40
   3  -7 -14  175.68   13.40
  -3   7  14  166.98   12.80
   2  -7 -14  182.98   13.20
   2  -7 -14  150.08   12.20
  -2   7  14  178.58   12.60
   1  -7 -14  102.59    8.80
   1  -7 -14  107.99    9.10
   1  -7 -14  110.89    9.30
   0  -7 -14  166.18   11.90
   0  -7 -14  147.09   11.70
   0  -7 -14  153.48   11.80
  -1  -7 -14  200.48   14.20
  -1  -7 -14  178.48   14.00
  -2  -7 -14  136.09   11.30
  -2  -7 -14  136.59   11.30
   2   7  14  145.89   10.30
  -3  -7 -14   17.30    4.20
   3   7  14   17.10    3.20
  -4  -7 -14  108.19    8.30
  -4  -7 -14  114.19   10.40
   4   7  14  104.49    8.70
  -5  -7 -14   -1.10    2.20
  -5  -7 -14    2.10    3.60
  -6  -7 -14   13.80    3.40
  -6  -7 -14   21.50    5.20
   4  -8 -14   99.89    8.60
   4  -8 -14   86.69    9.00
  -4   8  14   84.49    8.50
   3  -8 -14  177.88   12.60
   3  -8 -14  140.69   12.80
  -3   8  14  164.28   12.70
   2  -8 -14  127.69   10.10
   2  -8 -14  108.29   10.20
  -2   8  14  129.59   10.20
   1  -8 -14  121.59   10.40
   1  -8 -14  128.49   10.30
  -1   8  14  124.09   11.70
   0  -8 -14   56.29    6.20
   0  -8 -14   44.00    5.70
   0  -8 -14   50.49    6.10
  -1  -8 -14   -0.30    2.80
  -1  -8 -14   -1.70    2.80
  -2  -8 -14   40.30    5.60
  -2  -8 -14   41.00    5.60
   2   8  14   34.00    4.30
  -3  -8 -14   63.89    7.40
   3   8  14   59.89    6.00
  -4  -8 -14    6.80    3.80
  -5  -8 -14   60.19    7.90
  -5  -8 -14   67.69    6.40
  -6  -8 -14    4.50    4.00
  -6  -8 -14    0.90    2.70
   3  -9 -14   22.50    4.50
   3  -9 -14   22.00    4.90
  -3   9  14   36.60    5.00
   2  -9 -14    3.30    3.00
   2  -9 -14    0.40    3.40
  -2   9  14   -1.60    2.80
   1  -9 -14  223.68   16.00
   1  -9 -14  215.88   15.90
  -1   9  14  209.78   15.60
   0  -9 -14    1.30    2.80
  -1  -9 -14  413.86   29.80
   1   9  14  474.45   28.90
  -2  -9 -14   63.89    7.60
  -2  -9 -14   80.89    7.60
   2   9  14   68.39    6.90
  -3  -9 -14  339.47   24.00
  -4  -9 -14   14.60    4.60
  -5  -9 -14  438.56   29.60
  -5  -9 -14  471.95   31.40
   2 -10 -14   31.20    5.20
   2 -10 -14   29.10    5.10
  -2  10  14   32.90    5.00
   1 -10 -14  212.08   16.70
   1 -10 -14  234.58   16.60
  -1  10  14  239.28   16.50
   0 -10 -14   32.90    5.40
  -1 -10 -14   66.69    7.90
  -2 -10 -14    0.10    3.30
  -3 -10 -14   82.49    9.00
  -4 -10 -14   16.60    4.80
   1 -11 -14   17.80    4.20
   1 -11 -14   13.20    4.20
  -1  11  14    8.90    3.90
   0 -11 -14   -1.70    3.10
   0  11  14   -2.80    3.00
  -1 -11 -14   13.10    4.20
  -2 -11 -14   15.20    4.70
   1   5 -15   42.50    6.40
   1   5 -15   40.20    6.10
   1   5 -15   56.29    4.80
   0   5 -15   66.29    5.90
   0   5 -15   62.19    7.10
   0   5 -15   55.89    7.20
  -1   5 -15   31.50    5.30
  -1   5 -15   35.50    5.40
  -1   5 -15   26.10    4.10
  -2   5 -15   50.29    5.80
  -2   5 -15   48.30    6.40
  -2   5 -15   55.39    6.70
  -3   5 -15   42.10    5.80
   2   4 -15   29.90    5.50
   2   4 -15   22.40    4.80
   2   4 -15   19.10    4.80
   1   4 -15    9.50    4.10
   1   4 -15   20.70    4.50
   0   4 -15    2.40    3.40
   0   4 -15    1.40    2.00
   0   4 -15   -2.60    3.30
  -1   4 -15   50.19    5.50
  -1   4 -15   62.89    7.00
  -1   4 -15   52.39    6.50
  -2   4 -15   67.19    7.60
  -2   4 -15   60.79    6.70
  -2   4 -15   76.29    7.60
  -3   4 -15    0.80    2.80
  -3   4 -15   10.50    4.00
  -3   4 -15   -1.20    3.30
  -4   4 -15   95.59    9.30
  -4   4 -15  102.99    9.50
   3   3 -15    9.50    4.50
   3   3 -15    6.20    3.90
   3   3 -15   11.00    4.20
   2   3 -15   40.80    6.00
   2   3 -15   47.30    6.30
   2   3 -15   29.60    5.50
   1   3 -15    5.10    3.70
   1   3 -15    6.80    3.90
   1   3 -15    1.20    3.60
   0   3 -15   41.30    6.00
   0   3 -15   49.40    6.30
   0   3 -15   37.90    5.90
   0   3 -15   47.70    4.70
  -1   3 -15    9.10    3.90
  -1   3 -15   20.60    4.70
  -1   3 -15   15.70    3.00
  -2   3 -15   25.70    4.10
  -2   3 -15   22.40    4.60
  -2   3 -15   22.10    4.90
  -3   3 -15   -0.10    3.40
  -3   3 -15   -1.60    3.00
  -3   3 -15    4.80    3.10
  -4   3 -15   12.10    4.00
  -4   3 -15   15.70    4.30
  -5   3 -15    2.20    3.40
  -5   3 -15    3.00    3.60
   4   2 -15   75.69    8.20
   4   2 -15   55.59    7.50
   4   2 -15   83.79    8.10
   3   2 -15   17.20    4.80
   3   2 -15   19.00    4.80
   3   2 -15   16.90    4.70
   2   2 -15   14.30    4.20
   2   2 -15   13.70    4.20
   2   2 -15    5.60    3.80
   1   2 -15    9.00    3.70
   1   2 -15   11.10    3.80
   1   2 -15    6.20    3.80
   0   2 -15    2.10    3.20
   0   2 -15    2.20    1.90
   0   2 -15    7.50    3.60
   0   2 -15    1.00    3.50
  -1   2 -15    6.60    3.50
  -1   2 -15    6.60    2.40
  -1   2 -15    5.90    3.70
  -2   2 -15   23.70    5.10
  -2   2 -15   29.90    4.90
  -2   2 -15   36.40    4.60
  -3   2 -15   15.10    4.30
  -3   2 -15   15.50    3.70
  -3   2 -15   14.40    3.70
  -4   2 -15   -0.10    3.40
  -4   2 -15    2.20    3.10
  -5   2 -15    1.00    3.50
  -5   2 -15   -3.50    3.10
   4   1 -15   53.09    7.00
   4   1 -15   58.19    6.90
   4   1 -15   49.50    6.90
   3   1 -15   22.50    4.70
   3   1 -15   14.30    4.30
   3   1 -15   22.90    4.80
   2   1 -15   29.80    5.50
   2   1 -15   44.40    6.00
   2   1 -15   38.30    5.60
   1   1 -15   15.70    4.20
   1   1 -15   16.10    4.30
   1   1 -15   11.10    3.90
   0   1 -15   55.29    4.90
   0   1 -15   54.49    6.30
   0   1 -15   51.29    6.50
   0   1 -15   59.29    7.00
  -1   1 -15   44.60    4.70
  -1   1 -15   42.80    5.70
  -1   1 -15   33.20    5.60
  -2   1 -15    1.30    2.90
  -2   1 -15   -2.10    3.00
  -2   1 -15    0.30    2.50
  -3   1 -15    5.30    3.20
  -3   1 -15    7.90    3.70
  -3   1 -15    7.80    3.10
  -4   1 -15   36.00    5.80
  -4   1 -15   45.10    5.70
  -5   1 -15   21.90    5.00
  -5   1 -15   27.50    5.00
  -6   1 -15    1.40    3.60
  -6   1 -15    2.70    3.60
   4   0 -15    0.00    3.30
   4   0 -15    2.40    3.40
   4   0 -15    2.00    3.60
   3   0 -15    1.60    3.70
   3   0 -15    8.40    3.80
   3   0 -15   14.50    4.00
   2   0 -15   18.60    4.40
   2   0 -15   27.80    4.90
   2   0 -15   13.70    4.20
   1   0 -15   58.79    7.20
   1   0 -15   71.59    7.30
   1   0 -15   75.19    7.60
   0   0 -15  139.69   10.60
   0   0 -15  123.39    9.10
   0   0 -15  129.49   10.80
   0   0 -15  126.99   10.90
  -1   0 -15    8.10    3.50
  -1   0 -15   -0.70    3.10
  -1   0 -15    2.40    2.20
  -2   0 -15  195.18   14.20
  -2   0 -15  192.58   13.60
  -2   0 -15  177.98   14.40
  -3   0 -15   -1.70    3.00
  -3   0 -15   -0.80    2.50
  -3   0 -15   -3.20    2.70
  -4   0 -15   15.60    4.20
  -4   0 -15   13.00    3.80
  -5   0 -15    0.80    3.50
  -5   0 -15   -2.20    3.00
  -6   0 -15    9.50    4.10
  -6   0 -15    7.20    4.00
   4  -1 -15   23.10    4.60
   4  -1 -15   17.00    4.40
   4  -1 -15   14.40    4.60
   3  -1 -15   99.29    9.60
   3  -1 -15  108.59    9.80
   3  -1 -15  113.09   10.00
   2  -1 -15   29.80    5.10
   2  -1 -15   36.50    5.60
   2  -1 -15   32.00    5.20
   1  -1 -15    1.00    1.30
   1  -1 -15   -2.10    3.30
   1  -1 -15   -2.10    3.00
   1  -1 -15   -1.30    3.00
   0  -1 -15   47.60    5.70
   0  -1 -15   36.90    5.60
   0  -1 -15   43.90    4.50
   0  -1 -15   54.69    6.70
  -1  -1 -15   16.10    4.30
  -1  -1 -15   18.20    3.20
  -1  -1 -15   23.30    4.40
  -2  -1 -15   22.20    4.50
  -2  -1 -15   14.10    3.20
  -2  -1 -15   10.20    3.70
  -3  -1 -15    1.90    2.90
  -3  -1 -15    3.90    3.30
  -3  -1 -15    3.00    2.70
  -4  -1 -15    3.70    3.00
  -4  -1 -15   -2.50    3.20
  -5  -1 -15   17.70    4.50
  -5  -1 -15   13.90    4.20
  -6  -1 -15    2.00    3.50
  -6  -1 -15   -0.10    3.40
   4  -2 -15    2.00    3.60
   4  -2 -15    7.20    4.00
   4  -2 -15   11.40    4.00
   3  -2 -15  102.69    9.40
   3  -2 -15  102.69    9.80
   3  -2 -15  102.29    9.90
   2  -2 -15   13.20    4.10
   2  -2 -15    8.80    3.90
   2  -2 -15   12.60    4.00
   1  -2 -15  241.48   17.40
   1  -2 -15  249.18   17.80
   1  -2 -15  242.38   17.80
   1  -2 -15  247.38   16.00
   0  -2 -15   22.90    4.30
   0  -2 -15   26.40    4.90
   0  -2 -15   18.50    4.40
   0  -2 -15   30.10    3.50
  -1  -2 -15   51.99    5.30
  -1  -2 -15   51.09    6.50
  -1  -2 -15   50.59    6.20
  -2  -2 -15    3.70    3.40
  -2  -2 -15    0.50    2.90
  -2  -2 -15    1.60    2.40
  -3  -2 -15   46.30    6.20
  -3  -2 -15   48.80    5.80
  -3  -2 -15   45.10    5.60
  -4  -2 -15    1.90    3.00
  -4  -2 -15    0.90    3.20
  -5  -2 -15   -4.00    3.10
  -5  -2 -15    2.90    3.40
  -6  -2 -15    0.40    3.60
   4  -3 -15    2.00    3.30
   4  -3 -15   -1.80    3.50
   4  -3 -15   -3.50    3.20
   3  -3 -15  136.99   10.90
   3  -3 -15   97.99   10.00
   3  -3 -15  113.99   10.10
   2  -3 -15   18.60    2.40
   2  -3 -15   21.80    4.50
   2  -3 -15   18.80    4.50
   2  -3 -15   14.10    4.00
   1  -3 -15    3.40    3.20
   1  -3 -15    2.00    1.70
   1  -3 -15   -2.70    2.70
   1  -3 -15    3.70    3.30
   0  -3 -15   -1.30    2.70
   0  -3 -15    1.60    2.00
   0  -3 -15    6.40    3.40
   0  -3 -15    1.60    3.30
  -1  -3 -15    0.50    3.10
  -1  -3 -15   -1.00    2.20
  -1  -3 -15   -1.70    3.10
  -2  -3 -15    8.60    3.50
  -2  -3 -15    6.10    2.80
  -2  -3 -15    6.50    3.50
  -3  -3 -15    0.80    2.70
  -3  -3 -15   -1.10    3.10
  -3  -3 -15   -3.70    2.80
  -4  -3 -15   -0.70    2.90
  -4  -3 -15   -1.70    3.20
  -5  -3 -15    4.90    3.40
  -6  -3 -15    1.70    3.60
   4  -4 -15   37.10    5.50
   4  -4 -15   26.00    5.00
   3  -4 -15    1.20    3.30
   3  -4 -15    5.40    3.50
   3  -4 -15    2.70    1.80
   3  -4 -15   -1.70    3.40
   2  -4 -15   37.80    5.90
   2  -4 -15   40.10    5.60
   2  -4 -15   40.60    4.20
   2  -4 -15   46.10    5.80
   1  -4 -15   20.80    4.40
   1  -4 -15   18.40    4.10
   1  -4 -15   21.20    4.60
   1  -4 -15   27.80    3.50
   0  -4 -15   -0.30    3.00
   0  -4 -15    4.80    2.30
   0  -4 -15    7.00    3.10
   0  -4 -15    4.40    3.40
  -1  -4 -15   36.80    4.80
  -1  -4 -15   39.30    5.70
  -1  -4 -15   39.00    5.30
  -2  -4 -15   37.00    5.00
  -2  -4 -15   39.30    5.60
  -2  -4 -15   34.10    5.10
  -3  -4 -15    6.50    5.20
  -3  -4 -15    2.70    2.90
  -3  -4 -15   -0.10    3.10
  -4  -4 -15   -1.60    3.00
  -4  -4 -15   -1.30    2.90
  -5  -4 -15   10.70    4.10
  -6  -4 -15   -0.10    2.20
  -6  -4 -15    6.00    4.00
   4  -5 -15   21.60    3.20
   4  -5 -15   14.00    4.30
   4  -5 -15   23.20    4.70
   3  -5 -15    4.60    2.30
   3  -5 -15    6.20    3.50
   3  -5 -15    5.50    3.70
   2  -5 -15    9.60    3.60
   2  -5 -15    4.70    2.30
   2  -5 -15    2.20    3.40
   1  -5 -15   -0.50    2.10
   1  -5 -15    4.60    3.20
   1  -5 -15    0.60    3.00
   0  -5 -15   -0.60    2.20
   0  -5 -15    1.30    3.10
   0  -5 -15    1.30    3.10
  -1  -5 -15  129.19    9.70
  -1  -5 -15  102.49    9.90
  -2  -5 -15   22.90    4.40
  -2  -5 -15   19.70    4.10
  -3  -5 -15  302.97   22.30
  -3  -5 -15  348.27   22.60
  -4  -5 -15    7.60    3.70
   4   5  15   10.80    2.90
  -5  -5 -15  704.63   46.10
  -6  -5 -15    4.30    3.80
  -6  -5 -15    2.50    2.30
   4  -6 -15    8.30    2.80
   4  -6 -15    7.90    3.80
  -4   6  15    3.90    3.20
   3  -6 -15   56.39    7.00
   3  -6 -15   63.39    6.80
   3  -6 -15   62.69    6.10
   2  -6 -15    1.40    2.30
   2  -6 -15    3.70    3.10
   2  -6 -15   12.90    3.80
   1  -6 -15  538.65   35.30
   1  -6 -15  568.94   35.40
   1  -6 -15  518.25   34.70
   0  -6 -15    2.40    2.50
   0  -6 -15    0.90    3.20
  -1  -6 -15  671.03   46.00
  -1  -6 -15  777.92   46.50
  -2  -6 -15    2.50    2.80
  -2  -6 -15    1.00    3.20
  -3  -6 -15  727.13   46.90
  -3  -6 -15  724.73   47.10
  -4  -6 -15    4.90    3.70
  -5  -6 -15  137.59   12.30
  -6  -6 -15   -1.30    2.20
  -6  -6 -15    0.60    3.70
   3  -7 -15  541.25   38.10
   3  -7 -15  616.04   37.60
   2  -7 -15    4.60    3.40
   2  -7 -15    4.70    2.70
   1  -7 -15  373.86   23.60
   1  -7 -15  343.87   23.80
   1  -7 -15  328.47   23.70
   0  -7 -15    6.80    3.10
   0  -7 -15    0.10    3.00
  -1  -7 -15   60.39    6.80
  -1  -7 -15   55.49    6.50
  -2  -7 -15   16.90    4.10
  -2  -7 -15   15.20    4.00
  -3  -7 -15   59.79    7.00
  -3  -7 -15   56.29    7.10
  -4  -7 -15    4.50    3.70
  -5  -7 -15  444.76   29.00
  -5  -7 -15  394.96   26.80
   3  -8 -15   25.20    5.20
  -3   8  15   29.10    4.70
   2  -8 -15   35.80    5.10
   2  -8 -15   38.50    5.60
   1  -8 -15   23.70    4.60
   1  -8 -15   31.10    4.70
   0  -8 -15   33.40    5.30
   0  -8 -15   46.70    6.20
  -1  -8 -15  136.99   11.40
  -1  -8 -15  142.79   11.60
  -2  -8 -15   -3.20    2.90
  -2  -8 -15   -4.30    2.90
  -3  -8 -15  281.37   17.90
  -3  -8 -15  212.08   17.60
  -4  -8 -15   -0.20    3.50
   1  -9 -15   79.59    8.20
   1  -9 -15   87.59    8.40
   0  -9 -15    4.20    3.20
  -1  -9 -15   55.69    6.90
  -2  -9 -15    0.10    3.10
  -2  -9 -15    2.10    3.20
  -3  -9 -15    6.70    3.70
  -3  -9 -15   -0.80    3.20
  -1 -10 -15   37.00    5.80
   0   3 -16    5.70    3.90
   0   3 -16    0.00    1.90
   0   3 -16    2.40    3.50
  -1   3 -16    2.70    3.30
  -1   3 -16   -2.40    3.50
  -1   3 -16    2.80    2.30
  -2   3 -16    8.40    4.30
  -2   3 -16   10.30    3.70
  -2   3 -16   11.00    3.10
   1   2 -16   36.60    5.50
   1   2 -16   23.00    4.90
   1   2 -16   20.30    5.00
   0   2 -16   -6.40    3.20
   0   2 -16   -0.80    1.70
   0   2 -16   -1.70    3.40
   0   2 -16    1.60    3.60
  -1   2 -16  213.08   16.10
  -1   2 -16  230.68   16.60
  -1   2 -16  208.98   14.80
  -2   2 -16   12.30    4.20
  -2   2 -16   12.30    3.90
  -2   2 -16    8.70    3.00
  -3   2 -16   57.99    7.00
  -3   2 -16   67.49    7.60
  -3   2 -16   66.79    7.10
   2   1 -16   51.39    6.70
   2   1 -16   45.50    6.50
   2   1 -16   55.39    6.80
   1   1 -16  177.78   13.90
   1   1 -16  165.48   14.20
   1   1 -16  195.68   14.50
   0   1 -16   62.09    7.30
   0   1 -16   73.79    7.50
   0   1 -16   63.09    7.70
  -1   1 -16    2.90    3.80
  -1   1 -16    6.50    2.40
  -1   1 -16    6.20    3.70
  -2   1 -16   61.39    6.50
  -2   1 -16   62.99    7.50
  -2   1 -16   67.39    7.10
  -3   1 -16   10.20    4.00
  -3   1 -16   14.60    3.80
  -3   1 -16   10.40    3.30
  -4   1 -16    3.70    3.20
  -4   1 -16    3.00    3.80
   2   0 -16    4.00    3.50
   2   0 -16   -1.80    3.30
   2   0 -16   -0.20    3.20
   1   0 -16   -0.40    3.20
   1   0 -16    1.60    3.60
   1   0 -16    3.80    3.80
   0   0 -16    7.30    3.80
   0   0 -16    7.70    2.10
   0   0 -16    8.80    4.20
   0   0 -16    8.60    3.90
  -1   0 -16    5.70    3.80
  -1   0 -16    3.90    2.40
  -1   0 -16    1.40    3.30
  -2   0 -16   46.80    5.40
  -2   0 -16   50.99    6.80
  -2   0 -16   49.30    6.20
  -3   0 -16   36.80    5.60
  -3   0 -16   41.20    5.40
  -3   0 -16   31.20    4.90
  -4   0 -16    8.70    3.50
  -4   0 -16    4.50    3.80
   3  -1 -16    7.10    4.10
   3  -1 -16   -1.50    3.30
   3  -1 -16   -0.70    3.20
   2  -1 -16   20.50    4.60
   2  -1 -16   21.60    4.70
   2  -1 -16   25.20    5.00
   1  -1 -16    3.00    3.80
   1  -1 -16    0.10    3.40
   1  -1 -16    4.40    3.50
   0  -1 -16    4.30    3.60
   0  -1 -16    8.40    2.20
   0  -1 -16    2.20    3.60
  -1  -1 -16  128.99   11.90
  -1  -1 -16  147.69   10.70
  -1  -1 -16  154.08   11.90
  -2  -1 -16    6.40    3.50
  -2  -1 -16    0.50    3.40
  -2  -1 -16   -2.00    2.40
  -3  -1 -16  170.38   14.50
  -3  -1 -16  178.38   14.00
  -3  -1 -16  201.58   14.10
  -4  -1 -16   18.40    4.20
  -4  -1 -16   20.50    4.70
  -5  -1 -16  173.48   13.40
  -5  -1 -16  146.69   12.90
   3  -2 -16   44.50    6.30
   3  -2 -16   45.30    6.60
   3  -2 -16   43.40    6.00
   2  -2 -16    5.20    3.80
   2  -2 -16    9.30    3.80
   2  -2 -16    4.70    3.70
   1  -2 -16  310.87   21.60
   1  -2 -16  295.77   21.00
   1  -2 -16  303.17   21.60
   0  -2 -16    5.40    3.80
   0  -2 -16    5.90    3.60
   0  -2 -16    6.30    2.20
  -1  -2 -16  186.98   14.60
  -1  -2 -16  192.18   13.50
  -1  -2 -16  194.48   15.00
  -2  -2 -16   43.80    5.20
  -2  -2 -16   43.10    6.20
  -2  -2 -16   45.80    5.80
  -3  -2 -16   83.69    8.80
  -3  -2 -16   92.19    8.40
  -4  -2 -16   14.10    4.30
  -4  -2 -16    9.00    3.60
  -5  -2 -16    5.30    3.90
  -5  -2 -16    4.10    3.60
   3  -3 -16   89.99    9.00
   3  -3 -16   77.89    8.70
   3  -3 -16   86.89    9.10
   2  -3 -16    6.90    3.80
   2  -3 -16   10.80    4.20
   2  -3 -16   14.30    4.30
   1  -3 -16   17.20    4.60
   1  -3 -16   18.30    4.20
   1  -3 -16   16.20    2.60
   1  -3 -16   17.40    4.50
   0  -3 -16   67.99    6.10
   0  -3 -16   70.99    7.60
   0  -3 -16   71.09    7.70
  -1  -3 -16    4.40    3.40
  -1  -3 -16    2.00    2.40
  -1  -3 -16    2.00    3.40
  -2  -3 -16    1.50    3.40
  -2  -3 -16   -1.00    2.60
  -2  -3 -16   -0.70    3.10
  -3  -3 -16   16.00    4.40
  -3  -3 -16   12.80    3.60
  -4  -3 -16   13.90    3.90
  -4  -3 -16   18.90    4.60
  -5  -3 -16   57.29    7.40
  -5  -3 -16   73.89    7.80
   3  -4 -16   21.10    4.60
   3  -4 -16   11.30    4.00
   2  -4 -16   39.60    4.20
   2  -4 -16   44.10    5.90
   2  -4 -16   37.00    5.90
   2  -4 -16   48.80    6.50
   1  -4 -16    4.10    3.40
   1  -4 -16    6.80    3.80
   1  -4 -16    5.60    3.80
   1  -4 -16    4.20    2.20
   0  -4 -16    6.30    2.40
   0  -4 -16   -1.60    3.30
   0  -4 -16    8.00    3.70
  -1  -4 -16    8.50    3.90
  -1  -4 -16   13.30    3.20
  -1  -4 -16   13.20    4.10
  -2  -4 -16   16.40    4.30
  -2  -4 -16   12.20    3.60
  -2  -4 -16   12.40    4.00
  -3  -4 -16   99.49    9.20
  -3  -4 -16   88.19    8.80
  -4  -4 -16   21.80    4.80
  -4  -4 -16   17.20    4.40
  -5  -4 -16   56.89    7.30
  -5  -4 -16   62.09    7.40
   2  -5 -16    1.00    2.00
   2  -5 -16    2.30    3.20
   2  -5 -16   -1.70    3.10
   1  -5 -16  100.19    9.30
   1  -5 -16   88.49    7.60
   1  -5 -16  102.19    8.90
   0  -5 -16    8.80    2.80
   0  -5 -16    4.60    3.50
  -1  -5 -16  212.88   16.10
  -1  -5 -16  213.48   15.30
  -2  -5 -16   56.79    7.00
  -2  -5 -16   55.19    6.30
  -3  -5 -16  159.48   12.10
  -3  -5 -16  125.99   12.00
  -4  -5 -16   52.59    7.00
  -4  -5 -16   67.99    7.70
   2  -6 -16   47.40    5.00
   2  -6 -16   39.00    5.80
   2  -6 -16   35.70    5.60
   1  -6 -16  119.79   10.00
   1  -6 -16  109.39    8.80
   1  -6 -16   94.79    9.50
   0  -6 -16  158.18   12.40
   0  -6 -16  146.79   11.50
  -1  -6 -16   52.69    6.40
  -1  -6 -16   45.00    5.60
  -2  -6 -16   96.79    9.10
  -2  -6 -16   98.89    9.50
  -3  -6 -16   10.00    3.80
  -3  -6 -16    7.80    3.90
  -4  -6 -16  119.39   11.40
  -4  -6 -16  139.89   11.80
   1  -7 -16    0.40    2.50
   1  -7 -16   -0.70    3.10
   1  -7 -16    1.00    3.20
   0  -7 -16    0.70    3.20
   0  -7 -16   -0.50    2.70
  -1  -7 -16    9.90    3.90
  -1  -7 -16   10.60    3.40
  -2  -7 -16    0.80    2.90
  -2  -7 -16   -0.10    3.30
  -3  -7 -16   -1.40    3.10
  -3  -7 -16   -1.70    3.10
  -1  -8 -16   22.00    4.60
  -1  -8 -16   34.60    5.10
  -1  -1 -17   33.80    4.10
  -1  -1 -17   27.10    5.20
  -1  -1 -17   32.30    5.70
   0  -2 -17   87.39    9.10
   0  -2 -17   88.29    6.80
   0  -2 -17   77.59    8.60
  -1  -2 -17   20.70    4.70
  -1  -2 -17   21.10    4.90
  -1  -2 -17   29.60    3.80
  -2  -2 -17   64.59    6.80
  -2  -2 -17   63.99    7.90
  -2  -2 -17   77.89    7.60
   0  -3 -17   50.89    6.50
   0  -3 -17   41.90    6.20
   0  -3 -17   48.60    4.90
  -1  -3 -17   -0.20    2.20
  -1  -3 -17    3.70    3.90
  -1  -3 -17   -7.20    2.80
  -2  -3 -17    6.30    3.80
  -2  -3 -17    4.20    3.40
  -2  -3 -17   10.90    3.20
  -1  -4 -17    1.90    3.40
  -1  -4 -17   -0.40    2.40
  -1  -4 -17   -0.80    3.50
   0   0   0    0.00    0.00
_computing_structure_solution     'SHELXT 2014/5 (Sheldrick, 2014)'
;
_shelx_hkl_checksum              56615
_shelx_res_file
;
TITL Uppu11 in P-1
    Uppu11.res
    created by SHELXL-2017/1 at 09:36:32 on 29-Aug-2019
CELL 0.71073 6.7463 9.0360 9.3954 81.005 85.099 88.700
ZERR 2.00 0.0003 0.0004 0.0004 0.002 0.002 0.002
LATT 1
SFAC C  H  N  O
UNIT 20  22  6  12
L.S. 15
ACTA 50
BOND $H
OMIT -1 3 0
CONF
HTAB N2 O3
EQIV $1 x, y+1, z
HTAB N2 O6_$1
HTAB C5 O4
EQIV $2 x, y-1, z
HTAB C8 O2_$2
EQIV $3 x, y, z+1
HTAB C10 O2_$3
HTAB C10 O5_$1
FMAP 2
PLAN 10
SIZE 0.09 0.10 0.30
TEMP -183
WGHT    0.059700    0.058500
FVAR       1.48257
O1    4    0.691776    0.253064    0.222130    11.00000    0.01876    0.00903 =
         0.00891   -0.00211   -0.00191   -0.00178
O2    4    0.805623    0.798627    0.135015    11.00000    0.04177    0.01400 =
         0.00889    0.00250   -0.00647   -0.00649
O3    4    0.946491    0.842822    0.322118    11.00000    0.02204    0.01191 =
         0.01286   -0.00239   -0.00066   -0.00698
O4    4    0.742856    0.555692    0.801564    11.00000    0.02509    0.01173 =
         0.00957    0.00104   -0.00047   -0.00162
O5    4    0.549799    0.150573    0.630396    11.00000    0.01628    0.01397 =
         0.01650    0.00348    0.00464   -0.00063
O6    4    0.763714    0.071533    0.472111    11.00000    0.02696    0.00892 =
         0.01395   -0.00213    0.00026    0.00363
N1    3    0.849882    0.762728    0.259171    11.00000    0.01583    0.00887 =
         0.00837   -0.00063    0.00098   -0.00144
N2    3    0.789298    0.690458    0.573577    11.00000    0.01441    0.00899 =
         0.00720   -0.00115   -0.00061   -0.00176
H2N   2    0.823514    0.781556    0.525292    11.00000   -1.20000
N3    3    0.669416    0.170866    0.523007    11.00000    0.01234    0.00852 =
         0.01048   -0.00006   -0.00219   -0.00062
C1    1    0.720203    0.361042    0.301733    11.00000    0.01055    0.00821 =
         0.00896   -0.00125   -0.00101   -0.00029
C2    1    0.761079    0.509802    0.244577    11.00000    0.01238    0.00864 =
         0.00846   -0.00106   -0.00077   -0.00046
AFIX  43
H2A   2    0.768693    0.540555    0.142853    11.00000   -1.20000
AFIX   0
C3    1    0.790850    0.613742    0.334968    11.00000    0.01064    0.00772 =
         0.00810   -0.00031   -0.00041   -0.00083
C4    1    0.770603    0.580356    0.486821    11.00000    0.00907    0.00864 =
         0.00797   -0.00115   -0.00065   -0.00039
C5    1    0.724063    0.431119    0.543841    11.00000    0.01008    0.00848 =
         0.00854   -0.00044   -0.00084   -0.00012
AFIX  43
H5A   2    0.705143    0.401790    0.645627    11.00000   -1.20000
AFIX   0
C6    1    0.705457    0.326206    0.453150    11.00000    0.00947    0.00756 =
         0.00939   -0.00012   -0.00098   -0.00010
C7    1    0.710051    0.296522    0.066500    11.00000    0.01931    0.01123 =
         0.00900   -0.00213   -0.00162   -0.00058
AFIX  23
H7A   2    0.840288    0.344280    0.034497    11.00000   -1.20000
H7B   2    0.603451    0.368885    0.036447    11.00000   -1.20000
AFIX   0
C8    1    0.692575    0.156355    0.000507    11.00000    0.02703    0.01567 =
         0.01448   -0.00697   -0.00035   -0.00294
AFIX 137
H8A   2    0.799779    0.086200    0.030043    11.00000   -1.50000
H8B   2    0.702903    0.181958   -0.105121    11.00000   -1.50000
H8C   2    0.563670    0.109681    0.033650    11.00000   -1.50000
AFIX   0
C9    1    0.776189    0.674898    0.722525    11.00000    0.01131    0.01111 =
         0.00811   -0.00121   -0.00081    0.00027
C10   1    0.806791    0.819753    0.777199    11.00000    0.01846    0.01270 =
         0.00990   -0.00304   -0.00154   -0.00142
AFIX 137
H10A  2    0.805013    0.800989    0.882891    11.00000   -1.50000
H10B  2    0.699950    0.890571    0.748418    11.00000   -1.50000
H10C  2    0.935357    0.862121    0.735925    11.00000   -1.50000
AFIX   0
HKLF 4 1 1 0 0 0 1 0 0 0 1
REM  Uppu11 in P-1
REM R1 =  0.0375 for    5824 Fo > 4sig(Fo)  and  0.0481 for all    7110 data
REM    177 parameters refined using      0 restraints
END
WGHT      0.0598      0.0585
REM Highest difference peak  0.755,  deepest hole -0.278,  1-sigma level  0.067
Q1    1   0.7139  0.3779  0.4963  11.00000  0.05    0.76
Q2    1   0.7804  0.5590  0.2918  11.00000  0.05    0.68
Q3    1   0.7856  0.5983  0.4112  11.00000  0.05    0.63
Q4    1   0.7334  0.4338  0.2743  11.00000  0.05    0.61
Q5    1   0.7136  0.3354  0.3756  11.00000  0.05    0.60
Q6    1   0.7416  0.5094  0.5131  11.00000  0.05    0.54
Q7    1   0.7949  0.7426  0.7433  11.00000  0.05    0.52
Q8    1   0.7474  0.6152  0.7621  11.00000  0.05    0.49
Q9    1   0.6888  0.2392  0.4924  11.00000  0.05    0.46
Q10   1   0.7648  0.6827  0.6375  11.00000  0.05    0.43
;
_shelx_res_checksum              21803
loop_
_space_group_symop_operation_xyz
'x, y, z'
'-x, -y, -z'
loop_
_atom_site_type_symbol
_atom_site_label
_atom_site_fract_x
_atom_site_fract_y
_atom_site_fract_z
_atom_site_U_iso_or_equiv
_atom_site_adp_type
_atom_site_calc_flag
_atom_site_occupancy
_atom_site_disorder_assembly
_atom_site_disorder_group
O O1 0.69178(7) 0.25306(4) 0.22213(4) 0.01208(7) Uani d 1 . .
O O2 0.80562(9) 0.79863(5) 0.13502(5) 0.02166(10) Uani d 1 . .
O O3 0.94649(7) 0.84282(5) 0.32212(5) 0.01549(8) Uani d 1 . .
O O4 0.74286(8) 0.55569(5) 0.80156(5) 0.01579(8) Uani d 1 . .
O O5 0.54980(7) 0.15057(5) 0.63040(5) 0.01655(9) Uani d 1 . .
O O6 0.76371(8) 0.07153(5) 0.47211(5) 0.01675(9) Uani d 1 . .
N N1 0.84988(7) 0.76273(5) 0.25917(5) 0.01119(8) Uani d 1 . .
N N2 0.78930(7) 0.69046(5) 0.57358(5) 0.01020(7) Uani d 1 . .
H H2N 0.8235(15) 0.7816(11) 0.5253(10) 0.012 Uiso d 1 . .
N N3 0.66942(7) 0.17087(5) 0.52301(5) 0.01052(7) Uani d 1 . .
C C1 0.72020(8) 0.36104(5) 0.30173(5) 0.00923(8) Uani d 1 . .
C C2 0.76108(8) 0.50980(6) 0.24458(5) 0.00986(8) Uani d 1 . .
H H2A 0.768693 0.540555 0.142853 0.012 Uiso calc 1 . .
C C3 0.79085(8) 0.61374(5) 0.33497(5) 0.00893(8) Uani d 1 . .
C C4 0.77060(7) 0.58036(5) 0.48682(5) 0.00857(8) Uani d 1 . .
C C5 0.72406(7) 0.43112(5) 0.54384(5) 0.00912(8) Uani d 1 . .
H H5A 0.705143 0.401790 0.645627 0.011 Uiso calc 1 . .
C C6 0.70546(7) 0.32621(5) 0.45315(5) 0.00893(8) Uani d 1 . .
C C7 0.71005(9) 0.29652(6) 0.06650(6) 0.01309(9) Uani d 1 . .
H H7A 0.840288 0.344280 0.034497 0.016 Uiso calc 1 . .
H H7B 0.603451 0.368885 0.036447 0.016 Uiso calc 1 . .
C C8 0.69258(11) 0.15636(7) 0.00051(7) 0.01860(11) Uani d 1 . .
H H8A 0.799779 0.086200 0.030043 0.028 Uiso calc 1 . .
H H8B 0.702903 0.181958 -0.105121 0.028 Uiso calc 1 . .
H H8C 0.563670 0.109681 0.033650 0.028 Uiso calc 1 . .
C C9 0.77619(8) 0.67490(6) 0.72252(5) 0.01021(8) Uani d 1 . .
C C10 0.80679(9) 0.81975(6) 0.77720(6) 0.01351(9) Uani d 1 . .
H H10A 0.805013 0.800989 0.882891 0.020 Uiso calc 1 . .
H H10B 0.699950 0.890571 0.748418 0.020 Uiso calc 1 . .
H H10C 0.935357 0.862121 0.735925 0.020 Uiso calc 1 . .
loop_
_atom_site_aniso_label
_atom_site_aniso_U_11
_atom_site_aniso_U_22
_atom_site_aniso_U_33
_atom_site_aniso_U_12
_atom_site_aniso_U_13
_atom_site_aniso_U_23
O1 0.01876(18) 0.00903(15) 0.00891(14) -0.00178(12) -0.00191(12) -0.00211(11)
O2 0.0418(3) 0.01400(18) 0.00889(16) -0.00649(18) -0.00647(17) 0.00250(13)
O3 0.0220(2) 0.01191(16) 0.01286(16) -0.00698(14) -0.00066(14) -0.00239(13)
O4 0.0251(2) 0.01173(16) 0.00957(15) -0.00162(14) -0.00047(14) 0.00104(12)
O5 0.01628(19) 0.01397(17) 0.01650(18) -0.00063(14) 0.00464(14) 0.00348(14)
O6 0.0270(2) 0.00892(16) 0.01395(17) 0.00363(14) 0.00026(15) -0.00213(13)
N1 0.01583(19) 0.00887(16) 0.00837(15) -0.00144(13) 0.00098(13) -0.00063(12)
N2 0.01441(18) 0.00899(16) 0.00720(15) -0.00176(13) -0.00061(13) -0.00115(12)
N3 0.01234(18) 0.00852(16) 0.01048(16) -0.00062(13) -0.00219(13) -0.00006(12)
C1 0.01055(18) 0.00821(17) 0.00896(17) -0.00029(13) -0.00101(13) -0.00125(13)
C2 0.01238(19) 0.00864(17) 0.00846(17) -0.00046(14) -0.00077(14) -0.00106(13)
C3 0.01064(18) 0.00772(16) 0.00810(16) -0.00083(13) -0.00041(13) -0.00031(13)
C4 0.00907(17) 0.00864(17) 0.00797(16) -0.00039(13) -0.00065(13) -0.00115(13)
C5 0.01008(18) 0.00848(17) 0.00854(17) -0.00012(13) -0.00084(13) -0.00044(13)
C6 0.00947(18) 0.00756(17) 0.00939(17) -0.00010(13) -0.00098(13) -0.00012(13)
C7 0.0193(2) 0.01123(19) 0.00900(18) -0.00058(16) -0.00162(16) -0.00213(14)
C8 0.0270(3) 0.0157(2) 0.0145(2) -0.0029(2) -0.0004(2) -0.00697(18)
C9 0.01131(19) 0.01111(18) 0.00811(17) 0.00027(14) -0.00081(13) -0.00121(14)
C10 0.0185(2) 0.0127(2) 0.00990(18) -0.00142(16) -0.00154(16) -0.00304(15)
loop_
_atom_type_symbol
_atom_type_description
_atom_type_scat_dispersion_real
_atom_type_scat_dispersion_imag
_atom_type_scat_source
C C 0.0033 0.0016 'International Tables Vol C Tables 4.2.6.8 and 6.1.1.4'
H H 0.0000 0.0000 'International Tables Vol C Tables 4.2.6.8 and 6.1.1.4'
N N 0.0061 0.0033 'International Tables Vol C Tables 4.2.6.8 and 6.1.1.4'
O O 0.0106 0.0060 'International Tables Vol C Tables 4.2.6.8 and 6.1.1.4'
loop_
_geom_angle_atom_site_label_1
_geom_angle_atom_site_label_2
_geom_angle_atom_site_label_3
_geom_angle_site_symmetry_1
_geom_angle_site_symmetry_3
_geom_angle
_geom_angle_publ_flag
C1 O1 C7 . . 116.70(4) ?
O2 N1 O3 . . 123.54(5) ?
O2 N1 C3 . . 117.91(5) ?
O3 N1 C3 . . 118.51(4) ?
C9 N2 C4 . . 128.40(4) ?
C9 N2 H2N . . 116.4(6) ?
C4 N2 H2N . . 115.0(6) ?
O6 N3 O5 . . 124.77(5) ?
O6 N3 C6 . . 117.66(4) ?
O5 N3 C6 . . 117.55(4) ?
O1 C1 C2 . . 124.44(5) ?
O1 C1 C6 . . 119.56(4) ?
C2 C1 C6 . . 115.99(4) ?
C3 C2 C1 . . 120.59(4) ?
C3 C2 H2A . . 119.7 ?
C1 C2 H2A . . 119.7 ?
C2 C3 C4 . . 123.56(4) ?
C2 C3 N1 . . 114.48(4) ?
C4 C3 N1 . . 121.95(4) ?
N2 C4 C5 . . 122.78(4) ?
N2 C4 C3 . . 121.68(4) ?
C5 C4 C3 . . 115.50(4) ?
C6 C5 C4 . . 120.61(4) ?
C6 C5 H5A . . 119.7 ?
C4 C5 H5A . . 119.7 ?
C5 C6 C1 . . 123.59(4) ?
C5 C6 N3 . . 116.61(4) ?
C1 C6 N3 . . 119.79(4) ?
O1 C7 C8 . . 107.33(4) ?
O1 C7 H7A . . 110.2 ?
C8 C7 H7A . . 110.2 ?
O1 C7 H7B . . 110.2 ?
C8 C7 H7B . . 110.2 ?
H7A C7 H7B . . 108.5 ?
C7 C8 H8A . . 109.5 ?
C7 C8 H8B . . 109.5 ?
H8A C8 H8B . . 109.5 ?
C7 C8 H8C . . 109.5 ?
H8A C8 H8C . . 109.5 ?
H8B C8 H8C . . 109.5 ?
O4 C9 N2 . . 123.41(5) ?
O4 C9 C10 . . 123.63(5) ?
N2 C9 C10 . . 112.96(4) ?
C9 C10 H10A . . 109.5 ?
C9 C10 H10B . . 109.5 ?
H10A C10 H10B . . 109.5 ?
C9 C10 H10C . . 109.5 ?
H10A C10 H10C . . 109.5 ?
H10B C10 H10C . . 109.5 ?
loop_
_geom_bond_atom_site_label_1
_geom_bond_atom_site_label_2
_geom_bond_site_symmetry_2
_geom_bond_distance
_geom_bond_publ_flag
O1 C1 . 1.3451(6) ?
O1 C7 . 1.4489(7) ?
O2 N1 . 1.2214(6) ?
O3 N1 . 1.2327(6) ?
O4 C9 . 1.2225(7) ?
O5 N3 . 1.2299(6) ?
O6 N3 . 1.2228(6) ?
N1 C3 . 1.4677(7) ?
N2 C9 . 1.3798(7) ?
N2 C4 . 1.3953(6) ?
N2 H2N . 0.900(10) ?
N3 C6 . 1.4698(7) ?
C1 C2 . 1.3918(7) ?
C1 C6 . 1.4036(7) ?
C2 C3 . 1.3895(7) ?
C2 H2A . 0.9500 ?
C3 C4 . 1.4068(7) ?
C4 C5 . 1.4031(7) ?
C5 C6 . 1.3845(7) ?
C5 H5A . 0.9500 ?
C7 C8 . 1.5058(8) ?
C7 H7A . 0.9900 ?
C7 H7B . 0.9900 ?
C8 H8A . 0.9800 ?
C8 H8B . 0.9800 ?
C8 H8C . 0.9800 ?
C9 C10 . 1.5035(8) ?
C10 H10A . 0.9800 ?
C10 H10B . 0.9800 ?
C10 H10C . 0.9800 ?
loop_
_geom_hbond_atom_site_label_D
_geom_hbond_atom_site_label_H
_geom_hbond_atom_site_label_A
_geom_hbond_site_symmetry_A
_geom_hbond_distance_DH
_geom_hbond_distance_HA
_geom_hbond_distance_DA
_geom_hbond_angle_DHA
_geom_hbond_publ_flag
N2 H2N O3 . 0.900(10) 2.015(10) 2.6875(6) 130.5(8) yes
N2 H2N O6 1_565 0.900(10) 2.618(10) 3.4308(6) 150.5(8) yes
C5 H5A O4 . 0.95 2.20 2.8386(7) 123 yes
C8 H8A O2 1_545 0.98 2.63 3.3768(9) 133 yes
C10 H10A O2 1_556 0.98 2.37 3.3367(7) 171 yes
C10 H10B O5 1_565 0.98 2.65 3.5677(8) 155 yes
loop_
_geom_torsion_atom_site_label_1
_geom_torsion_atom_site_label_2
_geom_torsion_atom_site_label_3
_geom_torsion_atom_site_label_4
_geom_torsion_site_symmetry_1
_geom_torsion_site_symmetry_2
_geom_torsion_site_symmetry_3
_geom_torsion_site_symmetry_4
_geom_torsion
_geom_torsion_publ_flag
C7 O1 C1 C2 . . . . 1.43(8) ?
C7 O1 C1 C6 . . . . -179.73(5) ?
O1 C1 C2 C3 . . . . -179.20(5) ?
C6 C1 C2 C3 . . . . 1.92(8) ?
C1 C2 C3 C4 . . . . -3.97(8) ?
C1 C2 C3 N1 . . . . 174.85(5) ?
O2 N1 C3 C2 . . . . 23.69(7) ?
O3 N1 C3 C2 . . . . -154.05(5) ?
O2 N1 C3 C4 . . . . -157.47(6) ?
O3 N1 C3 C4 . . . . 24.79(8) ?
C9 N2 C4 C5 . . . . 3.18(9) ?
C9 N2 C4 C3 . . . . -179.04(5) ?
C2 C3 C4 N2 . . . . -175.80(5) ?
N1 C3 C4 N2 . . . . 5.47(8) ?
C2 C3 C4 C5 . . . . 2.13(8) ?
N1 C3 C4 C5 . . . . -176.60(5) ?
N2 C4 C5 C6 . . . . 179.44(5) ?
C3 C4 C5 C6 . . . . 1.54(7) ?
C4 C5 C6 C1 . . . . -3.56(8) ?
C4 C5 C6 N3 . . . . 176.11(5) ?
O1 C1 C6 C5 . . . . -177.20(5) ?
C2 C1 C6 C5 . . . . 1.74(8) ?
O1 C1 C6 N3 . . . . 3.14(7) ?
C2 C1 C6 N3 . . . . -177.92(5) ?
O6 N3 C6 C5 . . . . -136.01(5) ?
O5 N3 C6 C5 . . . . 42.40(7) ?
O6 N3 C6 C1 . . . . 43.67(7) ?
O5 N3 C6 C1 . . . . -137.92(5) ?
C1 O1 C7 C8 . . . . 174.56(5) ?
C4 N2 C9 O4 . . . . -0.69(9) ?
C4 N2 C9 C10 . . . . 179.41(5) ?

_cod_database_fobs_code 1558931
