#------------------------------------------------------------------------------
#$Date: 2020-10-04 06:43:00 +0300 (Sun, 04 Oct 2020) $
#$Revision: 257158 $
#$URL: file:///home/coder/svn-repositories/cod/cif/1/55/88/1558869.cif $
#------------------------------------------------------------------------------
#
# This file is available in the Crystallography Open Database (COD),
# http://www.crystallography.net/
#
# All data on this site have been placed in the public domain by the
# contributors.
#
data_1558869
loop_
_publ_author_name
'Shirin, Shana'
'Roy, Soumendu'
'Rao, Anish'
'Pillai, Pramod P.'
_publ_section_title
;
 Accelerated Reduction of 4-Nitrophenol: Bridging Interaction Outplays
 Reducing Power in the Model Nanoparticle-Catalyzed Reaction
;
_journal_issue                   35
_journal_name_full               'The Journal of Physical Chemistry C'
_journal_page_first              19157
_journal_page_last               19165
_journal_paper_doi               10.1021/acs.jpcc.0c06237
_journal_volume                  124
_journal_year                    2020
_chemical_formula_sum            'C12 H12 Ca N2 O10'
_chemical_formula_weight         384.32
_space_group_crystal_system      monoclinic
_space_group_IT_number           14
_space_group_name_Hall           '-P 2yn'
_space_group_name_H-M_alt        'P 1 21/n 1'
_atom_sites_solution_hydrogens   geom
_audit_creation_method           SHELXL-2018/1
_cell_angle_alpha                90
_cell_angle_beta                 93.414(5)
_cell_angle_gamma                90
_cell_formula_units_Z            2
_cell_length_a                   13.1605(12)
_cell_length_b                   3.6268(3)
_cell_length_c                   16.9855(15)
_cell_measurement_reflns_used    6920
_cell_measurement_temperature    150(2)
_cell_measurement_theta_max      67.00
_cell_measurement_theta_min      2.61
_cell_volume                     809.29(12)
_computing_cell_refinement       'Bruker SAINT'
_computing_data_collection       'Bruker APEX3'
_computing_data_reduction        'Bruker SAINT'
_computing_molecular_graphics    'Bruker SHELXTL'
_computing_publication_material  'Bruker SHELXTL'
_computing_structure_refinement  'SHELXL-2018/1 (Sheldrick, 2018)'
_computing_structure_solution    'SHELXT 2014/5 (Sheldrick, 2014)'
_diffrn_ambient_temperature      150(2)
_diffrn_measured_fraction_theta_full 0.987
_diffrn_measured_fraction_theta_max 0.987
_diffrn_measurement_device_type  'Bruker APEX3 Photon 100 CMOS chip'
_diffrn_measurement_method       '\f and \w scans'
_diffrn_radiation_type           CuK\a
_diffrn_radiation_wavelength     1.54178
_diffrn_reflns_av_R_equivalents  0.0732
_diffrn_reflns_av_unetI/netI     0.0404
_diffrn_reflns_Laue_measured_fraction_full 0.987
_diffrn_reflns_Laue_measured_fraction_max 0.987
_diffrn_reflns_limit_h_max       15
_diffrn_reflns_limit_h_min       -15
_diffrn_reflns_limit_k_max       4
_diffrn_reflns_limit_k_min       -4
_diffrn_reflns_limit_l_max       20
_diffrn_reflns_limit_l_min       -20
_diffrn_reflns_number            8892
_diffrn_reflns_point_group_measured_fraction_full 0.987
_diffrn_reflns_point_group_measured_fraction_max 0.987
_diffrn_reflns_theta_full        67.023
_diffrn_reflns_theta_max         67.023
_diffrn_reflns_theta_min         4.132
_diffrn_source                   'Micro-focus X-ray source'
_exptl_absorpt_coefficient_mu    3.898
_exptl_absorpt_correction_T_max  0.7528
_exptl_absorpt_correction_T_min  0.4772
_exptl_absorpt_correction_type   multi-scan
_exptl_absorpt_process_details   'multi-scan absorption correction'
_exptl_crystal_colour            Yellow
_exptl_crystal_density_diffrn    1.577
_exptl_crystal_description       Needle-shaped
_exptl_crystal_F_000             396
_exptl_crystal_size_max          0.18
_exptl_crystal_size_mid          0.14
_exptl_crystal_size_min          0.10
_refine_diff_density_max         0.393
_refine_diff_density_min         -0.530
_refine_diff_density_rms         0.067
_refine_ls_extinction_coef       0.021(2)
_refine_ls_extinction_expression Fc^*^=kFc[1+0.001xFc^2^\l^3^/sin(2\q)]^-1/4^
_refine_ls_extinction_method     'SHELXL-2018/1 (Sheldrick 2018)'
_refine_ls_goodness_of_fit_ref   1.079
_refine_ls_hydrogen_treatment    constr
_refine_ls_matrix_type           full
_refine_ls_number_parameters     116
_refine_ls_number_reflns         1431
_refine_ls_number_restraints     0
_refine_ls_restrained_S_all      1.079
_refine_ls_R_factor_all          0.0408
_refine_ls_R_factor_gt           0.0402
_refine_ls_shift/su_max          0.000
_refine_ls_shift/su_mean         0.000
_refine_ls_structure_factor_coef Fsqd
_refine_ls_weighting_details
'w=1/[\s^2^(Fo^2^)+(0.0548P)^2^+0.9697P] where P=(Fo^2^+2Fc^2^)/3'
_refine_ls_weighting_scheme      calc
_refine_ls_wR_factor_gt          0.1108
_refine_ls_wR_factor_ref         0.1113
_reflns_Friedel_coverage         0.000
_reflns_number_gt                1396
_reflns_number_total             1431
_reflns_threshold_expression     'I > 2\s(I)'
_cod_data_source_file            jp0c06237_si_002.cif
_cod_data_source_block           Ca-p-Nitrophenolate
_cod_depositor_comments
;Adding full bibliography for 1558868--1558869.cif.

 Adding full bibliography for 1558868--1558869.cif.
;
_cod_original_sg_symbol_H-M      'P 21/n'
_cod_database_code               1558869
_shelx_shelxl_version_number     2018/1
_shelx_space_group_comment
;
The symmetry employed for this shelxl refinement is uniquely defined
by the following loop, which should always be used as a source of
symmetry information in preference to the above space-group names.
They are only intended as comments.
;
_shelx_res_file
;
TITL TRI_a.res in P2(1)/n
    shelx.res
    created by SHELXL-2018/1 at 00:33:25 on 28-Apr-2020
CELL  1.54178  13.1605   3.6268  16.9855   90.000   93.414   90.000
ZERR     2.00   0.0012   0.0003   0.0015    0.000    0.005    0.000
LATT   1
SYMM  1/2 - X, 1/2 + Y, 1/2 - Z
SFAC  C    H    CA   N    O
UNIT  24 24 2 4 20
MERG   2
FMAP   2
PLAN   20
ACTA
BOND   $H
L.S.  75
TEMP  -173.00
WGHT    0.054800    0.969700
EXTI    0.021451
FVAR       1.18953
CA    3    0.500000    1.000000    0.500000    10.50000    0.01052    0.00744 =
         0.01343   -0.00050    0.00113   -0.00068
O3    5    0.398643    0.505010    0.530508    11.00000    0.01009    0.01016 =
         0.01937    0.00062    0.00429   -0.00034
O1    5   -0.050230    0.221301    0.616365    11.00000    0.01147    0.03004 =
         0.02110    0.00066   -0.00055   -0.00541
O2    5    0.009388    0.507174    0.721380    11.00000    0.02172    0.03801 =
         0.01525   -0.00345    0.00626   -0.00074
O4    5    0.579127    1.022109    0.628530    11.00000    0.02244    0.06412 =
         0.01375   -0.00031   -0.00126   -0.00424
AFIX  93
H7    2    0.629799    1.202401    0.641366    11.00000   -1.20000
H8    2    0.560260    0.850704    0.667355    11.00000   -1.20000
AFIX   0
N1    4    0.020235    0.381467    0.654525    11.00000    0.01325    0.01765 =
         0.01356    0.00286    0.00161    0.00119
C5    1    0.223824    0.333893    0.513633    11.00000    0.01523    0.00957 =
         0.01025   -0.00107    0.00039    0.00099
AFIX  43
H5    2    0.232603    0.255954    0.461075    11.00000   -1.20000
AFIX   0
C4    1    0.308010    0.480760    0.559212    11.00000    0.01190    0.00502 =
         0.01531    0.00345    0.00165    0.00092
C2    1    0.197906    0.574171    0.667023    11.00000    0.01583    0.01008 =
         0.01048    0.00022   -0.00113    0.00114
AFIX  43
H2    2    0.187894    0.658380    0.718953    11.00000   -1.20000
AFIX   0
C3    1    0.292040    0.601632    0.636635    11.00000    0.01247    0.00776 =
         0.01389    0.00100   -0.00324   -0.00081
AFIX  43
H3    2    0.347203    0.703314    0.668103    11.00000   -1.20000
AFIX   0
C1    1    0.116816    0.421163    0.620903    11.00000    0.01000    0.00864 =
         0.01392    0.00247    0.00082    0.00139
C6    1    0.129487    0.301953    0.544070    11.00000    0.01207    0.00920 =
         0.01289    0.00098   -0.00319   -0.00101
AFIX  43
H6    2    0.073862    0.200136    0.513138    11.00000   -1.20000
AFIX   0
O5    5    0.762680    0.252973    0.694603    11.00000    0.02356    0.18445 =
         0.03388   -0.00063   -0.00007   -0.01532
HKLF    4




REM  TRI_a.res in P2(1)/n
REM R1 =  0.0402 for    1396 Fo > 4sig(Fo)  and  0.0408 for all    1431 data
REM    116 parameters refined using      0 restraints

END

WGHT      0.0548      0.9697

REM Highest difference peak  0.393,  deepest hole -0.530,  1-sigma level  0.067
Q1    1   0.8331  0.2859  0.6744  11.00000  0.05    0.39
Q2    1   0.4752  0.9970  0.4411  11.00000  0.05    0.35
Q3    1   0.5431  1.0456  0.6793  11.00000  0.05    0.34
Q4    1   0.7587  0.3781  0.7419  11.00000  0.05    0.31
Q5    1   0.6399  1.0280  0.6396  11.00000  0.05    0.28
Q6    1   0.7424  0.1108  0.7612  11.00000  0.05    0.26
Q7    1   0.1535  0.5364  0.6397  11.00000  0.05    0.25
Q8    1   0.2603  0.3523  0.5416  11.00000  0.05    0.23
Q9    1   0.3010  0.5279  0.6053  11.00000  0.05    0.19
Q10   1   0.2448  0.4795  0.5248  11.00000  0.05    0.19
Q11   1   0.1242  0.3748  0.5822  11.00000  0.05    0.19
Q12   1   0.0170  0.3539  0.7160  11.00000  0.05    0.18
Q13   1   0.2344  0.6946  0.6428  11.00000  0.05    0.17
Q14   1   0.1337  0.2954  0.6040  11.00000  0.05    0.16
Q15   1   0.2430  0.2014  0.4968  11.00000  0.05    0.16
Q16   1   0.1875  0.4028  0.5267  11.00000  0.05    0.16
Q17   1   0.8396  0.3374  0.7366  11.00000  0.05    0.15
Q18   1   0.1723  0.5718  0.4010  11.00000  0.05    0.15
Q19   1   0.1212  0.3335  0.5191  11.00000  0.05    0.15
Q20   1   0.2393  0.4715  0.6567  11.00000  0.05    0.15
;
_shelx_res_checksum              29508
_shelx_hkl_file
;
  -2   2   0 1851.81  122.89
   2  -2   0 1947.91  122.69
  -3   3   0 1739.83  128.09
  -3   3   0 1886.01  127.49
  -3   3   0 2070.29  126.49
   3  -3   0 2043.90  125.89
   3  -3   0 1895.91  126.19
   3  -3   0 2036.40  126.09
  -4   4   0   24.70    4.80
  -4   4   0   23.90    7.60
   4  -4   0   24.80    3.20
   3  -4   0   49.30    4.40
   3  -4   0   50.79    5.20
  -3   4   0   59.69    7.50
  -3   4   0   41.10    8.90
   2  -3   0   93.29    6.80
   2  -3   0   89.99    7.30
  -2   3   0   93.49   11.10
  -2   3   0   92.89    8.60
  -2   3   0   84.49   17.90
   1  -2   0   63.19    4.30
  -1   2   0   55.99    4.80
   0  -1   0    0.80    0.20
   0  -1   0    0.50    0.40
   0   1   0   -0.30    0.60
  -1   0   0    0.10    0.20
   1   0   0    0.70    0.20
  -2   1   0  508.85   33.10
  -2   1   0  539.85   33.40
   2  -1   0  492.05   33.20
  -3   2   0  770.82   47.60
   3  -2   0  735.23   47.30
   3  -2   0  681.83   47.50
  -4   3   0  340.97   28.20
  -4   3   0  399.36   25.60
  -4   3   0  378.56   26.90
   4  -3   0  366.56   24.60
   4  -3   0  375.96   24.90
   4  -3   0  373.26   24.90
  -5   4   0   34.20    6.80
  -5   4   0   39.10    6.50
   5  -4   0   29.20    4.20
   5  -4   0   24.80    3.10
   2  -4   0  721.43   50.69
   2  -4   0  734.53   50.89
  -2   4   0  852.51   52.29
  -2   4   0  814.52   53.99
   1  -3   0  328.17   21.70
   1  -3   0  306.57   20.50
  -1   3   0  273.27   21.60
  -1   3   0  328.87   23.80
   0  -2   0 4359.96  257.77
   0  -2   0 3933.21  257.67
   0   2   0 3695.03  257.77
  -2   0   0 1381.16   89.09
  -4   2   0  224.08   15.30
   4  -2   0  229.18   14.80
   4  -2   0  218.48   15.10
  -5   3   0  500.55   40.00
  -5   3   0  567.14   41.40
  -5   3   0  644.04   40.50
   5  -3   0  588.44   38.50
   5  -3   0  603.84   38.80
   5  -3   0  627.64   38.80
   6  -4   0  145.19    9.90
   1  -4   0  157.28   12.00
  -1   4   0  171.18   12.70
  -1   4   0  181.28   14.30
   0  -3   0   -1.30    4.60
   0  -3   0    0.40    1.60
   0   3   0    2.20    7.70
   0   3   0    0.20   12.60
   0   3   0   -0.40    5.80
  -1  -2   0   54.49    5.20
  -1  -2   0   55.49    4.00
   1   2   0   54.69    4.50
  -2  -1   0  557.24   35.10
   2   1   0  526.45   35.10
  -3   0   0    0.30    0.40
   3   0   0   -0.60    0.50
  -4   1   0  196.68   13.40
   4  -1   0  206.28   13.20
  -5   2   0   62.39    5.40
  -5   2   0   63.89   13.90
   5  -2   0   61.79    6.20
   5  -2   0   62.99    5.10
   5  -2   0   63.89    4.60
  -6   3   0   43.60    9.50
  -6   3   0   31.90    6.10
  -6   3   0   30.90    6.00
   6  -3   0   23.10    3.10
   6  -3   0   28.80    3.80
   0  -4   0  511.25   35.40
   0   4   0  579.54   37.10
   0   4   0  526.85   35.90
  -1  -3   0  270.27   18.20
   1   3   0  277.77   18.90
   1   3   0  265.27   19.20
   1   3   0  279.37   24.00
  -2  -2   0 1734.13  112.29
  -5   1   0 2159.28  146.49
   5  -1   0 2377.36  146.29
  -6   2   0  826.72   64.19
  -6   2   0 1039.70   63.39
  -6   2   0  885.21   65.79
  -6   2   0  941.71   64.79
   6  -2   0 1048.10   63.19
   6  -2   0 1019.80   63.19
   6  -2   0 1025.60   62.89
  -7   3   0  398.46   29.90
  -7   3   0  443.46   31.50
  -7   3   0  465.35   30.20
   7  -3   0  452.15   28.90
   7  -3   0  412.56   28.60
   7  -3   0  434.36   28.70
  -1  -4   0  144.89   10.70
  -1  -4   0  148.59   11.20
   1   4   0  169.38   11.80
  -2  -3   0   80.69    6.20
   2   3   0   82.99    8.00
   2   3   0   74.99    7.30
   2   3   0   88.29   12.40
  -3  -2   0  752.42   49.00
  -4  -1   0  182.78   12.20
   4   1   0  185.28   12.10
  -5   0   0    0.20    0.60
  -6   1   0  822.82   50.89
   6  -1   0  726.63   50.79
   6  -1   0  796.32   50.59
  -7   2   0   54.19   10.00
  -7   2   0   41.20    7.40
  -7   2   0   51.09   10.00
   7  -2   0   49.00    4.50
   7  -2   0   51.99    3.90
   7  -2   0   41.50    5.10
  -8   3   0    8.10    5.90
  -8   3   0   11.70    5.10
  -8   3   0   -0.80    7.40
   8  -3   0    3.10    2.00
   8  -3   0    4.90    3.20
   8  -3   0    7.50    2.50
  -2  -4   0  666.03   43.50
  -2  -4   0  584.24   43.00
   2   4   0  710.53   44.80
   2   4   0  695.23   43.90
  -3  -3   0 1689.03  108.59
   3   3   0 1492.25  110.09
   3   3   0 1733.93  108.99
   3   3   0 1787.32  109.29
  -4  -2   0  224.18   15.10
  -5  -1   0 1915.11  132.29
   5   1   0 2181.68  132.29
  -6   0   0   13.10    1.50
   6   0   0    9.60    1.20
  -7   1   0 2559.34  158.18
   7  -1   0 2416.16  157.78
   7  -1   0 2363.46  157.98
  -8   2   0  387.76   24.20
   8  -2   0  343.97   23.20
   8  -2   0  327.97   23.40
  -9   3   0   21.80    5.00
  -9   3   0   18.00    6.40
  -9   3   0   21.50    6.00
   9  -3   0   13.20    3.20
   9  -3   0   19.40    2.80
   9  -3   0   14.40    3.00
   9  -3   0   22.00    3.70
  -3  -4   0   43.80    4.10
  -3  -4   0   42.30    5.00
   3   4   0   29.00    7.10
   3   4   0   50.79    5.80
  -4  -3   0  300.17   19.80
   4   3   0  280.67   23.40
   4   3   0  293.97   20.20
   4   3   0  296.67   20.70
  -5  -2   0   60.59    4.60
   5   2   0   48.80    6.20
   5   2   0   39.50    5.40
  -6  -1   0  727.23   47.30
  -8   1   0   48.80    8.90
  -8   1   0   60.99    5.20
   8  -1   0   62.69    4.40
   8  -1   0   57.79    5.10
   8  -1   0   69.29    5.60
   8  -1   0   56.69    5.70
  -9   2   0  552.94   37.60
  -9   2   0  563.04   39.30
  -9   2   0  565.04   38.10
   9  -2   0  573.94   36.90
   9  -2   0  580.94   36.80
   9  -2   0  559.94   36.90
   9  -2   0  531.05   36.60
 -10   3   0   87.39   10.30
 -10   3   0  101.89    8.90
  10  -3   0   81.99    6.40
  10  -3   0   88.09    6.40
  10  -3   0   76.29    6.90
  -4  -4   0   15.10    2.40
  -5  -3   0  472.65   32.00
   5   3   0  490.45   32.30
   5   3   0  488.75   32.80
  -6  -2   0  953.20   54.29
   6   2   0  800.12   54.39
   6   2   0  782.22   54.39
   6   2   0  780.82   54.89
  -7  -1   0 2276.37  147.09
  -8   0   0 1349.86   91.09
   8   0   0 1462.35   91.09
  -9   1   0 1107.59   76.49
   9  -1   0 1190.08   76.29
   9  -1   0 1208.08   76.29
   9  -1   0 1206.68   76.09
   9  -1   0 1214.18   76.29
   9  -1   0 1120.89   76.29
 -10   2   0 3824.12  256.67
 -10   2   0 3868.21  257.27
 -10   2   0 3738.83  256.07
  10  -2   0 4039.70  255.77
  10  -2   0 4386.76  256.87
  10  -2   0 3752.02  255.57
  10  -2   0 4124.59  255.67
 -11   3   0  259.17   18.00
  11  -3   0  263.67   17.30
  11  -3   0  254.17   17.00
  11  -3   0  253.17   17.00
   5   4   0   12.90    3.10
  -6  -3   0   21.10    3.40
  -6  -3   0   22.80    3.30
   6   3   0   21.70    3.70
   6   3   0   22.50    4.70
  -7  -2   0   35.00    5.60
   7   2   0   39.30    6.70
   7   2   0   32.60    5.50
   7   2   0   39.50    5.20
  -8  -1   0   57.79    4.90
   8   1   0   62.29    6.60
   8   1   0   53.39    5.20
   8   1   0   58.99    6.50
  -9   0   0    0.80    1.90
   9   0   0    1.10    2.50
   9   0   0    2.90    2.80
   9   0   0    1.20    3.10
 -10   1   0  446.76   29.80
 -10   1   0  402.36   30.40
  10  -1   0  433.16   29.30
  10  -1   0  454.05   29.50
  10  -1   0  450.55   29.00
  10  -1   0  411.96   29.40
  10  -1   0  502.35   29.50
 -11   2   0   19.00    6.50
 -11   2   0   24.80    4.50
 -11   2   0   33.80    5.10
  11  -2   0   32.20    3.50
  11  -2   0   25.40    4.20
  11  -2   0   29.30    3.60
  11  -2   0   25.70    3.40
  -7  -3   0  351.96   23.90
   7   3   0  383.26   24.30
   7   3   0  340.37   24.70
   8   2   0  282.67   21.10
   8   2   0  263.97   20.10
   8   2   0  271.27   20.00
  -9  -1   0 1058.99   65.69
   9   1   0  909.51   65.59
   9   1   0 1025.70   65.89
   9   1   0 1037.00   65.79
 -10   0   0 2580.64  179.98
  10   0   0 2827.32  179.88
  10   0   0 2927.21  180.08
  10   0   0 2633.54  179.78
  10   0   0 2806.92  179.88
  10   0   0 2922.01  179.88
 -11   1   0  322.37   25.30
 -11   1   0  354.56   24.90
 -11   1   0  319.97   24.70
  11  -1   0  346.77   24.20
  11  -1   0  391.06   24.10
  11  -1   0  394.16   24.20
  11  -1   0  398.66   24.10
 -12   2   0  752.92   52.89
 -12   2   0  930.61   54.49
  12  -2   0  753.52   52.39
  12  -2   0  783.22   52.49
  12  -2   0  813.72   52.49
   8   3   0    3.40    2.70
  -9  -2   0  472.95   31.40
   9   2   0  463.65   31.00
   9   2   0  464.75   31.40
 -10  -1   0  406.56   25.00
 -10  -1   0  337.37   25.30
  10   1   0  335.27   24.20
 -11   0   0    4.20    3.90
 -11   0   0    1.30    3.30
  11   0   0    6.10    2.40
  11   0   0    3.50    2.30
  11   0   0    3.20    2.20
 -12   1   0   34.40    6.50
 -12   1   0   39.80    5.80
  12  -1   0   35.90    4.10
  12  -1   0   47.80    4.20
 -13   2   0   19.80    3.50
  13  -2   0   17.30    2.40
  13  -2   0   16.30    2.30
  -9  -3   0   15.10    2.70
   9   3   0   18.40    5.00
 -10  -2   0 3125.09  206.28
  10   2   0 3240.78  206.18
  10   2   0 3205.18  206.38
 -11  -1   0  334.87   21.80
 -11  -1   0  302.37   21.60
  11   1   0  301.97   21.20
  11   1   0  320.67   21.20
  11   1   0  308.77   21.30
 -12   0   0   27.30    4.40
 -12   0   0   17.40    4.80
  12   0   0   27.50    3.50
  12   0   0   22.50    3.60
  12   0   0   24.90    3.70
 -13   1   0  962.50   66.69
 -13   1   0 1038.90   67.79
  13  -1   0 1036.10   66.49
  13  -1   0 1064.99   66.39
  13  -1   0 1006.20   66.39
 -10  -3   0   55.29    4.90
  10   3   0   63.29    5.40
  11   2   0   17.80    3.10
  11   2   0   21.80    3.80
 -12  -1   0   41.70    5.70
  12   1   0   30.80    4.80
  12   1   0   37.90    4.10
  12   1   0   32.10    4.50
 -13   0   0    4.10    3.00
  13   0   0   -2.00    1.90
  13   0   0    1.90    2.80
  13   0   0    0.00    2.00
 -14   1   0   28.40    5.40
 -14   1   0   28.50    4.20
  14  -1   0   21.10    3.20
  14  -1   0   29.70    4.10
  14  -1   0   25.00    3.30
 -11  -3   0  198.58   12.80
  11   3   0  179.18   12.60
 -12  -2   0  617.54   40.20
  12   2   0  672.43   40.10
  12   2   0  541.25   40.70
  13   1   0  874.61   57.09
 -14   0   0  295.97   18.10
  14   0   0  269.47   17.60
  14   0   0  217.38   17.70
 -15   1   0  596.44   36.50
 -15   1   0  633.54   36.90
  15  -1   0  503.25   36.30
  15  -1   0  499.95   36.20
 -13  -2   0   14.20    2.70
  13   2   0    8.50    2.20
 -14  -1   0   24.80    4.30
  14   1   0   24.00    3.60
 -15   0   0   -1.70    1.80
 -15   0   0    2.40    2.40
  15   0   0    0.60    1.70
  15   0   0    0.00    1.90
 -15  -1   0  434.96   28.70
  15   1   0  437.06   28.50
  15   1  -1   99.59    7.90
 -15  -1   1  120.69    8.30
  15   0  -1   33.70    3.30
  15   0  -1   27.70    3.50
 -15   0   1   26.60    4.20
  14   1  -1  480.55   31.60
  13   2  -1   80.79    6.50
  13   2  -1   77.09    6.70
 -13  -2   1   92.19    6.80
  15  -1  -1   99.29    6.90
  15  -1  -1   90.99    6.90
  15  -1  -1  107.19    7.30
 -15   1   1   91.29    7.20
  14   0  -1   -2.90    2.40
  14   0  -1   -1.20    2.20
 -14   0   1    6.00    3.60
  13   1  -1    2.30    2.30
  13   1  -1    0.40    2.00
  13   1  -1    2.10    4.70
  12   2  -1   55.29    5.00
  12   2  -1   42.00    6.40
 -12  -2   1   49.99    5.40
  11   3  -1   -2.00    3.10
 -11  -3   1    2.30    2.30
  14  -1  -1  586.34   36.70
  14  -1  -1  550.14   36.80
  14  -1  -1  547.45   36.60
 -14   1   1  543.25   37.00
 -14   1   1  575.34   37.30
  13   0  -1  145.99   10.80
  13   0  -1  154.08   10.60
  13   0  -1  154.08   10.50
  13   0  -1  130.49   10.60
 -13   0   1  155.88   11.20
  12   1  -1  340.57   23.90
  12   1  -1  373.16   24.00
  12   1  -1  347.97   23.80
 -12  -1   1  368.16   24.40
  11   2  -1   19.50    3.40
  11   2  -1   14.70    2.70
 -11  -2   1   20.40    3.60
  10   3  -1   30.30    4.00
 -10  -3   1   23.90    3.80
  13  -1  -1    6.00    3.00
  13  -1  -1    2.90    2.00
  13  -1  -1    1.80    1.80
 -13   1   1    4.30    3.40
 -13   1   1   -2.20    4.30
  12   0  -1    1.30    2.30
  12   0  -1   -2.70    2.20
  12   0  -1    1.80    2.00
  12   0  -1    6.60    2.50
 -12   0   1    1.70    3.90
 -12   0   1   -5.40    4.70
  11   1  -1  650.23   43.60
  11   1  -1  650.33   43.50
  11   1  -1  641.04   43.40
 -11  -1   1  708.73   43.90
  10   2  -1  630.54   39.60
  10   2  -1  611.04   39.80
 -10  -2   1  560.24   39.70
  -9  -3   1   15.70    2.70
  13  -2  -1  103.09    7.60
  13  -2  -1  108.79    8.30
  13  -2  -1   92.69    7.70
 -13   2   1  120.89    8.60
 -13   2   1  119.49    9.10
  12  -1  -1  432.96   27.30
  12  -1  -1  409.76   27.30
  12  -1  -1  446.36   27.30
  12  -1  -1  378.76   27.20
 -12   1   1  387.16   28.20
 -12   1   1  419.16   27.90
  11   0  -1  123.49    9.00
  11   0  -1  118.39    8.70
  11   0  -1  118.39    8.90
 -11   0   1  111.19    9.50
  10   1  -1  927.21   62.39
  10   1  -1  882.71   61.59
  10   1  -1 1026.60   61.99
   9   2  -1  316.37   21.70
   9   2  -1  315.37   21.40
   8   3  -1  656.53   43.20
  12  -2  -1   37.90    5.30
  12  -2  -1   56.79    4.80
  12  -2  -1   49.20    4.70
  12  -2  -1   49.80    4.90
 -12   2   1   49.20   11.80
 -12   2   1   54.69    6.80
  11  -1  -1  775.32   49.80
  11  -1  -1  796.22   49.99
  11  -1  -1  813.52   49.99
  11  -1  -1  808.12   49.99
  11  -1  -1  708.23   49.90
 -11   1   1  735.13   50.59
 -11   1   1  716.83   50.89
  10   0  -1    4.20    3.10
  10   0  -1    1.40    2.30
  10   0  -1   -0.60    3.10
  10   0  -1    4.30    2.50
  10   0  -1    1.10    2.00
 -10   0   1    0.60    2.50
   9   1  -1   22.50    3.80
   9   1  -1   29.20    4.60
   9   1  -1   22.60    3.90
  -9  -1   1   25.70    3.70
   7   3  -1   12.10    4.40
  -7  -3   1    6.80    2.90
  11  -2  -1   26.80    4.10
  11  -2  -1   24.20    3.20
  11  -2  -1   25.90    3.60
  11  -2  -1   24.90    3.50
 -11   2   1   24.80    4.90
 -11   2   1   36.40    8.30
 -11   2   1   34.60    6.00
  10  -1  -1 1040.20   66.59
  10  -1  -1 1020.50   66.59
  10  -1  -1 1072.19   66.29
  10  -1  -1  947.91   66.79
  10  -1  -1 1122.49   66.59
 -10   1   1  900.81   67.39
 -10   1   1 1050.99   66.99
   9   0  -1  409.46   26.70
   9   0  -1  435.36   26.80
   9   0  -1  385.56   26.60
  -9   0   1  377.66   26.60
   8   1  -1  174.38   11.90
   8   1  -1  159.98   12.40
   8   1  -1  160.28   12.50
  -8  -1   1  168.68   11.50
   7   2  -1  111.19   11.30
   7   2  -1  105.59    8.80
   6   3  -1  368.96   24.80
   6   3  -1  362.46   25.20
   5   4  -1  281.47   20.20
  -5  -4   1  316.87   19.90
  11  -3  -1    3.70    1.80
  11  -3  -1    1.80    1.40
 -11   3   1    4.10    4.70
 -11   3   1    5.10    3.20
  10  -2  -1  762.72   50.09
  10  -2  -1  822.52   50.09
  10  -2  -1  710.33   49.99
  10  -2  -1  782.72   50.29
  10  -2  -1  809.82   50.19
 -10   2   1  762.92   52.09
 -10   2   1  750.82   50.69
 -10   2   1  742.83   51.29
   9  -1  -1   34.20    2.90
   9  -1  -1   20.50    4.20
   9  -1  -1   36.00    3.50
   9  -1  -1   33.20    4.30
   9  -1  -1   32.70    4.50
  -9   1   1   31.00    4.30
  -9   1   1   20.60    6.20
   8   0  -1    2.90    1.90
  -8   0   1    0.80    1.40
   7   1  -1  163.68   12.80
  -7  -1   1  201.68   12.50
   6   2  -1    4.20    3.40
   6   2  -1   -0.10    6.20
   6   2  -1    1.60    3.10
  -6  -2   1   -2.20    2.60
   5   3  -1   49.10    5.40
   5   3  -1   56.79    6.60
  -5  -3   1   35.20    4.80
   4   4  -1   94.19    7.80
  -4  -4   1   83.19    6.60
  10  -3  -1   26.90    3.10
  10  -3  -1   22.70    3.30
  10  -3  -1   30.80    4.10
 -10   3   1   32.50    6.40
 -10   3   1   20.50    4.30
   9  -2  -1  380.06   25.00
   9  -2  -1  395.66   25.10
   9  -2  -1  396.96   25.20
   9  -2  -1  384.76   24.90
  -9   2   1  371.56   25.80
  -9   2   1  356.26   28.00
  -9   2   1  349.67   26.40
   8  -1  -1  159.58   11.90
   8  -1  -1  166.58   11.50
   8  -1  -1  169.38   14.10
   8  -1  -1  177.68   11.20
  -8   1   1  139.99   13.60
  -8   1   1  186.88   11.90
   7   0  -1  519.85   34.60
   7   0  -1  582.94   34.40
  -7   0   1  485.15   34.50
   6   1  -1  191.08   12.80
  -6  -1   1  195.98   12.90
   5   2  -1    8.10    3.50
   4   3  -1 1109.69   72.09
   4   3  -1 1057.49   73.39
   4   3  -1 1065.19   71.79
  -4  -3   1 1159.68   71.49
   3   4  -1  126.59   13.80
   3   4  -1  145.89   10.80
  -3  -4   1  147.19   10.50
  -3  -4   1  136.69    9.80
   9  -3  -1   18.10    3.20
   9  -3  -1   22.40    3.10
   9  -3  -1   17.00    3.20
   9  -3  -1   28.80    4.00
  -9   3   1   27.90    6.90
  -9   3   1    9.00    9.60
  -9   3   1   13.90    4.60
   8  -2  -1  503.15   34.40
   8  -2  -1  539.35   34.70
   8  -2  -1  524.35   34.60
  -8   2   1  540.75   35.20
   7  -1  -1  221.88   13.80
   7  -1  -1  194.68   14.10
  -7   1   1  212.18   14.30
   6   0  -1   -0.30    0.60
  -6   0   1    0.80    0.80
   5   1  -1  764.12   49.20
  -5  -1   1  756.42   49.30
  -4  -2   1   25.90    3.10
   3   3  -1   76.19    7.50
   3   3  -1   51.79   11.20
   3   3  -1   64.09    6.40
  -3  -3   1   65.29    5.50
   2   4  -1  201.58   13.90
   2   4  -1  190.28   16.00
  -2  -4   1  188.48   13.50
  -2  -4   1  179.88   14.00
   8  -3  -1  764.42   47.10
   8  -3  -1  718.63   47.20
   8  -3  -1  607.74   46.90
  -8   3   1  797.72   48.60
   7  -2  -1  131.39   10.10
   7  -2  -1  130.19    9.60
   7  -2  -1  137.69    9.20
   7  -2  -1  132.09    9.50
  -7   2   1  166.68   15.40
  -7   2   1  109.29   11.80
   6  -1  -1  216.28   13.70
   6  -1  -1  187.18   13.90
  -6   1   1  219.98   14.00
   5   0  -1 2173.98  125.89
  -5   0   1 1729.13  125.89
   4   1  -1 1446.46   92.29
   4   1  -1 1347.57   92.29
  -4  -1   1 1496.85   92.39
  -3  -2   1  274.47   18.40
   2   3  -1  500.45   34.90
   2   3  -1  555.34   37.10
   2   3  -1  521.65   35.20
  -2  -3   1  519.75   34.40
   1   4  -1  918.81   61.39
   1   4  -1  987.30   62.29
  -1  -4   1  906.61   61.09
   7  -3  -1   22.60    4.10
   7  -3  -1   12.10    2.50
   7  -3  -1   11.90    2.20
  -7   3   1    9.50    4.40
  -7   3   1   14.30    4.70
  -7   3   1   15.00    5.90
   6  -2  -1    2.40    2.80
   6  -2  -1    7.20    2.70
   6  -2  -1    2.70    1.30
   6  -2  -1    2.90    1.90
  -6   2   1   11.20    9.10
  -6   2   1    4.70    5.00
  -6   2   1   -5.60    7.00
  -6   2   1    2.20    2.40
   5  -1  -1  847.02   54.39
  -5   1   1  835.22   54.59
   3   1  -1   77.29    6.10
   3   1  -1   92.49    6.10
  -3  -1   1  104.69    6.20
   2   2  -1    0.70    1.00
  -2  -2   1    2.60    1.30
   1   3  -1   28.90    4.70
   1   3  -1   22.40    3.80
   1   3  -1   18.10   10.50
  -1  -3   1   21.00    3.00
   0   4  -1   28.50    5.00
   0  -4   1   23.10    4.40
   6  -3  -1  474.15   28.90
   6  -3  -1  438.16   28.50
   6  -3  -1  433.66   28.40
  -6   3   1  417.96   31.40
  -6   3   1  455.15   30.30
  -6   3   1  364.56   29.90
   5  -2  -1    5.40    1.20
   5  -2  -1    9.70    2.20
   5  -2  -1   10.10    3.00
  -5   2   1    8.10    2.30
  -5   2   1   15.20    9.90
   4  -1  -1 1840.92  112.79
  -4   1   1 1656.03  112.99
   3   0  -1  545.65   32.50
  -3   0   1  459.85   32.50
   1   2  -1 2092.29  144.29
  -1  -2   1 2380.46  144.49
   0   3  -1  304.27   23.70
   0   3  -1  340.17   31.50
   0   3  -1  375.66   26.70
   0  -3   1  362.66   22.70
   0  -3   1  326.97   23.10
  -1   4  -1  582.84   38.20
  -1   4  -1  565.34   37.10
   1  -4   1  511.65   36.60
   1  -4   1  577.34   36.80
   5  -3  -1   54.69    4.70
   5  -3  -1   53.59    5.30
   5  -3  -1   53.69    5.20
   5  -3  -1   52.69    5.00
  -5   3   1   52.29    9.90
  -5   3   1   48.30    7.20
  -5   3   1   69.39   10.00
  -5   3   1   53.59    8.60
  -5   3   1   53.89   10.50
   4  -2  -1   26.70    2.30
   4  -2  -1   30.40    3.10
  -4   2   1   25.30    3.60
   3  -1  -1   85.69    6.30
  -3   1   1  105.99    6.60
   2   0  -1    0.30    0.30
   2   0  -1   -0.40    0.40
  -2   0   1    0.00    0.30
   1   1  -1  736.33   48.40
   1   1  -1  707.13   48.40
  -1  -1   1  803.22   48.40
   0  -2   1   24.00    2.10
  -1   3  -1   16.50    4.30
  -1   3  -1   26.10    6.80
   1  -3   1   17.80    3.80
   1  -3   1   21.30    3.00
  -2   4  -1    4.90    8.40
   2  -4   1    4.00    2.60
   2  -4   1    4.50    2.10
   5  -4  -1  305.87   23.00
   5  -4  -1  369.56   23.00
  -5   4   1  333.67   25.00
  -5   4   1  388.16   24.40
   4  -3  -1 1300.97   80.39
   4  -3  -1 1237.28   80.19
   4  -3  -1 1303.87   80.39
   4  -3  -1 1277.77   80.19
  -4   3   1 1219.48   81.89
  -4   3   1 1334.47   80.89
  -4   3   1 1121.89   82.59
  -4   3   1 1087.89   81.29
   3  -2  -1  227.88   17.00
   3  -2  -1  272.97   16.80
  -3   2   1  266.47   17.20
   2  -1  -1 4066.59  262.07
   1   0  -1   90.89    5.40
   1   0  -1   74.19    5.40
  -1   0   1   94.99    5.40
  -1   0   1   69.89    5.40
  -1   2  -1 6736.73  442.66
   1  -2   1 6998.20  442.66
  -2   3  -1   40.20    6.00
  -2   3  -1   35.50    7.10
  -2   3  -1   52.39   11.10
   2  -3   1   34.00    3.70
   2  -3   1   28.10    4.20
  -3   4  -1   75.19    8.20
  -3   4  -1   56.59   10.80
   3  -4   1   59.19    5.90
   3  -4   1   62.19    5.10
   4  -4  -1  110.69    7.90
   4  -4  -1  113.09    8.50
  -4   4   1  113.69    9.70
  -4   4   1  104.29   12.40
   3  -3  -1   75.79    6.90
   3  -3  -1   91.69    6.60
   3  -3  -1   73.19    6.20
  -3   3   1   72.99    7.90
  -3   3   1   79.69   10.20
  -3   3   1  107.39   14.40
   2  -2  -1   -0.10    0.80
  -2   2   1    1.20    1.60
   1  -1  -1  812.52   49.20
   1  -1  -1  719.83   49.30
   1  -1  -1  766.22   49.30
  -1   1   1  753.32   49.40
  -1   1  -1 2239.48  152.28
   1  -1   1 2483.25  152.18
  -2   2  -1 1618.54  104.69
   2  -2   1 1616.64  104.49
  -3   3  -1  169.08   13.90
  -3   3  -1  162.58   12.30
  -3   3  -1  124.79   16.90
   3  -3   1  166.28   11.30
   3  -3   1  155.28   10.90
  -4   4  -1    6.10    6.50
  -4   4  -1    6.10    4.20
   4  -4   1    4.50    3.00
   4  -4   1    4.10    1.80
   3  -4  -1  152.58   10.70
   3  -4  -1  158.58   10.40
  -3   4   1  127.69   15.50
   2  -3  -1  566.34   35.90
   2  -3  -1  498.05   36.10
  -2   3   1  566.44   36.70
  -2   3   1  550.24   41.80
  -2   3   1  561.94   38.20
   1  -2  -1 2099.79  141.09
  -1   2   1 2272.07  141.29
   0  -1  -1 2596.74  159.98
   0   1   1 2366.36  160.08
  -1   0  -1 1222.88   79.79
   1   0   1 1248.78   79.69
   2  -1   1 3554.84  229.08
  -3   2  -1   21.00    2.90
   3  -2   1   20.30    2.90
   3  -2   1   19.20    1.80
  -4   3  -1  527.05   34.00
  -4   3  -1  510.05   35.20
  -4   3  -1  482.85   36.60
   4  -3   1  508.95   33.40
   4  -3   1  511.65   33.40
   4  -3   1  494.05   33.20
  -5   4  -1  109.69    9.20
  -5   4  -1   92.39    9.90
   5  -4   1   98.89    7.00
   5  -4   1   88.59    7.40
   2  -4  -1  191.78   13.90
   2  -4  -1  203.78   14.20
  -2   4   1  184.98   19.80
  -2   4   1  223.58   14.80
  -2   4   1  218.18   16.00
   1  -3  -1   20.20    2.80
  -1   3   1   30.80    5.30
  -1   3   1   27.70    7.20
   0  -2  -1   27.30    2.40
   0  -2  -1   31.60    2.70
   0   2   1   27.30    3.00
  -1  -1  -1 2459.05  153.28
   1   1   1 2294.37  153.28
  -2   0  -1    0.50    0.40
  -3   1  -1   41.50    3.20
   3  -1   1   44.80    3.00
  -4   2  -1   10.60    2.10
   4  -2   1   12.10    1.50
   4  -2   1   13.10    2.40
  -5   3  -1   26.10    5.70
  -5   3  -1   16.40    6.70
  -5   3  -1   10.40    6.20
   5  -3   1   16.10    2.60
   5  -3   1   12.60    2.90
   5  -3   1   18.60    3.20
   1  -4  -1  876.11   59.39
   1  -4  -1  906.31   59.69
  -1   4   1  981.10   61.09
  -1   4   1  902.21   59.99
   0  -3  -1  333.67   23.10
   0   3   1  387.66   24.50
   0   3   1  363.66   27.90
   0   3   1  305.47   30.40
  -1  -2  -1 7071.79  427.26
  -1  -2  -1 6123.49  427.06
   1   2   1 6685.83  427.26
   2   1   1 3387.16  218.38
  -3   0  -1   70.49    5.30
   3   0   1   88.29    5.30
  -4   1  -1 1312.77   86.69
   4  -1   1 1368.46   86.49
  -5   2  -1  599.34   45.90
  -5   2  -1  560.24   43.40
  -5   2  -1  638.24   40.70
   5  -2   1  653.63   40.30
   5  -2   1  640.14   40.60
  -6   3  -1  268.37   20.90
  -6   3  -1  257.77   22.20
  -6   3  -1  289.87   21.00
   6  -3   1  307.87   19.20
   6  -3   1  296.67   19.10
   0  -4  -1   21.50    3.30
   0  -4  -1   22.60    4.00
   0   4   1   11.70    5.20
   0   4   1   36.20    5.40
  -1  -3  -1   20.40    2.50
   1   3   1   16.50    4.20
   1   3   1   19.50    7.10
  -2  -2  -1 1552.64   94.39
   2   2   1 1363.86   94.39
  -3  -1  -1   45.10    3.20
   3   1   1   44.40    3.30
  -4   0  -1   -0.10    0.50
   4   0   1   -0.30    0.50
  -5   1  -1  144.69   10.80
   5  -1   1  173.48   10.50
  -6   2  -1   36.50    8.70
  -6   2  -1   33.00    8.40
  -6   2  -1   35.70    4.70
  -6   2  -1   39.20    7.30
   6  -2   1   37.60    3.40
   6  -2   1   37.30    4.00
   6  -2   1   32.40    4.90
  -7   3  -1  114.69   12.40
  -7   3  -1  104.99   10.70
  -7   3  -1  128.39   10.90
   7  -3   1  115.79    8.50
   7  -3   1  119.29    9.10
   7  -3   1  112.89    8.60
  -1  -4  -1  453.35   31.70
  -1  -4  -1  517.25   32.10
   1   4   1  492.55   32.50
   1   4   1  477.85   33.50
  -2  -3  -1   29.30    3.50
   2   3   1   24.20    4.00
   2   3   1   36.30    7.50
   2   3   1   31.20    5.50
  -3  -2  -1   16.20    2.50
   3   2   1   17.90    3.00
  -4  -1  -1 1185.08   78.39
   4   1   1 1241.08   78.49
  -5   0  -1 1737.23  119.39
   5   0   1 1962.00  119.39
  -6   1  -1  702.63   43.40
   6  -1   1  681.73   43.10
   6  -1   1  610.44   43.30
  -7   2  -1   91.19   10.50
  -7   2  -1  102.89   13.80
  -7   2  -1  115.09   15.50
  -7   2  -1  122.09   12.60
   7  -2   1  117.39    8.20
   7  -2   1  105.99    8.60
   7  -2   1  116.29    7.70
  -8   3  -1  892.31   54.49
  -8   3  -1  828.62   53.79
   8  -3   1  796.82   51.79
   8  -3   1  773.82   51.69
   8  -3   1  681.23   51.49
  -2  -4  -1    1.40    2.60
   2   4   1    8.20    3.60
   2   4   1    9.60    5.50
  -3  -3  -1  134.79    9.60
  -3  -3  -1  139.19   10.50
   3   3   1  121.19   10.20
   3   3   1  141.29   14.80
   3   3   1  134.09   10.90
  -4  -2  -1   13.20    2.20
   4   2   1   11.80    2.40
  -5  -1  -1  146.09   10.10
   5   1   1  153.88   10.20
  -6   0  -1    0.30    0.90
   6   0   1    0.50    0.60
  -7   1  -1  562.94   34.80
   7  -1   1  528.85   34.40
   7  -1   1  495.35   34.60
  -8   2  -1  338.47   22.30
  -8   2  -1  312.47   24.80
  -8   2  -1  293.77   21.10
  -8   2  -1  290.87   22.90
   8  -2   1  315.97   20.60
   8  -2   1  294.67   20.30
  -9   3  -1  398.06   26.50
  -9   3  -1  385.76   25.20
  -9   3  -1  332.07   25.10
   9  -3   1  349.07   23.90
   9  -3   1  352.56   23.70
   9  -3   1  333.57   23.60
  -3  -4  -1   53.49    5.70
  -3  -4  -1   48.10    4.60
   3   4   1   62.59    9.90
   3   4   1   63.69    6.00
  -4  -3  -1  396.56   27.10
   4   3   1  406.96   30.10
   4   3   1  420.26   28.10
   4   3   1  415.36   27.50
  -5  -2  -1  571.74   34.20
   5   2   1  466.75   34.00
   5   2   1  521.45   34.60
  -6  -1  -1  624.94   41.40
   6   1   1  646.74   41.50
  -7   0  -1  889.91   61.79
   7   0   1 1016.60   61.89
  -8   1  -1 1181.38   75.09
   8  -1   1 1160.18   74.59
   8  -1   1 1139.59   74.89
   8  -1   1 1154.08   75.39
   8  -1   1 1132.69   74.89
  -9   2  -1  807.12   55.39
  -9   2  -1  819.02   55.89
  -9   2  -1  874.81   57.09
  -9   2  -1  799.92   55.39
   9  -2   1  867.41   54.89
   9  -2   1  843.02   54.59
   9  -2   1  851.01   54.79
   9  -2   1  857.41   54.79
 -10   3  -1   71.39    7.50
 -10   3  -1   81.39    8.60
  10  -3   1   69.79    5.50
  10  -3   1   63.39    5.40
  -4  -4  -1    2.40    1.80
   4   4   1    2.80    2.60
  -5  -3  -1   13.80    3.00
  -5  -3  -1   11.50    2.80
   5   3   1   11.00    3.30
   5   3   1   15.40    4.40
  -6  -2  -1   33.80    3.90
   6   2   1   30.40    6.20
   6   2   1   24.90    4.30
   6   2   1   44.70    6.10
  -7  -1  -1  463.15   31.40
   7   1   1  493.25   31.40
  -8   0  -1    0.30    1.40
   8   0   1    1.10    2.10
  -9   1  -1  236.48   20.40
  -9   1  -1  290.57   19.30
   9  -1   1  305.67   18.70
   9  -1   1  274.47   19.20
   9  -1   1  289.97   19.00
   9  -1   1  291.57   19.00
 -10   2  -1  390.76   25.70
 -10   2  -1  381.66   27.20
 -10   2  -1  362.16   26.10
  10  -2   1  375.86   24.90
  10  -2   1  386.46   24.90
  10  -2   1  359.46   24.80
 -11   3  -1    0.50    3.50
 -11   3  -1    5.80    3.20
  11  -3   1    7.30    3.00
  11  -3   1    6.80    1.80
  11  -3   1    4.20    2.10
  -5  -4  -1   78.29    6.00
   5   4   1   86.09    7.30
  -6  -3  -1  224.28   15.90
  -6  -3  -1  210.68   15.90
   6   3   1  242.58   16.10
   6   3   1  247.38   16.90
  -7  -2  -1  103.59    7.50
   7   2   1   73.09    7.80
   7   2   1   83.59    9.60
   7   2   1   87.79    8.30
  -8  -1  -1  978.60   64.59
   8   1   1 1008.40   64.99
   8   1   1  995.50   64.89
  -9   0  -1  315.27   21.70
   9   0   1  340.27   21.80
   9   0   1  318.47   21.90
 -10   1  -1  139.59   15.90
 -10   1  -1  165.08   12.20
  10  -1   1  170.48   11.60
  10  -1   1  154.98   12.20
  10  -1   1  178.38   11.20
 -11   2  -1  775.82   55.79
 -11   2  -1  926.41   56.49
 -11   2  -1  777.82   56.89
  11  -2   1  915.31   55.39
  11  -2   1  947.11   55.39
  11  -2   1  861.11   55.49
  11  -2   1  751.22   55.19
  -7  -3  -1   83.09    6.80
  -7  -3  -1   79.19    7.00
   7   3   1   94.59    7.00
   7   3   1   76.59    8.50
  -8  -2  -1  269.47   16.70
  -8  -2  -1  224.28   16.80
   8   2   1  201.18   17.20
   8   2   1  250.67   17.80
   8   2   1  203.28   16.70
  -9  -1  -1  265.57   16.70
   9   1   1  261.87   17.00
   9   1   1  211.88   16.60
   9   1   1  249.68   17.00
   9   1   1  229.98   16.80
 -10   0  -1    3.40    4.50
 -10   0  -1    4.80    2.80
  10   0   1    1.40    2.70
  10   0   1    0.50    2.10
  10   0   1    1.20    2.30
 -11   1  -1   32.50    6.40
 -11   1  -1   23.40    4.60
 -11   1  -1   20.10    4.50
  11  -1   1   33.10    3.90
  11  -1   1   36.20    4.00
  11  -1   1   28.90    3.80
 -12   2  -1   13.90    6.50
 -12   2  -1    8.40    4.10
  12  -2   1   12.80    2.30
  12  -2   1    9.00    2.10
  12  -2   1    6.50    2.80
  -8  -3  -1  591.24   38.50
  -8  -3  -1  550.94   37.60
   8   3   1  577.64   38.20
  -9  -2  -1  633.84   43.60
   9   2   1  700.03   43.50
   9   2   1  655.83   45.20
   9   2   1  651.13   43.70
 -10  -1  -1  149.29   12.10
 -10  -1  -1  147.09   11.30
  10   1   1  171.38   12.70
 -11   0  -1 8414.96  600.94
 -11   0  -1 9070.79  601.04
  11   0   1 9999.00  600.84
  11   0   1 9864.01  600.84
  11   0   1 9244.98  600.84
 -12   1  -1 1944.61  131.09
 -12   1  -1 2005.90  131.49
  12  -1   1 2167.68  130.79
  12  -1   1 2044.90  130.79
  12  -1   1 1940.71  131.49
 -13   2  -1  188.68   12.60
 -13   2  -1  159.08   12.10
  13  -2   1  166.28   11.50
  13  -2   1  164.98   11.50
  -9  -3  -1  242.38   18.20
  -9  -3  -1  270.17   18.00
   9   3   1  309.77   18.40
   9   3   1  249.48   19.00
 -10  -2  -1  277.67   20.00
  10   2   1  285.07   20.10
  10   2   1  317.47   19.90
 -11  -1  -1   39.00    5.00
 -11  -1  -1   27.70    4.50
  11   1   1   32.70    4.10
  11   1   1   32.70    4.50
 -12   0  -1   -2.60    3.10
  12   0   1    4.60    2.40
  12   0   1    0.10    2.50
  12   0   1   -0.40    2.00
 -13   1  -1    1.90    6.30
  13  -1   1    3.00    3.20
  13  -1   1    0.60    1.80
  13  -1   1    3.50    3.00
 -10  -3  -1   50.59    4.40
  10   3   1   42.80    4.80
 -11  -2  -1  689.53   43.30
  11   2   1  709.33   43.40
  11   2   1  572.74   44.10
 -12  -1  -1 1851.51  116.69
  12   1   1 1803.12  116.69
  12   1   1 1746.13  116.69
 -13   0  -1  445.66   28.60
  13   0   1  410.36   28.50
  13   0   1  425.46   28.20
  13   0   1  425.96   28.20
 -14   1  -1  712.93   42.60
  14  -1   1  630.84   42.20
  14  -1   1  648.94   42.20
  14  -1   1  597.54   42.30
 -11  -3  -1   -0.10    1.60
 -12  -2  -1    3.80    2.40
  12   2   1    4.50    2.70
 -13  -1  -1    1.80    3.30
  13   1   1    1.30    2.00
 -14   0  -1   -0.40    3.30
  14   0   1   -0.30    2.00
  14   0   1    1.70    2.30
 -15   1  -1    7.70    3.10
 -15   1  -1   -0.90    1.70
  15  -1   1    2.80    1.60
 -13  -2  -1  142.39    9.80
  13   2   1  132.39    9.60
 -14  -1  -1  561.94   36.50
  14   1   1  546.95   36.30
 -15   0  -1  479.95   28.80
  15   0   1  404.96   28.50
  15   0   1  421.36   28.50
 -15  -1  -1    1.70    2.10
  15   1   1    0.70    1.50
  15   1  -2  225.48   16.00
 -15  -1   2  255.37   16.20
  15   0  -2   -0.60    1.40
  15   0  -2   -0.60    1.70
 -15   0   2    3.90    2.90
  14   1  -2   67.69    6.20
  14   1  -2   80.69    6.30
  13   2  -2   75.39    5.90
  13   2  -2   63.99    5.90
 -13  -2   2   76.29    6.50
  15  -1  -2  230.48   16.30
  15  -1  -2  255.47   16.10
  14   0  -2  339.47   22.50
  14   0  -2  313.77   22.50
  14   0  -2  329.37   22.70
 -14   0   2  374.06   23.10
  13   1  -2  504.45   33.70
  13   1  -2  516.25   33.60
  12   2  -2  140.69   10.10
  12   2  -2  133.29   10.50
 -12  -2   2  141.39   10.40
  11   3  -2   91.09    6.70
 -11  -3   2   87.29    6.80
  14  -1  -2   79.29    6.50
  14  -1  -2   75.39    6.30
  14  -1  -2   77.99    6.10
 -14   1   2   87.09    7.80
 -14   1   2   78.89    6.90
  13   0  -2    0.20    1.90
  13   0  -2    4.20    2.40
  13   0  -2   -0.60    2.60
  13   0  -2   -3.30    2.10
 -13   0   2   -3.70    3.30
  12   1  -2   37.30    4.30
  12   1  -2   38.40    4.60
  12   1  -2   40.30    4.30
  11   2  -2   39.60    4.40
  11   2  -2   40.90    5.00
 -11  -2   2   44.80    6.00
 -10  -3   2   19.10    2.60
  13  -1  -2  621.14   40.60
  13  -1  -2  557.74   40.50
  13  -1  -2  658.53   40.50
 -13   1   2  640.14   41.00
  12   0  -2  287.37   19.00
  12   0  -2  281.57   18.90
  12   0  -2  268.37   18.90
  12   0  -2  268.17   18.80
 -12   0   2  297.87   21.90
  11   1  -2  270.37   19.00
  11   1  -2  295.57   19.00
  11   1  -2  267.57   18.80
  10   2  -2  413.56   27.60
  10   2  -2  417.06   27.90
   9   3  -2  269.37   16.90
  -9  -3   2  219.58   16.50
  13  -2  -2   77.69    6.10
  13  -2  -2   68.69    5.50
  13  -2  -2   75.29    5.80
 -13   2   2   75.19    6.70
 -13   2   2   79.19    7.00
  12  -1  -2   52.89    4.60
  12  -1  -2   46.00    4.40
  12  -1  -2   48.30    4.30
  12  -1  -2   40.10    4.40
 -12   1   2   32.90    6.40
  11   0  -2    0.20    2.10
  11   0  -2   -1.20    2.50
  11   0  -2    0.40    2.20
  11   0  -2   -0.20    2.50
 -11   0   2   -2.00    3.80
  10   1  -2 1066.39   68.99
  10   1  -2  920.71   68.69
  10   1  -2 1187.68   70.19
   9   2  -2  334.77   22.80
   9   2  -2  340.97   23.00
   8   3  -2  351.16   23.20
   8   3  -2  334.77   24.30
  12  -2  -2  201.18   12.80
  12  -2  -2  166.98   11.50
  12  -2  -2  141.99   11.20
  12  -2  -2  155.78   11.30
  12  -2  -2  169.18   11.40
 -12   2   2  155.18   12.50
  11  -1  -2  346.47   21.90
  11  -1  -2  305.47   21.80
  11  -1  -2  345.77   21.90
  11  -1  -2  366.16   21.90
  11  -1  -2  325.37   21.60
 -11   1   2  294.57   23.10
 -11   1   2  301.77   22.70
  10   0  -2 1096.09   69.69
  10   0  -2 1103.69   69.69
  10   0  -2 1134.79   69.79
  10   0  -2 1013.80   69.69
  10   0  -2 1030.70   69.59
 -10   0   2 1050.59   69.89
   9   1  -2   84.79    7.90
   9   1  -2  108.99    8.10
   9   1  -2   96.49    8.10
  -9  -1   2  100.29    7.70
   7   3  -2  224.58   16.70
   7   3  -2  229.88   16.00
  11  -2  -2   54.29    5.40
  11  -2  -2   58.19    4.80
  11  -2  -2   47.10    5.10
  11  -2  -2   55.19    4.60
  11  -2  -2   50.39    4.70
 -11   2   2   53.19   10.10
 -11   2   2   47.90    6.70
 -11   2   2   63.09    7.10
  10  -1  -2 1103.79   73.09
  10  -1  -2 1141.69   73.19
  10  -1  -2 1088.99   72.99
  10  -1  -2 1138.99   72.89
 -10   1   2 1151.28   73.59
   9   0  -2   -3.90    2.40
   9   0  -2    0.70    1.90
   9   0  -2    7.30    3.20
   9   0  -2    2.30    2.80
   9   0  -2    2.80    2.50
  -9   0   2   -2.30    1.90
   8   1  -2  678.73   47.50
   8   1  -2  681.53   47.50
   8   1  -2  792.02   47.70
  -8  -1   2  738.83   47.30
   7   2  -2  109.99    9.10
   7   2  -2  117.29    9.40
   6   3  -2   11.70    4.20
   6   3  -2   15.70    3.40
   5   4  -2   48.80    5.80
  -5  -4   2   60.09    5.30
  11  -3  -2  100.19    8.10
  11  -3  -2  115.79    8.00
  11  -3  -2  118.29    7.80
 -11   3   2  108.49    9.00
 -11   3   2  120.19   10.40
  10  -2  -2  536.45   34.50
  10  -2  -2  534.75   33.90
  10  -2  -2  535.75   33.90
  10  -2  -2  485.25   33.70
  10  -2  -2  505.45   33.80
 -10   2   2  503.55   36.20
 -10   2   2  506.05   35.20
   9  -1  -2  102.29    7.50
   9  -1  -2   98.99    6.80
   9  -1  -2   94.69    7.20
   9  -1  -2   92.09    7.80
   9  -1  -2   97.29    8.20
  -9   1   2  105.29    7.80
  -9   1   2   73.29   10.10
   8   0  -2  489.75   29.80
  -8   0   2  417.16   29.80
   7   1  -2  584.94   42.90
  -7  -1   2  725.93   43.00
   6   2  -2  357.36   23.00
   6   2  -2  312.37   22.90
   6   2  -2  346.47   24.50
   5   3  -2  141.99   11.40
   5   3  -2  149.59   10.70
  -5  -3   2  124.59   10.20
   4   4  -2   17.40    3.70
  10  -3  -2   24.00    3.60
  10  -3  -2   27.00    3.40
  10  -3  -2   26.20    3.20
 -10   3   2   37.10    7.20
 -10   3   2   38.10    5.30
   9  -2  -2  426.46   26.90
   9  -2  -2  417.76   26.70
   9  -2  -2  426.36   27.00
   9  -2  -2  410.16   26.80
   9  -2  -2  401.16   26.80
  -9   2   2  383.76   27.60
  -9   2   2  393.36   28.40
  -9   2   2  378.36   29.50
   8  -1  -2  611.24   47.60
   8  -1  -2  728.83   47.00
   8  -1  -2  771.42   46.70
  -8   1   2  802.22   47.30
  -8   1   2  681.83   48.20
   7   0  -2   -0.70    0.70
   7   0  -2    1.50    1.90
   6   1  -2  168.88   13.90
  -6  -1   2  231.78   13.50
   5   2  -2    1.30    3.20
   5   2  -2    1.20    3.40
   4   3  -2   59.89    7.20
   4   3  -2   68.69    6.30
  -4  -3   2   57.89    5.50
   3   4  -2   59.29   10.60
   3   4  -2   74.59    7.00
  -3  -4   2   70.49    6.70
   9  -3  -2  267.17   18.50
   9  -3  -2  270.67   18.40
   9  -3  -2  296.57   18.60
   9  -3  -2  281.67   18.40
  -9   3   2  258.07   21.10
   8  -2  -2  260.57   18.70
   8  -2  -2  234.38   17.80
   8  -2  -2  257.57   17.40
   8  -2  -2  274.47   17.70
  -8   2   2  279.37   18.40
   7  -1  -2  766.92   47.60
   7  -1  -2  686.83   47.80
  -7   1   2  750.32   48.00
   6   0  -2 1896.81  109.69
  -6   0   2 1502.35  109.79
  -5  -1   2 1022.00   66.19
  -4  -2   2 1109.59   71.99
   3   3  -2 1079.89   76.09
   3   3  -2 1177.78   77.49
   3   3  -2 1240.58   76.49
  -3  -3   2 1169.48   75.79
   2   4  -2   47.80    9.20
   2   4  -2   56.29    6.00
  -2  -4   2   42.10    5.50
   8  -3  -2  339.97   26.10
   8  -3  -2  396.06   26.40
   8  -3  -2  426.16   26.30
  -8   3   2  454.65   29.30
  -8   3   2  372.36   27.90
   7  -2  -2  127.69   10.20
   7  -2  -2  145.79    9.30
   7  -2  -2  134.29    9.70
   7  -2  -2  139.79    9.60
  -7   2   2  137.99   13.50
  -7   2   2  124.29   12.90
  -7   2   2  141.59   12.20
  -7   2   2  109.79   16.30
   6  -1  -2  234.78   16.80
   6  -1  -2  269.77   16.60
  -6   1   2  252.77   16.90
   5   0  -2    0.90    0.50
  -5   0   2    1.00    0.60
  -4  -1   2  743.23   48.10
  -3  -2   2  133.99    9.20
   2   3  -2  212.58   14.70
   2   3  -2  192.78   14.00
   2   3  -2  193.78   16.90
  -2  -3   2  185.88   13.40
   1   4  -2  122.99   11.60
   1   4  -2  110.59    9.20
  -1  -4   2  102.79    8.70
   7  -3  -2  243.18   17.10
   7  -3  -2  243.38   17.10
   7  -3  -2  261.37   17.50
   7  -3  -2  246.88   17.10
  -7   3   2  288.17   19.40
  -7   3   2  273.77   20.70
  -7   3   2  231.98   18.90
   6  -2  -2  391.76   26.90
   6  -2  -2  443.66   27.00
   6  -2  -2  427.66   26.70
   6  -2  -2  412.36   27.00
  -6   2   2  371.76   29.60
  -6   2   2  355.56   30.80
  -6   2   2  437.96   27.40
   5  -1  -2 1226.18   73.39
  -5   1   2 1045.50   73.59
   4   0  -2  156.28    9.10
  -4   0   2  120.19    9.10
  -3  -1   2 3353.86  216.18
  -2  -2   2  813.42   52.79
   1   3  -2   10.50    3.10
   1   3  -2   11.40    4.10
   1   3  -2   12.70    6.30
  -1  -3   2   10.80    2.20
   0   4  -2  871.91   57.99
   0   4  -2  878.01   57.09
   0  -4   2  862.91   56.79
   6  -3  -2   11.10    2.50
   6  -3  -2    6.60    2.20
   6  -3  -2    7.80    2.20
  -6   3   2   16.00    5.30
  -6   3   2    9.50    6.20
  -6   3   2    9.90    5.30
   5  -2  -2    2.10    2.70
   5  -2  -2    3.20    1.10
  -5   2   2   14.20    9.40
  -5   2   2    3.30    2.20
   4  -1  -2  814.82   50.99
  -4   1   2  762.32   51.19
   3   0  -2    1.60    0.40
   3   0  -2    0.30    0.50
   3   0  -2    1.60    0.90
  -3   0   2    0.70    0.40
  -1  -2   2   10.90    1.80
   0   3  -2   40.70    8.80
   0   3  -2   49.50    6.10
   0   3  -2   42.80    5.10
   0  -3   2   46.30    4.20
   1  -4   2    2.70    2.60
   1  -4   2    4.20    2.70
   5  -3  -2  168.48   11.20
   5  -3  -2  154.58   11.00
   5  -3  -2  168.18   11.30
   5  -3  -2  166.68   11.20
  -5   3   2  164.98   15.70
  -5   3   2  122.19   14.50
  -5   3   2  156.98   12.60
  -5   3   2  137.59   14.40
  -5   3   2  166.08   14.00
   4  -2  -2 1024.80   69.49
   4  -2  -2 1077.69   69.29
  -4   2   2 1109.29   69.69
   3  -1  -2 2874.81  186.58
  -3   1   2 2906.81  186.48
   2   0  -2 1710.63  104.09
   2   0  -2 1578.44  104.09
  -2   0   2 1555.44  104.09
   0   2  -2  519.35   32.20
   0  -2   2  474.65   32.30
  -1   3  -2   30.10    6.40
  -1   3  -2   28.20    4.80
   1  -3   2   25.80    3.20
  -2   4  -2  473.85   34.40
   2  -4   2  505.65   33.00
   2  -4   2  530.25   33.20
   5  -4  -2   53.49    4.70
   5  -4  -2   52.29    4.40
  -5   4   2   52.39    9.30
  -5   4   2   60.39    6.70
   4  -3  -2   76.39    6.20
   4  -3  -2   62.49    6.10
   4  -3  -2   70.89    5.60
   4  -3  -2   66.29    5.80
  -4   3   2   67.09    7.80
  -4   3   2   76.29    9.60
  -4   3   2   72.19    9.40
  -4   3   2   90.79   12.70
   3  -2  -2  108.29    8.90
   3  -2  -2  132.49    8.50
  -3   2   2  138.39    9.10
   2  -1  -2  151.98   10.90
   2  -1  -2  182.68   10.80
  -2   1   2  163.78   11.00
  -1   0   2    2.20    0.40
   1  -2   2 2100.09  135.59
  -2   3  -2  105.19    8.70
  -2   3  -2  102.39   11.20
  -2   3  -2   89.39   15.20
   2  -3   2   99.99    7.70
   2  -3   2   91.69    7.20
  -3   4  -2   12.90    4.00
  -3   4  -2   13.30    6.90
   4  -4  -2    5.10    2.80
   4  -4  -2   12.50    1.90
  -4   4   2   11.50    6.40
  -4   4   2    8.70    3.90
   3  -3  -2 1196.08   77.19
   3  -3  -2 1182.28   77.39
   3  -3  -2 1155.48   77.19
  -3   3   2 1174.48   80.29
  -3   3   2 1245.18   79.29
  -3   3   2 1154.98   77.89
  -3   3   2 1226.18   77.89
   2  -2  -2  756.32   47.40
  -2   2   2  706.43   47.70
   1  -1  -2 2885.21  188.28
  -1   1   2 2957.40  188.38
  -2   2  -2   15.30    2.10
   2  -2   2   11.80    1.50
  -3   3  -2  893.31   66.99
  -3   3  -2 1046.10   65.09
  -3   3  -2 1011.90   66.19
   3  -3   2  999.10   64.59
   3  -3   2 1002.20   64.39
  -4   4  -2  184.48   14.10
  -4   4  -2  217.38   16.20
   4  -4   2  162.48   12.40
   4  -4   2  178.68   12.80
   3  -4  -2   57.89    4.90
   3  -4  -2   68.59    5.60
  -3   4   2   57.99   11.70
  -3   4   2   68.09    8.00
   2  -3  -2  202.08   13.70
   2  -3  -2  208.28   13.70
   2  -3  -2  184.78   13.40
  -2   3   2  200.88   14.70
  -2   3   2  180.98   15.40
  -2   3   2  206.38   20.70
  -2   3   2  199.08   16.40
   1  -2  -2    8.40    1.30
  -1   2   2    8.30    1.90
   0  -1  -2 3177.58  206.78
   0   1   2 3240.78  206.98
  -1   0  -2    0.60    0.30
   2  -1   2 3884.41  250.27
  -3   2  -2  203.38   13.80
   3  -2   2  211.88   13.50
   3  -2   2  198.38   14.00
  -4   3  -2   80.19    7.80
  -4   3  -2   86.19   10.00
  -4   3  -2   82.19   12.50
   4  -3   2   90.49    6.80
   4  -3   2   71.89    6.90
   4  -3   2   83.79    6.50
  -5   4  -2   74.89    7.50
  -5   4  -2   66.59    8.40
   5  -4   2   64.89    5.40
   5  -4   2   73.79    6.30
   2  -4  -2   43.10    4.40
   2  -4  -2   41.60    4.60
   2  -4  -2   54.39    4.50
  -2   4   2   47.90   10.70
  -2   4   2   45.00    6.00
  -2   4   2   55.79    7.60
   1  -3  -2   13.40    2.10
   1  -3  -2   18.40    3.30
  -1   3   2   14.20    6.30
  -1   3   2   17.90    4.30
  -1   3   2    6.50    7.00
   0  -2  -2  552.94   36.60
   0  -2  -2  618.34   36.60
   0   2   2  514.65   36.80
  -2   0  -2  235.28   15.30
  -3   1  -2  276.17   18.70
   3  -1   2  295.57   18.60
  -4   2  -2  538.35   34.90
   4  -2   2  541.35   34.60
   4  -2   2  518.45   34.90
  -5   3  -2  473.35   30.40
  -5   3  -2  367.26   29.90
  -5   3  -2  423.66   31.10
   5  -3   2  436.46   28.40
   5  -3   2  445.66   28.40
   5  -3   2  417.56   28.20
   1  -4  -2   93.49    7.60
   1  -4  -2   94.59    7.20
   1  -4  -2   86.89    7.00
  -1   4   2  103.69    8.50
  -1   4   2  101.39    9.90
   0  -3  -2   34.00    5.50
   0  -3  -2   41.90    3.90
   0   3   2   50.49    9.60
   0   3   2   38.90    6.30
  -1  -2  -2 1633.84  118.09
  -1  -2  -2 1928.61  118.29
   1   2   2 1926.71  118.39
   2   1   2 3559.04  229.48
  -3   0  -2    1.00    0.50
   3   0   2    1.50    0.60
  -4   1  -2  156.98   11.00
   4  -1   2  172.38   10.80
  -5   2  -2   24.60    3.70
  -5   2  -2   15.90    7.10
  -5   2  -2   33.40    8.40
  -5   2  -2   22.50    6.10
   5  -2   2   30.00    5.20
   5  -2   2   25.20    2.30
   5  -2   2   19.90    3.10
  -6   3  -2    3.30    4.50
  -6   3  -2    6.60    4.40
   6  -3   2    8.10    2.20
   0  -4  -2  742.13   50.79
   0  -4  -2  766.82   51.09
   0   4   2  776.32   51.49
   0   4   2  848.52   52.69
  -1  -3  -2   21.20    2.90
   1   3   2   31.50    7.90
   1   3   2   19.90    4.40
  -2  -2  -2   18.50    2.10
   2   2   2   10.90    2.30
  -3  -1  -2  271.77   18.10
   3   1   2  282.87   18.20
  -5   1  -2    9.10    1.70
   5  -1   2   13.20    1.30
  -6   2  -2   82.19    7.00
  -6   2  -2   80.59   13.00
  -6   2  -2   75.09   12.60
   6  -2   2   80.89    5.80
   6  -2   2   76.69    7.60
   6  -2   2   84.69    6.50
  -7   3  -2  743.33   49.20
  -7   3  -2  760.52   48.40
  -7   3  -2  760.52   48.10
   7  -3   2  739.93   47.00
   7  -3   2  604.44   46.80
   7  -3   2  707.03   47.10
  -1  -4  -2    4.90    2.40
  -1  -4  -2    3.30    1.90
   1   4   2    9.40    3.70
   1   4   2    4.60    5.60
  -2  -3  -2   73.49    6.20
  -2  -3  -2   94.89    7.40
   2   3   2   83.89    8.20
   2   3   2   85.49   11.90
   2   3   2   71.69    6.90
  -3  -2  -2  193.28   12.80
   3   2   2  183.08   12.90
  -4  -1  -2  144.09   10.10
   4   1   2  160.08   10.30
  -5   0  -2   -0.20    0.70
   5   0   2    0.40    0.60
  -6   1  -2  108.49    7.70
   6  -1   2  109.29    7.80
   6  -1   2  107.99    7.30
  -7   2  -2   35.20    9.50
  -7   2  -2   23.80    8.50
  -7   2  -2   21.60    8.70
  -7   2  -2   25.20    5.30
   7  -2   2   31.40    4.10
   7  -2   2   25.90    2.80
   7  -2   2   27.00    3.60
   8  -3   2  167.48   12.40
   8  -3   2  185.38   12.80
  -2  -4  -2  414.06   28.00
  -2  -4  -2  391.26   27.70
   2   4   2  408.96   29.60
   2   4   2  478.95   28.70
  -3  -3  -2  895.61   60.79
  -3  -3  -2  732.23   53.19
   3   3   2  841.62   53.69
   3   3   2  874.31   54.29
   3   3   2  768.72   55.59
  -4  -2  -2  492.15   31.10
   4   2   2  455.35   31.20
  -5  -1  -2    9.00    1.50
  -6   0  -2  890.71   57.79
  -7   1  -2  223.38   15.70
   7  -1   2  256.77   15.30
   7  -1   2  217.58   15.80
  -8   2  -2   43.20    6.60
  -8   2  -2   60.79   12.30
  -8   2  -2   44.60    7.20
   8  -2   2   56.09    4.50
   8  -2   2   62.09    5.00
  -9   3  -2  198.18   15.20
  -9   3  -2  177.78   13.90
   9  -3   2  165.48   12.00
   9  -3   2  161.88   12.50
   9  -3   2  173.38   12.00
  -3  -4  -2    9.10    2.20
  -3  -4  -2    4.80    2.70
   3   4   2   13.10    6.20
   3   4   2    9.10    3.20
  -4  -3  -2   59.19    5.40
  -4  -3  -2   65.99    7.30
  -4  -3  -2   66.09    6.20
   4   3   2   65.39   11.90
   4   3   2   47.00    6.00
   4   3   2   71.99    7.30
  -5  -2  -2   20.00    2.90
   5   2   2   16.20    4.00
   5   2   2   11.30    3.00
   5   2   2   14.90    5.20
   5   2   2   19.70    4.40
  -6  -1  -2   98.39    6.90
  -7   0  -2   -0.10    1.20
   7   0   2    0.80    2.20
  -8   1  -2   35.00    4.20
  -8   1  -2   34.30    6.40
   8  -1   2   40.20    3.10
   8  -1   2   41.80    4.90
   8  -1   2   36.90    4.20
  -9   2  -2  191.38   16.30
  -9   2  -2  233.08   18.20
  -9   2  -2  232.58   16.80
  -9   2  -2  222.88   16.50
   9  -2   2  216.68   15.20
   9  -2   2  231.48   15.20
   9  -2   2  226.88   15.00
   9  -2   2  218.48   15.20
 -10   3  -2    9.90    3.70
 -10   3  -2   12.30    4.70
  10  -3   2   15.40    2.20
  10  -3   2   14.10    2.30
  10  -3   2    9.40    3.40
  -4  -4  -2  130.09    9.60
  -4  -4  -2  146.69   11.20
   4   4   2  146.29   10.70
  -5  -3  -2  337.27   22.50
  -5  -3  -2  315.27   22.40
   5   3   2  359.06   22.70
   5   3   2  358.26   23.40
   5   3   2  300.17   26.10
  -6  -2  -2   65.99    5.50
   6   2   2   54.59    8.40
   6   2   2   61.19    7.20
   6   2   2   65.29    7.00
  -7  -1  -2  221.48   14.90
  -8   0  -2  153.98   10.80
   8   0   2  158.78   11.10
  -9   1  -2  659.23   43.10
  -9   1  -2  575.84   43.80
  -9   1  -2  556.44   43.10
  -9   1  -2  623.74   47.30
   9  -1   2  719.73   42.80
   9  -1   2  696.23   42.70
   9  -1   2  662.83   42.90
   9  -1   2  715.73   42.50
 -10   2  -2  678.23   46.50
 -10   2  -2  705.93   47.10
 -10   2  -2  742.83   48.10
  10  -2   2  712.93   46.00
  10  -2   2  660.23   46.40
  10  -2   2  726.43   46.00
 -11   3  -2  257.77   17.50
 -11   3  -2  264.17   16.70
  11  -3   2  212.88   15.80
  11  -3   2  223.88   15.80
  -5  -4  -2   58.49    4.60
   5   4   2   53.69    5.70
  -6  -3  -2    5.80    3.30
  -6  -3  -2   10.60    2.50
   6   3   2   13.40    4.30
  -7  -2  -2   20.60    3.70
   7   2   2   23.00    4.40
   7   2   2   18.00    5.00
   7   2   2   17.50    4.40
  -8  -1  -2   34.20    3.80
   8   1   2   32.20    5.70
   8   1   2   35.90    4.70
   8   1   2   41.50    6.00
  -9   0  -2   13.10    4.70
  -9   0  -2    1.80    2.00
   9   0   2    0.70    3.10
   9   0   2   -0.30    2.50
 -10   1  -2   20.10    8.00
 -10   1  -2   23.10    4.10
  10  -1   2   35.40    5.00
  10  -1   2   30.60    3.70
  10  -1   2   28.70    3.10
 -11   2  -2    6.00    3.50
 -11   2  -2    3.30    3.80
 -11   2  -2    6.60    5.90
  11  -2   2    4.00    3.10
  11  -2   2    2.60    2.10
  11  -2   2    5.30    2.00
  11  -2   2   -3.20    2.40
  -7  -3  -2  562.44   35.90
  -7  -3  -2  505.65   35.90
   7   3   2  510.45   36.60
   7   3   2  604.54   36.10
  -8  -2  -2   44.70    5.50
   8   2   2   32.40    4.80
  -9  -1  -2  535.35   37.40
  -9  -1  -2  587.64   37.30
   9   1   2  587.44   37.50
   9   1   2  535.35   37.40
   9   1   2  581.94   37.50
 -10   0  -2  470.15   31.60
 -10   0  -2  484.85   31.20
  10   0   2  444.76   31.00
  10   0   2  477.95   30.90
  10   0   2  461.95   30.90
 -11   1  -2 1010.30   69.19
 -11   1  -2 1033.00   69.29
 -11   1  -2  996.30   69.59
  11  -1   2 1107.99   68.79
  11  -1   2 1095.19   68.89
  11  -1   2 1103.69   68.79
 -12   2  -2  937.01   54.79
 -12   2  -2  823.72   53.89
 -12   2  -2  826.92   53.39
  12  -2   2  789.82   52.99
  12  -2   2  771.82   52.99
  12  -2   2  746.03   53.09
  -8  -3  -2  134.49    9.90
  -9  -2  -2  179.88   13.30
  -9  -2  -2  170.08   12.70
   9   2   2  156.48   14.20
   9   2   2  179.58   12.50
   9   2   2  170.58   12.80
 -10  -1  -2   13.60    3.10
 -10  -1  -2   13.00    4.40
  10   1   2   18.40    4.10
 -11   0  -2    1.90    2.90
 -11   0  -2    8.20    3.70
  11   0   2    4.20    2.40
  11   0   2    4.30    2.20
  11   0   2    1.70    2.60
 -12   1  -2  277.47   18.70
 -12   1  -2  237.08   18.10
  12  -1   2  260.47   17.90
  12  -1   2  258.87   17.50
  12  -1   2  264.17   17.50
 -13   2  -2   82.49    7.50
 -13   2  -2  104.69    8.20
  13  -2   2   96.69    6.90
  13  -2   2   92.89    7.80
  13  -2   2   99.09    7.00
  -9  -3  -2  126.69    9.20
   9   3   2  119.49   10.50
   9   3   2  134.99    9.50
 -10  -2  -2  561.64   37.90
  10   2   2  590.94   37.70
  10   2   2  566.84   38.00
 -11  -1  -2  825.82   58.59
 -11  -1  -2  911.81   58.99
  11   1   2  907.01   58.69
  11   1   2  946.91   58.79
 -12   0  -2  143.59   11.90
  12   0   2  158.18   11.40
  12   0   2  167.38   11.50
  12   0   2  170.08   11.60
 -13   1  -2  594.84   37.40
  13  -1   2  552.84   37.00
  13  -1   2  546.75   37.10
 -10  -3  -2    6.80    1.80
 -11  -2  -2    9.60    2.50
  11   2   2   14.80    3.00
 -12  -1  -2  204.88   14.80
  12   1   2  220.08   14.70
 -13   0  -2    5.90    2.80
  13   0   2   -0.50    2.30
  13   0   2    0.50    1.80
 -14   1  -2   44.00    6.10
 -14   1  -2   50.39    4.90
  14  -1   2   46.90    4.40
  14  -1   2   38.00    4.10
 -11  -3  -2  172.28   11.60
 -12  -2  -2  636.54   41.70
  12   2   2  635.34   41.70
 -13  -1  -2  557.94   34.50
 -13  -1  -2  549.74   34.30
  13   1   2  448.86   34.00
 -14   0  -2    8.70    3.30
 -14   0  -2    6.80    2.90
  14   0   2    7.50    2.50
  14   0   2    3.60    2.00
 -15   1  -2   98.29    7.10
  15  -1   2   96.79    6.80
  15  -1   2   92.89    6.90
 -13  -2  -2   71.89    5.70
  13   2   2   63.39    5.30
 -14  -1  -2   35.60    4.40
  14   1   2   36.90    4.00
 -15   0  -2    0.00    2.30
 -15   0  -2   -2.60    2.10
  15   0   2    4.20    1.70
 -15  -1  -2   84.29    6.30
  15   1   2   85.89    6.30
  15   1  -3   70.79    6.10
 -15  -1   3   92.89    6.60
  15   0  -3  161.38   10.90
  15   0  -3  155.28   10.80
  14   1  -3  525.85   36.30
  14   1  -3  584.84   36.30
  13   2  -3   66.19    5.40
  13   2  -3   66.49    5.80
  15  -1  -3   76.89    5.90
  15  -1  -3   74.59    6.20
  15  -1  -3   87.29    6.30
 -15   1   3   92.09    6.50
  14   0  -3    1.00    2.40
  14   0  -3    3.60    2.60
  14   0  -3   -0.80    2.10
 -14   0   3    3.40    3.50
  13   1  -3   15.00    3.00
  12   2  -3   45.10    4.70
  12   2  -3   38.40    5.20
 -12  -2   3   47.00    5.60
  11   3  -3    6.40    2.10
  14  -1  -3  660.33   42.00
  14  -1  -3  612.04   41.90
  14  -1  -3  603.94   41.80
  14  -1  -3  612.84   41.90
 -14   1   3  717.73   42.40
 -14   1   3  651.13   42.40
  13   0  -3   10.10    2.20
  13   0  -3    9.30    2.80
  13   0  -3   10.20    2.30
  13   0  -3   12.30    2.70
 -13   0   3    8.00    3.30
  12   1  -3  354.96   24.80
  12   1  -3  384.06   24.90
  12   1  -3  375.96   24.70
  11   2  -3  317.67   21.40
  11   2  -3  319.37   21.60
  10   3  -3   86.19    6.40
 -10  -3   3   64.49    7.00
  13  -1  -3   35.00    4.20
  13  -1  -3   36.20    3.80
 -13   1   3   40.80    5.80
  12   0  -3    1.20    2.00
  12   0  -3   -0.80    2.30
  12   0  -3   -1.00    2.40
  12   0  -3   -0.40    2.00
  11   1  -3   36.50    4.20
  11   1  -3   29.50    4.30
  11   1  -3   25.20    3.90
  10   2  -3   88.39    7.50
  10   2  -3   81.49    6.80
   9   3  -3  853.31   55.79
  13  -2  -3   74.99    5.50
  13  -2  -3   79.19    6.00
  13  -2  -3   69.29    6.00
  13  -2  -3   64.29    5.40
 -13   2   3   78.99    7.00
 -13   2   3   79.29    6.80
  12  -1  -3  428.36   28.00
  12  -1  -3  433.66   28.00
  12  -1  -3  396.76   28.90
  12  -1  -3  470.85   28.10
  12  -1  -3  411.56   28.10
 -12   1   3  406.26   29.00
  11   0  -3  143.49   10.70
  11   0  -3  142.99   10.70
  11   0  -3  161.88   10.80
  11   0  -3  155.28   11.10
  11   0  -3  145.89   10.70
 -11   0   3  152.88   11.70
   9   2  -3 2461.15  160.38
   9   2  -3 2493.35  160.48
   8   3  -3  404.86   27.20
  12  -2  -3   55.89    4.90
  12  -2  -3   48.20    4.90
  12  -2  -3   54.89    4.80
  12  -2  -3   55.09    4.70
  12  -2  -3   46.60    4.60
 -12   2   3   45.60    7.40
 -12   2   3   50.19    7.00
  11  -1  -3   37.30    4.10
  11  -1  -3   35.00    4.10
  11  -1  -3   36.10    4.60
  11  -1  -3   40.00    4.10
  11  -1  -3   41.10    3.60
 -11   1   3   43.50    6.00
  10   0  -3    3.90    2.50
  10   0  -3    1.70    2.00
  10   0  -3    2.40    2.40
  10   0  -3    2.90    2.10
  10   0  -3   -1.10    2.80
 -10   0   3   -0.40    3.00
   9   1  -3   -0.10    2.60
   9   1  -3    1.20    3.00
   9   1  -3    5.90    3.40
   9   1  -3   -6.40    3.20
   8   2  -3  478.45   32.80
   8   2  -3  504.55   32.80
   7   3  -3   15.30    3.30
   7   3  -3   16.40    5.30
  11  -2  -3  401.16   26.40
  11  -2  -3  426.66   26.30
  11  -2  -3  448.36   26.30
  11  -2  -3  381.06   26.10
  11  -2  -3  383.96   26.10
 -11   2   3  375.96   28.80
 -11   2   3  357.66   27.40
  10  -1  -3  240.38   15.90
  10  -1  -3  225.58   16.20
  10  -1  -3  227.28   16.50
 -10   1   3  251.07   17.20
 -10   1   3  267.87   21.80
   9   0  -3 1510.35   96.59
   9   0  -3 1495.95   96.69
   9   0  -3 1525.15   96.59
   9   0  -3 1581.74   96.59
   9   0  -3 1417.56   96.49
  -9   0   3 1408.66   96.69
   8   1  -3  299.97   21.40
   8   1  -3  304.17   21.30
   8   1  -3  298.47   21.10
  -8  -1   3  345.17   21.00
   7   2  -3  670.03   42.30
   7   2  -3  610.14   42.30
   6   3  -3  605.44   42.80
   6   3  -3  688.53   43.00
  11  -3  -3    2.70    1.40
  11  -3  -3    5.00    2.10
 -11   3   3    0.00    3.20
 -11   3   3    8.40    5.90
  10  -2  -3   97.59    7.30
  10  -2  -3  107.19    7.50
  10  -2  -3   99.29    7.70
  10  -2  -3   97.59    7.40
 -10   2   3   93.79    9.40
 -10   2   3  104.19   11.90
   9  -1  -3    0.00    2.90
   9  -1  -3    0.00    1.80
   9  -1  -3    3.90    2.30
   9  -1  -3    5.60    3.00
   9  -1  -3    1.50    1.20
  -9   1   3    2.10    2.70
  -9   1   3    2.20    5.00
   8   0  -3    2.80    1.80
  -8   0   3   -0.60    1.70
   7   1  -3   57.39    5.40
  -7  -1   3   63.89    4.90
   6   2  -3   70.49    6.90
   6   2  -3   64.49    6.40
   5   3  -3    8.60    3.10
   5   3  -3   10.80    4.10
  -5  -3   3    3.50    2.60
   4   4  -3   12.00    3.60
  -4  -4   3    9.00    3.10
  10  -3  -3   77.49    6.40
  10  -3  -3   84.19    6.30
  10  -3  -3   88.89    6.60
 -10   3   3   81.29    8.30
 -10   3   3   99.69   10.50
   9  -2  -3 2947.41  191.08
   9  -2  -3 2942.81  190.98
   9  -2  -3 2962.50  191.18
   9  -2  -3 2930.41  191.18
   9  -2  -3 2889.01  190.98
  -9   2   3 2976.70  192.28
  -9   2   3 3152.98  191.88
  -9   2   3 2866.91  192.98
   8  -1  -3  321.07   21.50
   8  -1  -3  304.87   21.20
   8  -1  -3  321.17   21.30
  -8   1   3  339.07   21.70
   7   0  -3 6218.38  396.46
  -7   0   3 6076.79  396.56
   6   1  -3 5959.30  404.96
  -6  -1   3 6596.04  404.76
   5   2  -3  639.04   40.10
   5   2  -3  576.54   40.20
   4   3  -3  996.20   70.69
   4   3  -3 1128.09   70.99
  -4  -3   3 1121.19   70.39
   3   4  -3   92.39    7.60
  -3  -4   3   79.09    8.30
   9  -3  -3  862.11   60.79
   9  -3  -3  965.30   60.79
   9  -3  -3  856.71   60.89
   9  -3  -3  950.90   60.99
   9  -3  -3 1004.80   60.79
  -9   3   3  834.32   61.69
  -9   3   3 1084.09   63.19
   8  -2  -3  572.14   36.80
   8  -2  -3  586.84   37.10
   8  -2  -3  555.74   37.10
  -8   2   3  504.75   38.50
  -8   2   3  598.74   37.80
   7  -1  -3   65.09    5.30
   7  -1  -3   65.09    4.70
  -7   1   3   70.29    5.40
   6   0  -3    0.50    0.60
  -6   0   3    3.80    1.00
  -5  -1   3  703.13   45.60
   3   3  -3  291.37   19.90
   3   3  -3  283.37   22.10
   3   3  -3  277.87   19.60
  -3  -3   3  279.17   19.10
   2   4  -3  100.19   10.80
   2   4  -3   87.19    7.80
  -2  -4   3   80.49    7.50
   8  -3  -3  499.65   30.70
   8  -3  -3  519.35   31.00
   8  -3  -3  473.45   30.80
   8  -3  -3  401.46   30.50
  -8   3   3  448.76   33.20
  -8   3   3  453.15   33.90
   7  -2  -3  762.92   48.50
   7  -2  -3  779.22   48.50
   7  -2  -3  739.63   48.20
   7  -2  -3  749.23   48.40
  -7   2   3  684.93   51.59
  -7   2   3  703.83   49.70
  -7   2   3  766.82   48.90
   6  -1  -3 8019.60  490.95
  -6   1   3 7212.88  491.05
  -4  -1   3 4692.63  302.47
   2   3  -3 1204.38   74.39
   2   3  -3 1203.28   75.49
   2   3  -3 1071.69   73.99
  -2  -3   3 1060.29   73.69
   1   4  -3  349.37   23.60
   1   4  -3  369.66   25.30
  -1  -4   3  331.67   23.40
   7  -3  -3   11.70    2.30
   7  -3  -3   13.10    3.00
   7  -3  -3    8.50    2.20
   7  -3  -3   13.10    2.30
  -7   3   3   20.10    5.50
  -7   3   3    7.80    4.60
  -7   3   3   12.90    5.70
   6  -2  -3   76.59    6.30
   6  -2  -3   89.69    5.90
   6  -2  -3   77.79    7.00
   6  -2  -3   85.49    6.60
  -6   2   3   95.49   14.80
  -6   2   3   78.79    7.20
  -6   2   3   67.79   12.30
   5  -1  -3  861.71   52.09
  -5   1   3  747.43   52.29
   4   0  -3    0.40    0.50
   4   0  -3    0.00    1.20
   4   0  -3   -0.10    0.60
  -4   0   3   -0.20    0.50
  -3  -1   3  767.62   49.60
  -2  -2   3    0.80    1.30
   1   3  -3   84.99    7.70
   1   3  -3   85.29   11.40
   1   3  -3   91.09    8.30
  -1  -3   3   87.39    6.80
   0  -4   3    8.40    3.20
   6  -3  -3  752.32   46.40
   6  -3  -3  605.64   46.60
   6  -3  -3  739.13   46.60
  -6   3   3  678.63   47.90
  -6   3   3  681.53   49.00
  -6   3   3  820.02   48.40
   5  -2  -3  709.93   47.00
   5  -2  -3  709.03   46.60
   5  -2  -3  759.52   46.80
  -5   2   3  741.23   47.00
  -5   2   3  652.23   49.99
   4  -1  -3 5419.76  325.07
  -4   1   3 4669.53  325.27
   2   1  -3 3414.16  220.08
  -1  -2   3 1247.28   80.69
   0   3  -3  264.87   18.30
   0   3  -3  269.17   20.30
   0   3  -3  236.58   17.80
   0  -3   3  262.47   17.40
  -1   4  -3  486.55   31.50
   1  -4   3  392.46   30.20
   1  -4   3  484.65   29.90
   5  -3  -3   16.80    2.50
   5  -3  -3   16.90    2.70
   5  -3  -3   25.10    3.70
  -5   3   3    8.90    7.40
  -5   3   3   16.50    5.60
  -5   3   3    9.90    5.20
   4  -2  -3   19.90    2.80
   4  -2  -3   19.60    2.00
  -4   2   3   17.90    3.00
   3  -1  -3  825.02   49.60
   3  -1  -3  768.42   49.70
  -3   1   3  710.53   49.80
   2   0  -3   -0.20    0.50
   2   0  -3    0.20    0.40
  -2   0   3    1.40    0.40
   1   1  -3  970.10   63.79
  -1  -1   3 1007.30   63.79
   0  -2   3   77.39    5.50
  -1   3  -3   13.40   11.10
  -1   3  -3   28.60    4.60
  -1   3  -3   22.60    6.00
   1  -3   3   20.80    3.30
  -2   4  -3   12.10    4.60
   2  -4   3    6.70    2.10
   5  -4  -3  509.35   36.80
  -5   4   3  596.04   37.90
  -5   4   3  591.64   38.70
   4  -3  -3 1102.79   72.39
   4  -3  -3 1116.39   72.29
   4  -3  -3 1196.78   72.49
   4  -3  -3 1110.99   72.29
  -4   3   3  981.40   72.99
  -4   3   3 1187.08   72.99
  -4   3   3 1112.19   75.29
  -4   3   3 1102.09   73.99
   3  -2  -3   10.70    2.20
   3  -2  -3   11.60    1.40
  -3   2   3   10.80    2.40
   2  -1  -3 3305.57  210.58
  -2   1   3 3229.48  210.78
   1   0  -3 1253.47   80.79
   0   1  -3 1422.26   91.69
   1  -2   3 2996.80  193.28
  -2   3  -3   68.59    9.10
  -2   3  -3   75.19    7.50
  -2   3  -3   85.59   14.10
   2  -3   3   67.79    5.80
   2  -3   3   66.79    6.20
  -3   4  -3   95.39    8.90
   3  -4   3   71.59    6.30
   3  -4   3   91.39    7.20
   4  -4  -3    9.00    4.50
   4  -4  -3    4.30    1.40
  -4   4   3    7.30    7.60
  -4   4   3    8.90    3.90
   3  -3  -3  279.97   18.40
   3  -3  -3  292.47   18.70
   3  -3  -3  271.77   18.40
  -3   3   3  281.17   21.00
  -3   3   3  257.07   19.40
  -3   3   3  257.67   20.00
  -3   3   3  285.97   23.90
   2  -2  -3    1.10    0.70
  -2   2   3    2.70    1.90
   1  -1  -3  882.41   61.19
   1  -1  -3 1013.30   61.19
   1  -1  -3  953.00   61.19
  -1   1   3  942.61   61.39
   2  -2   3    5.00    1.00
  -3   3  -3  623.04   39.70
  -3   3  -3  608.74   40.90
  -3   3  -3  520.65   41.90
   3  -3   3  608.64   39.00
   3  -3   3  614.44   39.20
  -4   4  -3   35.60    6.30
   4  -4   3   24.50    3.40
   4  -4   3   28.30    5.00
   3  -4  -3   89.69    7.10
   3  -4  -3   90.49    6.70
   3  -4  -3   92.39    6.80
  -3   4   3  101.79    9.10
  -3   4   3   92.39   13.30
   2  -3  -3 1141.49   72.19
   2  -3  -3 1163.88   72.19
   2  -3  -3 1149.98   72.39
  -2   3   3 1000.40   75.59
  -2   3   3 1086.99   72.89
  -2   3   3 1138.39   74.29
  -2   3   3 1100.59   72.89
   1  -2  -3 1091.49   68.19
   1  -2  -3 1016.10   67.99
  -1   2   3 1045.80   68.39
   0  -1  -3 1353.06   87.49
   0  -1  -3 1403.36   87.39
   0  -1  -3 1273.07   87.39
   0   1   3 1390.26   87.59
  -2   1  -3   45.40    3.10
  -2   1  -3   39.70    2.90
   2  -1   3   45.50    3.00
  -3   2  -3  176.18   12.50
   3  -2   3  200.48   12.20
   3  -2   3  174.78   12.90
  -4   3  -3  708.93   46.40
  -4   3  -3  665.63   47.20
   4  -3   3  668.23   44.40
   4  -3   3  691.83   44.60
   4  -3   3  670.23   44.60
  -5   4  -3   63.29    6.70
  -5   4  -3   45.10    7.80
   5  -4   3   61.39    4.80
   2  -4  -3   86.09    6.10
   2  -4  -3   88.49    6.80
   2  -4  -3   71.49    6.10
  -2   4   3  101.19    9.70
  -2   4   3   61.69   14.70
  -2   4   3   79.09    7.60
   1  -3  -3   68.09    5.40
   1  -3  -3   71.39    5.90
   1  -3  -3   70.89    5.70
  -1   3   3   85.19   18.50
  -1   3   3   66.69    9.00
  -1   3   3   56.09   10.10
  -1   3   3   68.49    7.80
   0  -2  -3   84.39    5.60
   0  -2  -3   70.09    5.30
   0   2   3   73.49    5.90
  -2   0  -3    0.10    0.40
  -3   1  -3  642.84   45.70
  -3   1  -3  680.33   45.60
   3  -1   3  794.82   45.70
  -4   2  -3  549.85   34.70
  -4   2  -3  486.25   39.40
   4  -2   3  575.04   34.40
   4  -2   3  497.45   34.70
  -5   3  -3   -3.00    5.50
  -5   3  -3    7.60    4.70
   5  -3   3   -0.50    2.20
   5  -3   3    3.90    2.90
   5  -3   3    0.70    2.50
   1  -4  -3  291.57   21.20
   1  -4  -3  323.97   21.50
   1  -4  -3  320.07   21.10
  -1   4   3  327.57   22.00
  -1   4   3  346.07   23.40
   0  -3  -3  233.88   15.40
   0  -3  -3  218.58   15.40
   0   3   3  231.88   16.70
   0   3   3  223.98   17.20
   0   3   3  232.38   19.00
  -1  -2  -3 2764.62  170.18
  -1  -2  -3 2419.26  170.08
   1   2   3 2723.53  170.38
  -2  -1  -3   41.00    3.00
   2   1   3   43.30    3.20
  -3   0  -3  852.01   55.09
  -5   2  -3  802.22   54.29
  -5   2  -3  761.02   55.19
  -5   2  -3  834.52   52.79
   5  -2   3  812.92   52.69
   5  -2   3  841.32   52.49
   5  -2   3  801.12   53.29
  -6   3  -3  447.16   30.00
  -6   3  -3  390.16   28.50
  -6   3  -3  459.75   29.10
   6  -3   3  397.76   27.20
   6  -3   3  349.96   27.50
   6  -3   3  423.26   27.50
   0  -4  -3   10.20    2.80
   0  -4  -3   15.30    2.20
   0   4   3    9.50    5.30
   0   4   3    6.40    3.50
  -1  -3  -3   17.50    2.80
   1   3   3   18.10    4.40
   1   3   3   18.20    7.40
  -2  -2  -3    2.50    0.90
   2   2   3    3.10    1.80
  -3  -1  -3  665.83   45.90
   3   1   3  750.92   46.00
  -4   0  -3    0.80    0.60
  -5   1  -3  333.67   23.80
   5  -1   3  392.56   23.60
  -6   2  -3    0.10    3.00
  -6   2  -3    1.00    4.60
  -6   2  -3   -2.40    6.70
  -6   2  -3    1.20    6.90
   6  -2   3    0.50    3.70
   6  -2   3    0.90    1.50
   6  -2   3    1.00    2.60
  -7   3  -3   84.59    9.40
  -7   3  -3  108.69   11.10
  -7   3  -3   92.59    9.70
   7  -3   3   99.39    8.00
   7  -3   3   82.89    7.80
   7  -3   3   83.49    7.00
  -1  -4  -3  388.66   27.00
  -1  -4  -3  398.26   27.30
   1   4   3  450.55   28.00
   1   4   3  416.06   29.10
  -2  -3  -3   47.20    6.30
  -2  -3  -3   51.39    4.50
  -2  -3  -3   49.50    5.60
   2   3   3   51.99   11.40
   2   3   3   51.39    6.90
  -3  -2  -3  173.18   10.90
  -3  -2  -3  133.59   11.00
   3   2   3  165.58   11.10
  -4  -1  -3 4251.87  274.17
  -5   0  -3  455.35   29.70
  -6   1  -3 2429.26  161.98
   6  -1   3 2586.04  161.78
  -7   2  -3 1792.52  112.19
  -7   2  -3 1466.55  110.89
  -7   2  -3 1889.01  110.39
  -7   2  -3 1748.23  111.49
   7  -2   3 1735.73  110.09
   7  -2   3 1621.24  109.79
   7  -2   3 1643.14  110.09
  -8   3  -3  682.23   44.60
  -8   3  -3  604.24   44.30
   8  -3   3  663.43   41.80
   8  -3   3  608.04   41.90
  -2  -4  -3    6.30    1.80
  -2  -4  -3    4.10    2.70
   2   4   3    8.00    3.40
   2   4   3   -6.00    5.50
  -3  -3  -3  507.55   31.30
  -3  -3  -3  452.15   30.70
  -3  -3  -3  428.06   30.50
   3   3   3  440.36   33.40
   3   3   3  493.95   31.70
  -4  -2  -3  487.75   30.60
   4   2   3  469.05   32.20
   4   2   3  437.16   30.70
  -5  -1  -3  342.17   22.50
  -6   0  -3    0.90    1.10
  -7   1  -3   24.10    3.30
   7  -1   3   27.80    2.30
   7  -1   3   27.90    4.00
  -8   2  -3    9.80    6.20
  -8   2  -3    8.30    4.00
  -8   2  -3    6.40    4.10
  -8   2  -3   18.10    7.30
   8  -2   3    5.10    3.20
   8  -2   3    6.50    2.60
   8  -2   3    1.70    1.80
  -9   3  -3   79.69    9.20
  -9   3  -3   66.19    8.10
   9  -3   3   68.99    5.50
   9  -3   3   59.39    5.60
   9  -3   3   66.79    7.50
  -3  -4  -3   62.69    5.10
  -3  -4  -3   64.09    5.70
   3   4   3   66.59    9.80
   3   4   3   67.49    6.60
  -4  -3  -3  482.35   34.50
  -4  -3  -3  516.75   35.20
  -4  -3  -3  493.25   34.50
   4   3   3  569.24   34.90
   4   3   3  548.95   35.50
   4   3   3  540.95   37.40
  -5  -2  -3  713.03   43.40
   5   2   3  643.44   43.50
   5   2   3  650.53   43.90
   5   2   3  648.84   44.40
   5   2   3  654.93   43.80
  -6  -1  -3 2245.38  145.09
  -7   0  -3  117.69    8.40
   7   0   3  123.59    8.80
  -8   1  -3 1964.50  139.09
  -8   1  -3 2213.28  138.49
  -8   1  -3 1800.52  138.59
   8  -1   3 2315.77  138.09
   8  -1   3 2240.88  138.29
   8  -1   3 2291.67  138.29
  -9   2  -3  880.01   60.99
  -9   2  -3  905.31   61.79
  -9   2  -3  943.81   60.49
   9  -2   3  973.50   59.99
   9  -2   3  849.12   59.79
   9  -2   3  978.40   59.99
   9  -2   3  916.51   59.99
 -10   3  -3    7.30    3.50
 -10   3  -3   11.90    4.10
  10  -3   3   13.40    2.10
  10  -3   3   12.50    3.10
  -4  -4  -3   25.20    4.20
  -4  -4  -3   17.10    2.40
   4   4   3   24.20    8.70
  -5  -3  -3    5.00    2.50
  -5  -3  -3    6.20    2.50
   5   3   3    0.70    4.00
   5   3   3   -3.70    7.20
  -6  -2  -3   -1.00    2.20
  -6  -2  -3    1.40    3.80
   6   2   3    1.20    3.60
   6   2   3   -3.50    3.60
   6   2   3    1.90    4.10
   6   2   3    7.80    4.70
  -7  -1  -3   27.60    2.90
  -8   0  -3    1.10    1.60
   8   0   3   -3.40    2.90
  -9   1  -3   11.70    4.60
  -9   1  -3   11.30    4.90
  -9   1  -3   28.80    8.40
  -9   1  -3   15.10    4.80
   9  -1   3   16.70    4.30
   9  -1   3   14.70    2.00
   9  -1   3   12.40    2.70
   9  -1   3   15.50    2.80
 -10   2  -3    3.40    3.70
 -10   2  -3   16.00    4.20
 -10   2  -3   11.60    5.50
  10  -2   3    8.80    2.20
  10  -2   3    9.00    3.50
  -5  -4  -3   44.40    4.00
  -5  -4  -3   58.09    4.80
   5   4   3   49.99    5.40
  -6  -3  -3  321.27   21.40
   6   3   3  304.37   22.40
   6   3   3  334.47   21.70
  -7  -2  -3 1255.87   83.59
   7   2   3 1401.66   83.49
   7   2   3 1253.07   83.59
   7   2   3 1213.88   83.99
  -8  -1  -3 1942.81  126.49
   8   1   3 1993.10  126.69
   8   1   3 1924.91  126.59
  -9   0  -3 1059.59   73.89
  -9   0  -3 1178.58   75.19
  -9   0  -3 1113.69   73.69
   9   0   3 1194.58   73.59
   9   0   3 1117.39   73.69
 -10   1  -3 1501.55   97.09
 -10   1  -3 1425.66   97.09
 -10   1  -3 1370.46   97.49
  10  -1   3 1600.84   96.79
  10  -1   3 1558.94   96.79
 -11   2  -3 1095.49   72.59
  11  -2   3 1052.59   71.79
  11  -2   3 1166.48   71.79
  -7  -3  -3   73.49    5.70
  -7  -3  -3   61.19    6.00
   7   3   3   54.59    5.80
   7   3   3   76.09    7.70
  -8  -2  -3    4.40    3.90
  -8  -2  -3    1.10    3.30
   8   2   3    8.30    3.60
   8   2   3    4.30    5.20
  -9  -1  -3   13.80    4.80
  -9  -1  -3   11.80    2.70
   9   1   3    8.20    4.20
   9   1   3   11.00    3.40
   9   1   3   13.50    4.10
 -10   0  -3   -0.10    5.40
 -10   0  -3   -0.50    3.80
 -10   0  -3    2.50    2.40
  10   0   3   -0.50    3.60
  10   0   3   -0.80    2.30
  10   0   3    2.30    2.40
 -11   1  -3  266.27   20.10
 -11   1  -3  293.47   19.70
 -11   1  -3  261.67   20.00
  11  -1   3  283.27   19.10
  11  -1   3  287.87   19.20
  11  -1   3  298.97   19.00
 -12   2  -3  177.08   12.80
 -12   2  -3  173.38   14.20
 -12   2  -3  173.68   12.20
  12  -2   3  141.69   11.30
  12  -2   3  160.98   11.30
  -8  -3  -3  444.06   34.20
   8   3   3  570.34   34.40
   8   3   3  550.54   37.30
  -9  -2  -3  744.93   47.30
  -9  -2  -3  727.43   47.10
   9   2   3  729.73   47.20
   9   2   3  658.63   47.50
 -10  -1  -3 1297.77   83.69
  10   1   3 1202.78   83.79
  10   1   3 1355.46   83.69
 -11   0  -3 2942.21  188.98
 -11   0  -3 2882.91  188.98
  11   0   3 2847.71  188.68
  11   0   3 2901.61  188.68
  11   0   3 3023.30  188.68
 -12   1  -3   34.90    5.10
 -12   1  -3   32.90    5.60
  12  -1   3   24.50    3.80
  12  -1   3   30.30    4.40
  12  -1   3   28.20    3.40
 -13   2  -3   19.80    3.70
 -13   2  -3   28.10    4.40
  13  -2   3   21.70    2.60
  -9  -3  -3   45.90    4.30
   9   3   3   41.10    6.70
 -10  -2  -3    5.10    2.30
  10   2   3   15.20    5.50
  10   2   3    1.50    2.60
 -11  -1  -3  235.48   16.60
 -11  -1  -3  226.58   16.20
  11   1   3  236.08   16.10
 -12   0  -3    0.90    2.90
  12   0   3   -0.50    2.30
  12   0   3   -1.40    2.00
 -13   1  -3  644.74   45.40
 -13   1  -3  766.02   46.20
  13  -1   3  684.03   45.20
  13  -1   3  667.23   45.00
 -10  -3  -3    8.10    1.70
  10   3   3   14.50    4.40
 -11  -2  -3  763.82   53.39
  11   2   3  858.71   53.09
 -12  -1  -3   23.90    3.40
 -12  -1  -3   25.80    3.70
  12   1   3   22.00    3.50
 -13   0  -3   18.80    3.50
  13   0   3   16.30    2.50
  13   0   3   14.10    2.90
 -14   1  -3  214.88   14.10
 -14   1  -3  203.58   13.50
  14  -1   3  182.98   13.00
  14  -1   3  174.48   13.20
 -12  -2  -3  121.39    9.20
  12   2   3  125.39    9.20
 -13  -1  -3  673.43   44.10
 -14   0  -3   -1.00    2.70
 -14   0  -3    1.90    2.70
  14   0   3   -0.10    1.80
  14   0   3   -2.20    2.10
 -13  -2  -3   15.80    2.70
  13   2   3   14.90    2.30
 -14  -1  -3  177.08   12.00
  14   1   3  160.58   11.60
 -15   0  -3    8.50    2.40
 -15   0  -3   10.40    2.10
  15   0   3   10.90    1.90
  15   1  -4   69.99    5.00
  15   1  -4   57.49    5.70
  15   0  -4   -0.10    2.50
  15   0  -4    0.90    1.40
  15   0  -4    4.50    2.30
 -15   0   4    3.60    2.90
  14   1  -4  156.68   10.30
  14   1  -4  135.89   10.40
  13   2  -4   90.19    7.20
  13   2  -4   99.39    7.00
  15  -1  -4   59.99    5.10
  15  -1  -4   77.69    5.50
 -15   1   4   74.69    5.70
  14   0  -4  280.07   18.80
  14   0  -4  260.17   18.60
 -14   0   4  300.17   19.30
  13   1  -4  555.54   33.20
  13   1  -4  443.06   34.10
  12   2  -4   31.80    4.60
  12   2  -4   34.90    4.10
  11   3  -4  564.54   36.80
  14  -1  -4  162.98   11.20
  14  -1  -4  151.68   10.90
  14  -1  -4  149.79   11.20
  14  -1  -4  149.88   10.90
 -14   1   4  187.38   12.30
 -14   1   4  163.88   11.70
  13   0  -4   -0.20    1.80
  13   0  -4    0.10    2.50
  13   0  -4    1.90    1.90
  13   0  -4    4.50    2.60
  12   1  -4    0.20    2.00
  12   1  -4   -4.40    2.70
  12   1  -4    3.30    2.20
  11   2  -4   14.20    2.50
  11   2  -4   11.80    3.20
  10   3  -4  342.77   22.80
  13  -1  -4  520.85   40.40
  13  -1  -4  683.63   40.40
  13  -1  -4  645.34   40.40
  12   0  -4    3.70    2.50
  12   0  -4    4.90    1.90
  12   0  -4    7.80    2.80
  12   0  -4    5.10    2.30
  11   1  -4   17.50    2.80
  11   1  -4   10.20    3.10
  11   1  -4   13.30    2.90
  10   2  -4   99.49    8.00
  10   2  -4   94.89    7.60
   9   3  -4   14.80    3.10
  13  -2  -4  112.09    8.20
  13  -2  -4  123.79    8.70
  13  -2  -4  121.79    8.40
  13  -2  -4  110.99    8.30
 -13   2   4  119.79    9.10
 -13   2   4  127.99    9.60
  12  -1  -4    0.70    1.90
  12  -1  -4    1.60    2.40
  12  -1  -4   -1.10    2.40
  12  -1  -4   -0.30    1.90
  12  -1  -4    1.70    1.90
 -12   1   4   -1.20    3.60
  11   0  -4    2.80    2.20
  11   0  -4    1.50    2.30
  11   0  -4   -2.90    1.90
  11   0  -4   -1.10    2.10
  11   0  -4   -3.90    2.70
 -11   0   4   -6.20    3.90
  10   1  -4   42.00    5.00
  10   1  -4   37.50    4.30
   9   2  -4  255.57   18.20
   9   2  -4  272.27   18.30
   8   3  -4   75.69    7.60
  12  -2  -4   50.09    4.60
  12  -2  -4   45.40    4.40
  12  -2  -4   43.50    4.50
  12  -2  -4   50.69    5.10
  12  -2  -4   58.69    4.50
 -12   2   4   44.50    6.10
 -12   2   4   38.60    6.90
  11  -1  -4   21.70    2.80
  11  -1  -4   14.70    2.70
  11  -1  -4   18.60    3.00
  11  -1  -4   19.90    2.60
  11  -1  -4   16.50    3.00
 -11   1   4   23.10    5.50
 -11   1   4   11.10    4.70
  10   0  -4 1689.93  112.09
  10   0  -4 1672.93  112.19
  10   0  -4 1846.12  112.19
  10   0  -4 1813.82  112.29
  10   0  -4 1683.43  112.09
 -10   0   4 1682.63  112.39
   9   1  -4  109.59    8.70
   9   1  -4  101.09    8.40
   9   1  -4  112.39    8.90
   8   2  -4  915.51   57.89
   8   2  -4  849.72   57.79
   7   3  -4 1260.67   91.69
   7   3  -4 1562.84   93.29
  11  -2  -4   14.10    2.50
  11  -2  -4   18.50    2.80
  11  -2  -4   22.80    3.60
  11  -2  -4   19.60    2.80
 -11   2   4    9.80    4.10
  10  -1  -4   50.79    4.40
  10  -1  -4   44.60    4.80
  10  -1  -4   48.80    5.20
  10  -1  -4   47.60    4.00
 -10   1   4   54.29    6.20
   9   0  -4   -0.90    2.40
   9   0  -4   -0.70    2.00
   9   0  -4   -0.10    2.60
   9   0  -4    3.20    2.50
   9   0  -4    5.90    3.70
  -9   0   4   -0.60    2.10
   8   1  -4  140.79   11.10
   8   1  -4  148.39   10.40
   8   1  -4  142.99   10.40
   8   1  -4  135.29   10.30
   8   1  -4  127.79   10.80
   7   2  -4    5.10    3.00
   7   2  -4    6.30    3.10
   6   3  -4   42.40    5.40
   6   3  -4   46.00    7.40
  -5  -4   4    8.50    3.10
  11  -3  -4  663.63   47.30
  11  -3  -4  693.43   47.40
 -11   3   4  833.62   48.10
  10  -2  -4  131.79    9.20
  10  -2  -4  126.99   10.80
  10  -2  -4  123.09    9.10
  10  -2  -4  138.99    9.10
  10  -2  -4  124.69    8.90
 -10   2   4  113.59   11.10
 -10   2   4  115.09   13.20
   9  -1  -4  130.99    9.00
   9  -1  -4  130.19    9.50
   9  -1  -4  128.69    9.50
   9  -1  -4  143.99   10.10
   9  -1  -4  119.79    9.20
  -9   1   4  139.69   10.10
   8   0  -4 3382.46  203.78
  -8   0   4 2927.81  203.78
   7   1  -4  168.88   12.10
   6   2  -4  754.52   46.70
   6   2  -4  667.03   46.80
   5   3  -4  756.02   55.69
   5   3  -4  952.40   55.99
  -5  -3   4  838.92   55.49
  -4  -4   4  337.47   22.60
  10  -3  -4  404.56   26.70
  10  -3  -4  371.16   26.60
  10  -3  -4  357.06   26.80
 -10   3   4  470.55   28.90
 -10   3   4  431.86   27.60
   9  -2  -4  304.27   20.10
   9  -2  -4  311.17   20.00
   9  -2  -4  305.67   20.20
   9  -2  -4  288.37   19.90
   9  -2  -4  323.37   20.20
  -9   2   4  280.77   21.20
  -9   2   4  310.87   23.80
  -9   2   4  273.07   21.70
   8  -1  -4  158.78   11.90
   8  -1  -4  155.28   11.50
   8  -1  -4  159.28   11.20
   8  -1  -4  156.58   11.40
  -8   1   4  183.78   11.70
   7   0  -4    1.40    0.80
   7   0  -4    3.40    2.10
  -7   0   4   -0.40    1.10
   6   1  -4   17.00    3.20
  -6  -1   4   17.40    2.30
   5   2  -4    3.10    3.60
   5   2  -4   12.30    3.30
   4   3  -4  163.38   13.20
   4   3  -4  204.98   13.70
  -4  -3   4  179.08   12.90
  -3  -4   4   73.99    6.70
   9  -3  -4    8.10    2.90
   9  -3  -4   11.50    2.70
   9  -3  -4    8.50    1.90
   9  -3  -4    9.80    2.30
  -9   3   4   13.50    6.10
  -9   3   4    9.10    4.60
   8  -2  -4 1033.10   66.09
   8  -2  -4 1062.89   65.99
   8  -2  -4 1048.60   65.99
   8  -2  -4 1094.19   66.19
  -8   2   4  943.91   68.79
  -8   2   4 1051.79   66.79
  -8   2   4  875.51   67.09
   7  -1  -4  205.28   13.50
   7  -1  -4  196.68   13.80
  -7   1   4  212.28   14.00
   6   0  -4  132.29    8.50
  -6   0   4  120.09    8.50
  -5  -1   4 3935.21  253.77
   4   2  -4 1919.31  116.49
   4   2  -4 1706.83  116.19
   4   2  -4 1751.02  116.19
   3   3  -4 1593.34  106.69
   3   3  -4 1438.06  105.49
   3   3  -4 1728.83  105.79
  -3  -3   4 1736.53  105.29
   2   4  -4  110.49   12.60
  -2  -4   4  162.78   11.80
   8  -3  -4  106.19    7.70
   8  -3  -4   98.89    7.90
   8  -3  -4  105.09    8.00
   8  -3  -4   94.19    7.80
   8  -3  -4   95.09    8.10
  -8   3   4  102.29   13.50
  -8   3   4  127.59   11.80
   7  -2  -4    4.00    2.00
   7  -2  -4    2.00    1.90
   7  -2  -4    2.40    1.30
   7  -2  -4    1.80    2.40
  -7   2   4    3.50    3.30
  -7   2   4    2.10    9.60
   6  -1  -4   19.80    2.70
   6  -1  -4   18.80    1.80
  -6   1   4   21.30    2.70
   5   0  -4    0.30    0.70
   5   0  -4    0.10    0.70
  -5   0   4    1.20    0.70
  -4  -1   4 1610.84  103.99
   2   3  -4   16.70    7.10
   2   3  -4   18.50    4.20
  -2  -3   4   13.60    2.70
   1   4  -4    0.40    5.30
   7  -3  -4 1615.24  103.09
   7  -3  -4 1397.26  103.09
   7  -3  -4 1599.04  103.29
   7  -3  -4 1574.74  103.19
  -7   3   4 1518.35  104.29
  -7   3   4 1780.32  104.59
  -7   3   4 1674.03  105.59
   6  -2  -4  888.91   57.09
   6  -2  -4  910.81   57.19
   6  -2  -4  928.91   57.29
   6  -2  -4  915.51   56.99
  -6   2   4  845.32   59.19
  -6   2   4  735.93   59.99
  -6   2   4  916.81   57.69
   5  -1  -4 4605.64  297.37
   5  -1  -4 5087.29  297.27
  -5   1   4 4139.09  297.47
   4   0  -4 1064.79   65.79
   4   0  -4 1084.39   65.89
  -4   0   4  908.41   65.89
   3   1  -4 3273.57  223.98
  -3  -1   4 3674.43  223.88
   1   3  -4  239.48   17.70
   1   3  -4  247.08   19.80
   1   3  -4  276.07   18.30
  -1  -3   4  259.27   17.30
   0   4  -4  946.51   64.39
   0  -4   4  889.41   63.19
   0  -4   4 1093.19   64.19
   6  -3  -4   46.20    5.10
   6  -3  -4   59.99    4.80
   6  -3  -4   52.59    4.60
   6  -3  -4   48.20    5.90
  -6   3   4   46.70    8.80
  -6   3   4   51.89   10.70
  -6   3   4   48.70    8.30
   5  -2  -4    4.90    2.40
   5  -2  -4    2.10    2.60
   5  -2  -4    9.70    2.20
   5  -2  -4    7.90    1.60
  -5   2   4    5.20    2.50
  -5   2   4    6.80   10.00
  -5   2   4    2.10    8.30
   4  -1  -4 1803.82  116.69
   4  -1  -4 1877.21  116.79
  -4   1   4 1745.83  116.99
   3   0  -4    0.70    0.60
   3   0  -4    0.50    0.50
   2   1  -4   56.39    4.00
  -2  -1   4   59.39    3.90
  -1  -2   4  269.17   17.70
   0   3  -4   16.20    3.40
   0   3  -4   10.10    5.60
   0   3  -4    3.80    3.80
   0  -3   4    4.50    2.10
   1  -4   4   47.60    5.30
   1  -4   4   45.80    4.50
   5  -3  -4  967.40   59.09
   5  -3  -4  899.11   58.89
   5  -3  -4  998.20   59.19
   5  -3  -4  896.41   58.89
  -5   3   4  775.32   60.29
  -5   3   4  944.11   60.69
  -5   3   4  857.11   61.69
   4  -2  -4 2209.78  134.69
   4  -2  -4 2184.18  134.49
  -4   2   4 1844.32  136.89
  -4   2   4 2088.09  134.99
   3  -1  -4 3444.96  215.88
   3  -1  -4 3453.65  215.88
  -3   1   4 3147.69  216.08
   2   0  -4  488.95   34.40
   2   0  -4  585.84   34.40
  -2   0   4  520.65   34.40
   1   1  -4  201.88   13.40
  -1  -1   4  207.78   13.30
   0  -2   4  865.51   56.09
  -1   3  -4   44.80    8.90
  -1   3  -4   44.80    6.30
  -1   3  -4   58.49   11.40
   1  -3   4   45.60    5.20
   1  -3   4   46.20    4.50
  -2   4  -4  810.22   50.79
   2  -4   4  714.83   49.50
   2  -4   4  755.52   49.40
   5  -4  -4    5.00    1.50
  -5   4   4    9.30    4.30
  -5   4   4   12.00    5.60
   4  -3  -4  191.88   12.30
   4  -3  -4  190.68   12.10
   4  -3  -4  174.98   12.10
   4  -3  -4  188.78   12.40
  -4   3   4  174.98   15.10
  -4   3   4  154.98   14.70
  -4   3   4  161.38   17.10
  -4   3   4  152.18   13.50
   3  -2  -4  329.37   21.00
   3  -2  -4  314.07   21.20
  -3   2   4  315.27   21.50
   2  -1  -4   60.59    3.80
   2  -1  -4   52.89    3.70
  -2   1   4   49.60    4.00
   1   0  -4    1.50    0.40
   0   1  -4  117.99    7.80
   1  -2   4  127.99    8.60
  -2   3  -4 1241.88   79.19
  -2   3  -4 1126.29   80.99
  -2   3  -4 1236.98   80.29
   2  -3   4 1235.78   78.59
   2  -3   4 1211.18   78.79
  -3   4  -4    4.50    3.90
   3  -4   4   -0.90    2.50
   3  -4   4    6.20    4.70
   4  -4  -4  324.27   22.60
   4  -4  -4  334.27   22.90
  -4   4   4  353.66   23.90
  -4   4   4  370.36   25.60
   3  -3  -4 1531.85   97.59
   3  -3  -4 1573.44   97.89
   3  -3  -4 1503.75   97.59
  -3   3   4 1605.14   98.29
  -3   3   4 1384.26  100.39
  -3   3   4 1436.86   98.39
  -3   3   4 1514.35   99.59
   2  -2  -4  519.05   34.80
  -2   2   4  551.34   35.30
   1  -1  -4  179.98   12.50
   1  -1  -4  202.68   12.50
   1  -1  -4  191.88   12.60
  -1   1   4  193.48   12.70
   0   0  -4  115.29    7.30
   0   0  -4  107.59    7.20
  -1   1  -4  209.08   12.90
  -1   1  -4  195.98   12.80
   1  -1   4  187.58   12.90
   2  -2   4 6901.31  444.76
  -3   3  -4 1409.96   96.69
  -3   3  -4 1498.55   96.09
   3  -3   4 1502.15   94.59
   3  -3   4 1416.46   94.39
  -4   4  -4  131.89   14.60
  -4   4  -4  138.39   10.80
   4  -4   4  129.09    9.40
   3  -4  -4   86.79    6.60
   3  -4  -4   64.99    5.40
   3  -4  -4   73.09    5.50
  -3   4   4   80.89    8.20
  -3   4   4   66.09   11.20
   2  -3  -4   17.70    2.40
   2  -3  -4   19.10    3.40
   2  -3  -4   16.50    2.60
  -2   3   4    6.50    5.40
  -2   3   4   10.80    5.70
  -2   3   4   27.90   10.90
  -2   3   4   10.60    4.20
   1  -2  -4  251.07   16.90
   1  -2  -4  269.27   17.10
  -1   2   4  249.28   17.40
   0  -1  -4  110.29    7.30
   0  -1  -4  113.99    7.30
   0  -1  -4  102.69    7.30
   0   1   4  114.79    7.50
  -1   0  -4    1.40    0.40
  -2   1  -4  120.79    8.10
  -2   1  -4  120.59    8.10
   2  -1   4  127.89    8.10
  -3   2  -4 2338.87  168.88
   3  -2   4 2710.73  169.18
   3  -2   4 2806.52  168.98
  -4   3  -4   53.49    8.00
  -4   3  -4   36.40    7.90
   4  -3   4   41.70    5.20
   4  -3   4   40.80    5.00
   4  -3   4   43.40    4.60
   2  -4  -4  114.69    8.70
   2  -4  -4  120.99    8.20
   2  -4  -4  116.79    8.30
  -2   4   4  121.49    9.70
  -2   4   4  114.19   16.80
  -2   4   4  117.79   10.90
   1  -3  -4  214.78   14.80
   1  -3  -4  230.48   15.00
   1  -3  -4  208.18   14.70
  -1   3   4  216.68   18.40
  -1   3   4  220.48   16.10
  -1   3   4  225.28   16.80
  -1   3   4  206.78   23.10
   0  -2  -4  804.12   52.79
   0  -2  -4  834.62   52.69
   0   2   4  799.82   53.09
  -1  -1  -4  198.98   13.00
  -1  -1  -4  206.58   13.10
   1   1   4  190.68   13.20
  -2   0  -4  925.21   59.79
  -3   1  -4 1275.47   78.29
  -3   1  -4 1150.88   78.39
  -4   2  -4  586.04   38.40
  -4   2  -4  553.44   36.40
  -4   2  -4  483.65   39.10
   4  -2   4  551.84   36.60
   4  -2   4  604.74   36.20
  -5   3  -4 1100.49   67.49
  -5   3  -4  940.11   66.89
  -5   3  -4  984.50   67.99
   5  -3   4  974.20   66.09
   5  -3   4 1060.69   65.89
   1  -4  -4    8.90    2.20
   1  -4  -4    9.70    2.40
   1  -4  -4    6.40    1.70
  -1   4   4   15.80    4.70
  -1   4   4   14.40    3.80
   0  -3  -4    9.80    2.10
   0  -3  -4   12.00    2.60
   0   3   4   13.60    6.50
   0   3   4    8.80    5.80
   0   3   4   11.00    4.00
   0   3   4   36.00   13.80
  -1  -2  -4  124.09    8.10
  -1  -2  -4  109.29    7.80
   1   2   4  113.59    8.40
  -2  -1  -4  120.19    8.60
   2   1   4  139.29    8.80
  -3   0  -4   -0.10    0.50
  -4   1  -4  294.67   19.30
   4  -1   4  296.47   19.20
  -5   2  -4   68.19    9.90
  -5   2  -4   53.59    7.80
  -5   2  -4   52.19   10.00
  -5   2  -4   56.99    5.60
   5  -2   4   66.99    7.20
   5  -2   4   63.59    4.60
   5  -2   4   61.99    5.90
  -6   3  -4   24.00    6.00
  -6   3  -4   18.10    4.80
   6  -3   4   20.50    4.00
   6  -3   4   23.60    3.10
   6  -3   4   13.40    3.20
   0  -4  -4  837.92   57.59
   0  -4  -4  871.21   57.39
   0   4   4  931.61   59.09
   0   4   4  902.81   58.09
  -1  -3  -4   38.20    5.00
  -1  -3  -4   33.60    3.50
  -1  -3  -4   29.80    3.90
   1   3   4   33.30    5.40
   1   3   4   39.70    8.00
  -2  -2  -4 5855.61  383.46
  -2  -2  -4 6138.39  383.26
  -2  -2  -4 5661.33  383.36
   2   2   4 6131.99  383.76
  -3  -1  -4 1258.67   86.49
   3   1   4 1418.76   86.69
  -4   0  -4 2854.51  184.08
  -6   2  -4 1278.37   79.69
  -6   2  -4 1261.97   80.99
  -6   2  -4 1230.58   80.59
  -6   2  -4 1132.09   81.49
   6  -2   4 1220.78   79.59
   6  -2   4 1201.28   79.59
   6  -2   4 1253.27   79.29
  -7   3  -4 1090.79   71.69
  -7   3  -4 1023.30   71.39
  -7   3  -4 1193.58   72.59
   7  -3   4 1033.70   70.59
  -1  -4  -4   41.40    4.00
  -1  -4  -4   39.40    4.60
   1   4   4   44.70    8.30
   1   4   4   50.59    6.00
  -2  -3  -4  887.11   59.19
  -2  -3  -4  955.20   59.59
  -2  -3  -4  842.42   59.09
   2   3   4  899.91   61.49
   2   3   4  960.30   60.09
  -3  -2  -4 2233.58  146.69
  -3  -2  -4 2307.37  146.89
   3   2   4 2275.87  147.09
  -4  -1  -4  266.27   17.50
  -5   0  -4   -0.20    0.90
  -6   1  -4  614.04   40.50
   6  -1   4  628.34   40.30
  -7   2  -4   36.90    7.00
  -7   2  -4   15.20    4.10
   7  -2   4   15.00    3.20
   7  -2   4   27.00    3.80
   7  -2   4   24.30    2.90
  -8   3  -4  117.59   11.60
  -8   3  -4  139.79   11.70
   8  -3   4  133.09    9.30
   8  -3   4  113.79   10.20
  -2  -4  -4  639.94   41.30
  -2  -4  -4  554.74   41.50
   2   4   4  672.83   42.10
   2   4   4  677.53   43.30
  -3  -3  -4 1050.69   70.59
  -3  -3  -4 1048.80   70.59
  -3  -3  -4 1165.98   71.19
   3   3   4 1122.89   71.59
   3   3   4 1047.50   72.79
  -4  -2  -4  494.65   30.70
  -4  -2  -4  454.25   30.50
   4   2   4  476.55   30.90
   4   2   4  436.96   31.70
  -6   0  -4 3871.81  249.78
  -7   1  -4 2861.41  191.48
   7  -1   4 3023.00  191.18
   7  -1   4 3007.10  191.38
  -8   2  -4  137.09   13.30
  -8   2  -4  119.99   12.90
  -8   2  -4  144.69   11.90
  -8   2  -4  150.68   11.10
  -8   2  -4  147.79   11.60
   8  -2   4  126.59    9.50
   8  -2   4  134.29   10.10
   8  -2   4  127.49   10.00
  -9   3  -4  581.34   41.50
  -9   3  -4  659.83   41.10
   9  -3   4  603.64   40.10
  -3  -4  -4    2.30    1.60
  -3  -4  -4    0.90    2.80
   3   4   4    7.90    2.90
   3   4   4    5.10    4.50
  -4  -3  -4   23.50    3.70
  -4  -3  -4   28.70    4.80
  -4  -3  -4   27.50    3.30
   4   3   4   38.50    6.20
   4   3   4   31.40    7.60
  -5  -2  -4   48.70    4.40
   5   2   4   39.00    7.00
   5   2   4   46.30    5.70
   5   2   4   55.59   13.90
   5   2   4   50.99    7.50
  -6  -1  -4  530.05   34.70
  -7   0  -4   -0.50    1.10
   7   0   4   -2.10    2.40
  -8   1  -4   49.80    4.90
  -8   1  -4   52.39    6.80
  -8   1  -4   40.40    7.60
  -8   1  -4   52.39   12.90
   8  -1   4   59.29    5.60
   8  -1   4   58.09    5.70
   8  -1   4   55.99    4.10
  -9   2  -4   77.29    8.10
  -9   2  -4   79.59    7.90
  -9   2  -4   76.29    9.70
   9  -2   4   73.79    6.80
   9  -2   4   76.59    6.10
   9  -2   4   76.69    6.20
   9  -2   4   71.39    6.50
 -10   3  -4    5.30    4.10
 -10   3  -4    3.10    3.80
  10  -3   4    2.60    1.40
  -4  -4  -4  117.89    8.70
  -4  -4  -4  122.89    8.20
   4   4   4  111.49   13.70
   4   4   4  116.69    9.20
  -5  -3  -4  731.83   47.70
  -5  -3  -4  711.43   47.70
   5   3   4  806.92   48.90
   5   3   4  672.73   49.80
  -6  -2  -4  890.41   60.69
  -6  -2  -4 1008.80   60.49
   6   2   4  934.01   61.29
   6   2   4  901.41   60.79
   6   2   4  892.01   60.59
  -7  -1  -4 2529.95  163.48
  -8   0  -4 3685.23  273.67
  -8   0  -4 3940.41  273.57
   8   0   4 4667.13  273.67
   8   0   4 4663.03  273.77
  -9   1  -4  902.41   59.09
  -9   1  -4  844.72   60.39
  -9   1  -4  892.11   58.49
  -9   1  -4  843.72   58.29
   9  -1   4  931.31   58.09
   9  -1   4  886.01   58.09
   9  -1   4  941.21   58.19
 -10   2  -4  497.45   34.50
 -10   2  -4  461.05   33.10
 -10   2  -4  499.55   33.80
  10  -2   4  503.05   33.00
  10  -2   4  485.05   32.70
  10  -2   4  535.75   32.70
  -6  -3  -4   14.20    3.00
  -6  -3  -4   18.70    2.60
   6   3   4   14.30    4.30
  -7  -2  -4   24.10    4.80
  -7  -2  -4   21.20    3.40
   7   2   4   13.80    4.10
   7   2   4   23.70    5.80
   7   2   4   14.40    5.30
  -8  -1  -4   44.20    4.40
  -8  -1  -4   47.90    6.40
   8   1   4   54.09    6.90
   8   1   4   55.89    7.10
   8   1   4   39.30    7.20
  -9   0  -4    1.10    1.90
  -9   0  -4   -0.20    3.60
  -9   0  -4   13.80    5.20
   9   0   4   -1.60    3.20
   9   0   4    0.90    2.40
 -10   1  -4   15.50    3.80
 -10   1  -4   23.30    4.50
 -10   1  -4   25.70    4.90
  10  -1   4   24.50    4.40
  10  -1   4   23.50    3.70
  10  -1   4   20.80    3.00
 -11   2  -4   10.40    4.00
 -11   2  -4   12.50    8.00
 -11   2  -4    4.60    7.70
  11  -2   4    4.50    1.90
  11  -2   4    9.50    3.50
  -7  -3  -4  883.51   53.79
  -7  -3  -4  776.22   53.79
   7   3   4  817.32   54.59
  -8  -2  -4   99.49    8.80
  -8  -2  -4  115.19    8.80
   8   2   4   92.89   10.00
   8   2   4  105.79    9.10
  -9  -1  -4  750.42   48.90
  -9  -1  -4  706.93   49.00
   9   1   4  811.32   49.30
   9   1   4  649.04   49.60
   9   1   4  790.02   49.00
   9   1   4  762.22   49.10
 -10   0  -4  229.48   17.30
 -10   0  -4  227.78   15.70
  10   0   4  224.48   15.90
  10   0   4  254.97   16.70
  10   0   4  200.88   15.60
 -11   1  -4   60.19    7.40
 -11   1  -4   59.59    6.90
 -11   1  -4   58.09    6.00
  11  -1   4   46.20    5.70
  11  -1   4   48.10    5.60
  11  -1   4   54.09    4.90
 -12   2  -4 1145.79   71.29
 -12   2  -4 1201.78   71.89
 -12   2  -4  923.81   70.69
  12  -2   4 1078.89   70.49
  -8  -3  -4   83.79    6.80
  -8  -3  -4   68.89    7.20
   8   3   4   94.99    8.80
  -9  -2  -4   62.89    5.90
   9   2   4   52.99    6.20
   9   2   4   53.19    7.90
 -10  -1  -4   15.70    3.50
 -10  -1  -4   13.10    3.20
 -10  -1  -4   15.70    3.90
  10   1   4   12.40    6.80
  10   1   4   15.60    3.30
  10   1   4   14.10    5.30
 -11   0  -4    1.20    3.10
 -11   0  -4    6.40    3.60
  11   0   4    5.90    2.90
  11   0   4    1.00    3.10
  11   0   4    0.70    2.10
 -12   1  -4  970.10   59.99
 -12   1  -4  871.81   59.99
 -12   1  -4  897.71   60.29
  12  -1   4  941.01   59.59
  12  -1   4  928.81   59.69
  12  -1   4  883.21   59.79
 -13   2  -4  252.37   16.40
 -13   2  -4  233.98   16.10
  13  -2   4  222.88   15.70
  -9  -3  -4  414.16   26.80
   9   3   4  399.96   27.50
 -10  -2  -4  361.96   24.10
  10   2   4  328.97   24.90
  10   2   4  386.96   24.30
 -11  -1  -4   47.70    5.90
 -11  -1  -4   56.19    5.90
  11   1   4   50.49    5.20
 -12   0  -4 3632.24  257.57
 -12   0  -4 4060.49  257.57
  12   0   4 4071.59  257.27
  12   0   4 4176.08  257.37
 -13   1  -4  612.94   37.80
 -13   1  -4  499.25   37.60
 -13   1  -4  556.04   37.80
  13  -1   4  621.04   37.80
  13  -1   4  547.45   37.40
 -10  -3  -4    4.70    1.50
  10   3   4    0.90    4.10
 -11  -2  -4    1.30    2.80
  11   2   4    4.10    2.90
  11   2   4    7.80    7.20
 -12  -1  -4  803.72   51.89
 -12  -1  -4  791.32   52.09
  12   1   4  786.02   51.89
 -13   0  -4    3.80    2.70
 -13   0  -4    1.00    2.40
  13   0   4    4.80    3.90
  13   0   4   -1.80    1.90
 -14   1  -4    3.50    2.20
 -14   1  -4    4.60    2.90
  14  -1   4    0.90    1.50
 -12  -2  -4  774.82   48.80
  12   2   4  718.53   48.70
 -13  -1  -4  518.65   33.90
 -13  -1  -4  494.35   33.40
 -14   0  -4  136.49   10.60
 -14   0  -4  156.48   10.50
  14   0   4  137.69   10.10
 -13  -2  -4  181.78   11.70
 -13  -2  -4  175.18   11.90
  13   2   4  164.48   11.80
 -14  -1  -4    0.10    2.10
  14   1   4    0.90    1.60
 -15   0  -4    1.70    2.00
 -15   0  -4   -0.40    1.80
  15   0   4   -0.80    1.20
  15   0  -5  183.88   12.50
  15   0  -5  185.18   12.40
  14   1  -5   18.70    3.00
  14   1  -5   21.10    3.10
  13   2  -5   15.10    2.30
  14   0  -5   -0.30    1.60
  14   0  -5   -0.30    1.90
  14   0  -5    0.10    2.90
 -14   0   5   -2.00    3.60
  13   1  -5  168.58   12.20
  12   2  -5   13.30    2.50
  12   2  -5   14.60    3.00
  14  -1  -5   21.90    2.80
  14  -1  -5   15.30    2.70
  14  -1  -5   19.90    2.90
 -14   1   5   24.00    3.70
  13   0  -5  117.69    8.70
  13   0  -5  124.29    8.80
  13   0  -5  123.19    9.20
  12   1  -5  659.53   46.60
  12   1  -5  720.03   46.60
  12   1  -5  755.32   46.70
  11   2  -5   98.59    9.40
  11   2  -5  106.49    8.00
  10   3  -5   65.79    5.60
  13  -1  -5  213.08   13.70
  13  -1  -5  193.58   13.90
  13  -1  -5  166.58   13.70
 -13   1   5  219.38   15.30
  12   0  -5    1.80    2.00
  12   0  -5    1.30    1.70
  12   0  -5    1.70    2.90
  12   0  -5    1.80    3.60
  12   0  -5   -3.10    1.80
  11   1  -5    9.30    3.10
  11   1  -5    3.30    2.00
  11   1  -5    5.40    2.70
  10   2  -5    8.20    3.30
  10   2  -5    7.10    2.30
   9   3  -5  117.49    9.10
  13  -2  -5   14.30    2.10
  13  -2  -5   15.50    2.30
 -13   2   5   13.10    3.10
  12  -1  -5  829.82   53.09
  12  -1  -5  838.02   52.89
  12  -1  -5  748.83   52.99
  12  -1  -5  885.51   52.99
  12  -1  -5  778.42   52.89
 -12   1   5  794.32   53.89
  11   0  -5  748.43   45.10
  11   0  -5  673.13   44.90
  11   0  -5  606.54   45.00
  11   0  -5  673.93   45.00
  11   0  -5  735.23   45.10
  10   1  -5  180.88   13.70
  10   1  -5  203.68   14.00
  10   1  -5  203.88   14.20
   9   2  -5 2103.89  136.59
   9   2  -5 2109.39  136.49
  12  -2  -5   19.40    3.30
  12  -2  -5   12.40    2.20
  12  -2  -5   15.50    2.70
 -12   2   5   12.20    4.20
  11  -1  -5    2.80    2.30
  11  -1  -5   10.20    3.10
  11  -1  -5    1.50    2.10
  11  -1  -5    4.80    2.00
 -11   1   5    5.00    5.80
 -11   1   5    0.10    4.00
  10   0  -5    1.60    2.20
  10   0  -5   -0.60    2.10
  10   0  -5    8.70    3.40
  10   0  -5    3.50    2.30
  10   0  -5    0.40    2.00
 -10   0   5    0.20    3.90
   9   1  -5   31.60    4.10
   9   1  -5   30.40    5.10
   9   1  -5   31.80    5.40
   9   1  -5   31.10    4.60
   8   2  -5  130.19   10.10
   8   2  -5  133.19   10.30
   7   3  -5   63.49    6.40
  -7  -3   5   71.99    6.40
  11  -2  -5  136.09    9.30
  11  -2  -5  119.79    9.40
  11  -2  -5  132.29    9.10
  11  -2  -5  116.29    9.00
 -11   2   5  155.88   17.20
 -11   2   5  123.69   11.10
  10  -1  -5  213.78   14.60
  10  -1  -5  220.28   14.60
  10  -1  -5  222.88   14.60
  10  -1  -5  227.28   14.40
 -10   1   5  208.98   15.60
 -10   1   5  177.18   16.60
   9   0  -5   71.29    8.20
   9   0  -5   77.49    6.20
   9   0  -5   84.99    6.50
   9   0  -5   64.99    6.40
   9   0  -5   74.89    6.10
  -9   0   5   80.69    6.80
   8   1  -5  292.37   19.00
   8   1  -5  284.67   19.40
   8   1  -5  279.37   19.10
   8   1  -5  281.27   19.30
   8   1  -5  259.97   18.90
   8   1  -5  267.87   19.00
   6   3  -5   97.59    9.90
   6   3  -5   96.79    8.30
  -6  -3   5  108.69    8.30
  10  -2  -5   12.20    3.00
  10  -2  -5    5.70    1.80
  10  -2  -5    9.00    2.00
  10  -2  -5    7.10    2.90
 -10   2   5    4.20    4.30
 -10   2   5    3.60    6.60
   9  -1  -5   39.80    5.50
   9  -1  -5   47.80    4.40
   9  -1  -5   54.59    4.70
   9  -1  -5   49.99    3.90
  -9   1   5   33.70    6.60
   8   0  -5    2.80    2.00
   8   0  -5   -1.50    2.40
  -8   0   5   -2.30    1.80
   7   1  -5  136.69   11.70
   7   1  -5  141.79   10.20
   6   2  -5   31.20    4.30
   6   2  -5   34.50    5.60
   6   2  -5   29.70    4.70
   5   3  -5   14.20    3.30
   5   3  -5    6.40    4.50
  -5  -3   5   13.60    3.00
  -4  -4   5    5.80    2.80
  10  -3  -5   59.19    5.20
  10  -3  -5   64.39    4.80
 -10   3   5   75.49    8.60
 -10   3   5   50.79    6.90
   9  -2  -5 2373.46  154.48
   9  -2  -5 2466.15  154.38
   9  -2  -5 2532.95  154.28
   9  -2  -5 2270.47  154.98
   9  -2  -5 2558.04  154.28
  -9   2   5 2353.16  155.08
  -9   2   5 2075.79  155.28
  -9   2   5 2466.85  156.38
   8  -1  -5  322.07   20.90
   8  -1  -5  295.47   20.70
   8  -1  -5  320.57   20.50
   8  -1  -5  309.67   21.00
   8  -1  -5  302.87   20.80
  -8   1   5  320.67   21.20
   7   0  -5 3930.11  242.98
   7   0  -5 3859.41  242.78
  -7   0   5 3501.65  242.88
   6   1  -5  716.73   46.90
   5   2  -5   15.40    3.20
   5   2  -5    8.80    2.90
   5   2  -5   11.90    3.70
   4   3  -5   81.59    8.60
   4   3  -5   88.29    7.70
  -4  -3   5   91.69    7.40
  -3  -4   5   33.20    5.00
   9  -3  -5  125.59    8.70
   9  -3  -5  118.39    8.80
   9  -3  -5  115.19    8.60
  -9   3   5  119.09   11.00
  -9   3   5  139.29   12.60
   8  -2  -5  168.38   10.90
   8  -2  -5  152.58   11.20
   8  -2  -5  159.48   11.70
   8  -2  -5  163.08   11.10
   8  -2  -5  165.68   11.20
  -8   2   5  164.78   12.50
  -8   2   5  127.79   17.10
   7  -1  -5  159.08   11.20
   7  -1  -5  133.99   12.20
   7  -1  -5  171.88   10.90
  -7   1   5  177.28   11.50
   6   0  -5   -0.20    0.70
   6   0  -5    2.30    2.50
  -6   0   5    0.50    1.10
   4   2  -5   -2.50    3.20
   4   2  -5    4.10    2.80
   3   3  -5  134.49   15.40
   3   3  -5  158.38   11.60
   3   3  -5  146.59   10.90
  -3  -3   5  129.29   10.30
  -2  -4   5    7.90    3.20
   8  -3  -5   16.90    2.70
   8  -3  -5   21.20    3.20
   8  -3  -5   19.30    3.30
  -8   3   5   18.60    6.50
  -8   3   5    9.40    7.10
   7  -2  -5  665.73   46.70
   7  -2  -5  687.13   46.50
   7  -2  -5  717.73   46.80
  -7   2   5  745.63   47.40
  -7   2   5  767.52   52.89
   6  -1  -5  795.32   53.99
   6  -1  -5  877.71   53.79
  -6   1   5  818.82   54.19
   5   0  -5 2058.79  126.09
   5   0  -5 1969.40  126.09
  -5   0   5 1832.02  126.09
   4   1  -5   24.90    2.50
   3   2  -5   81.59    7.50
   2   3  -5  632.34   42.50
   2   3  -5  682.73   41.40
   2   3  -5  531.05   40.90
  -2  -3   5  636.84   40.70
   1   4  -5   10.90    5.40
  -1  -4   5    4.10    3.30
   7  -3  -5   66.99    6.20
   7  -3  -5   84.69    6.30
   7  -3  -5   80.99    6.00
   7  -3  -5   82.69    6.50
  -7   3   5   94.89   11.10
  -7   3   5   78.29    9.40
  -7   3   5   69.09   11.50
   6  -2  -5   44.30    3.70
   6  -2  -5   45.20    4.30
   6  -2  -5   41.40    4.50
   6  -2  -5   44.60    4.50
   6  -2  -5   45.60    6.20
  -6   2   5   43.60   11.50
  -6   2   5   39.30    7.10
  -6   2   5   57.79   12.40
   5  -1  -5 1327.37   82.89
   5  -1  -5 1454.65   83.49
   5  -1  -5 1181.68   83.09
  -5   1   5 1172.58   83.19
   4   0  -5    0.40    0.70
   4   0  -5   -0.50    0.60
  -4   0   5    1.90    0.80
   3   1  -5 1814.02  117.09
   1   3  -5    3.20    3.70
   1   3  -5   10.70    3.20
   1   3  -5    3.30    5.40
  -1  -3   5   -0.10    2.30
   0   4  -5    8.40    4.50
   0  -4   5    2.50    3.40
   0  -4   5   15.40    2.50
   6  -3  -5  122.49    8.50
   6  -3  -5  106.39    8.40
   6  -3  -5  127.89    8.90
   6  -3  -5  117.59    8.30
  -6   3   5   94.19   11.40
  -6   3   5  118.49   13.50
  -6   3   5  123.29   11.50
   5  -2  -5   17.20    2.80
   5  -2  -5   20.30    3.60
   5  -2  -5   19.90    3.10
   5  -2  -5   21.00    3.50
   5  -2  -5   16.50    2.30
  -5   2   5    8.20    8.20
  -5   2   5   12.80   10.30
   4  -1  -5   29.50    2.20
   4  -1  -5   28.20    2.40
   3   0  -5  238.08   14.10
   3   0  -5  219.08   14.00
  -3   0   5  187.88   14.00
   2   1  -5  650.33   41.40
  -2  -1   5  628.74   41.30
  -1  -2   5   50.99    3.90
   0   3  -5  416.06   26.30
   0   3  -5  421.16   27.90
   0   3  -5  335.67   25.70
   0  -3   5  364.96   25.40
   5  -3  -5   21.00    3.00
   5  -3  -5   18.70    3.30
  -5   3   5   17.90    5.00
  -5   3   5   13.90    6.40
  -5   3   5   20.50    7.30
   4  -2  -5    2.00    2.30
   4  -2  -5    4.20    1.20
   4  -2  -5    4.90    3.00
  -4   2   5   -3.30    8.30
  -4   2   5    4.10    2.40
  -4   2   5    9.00   10.00
   3  -1  -5 1951.40  121.79
   3  -1  -5 1960.30  121.69
  -3   1   5 1749.03  121.99
   2   0  -5    0.10    0.60
   2   0  -5   -0.10    0.50
  -2   0   5    1.30    0.60
   1   1  -5  244.28   15.90
   0  -2   5  374.16   24.50
  -1   3  -5  272.77   18.80
  -1   3  -5  285.67   20.30
  -1   3  -5  222.48   21.20
   1  -3   5  267.77   17.90
   1  -3   5  274.87   18.30
  -2   4  -5  220.68   16.30
   4  -3  -5   76.99    6.20
   4  -3  -5   82.79    6.20
   4  -3  -5   81.69    6.50
   4  -3  -5   91.49    6.60
  -4   3   5   76.49    8.60
  -4   3   5   62.79   10.60
  -4   3   5   78.39   13.50
  -4   3   5   84.19   10.10
   3  -2  -5   91.49    5.90
   3  -2  -5   86.89    6.50
   3  -2  -5   73.79    6.40
  -3   2   5  102.59   20.00
  -3   2   5   77.89    6.70
  -2   1   5  602.44   39.20
   1   0  -5   37.70    2.70
   0   1  -5  346.97   22.50
   1  -2   5  113.49    7.70
  -2   3  -5  118.89   13.40
  -2   3  -5  137.09   12.20
   2  -3   5  115.49    9.20
   2  -3   5  117.49    8.80
  -3   4  -5  416.86   29.60
  -3   4  -5  452.45   31.70
   4  -4  -5    7.20    2.20
   4  -4  -5    1.00    1.50
   4  -4  -5    4.30    2.20
  -4   4   5   -2.70    6.60
  -4   4   5    0.20    3.40
   3  -3  -5  140.79    9.60
   3  -3  -5  140.79    9.60
   3  -3  -5  143.89    9.90
  -3   3   5  127.49   16.50
  -3   3   5  119.29   12.70
  -3   3   5  132.29   13.40
  -3   3   5  130.29   11.50
   2  -2  -5  451.05   31.30
   2  -2  -5  496.05   31.10
  -2   2   5  484.55   31.60
   1  -1  -5  206.98   14.40
   1  -1  -5  239.08   14.50
   1  -1  -5  223.88   14.50
  -1   1   5  213.88   14.70
   0   0  -5    0.60    0.30
   0   0  -5    0.60    0.50
  -1   1  -5  320.07   21.10
   1  -1   5  328.47   21.00
   2  -2   5 1353.56   89.99
   2  -2   5 1423.26   89.69
  -3   3  -5   64.99    8.50
  -3   3  -5   46.40   10.00
   3  -3   5   43.80    5.80
   3  -3   5   45.40    5.00
   3  -3   5   52.19    5.70
  -4   4  -5  318.17   23.10
  -4   4  -5  292.87   21.10
   3  -4  -5   28.30    4.30
   3  -4  -5   20.40    2.70
   3  -4  -5   27.40    2.80
  -3   4   5   39.00    6.40
  -3   4   5   27.20    8.00
   2  -3  -5  568.34   36.70
   2  -3  -5  576.04   36.40
   2  -3  -5  564.84   36.40
  -2   3   5  556.74   37.30
  -2   3   5  573.24   37.90
  -2   3   5  515.95   38.70
  -2   3   5  536.45   40.90
   1  -2  -5   49.20    3.70
   1  -2  -5   48.60    3.90
  -1   2   5   46.00    4.60
   0  -1  -5  334.07   20.60
   0  -1  -5  291.97   20.50
   0  -1  -5  318.17   20.60
   0   1   5  320.47   20.80
  -1   0  -5 2551.74  164.48
  -2   1  -5  192.08   11.90
  -2   1  -5  170.98   11.90
   2  -1   5  183.48   11.90
  -3   2  -5  218.38   17.50
  -3   2  -5  189.88   18.50
   3  -2   5  228.38   15.00
   3  -2   5  226.08   14.40
  -4   3  -5 1802.22  119.99
  -4   3  -5 1978.60  119.69
   4  -3   5 1596.74  118.79
   4  -3   5 1920.71  118.19
   2  -4  -5   14.50    4.10
   2  -4  -5    6.40    1.50
   2  -4  -5    6.80    1.50
  -2   4   5   -0.50    3.80
  -2   4   5    4.20    4.10
  -2   4   5    0.00    8.20
   1  -3  -5   -3.10    3.00
   1  -3  -5    3.00    2.20
   1  -3  -5    1.20    1.80
  -1   3   5   -0.50    6.10
  -1   3   5   -2.30   11.40
  -1   3   5   -3.60    5.70
  -1   3   5   -0.10    3.90
   0  -2  -5  214.08   15.20
   0  -2  -5  248.98   15.40
   0   2   5  228.88   15.80
  -1  -1  -5  303.67   20.10
  -1  -1  -5  279.87   20.00
  -1  -1  -5  328.27   20.10
   1   1   5  322.87   20.30
  -2   0  -5    0.90    0.60
  -2   0  -5    0.00    0.50
  -3   1  -5    3.20    0.70
   3  -1   5    3.90    1.00
  -4   2  -5   16.00    6.90
  -4   2  -5   15.20    5.50
  -4   2  -5   12.30    5.60
   4  -2   5   12.60    2.90
   4  -2   5   12.40    1.80
  -5   3  -5   10.00    5.00
  -5   3  -5   17.60    5.90
  -5   3  -5   11.50    5.90
   5  -3   5    8.50    2.80
   5  -3   5   17.20    4.30
   1  -4  -5    7.20    1.80
   1  -4  -5   10.10    3.50
   1  -4  -5   12.70    1.90
  -1   4   5   13.00    3.80
  -1   4   5   11.80    4.10
   0  -3  -5  319.47   21.30
   0  -3  -5  311.57   21.50
   0  -3  -5  319.97   21.30
   0   3   5  313.47   23.10
   0   3   5  367.96   25.00
   0   3   5  256.07   29.00
   0   3   5  336.17   22.50
  -1  -2  -5   99.49    6.90
  -1  -2  -5   98.89    7.20
  -1  -2  -5  104.49    7.20
   1   2   5  100.69    7.70
  -2  -1  -5  173.18   11.60
  -2  -1  -5  167.68   11.50
   2   1   5  182.28   11.80
  -4   1  -5  502.45   34.20
  -4   1  -5  497.45   34.30
   4  -1   5  582.14   34.20
  -5   2  -5   82.19    6.80
  -5   2  -5   59.79   10.40
  -5   2  -5   59.89    8.00
  -5   2  -5   82.89    9.60
   5  -2   5   67.29    6.30
   5  -2   5   70.79    5.20
  -6   3  -5  653.33   44.90
  -6   3  -5  681.13   44.60
  -6   3  -5  694.23   45.60
   6  -3   5  631.44   43.80
   0  -4  -5   13.80    3.20
   0  -4  -5    8.30    1.90
   0  -4  -5    8.40    1.60
   0   4   5   15.40    5.10
   0   4   5    8.10    3.90
  -1  -3  -5  194.48   13.50
  -1  -3  -5  207.98   13.20
  -1  -3  -5  191.58   13.20
   1   3   5  151.88   16.10
   1   3   5  210.18   14.70
   1   3   5  183.58   17.10
  -2  -2  -5 1261.97   82.19
  -2  -2  -5 1158.48   82.09
  -2  -2  -5 1317.67   82.09
   2   2   5 1337.97   82.59
  -3  -1  -5    3.30    1.10
   3   1   5    7.40    1.70
  -4   0  -5    0.90    0.80
  -5   1  -5    0.80    1.40
   5  -1   5    2.10    1.00
  -6   2  -5   10.50    4.30
  -6   2  -5    8.70    6.00
  -6   2  -5   12.20    5.90
  -6   2  -5   12.80    3.80
   6  -2   5   12.40    3.20
   6  -2   5   15.20    2.30
  -7   3  -5   91.69   10.00
  -7   3  -5   63.29    9.20
  -1  -4  -5  908.01   69.59
  -1  -4  -5 1102.59   69.39
   1   4   5 1163.98   70.99
   1   4   5 1112.69   69.99
  -2  -3  -5   98.19    7.90
  -2  -3  -5  118.99    8.60
  -2  -3  -5   93.99    7.60
   2   3   5   91.99   12.60
   2   3   5   98.39   13.40
   2   3   5  105.89    9.70
  -3  -2  -5  176.88   12.10
  -3  -2  -5  187.48   12.20
  -3  -2  -5  166.48   11.90
  -3  -2  -5  179.78   12.60
   3   2   5  185.08   12.70
   3   2   5  179.28   14.30
  -4  -1  -5  502.95   32.80
  -5   0  -5  598.24   38.90
  -6   1  -5 1007.70   65.29
   6  -1   5 1004.50   65.09
  -7   2  -5  336.27   24.00
  -7   2  -5  324.87   26.00
   7  -2   5  317.17   22.10
   7  -2   5  359.96   22.80
  -8   3  -5  807.72   53.19
  -8   3  -5  802.22   54.09
   8  -3   5  799.12   52.29
  -2  -4  -5  186.78   12.80
  -2  -4  -5  200.48   13.90
   2   4   5  190.48   13.80
   2   4   5  186.78   15.90
  -3  -3  -5   34.30    4.20
  -3  -3  -5   39.20    4.40
  -3  -3  -5   32.00    5.70
   3   3   5   47.80    6.80
   3   3   5   41.70    8.40
  -4  -2  -5   12.80    2.20
  -4  -2  -5    8.00    1.80
   4   2   5    8.00    3.10
   4   2   5   11.20    5.20
   4   2   5   18.00   11.00
   4   2   5   11.70    4.40
  -5  -1  -5    2.20    1.20
  -6   0  -5   -0.70    1.00
  -7   1  -5  514.35   35.10
  -7   1  -5  536.95   34.20
  -7   1  -5  494.35   34.80
   7  -1   5  552.54   33.80
   7  -1   5  496.35   34.10
  -8   2  -5  231.78   18.70
  -8   2  -5  240.88   19.40
  -8   2  -5  262.87   18.10
  -8   2  -5  254.17   18.20
  -9   3  -5  194.18   14.30
  -9   3  -5  148.99   13.00
   9  -3   5  172.78   11.80
  -3  -4  -5  324.47   21.30
  -3  -4  -5  319.57   21.60
   3   4   5  333.47   22.20
   3   4   5  326.47   23.40
  -4  -3  -5 1376.86   88.19
  -4  -3  -5 1379.96   88.19
   4   3   5 1285.97   90.19
   4   3   5 1398.66   89.29
  -5  -2  -5   59.29    5.00
  -5  -2  -5   57.39    4.90
  -5  -2  -5   44.00    7.80
   5   2   5   66.19   12.90
   5   2   5   50.99    6.20
   5   2   5   54.79    7.80
   5   2   5   55.19    8.30
  -6  -1  -5  951.40   61.79
  -7   0  -5  521.75   34.20
  -8   1  -5  390.76   25.10
  -8   1  -5  365.06   28.90
  -8   1  -5  351.96   25.90
  -8   1  -5  361.06   25.40
   8  -1   5  393.06   25.00
   8  -1   5  384.86   24.60
  -9   2  -5  366.46   24.40
  -9   2  -5  359.06   23.80
  -9   2  -5  338.17   25.10
   9  -2   5  324.87   23.00
 -10   3  -5   16.70    4.10
 -10   3  -5   15.20    4.30
  -4  -4  -5  266.47   15.80
  -4  -4  -5  206.58   16.00
   4   4   5  244.88   18.10
  -5  -3  -5    5.00    2.00
   5   3   5    0.50    7.10
   5   3   5   15.30    4.30
  -6  -2  -5   17.70    4.60
  -6  -2  -5   10.50    2.80
   6   2   5   16.50    5.00
   6   2   5   16.30    5.10
  -7  -1  -5  462.55   28.80
  -7  -1  -5  430.06   29.30
   7   1   5  458.55   29.50
   7   1   5  390.56   30.40
  -8   0  -5    4.00    3.70
  -8   0  -5    0.20    1.60
  -9   1  -5    9.00    3.80
  -9   1  -5    0.50    6.00
  -9   1  -5    2.20    4.60
  -9   1  -5    0.60    7.90
  -9   1  -5    2.10    2.90
   9  -1   5    5.40    2.50
 -10   2  -5   31.10    6.20
 -10   2  -5   27.30    5.80
 -10   2  -5   47.30    5.80
  10  -2   5   32.00    3.70
  -6  -3  -5  472.85   29.90
  -6  -3  -5  450.15   30.00
   6   3   5  428.36   35.90
   6   3   5  458.75   30.90
  -7  -2  -5  270.17   17.60
   7   2   5  226.08   18.80
   7   2   5  267.37   19.50
  -8  -1  -5  326.67   20.70
  -8  -1  -5  282.37   21.30
  -8  -1  -5  294.47   21.20
   8   1   5  298.67   22.10
   8   1   5  340.97   21.40
  -9   0  -5   99.29   11.50
  -9   0  -5   98.19    9.00
   9   0   5  120.79    8.30
   9   0   5  103.99    8.60
 -10   1  -5   64.09    7.30
 -10   1  -5   63.09   11.30
 -10   1  -5   59.29    7.10
 -10   1  -5   55.19    6.60
 -10   1  -5   50.79    8.80
  10  -1   5   63.39    5.20
 -11   2  -5  113.49   12.00
 -11   2  -5  115.49    9.60
  -7  -3  -5   40.60    5.40
  -7  -3  -5   45.00    4.60
   7   3   5   46.20    6.90
  -8  -2  -5  191.28   13.70
  -8  -2  -5  186.08   13.50
   8   2   5  177.08   14.50
   8   2   5  196.18   13.90
  -9  -1  -5   -1.10    3.90
  -9  -1  -5    5.80    2.60
  -9  -1  -5    4.90    4.10
   9   1   5   -0.40    3.10
   9   1   5    1.10    5.20
   9   1   5    3.60    4.30
 -10   0  -5    2.60    5.10
 -10   0  -5    1.90    3.00
 -10   0  -5   -0.70    3.20
  10   0   5    0.00    2.20
  10   0   5    7.00    3.20
 -11   1  -5    6.00    4.40
 -11   1  -5    4.10    3.10
 -11   1  -5   -1.40    3.40
  11  -1   5    3.80    2.00
 -12   2  -5  377.26   26.80
 -12   2  -5  462.05   28.20
 -12   2  -5  405.46   27.30
  12  -2   5  369.56   26.40
  -8  -3  -5  578.64   35.50
   8   3   5  505.75   36.20
  -9  -2  -5  256.27   17.70
   9   2   5  242.88   18.80
   9   2   5  273.77   18.00
 -10  -1  -5   50.59    6.10
 -10  -1  -5   56.29    5.90
 -10  -1  -5   63.59    6.50
  10   1   5   48.10    5.40
  10   1   5   60.99    8.40
  10   1   5   61.89    9.10
 -11   0  -5    2.20    2.90
 -11   0  -5   -2.00    4.80
 -11   0  -5    1.10    3.70
 -11   0  -5    7.90    2.90
  11   0   5    7.80    2.20
 -12   1  -5  366.16   26.00
 -12   1  -5  398.76   26.50
  12  -1   5  396.66   25.60
 -13   2  -5 1117.89   70.69
 -13   2  -5 1107.59   70.99
  13  -2   5 1044.30   70.49
  -9  -3  -5  121.59    8.00
   9   3   5  103.59    9.10
 -10  -2  -5   13.40    2.60
  10   2   5   24.30    4.60
  10   2   5   22.30    3.20
 -11  -1  -5   -0.70    2.40
 -11  -1  -5   -2.90    2.50
  11   1   5   -0.60    2.30
  11   1   5   -6.90    5.70
 -12   0  -5    9.20    3.10
 -12   0  -5    3.40    2.60
  12   0   5    4.90    2.10
 -13   1  -5   91.19    9.20
 -13   1  -5   79.29    8.30
 -13   1  -5  103.49    7.70
  13  -1   5  102.49    7.20
 -10  -3  -5    5.90    1.30
 -11  -2  -5  101.29    7.90
  11   2   5  100.09    8.90
  11   2   5   91.49    9.70
 -12  -1  -5  355.56   22.10
 -12  -1  -5  283.67   21.90
  12   1   5  334.67   21.80
 -13   0  -5   37.60    5.80
 -14   1  -5  285.07   19.10
 -14   1  -5  302.87   18.90
  14  -1   5  255.67   18.60
 -12  -2  -5  305.57   19.80
 -12  -2  -5  298.17   19.50
  12   2   5  279.57   19.70
 -13  -1  -5   78.69    6.70
 -13  -1  -5   89.19    7.00
  13   1   5   78.39    6.60
 -14   0  -5    1.90    2.20
 -14   0  -5    1.50    2.70
  14   0   5   -0.50    1.70
 -13  -2  -5  839.82   54.19
 -13  -2  -5  837.82   54.59
  13   2   5  830.32   54.29
 -14  -1  -5  270.77   16.80
 -14  -1  -5  255.67   16.50
  14   1   5  219.38   16.50
  15   0  -6    1.60    1.30
  15   0  -6   -0.30    1.60
 -15   0   6    2.60    2.80
  14   1  -6    4.90    1.90
  13   2  -6    7.50    1.90
  14   0  -6    7.70    2.00
  14   0  -6    9.10    2.20
 -14   0   6    8.70    3.80
  13   1  -6  349.17   25.90
  13   1  -6  421.96   25.80
  13   1  -6  392.56   25.90
  12   2  -6   48.90    4.40
  14  -1  -6    6.00    2.40
  14  -1  -6    4.60    1.40
  14  -1  -6    3.40    1.60
 -14   1   6    8.40    3.40
 -14   1   6    7.10    3.50
  13   0  -6   -1.40    2.30
  13   0  -6    3.70    6.70
  13   0  -6    0.00    1.90
  13   0  -6    3.90    1.90
  12   1  -6    5.90    2.40
  12   1  -6    9.70    3.50
  12   1  -6    5.20    1.90
  11   2  -6   38.30    4.60
  11   2  -6   40.70    6.00
  10   3  -6   64.59    5.50
  13  -1  -6  461.85   29.20
  13  -1  -6  400.36   29.10
  13  -1  -6  438.56   29.30
  13  -1  -6  465.55   29.30
 -13   1   6  454.75   30.30
  12   0  -6    9.50    3.80
  12   0  -6    4.20    2.00
  12   0  -6    8.50    4.60
  12   0  -6    6.20    1.90
  12   0  -6    2.70    2.10
  11   1  -6  619.14   39.70
  11   1  -6  606.94   39.80
  11   1  -6  584.54   39.80
  10   2  -6  392.26   27.50
  10   2  -6  431.96   27.60
   9   3  -6   14.30    3.00
  13  -2  -6   10.60    1.80
  13  -2  -6    8.40    1.50
  13  -2  -6   11.10    1.90
  13  -2  -6    5.60    2.10
 -13   2   6    8.20    3.80
 -13   2   6    9.80    3.00
  12  -1  -6    5.30    2.50
  12  -1  -6    4.20    1.80
  12  -1  -6    8.90    2.10
  12  -1  -6    5.50    1.80
 -12   1   6    5.00    3.90
  11   0  -6    1.70    2.00
  11   0  -6    0.10    1.70
  11   0  -6    1.00    2.00
  11   0  -6   -1.20    4.20
  11   0  -6    0.80    2.50
  10   1  -6   11.20    3.80
  10   1  -6    8.50    2.90
  10   1  -6    8.40    2.90
  10   1  -6   15.10    2.80
   9   2  -6  428.76   28.40
   9   2  -6  422.76   28.50
   8   3  -6  391.96   26.40
  12  -2  -6   58.29    5.00
  12  -2  -6   52.99    4.80
  12  -2  -6   60.69    4.80
 -12   2   6   69.79    7.40
  11  -1  -6  744.93   45.50
  11  -1  -6  700.43   45.50
  11  -1  -6  700.13   45.30
 -11   1   6  631.24   46.40
  10   0  -6 1783.42  115.59
   9   1  -6  222.38   16.20
   9   1  -6  259.97   15.90
   9   1  -6  214.78   15.80
   9   1  -6  213.08   16.00
   8   2  -6  574.04   36.20
   8   2  -6  517.45   36.30
   7   3  -6  410.36   30.90
  -7  -3   6  516.85   30.80
  11  -2  -6   45.40    4.70
  11  -2  -6   50.49    4.80
  11  -2  -6   56.69    5.00
 -11   2   6   60.19   11.80
  10  -1  -6   12.90    2.40
  10  -1  -6   15.00    2.50
  10  -1  -6   11.20    2.00
  10  -1  -6   14.20    2.60
 -10   1   6    8.30    4.60
   9   0  -6   -1.60    2.30
   9   0  -6   -1.10    2.20
   9   0  -6    2.30    2.10
   9   0  -6    4.10    2.30
   8   1  -6  122.89    9.50
   8   1  -6  131.19    9.50
   8   1  -6  123.59   10.00
   8   1  -6  121.19    9.60
   8   1  -6  131.29   10.60
   7   2  -6   16.40    3.10
   7   2  -6   19.30    3.70
   6   3  -6    0.30    2.70
  -6  -3   6    1.90    3.00
  10  -2  -6  495.25   32.70
  10  -2  -6  517.35   32.90
  10  -2  -6  528.45   32.80
  10  -2  -6  495.25   32.60
 -10   2   6  501.85   35.30
 -10   2   6  448.56   34.00
   9  -1  -6  281.17   18.40
   9  -1  -6  259.37   18.20
   9  -1  -6  281.47   18.40
   9  -1  -6  288.87   18.10
   9  -1  -6  273.87   18.50
  -9   1   6  251.07   19.30
   8   0  -6 4066.99  254.07
   8   0  -6 4200.28  254.17
   8   0  -6 3789.02  253.97
   8   0  -6 3817.72  253.97
  -8   0   6 3804.02  254.17
   7   1  -6  167.28   11.10
   7   1  -6  144.59   11.40
   7   1  -6  150.18   12.10
   7   1  -6  152.68   11.30
   6   2  -6  383.86   27.20
   6   2  -6  432.96   27.30
   6   2  -6  397.46   27.00
   5   3  -6  533.85   31.60
   5   3  -6  449.56   31.30
  -5  -3   6  417.26   31.20
  10  -3  -6   59.19    4.40
  10  -3  -6   52.99    4.90
  10  -3  -6   46.80    4.90
 -10   3   6   67.09    7.10
 -10   3   6   68.79    8.80
   9  -2  -6  500.55   32.40
   9  -2  -6  506.65   32.40
   9  -2  -6  499.55   32.60
   9  -2  -6  495.85   32.70
   9  -2  -6  485.15   32.60
  -9   2   6  481.35   35.50
   8  -1  -6  133.59   10.40
   8  -1  -6  152.98    9.70
   8  -1  -6  140.59   10.10
   8  -1  -6  151.88   10.30
   8  -1  -6  136.89   10.00
  -8   1   6  137.69   10.80
   7   0  -6    0.30    2.10
  -7   0   6    2.50    1.80
   5   2  -6  242.88   17.00
   5   2  -6  262.67   17.10
   5   2  -6  235.18   17.20
   4   3  -6  119.59   10.10
   4   3  -6  106.99    9.40
  -4  -3   6  131.89    9.30
   9  -3  -6   18.10    3.20
   9  -3  -6   16.00    2.30
  -9   3   6    7.90    4.40
  -9   3   6   16.10    5.90
   8  -2  -6  687.73   44.40
   8  -2  -6  694.73   44.20
   8  -2  -6  673.03   44.20
   8  -2  -6  677.73   44.40
   8  -2  -6  672.63   44.40
  -8   2   6  631.74   47.40
  -8   2   6  709.43   45.40
   7  -1  -6  151.58   10.90
   7  -1  -6  157.98   10.90
   7  -1  -6  156.98   10.50
   7  -1  -6  149.79   11.30
   7  -1  -6  157.38   11.20
  -7   1   6  164.88   11.30
   6   0  -6 1593.64  100.19
   6   0  -6 1570.74   99.99
   6   0  -6 1604.44   99.99
  -6   0   6 1419.36  100.09
   4   2  -6   79.79    7.00
   4   2  -6   79.19    7.20
   4   2  -6   90.79    7.20
   3   3  -6  213.88   22.50
   3   3  -6  176.28   13.10
   3   3  -6  180.68   13.60
  -3  -3   6  168.88   12.80
   8  -3  -6  501.85   30.90
   8  -3  -6  492.35   30.80
   8  -3  -6  498.75   31.00
   8  -3  -6  414.56   30.80
  -8   3   6  467.45   32.40
  -8   3   6  441.26   33.50
   7  -2  -6   27.70    4.10
   7  -2  -6   27.90    2.80
   7  -2  -6   17.80    3.00
   7  -2  -6   23.40    3.30
  -7   2   6   29.40    4.90
   6  -1  -6  385.06   25.20
   6  -1  -6  377.86   25.00
  -6   1   6  384.26   25.40
   5   0  -6   -0.80    0.70
   5   0  -6    1.80    0.80
  -5   0   6    0.60    1.00
   4   1  -6   33.80    2.80
   3   2  -6    6.80    3.10
   3   2  -6    3.80    3.70
   2   3  -6   36.70    6.20
   2   3  -6   35.20    7.00
  -2  -3   6   32.20    4.50
   7  -3  -6  538.55   38.80
   7  -3  -6  624.44   38.70
   7  -3  -6  617.74   38.70
  -7   3   6  576.84   41.30
  -7   3   6  598.84   43.20
   6  -2  -6  504.95   33.00
   6  -2  -6  493.35   32.80
   6  -2  -6  503.05   33.20
   6  -2  -6  499.45   32.70
   6  -2  -6  514.15   33.00
  -6   2   6  522.45   35.60
  -6   2   6  468.75   33.50
   5  -1  -6 1693.33  103.99
   5  -1  -6 1519.05  104.19
   5  -1  -6 1676.43  104.09
  -5   1   6 1553.74  104.29
   4   0  -6 1281.77   72.89
  -4   0   6  972.40   72.79
   1   3  -6  208.68   15.80
   1   3  -6  245.38   16.40
   1   3  -6  226.48   18.20
  -1  -3   6  218.58   15.40
   0   4  -6   15.20    4.20
   6  -3  -6    4.00    2.00
   6  -3  -6    4.40    2.20
   6  -3  -6    2.50    2.50
   6  -3  -6   -0.10    1.70
  -6   3   6    0.80    4.70
  -6   3   6    2.30    5.70
  -6   3   6    7.10    7.00
   5  -2  -6  283.47   20.50
   5  -2  -6  318.27   20.10
   5  -2  -6  319.07   20.10
   5  -2  -6  314.77   19.80
   5  -2  -6  300.07   19.90
  -5   2   6  300.17   20.70
  -5   2   6  250.07   24.30
   4  -1  -6   54.69    3.90
   3   0  -6   -0.10    0.60
   3   0  -6    0.40    0.70
  -3   0   6    0.70    0.80
   2   1  -6 3294.57  212.48
  -1  -2   6   14.50    2.10
   0   3  -6   20.70    4.20
   0   3  -6   19.30    5.80
   0  -3   6   13.30    2.90
  -1   4  -6  653.33   43.50
   5  -3  -6  547.45   34.40
   5  -3  -6  557.74   34.60
   5  -3  -6  558.54   35.10
   5  -3  -6  506.95   34.70
  -5   3   6  476.65   36.40
  -5   3   6  486.95   37.50
  -5   3   6  539.35   36.40
   4  -2  -6   89.09    7.00
   4  -2  -6   87.09    6.80
   4  -2  -6  102.09    7.10
   4  -2  -6   87.59    8.00
   4  -2  -6   92.29    7.40
  -4   2   6   85.79   13.50
  -4   2   6   99.69    7.70
  -4   2   6   82.79   16.30
   3  -1  -6   97.29    6.10
   3  -1  -6   94.89    6.10
  -3   1   6   76.39    6.40
   2   0  -6 1033.60   66.09
   2   0  -6 1067.99   66.19
  -2   0   6  971.70   66.19
   1   1  -6 1243.58   80.29
   0  -2   6  572.64   37.20
  -1   3  -6   38.60    8.60
   1  -3   6   44.90    4.90
   1  -3   6   41.70    5.70
  -2   4  -6  622.94   41.60
   4  -3  -6  127.49    8.20
   4  -3  -6  115.79    8.40
   4  -3  -6  111.19    8.20
  -4   3   6   78.49   14.20
  -4   3   6  110.49   14.60
  -4   3   6  109.49   12.00
   3  -2  -6    6.30    2.30
   3  -2  -6    4.20    2.30
   3  -2  -6    4.80    3.10
   3  -2  -6    3.20    1.20
  -3   2   6    1.60    2.30
  -3   2   6    8.20    7.60
   2  -1  -6 3404.26  215.98
   2  -1  -6 3362.56  215.98
  -2   1   6 3283.57  216.28
   1   0  -6   -0.10    0.50
   0   1  -6   11.20    1.30
   0  -1   6    8.50    1.20
  -1   2  -6  266.47   18.80
   1  -2   6  271.87   17.70
  -2   3  -6  126.49   11.00
  -2   3  -6   87.29   12.00
   2  -3   6  106.09    8.90
  -3   4  -6  353.56   24.30
  -4   4   6  129.19   15.20
   3  -3  -6  157.68   11.60
   3  -3  -6  188.08   11.90
   3  -3  -6  152.78   11.80
   3  -3  -6  164.98   11.50
   3  -3  -6  164.18   11.40
  -3   3   6  168.18   13.00
  -3   3   6  172.08   15.10
  -3   3   6  157.48   18.40
   2  -2  -6  242.78   17.00
   2  -2  -6  267.17   16.70
   2  -2  -6  261.17   17.10
  -2   2   6  230.68   21.00
  -2   2   6  259.37   17.40
   1  -1  -6 1261.87   78.59
   1  -1  -6 1226.78   78.49
  -1   1   6 1158.58   78.79
  -1   1  -6 1146.99   74.99
   1  -1   6 1175.88   74.89
  -2   2  -6 5440.36  365.76
  -2   2  -6 5840.42  365.46
   2  -2   6 5665.33  364.06
  -3   3  -6   55.19    7.90
  -3   3  -6   41.00    9.20
   3  -4  -6    2.00    1.40
   3  -4  -6    1.00    2.30
   3  -4  -6   -0.40    1.50
  -3   4   6    2.00    3.50
  -3   4   6    3.60   14.10
   2  -3  -6   19.40    3.40
   2  -3  -6   31.90    3.90
   2  -3  -6   27.30    3.40
   2  -3  -6   28.70    3.50
  -2   3   6   32.90    6.70
  -2   3   6   40.90    8.70
  -2   3   6   45.40   12.20
  -2   3   6   32.80    6.20
   1  -2  -6   15.10    1.90
   1  -2  -6   17.00    3.60
  -1   2   6   23.40    8.50
  -1   2   6   14.90    2.90
   0  -1  -6    8.10    1.20
   0  -1  -6    7.50    1.20
   0   1   6    8.40    1.30
  -2   1  -6 1595.44  100.09
  -2   1  -6 1506.55   99.99
  -3   2  -6   18.80    6.90
  -3   2  -6   26.70    7.70
  -3   2  -6   30.80    6.40
   3  -2   6   33.60    2.80
  -4   3  -6  355.86   25.50
  -4   3  -6  353.46   26.00
   2  -4  -6  136.99    8.50
   2  -4  -6  122.19    8.80
   2  -4  -6  120.49    8.40
  -2   4   6  106.79   10.90
   1  -3  -6  189.78   13.00
   1  -3  -6  205.18   13.10
   1  -3  -6  192.28   13.30
   1  -3  -6  190.78   13.30
  -1   3   6  172.68   21.10
  -1   3   6  186.98   14.30
  -1   3   6  186.58   17.10
  -1   3   6  193.58   15.80
   0  -2  -6  546.65   34.90
   0  -2  -6  526.35   34.70
   0   2   6  562.54   35.30
   0   2   6  487.45   41.90
  -1  -1  -6 1068.89   69.19
  -1  -1  -6 1133.19   69.09
  -1  -1  -6 1079.69   68.99
   1   1   6  991.60   69.49
  -2   0  -6  982.00   65.09
  -2   0  -6 1031.90   65.09
  -3   1  -6  927.01   57.99
  -3   1  -6  868.01   58.09
  -4   2  -6  901.31   62.59
  -4   2  -6  984.30   63.19
  -4   2  -6  895.11   63.49
   4  -2   6 1010.90   61.39
  -5   3  -6  118.59   12.40
  -5   3  -6   98.59   11.70
  -5   3  -6  145.49   11.60
   1  -4  -6    3.30    2.70
   1  -4  -6    5.50    1.40
   1  -4  -6    6.40    1.80
  -1   4   6    7.20    3.90
  -1   4   6    2.90    4.40
   0  -3  -6   20.90    3.10
   0  -3  -6   14.40    2.90
   0  -3  -6   11.10    2.70
   0  -3  -6   13.10    2.30
   0   3   6    7.00   13.10
   0   3   6   13.10    4.20
   0   3   6   18.30    7.20
   0   3   6   16.50    6.40
  -1  -2  -6  240.48   15.70
  -1  -2  -6  244.88   15.60
  -1  -2  -6  226.28   15.50
   1   2   6  205.38   20.10
   1   2   6  246.88   16.20
  -2  -1  -6 1383.16   98.39
  -2  -1  -6 1550.64   98.49
   2   1   6 1640.84   98.79
  -3   0  -6    0.40    0.70
  -3   0  -6    0.90    0.70
  -4   1  -6  146.19    9.90
  -4   1  -6  147.29    9.90
  -5   2  -6    4.10    5.40
  -5   2  -6    7.00    5.50
  -5   2  -6    0.90    4.10
  -6   3  -6    9.50    4.50
  -6   3  -6   10.40    4.60
   0  -4  -6    7.50    1.80
   0  -4  -6    8.70    2.30
   0  -4  -6    7.00    1.40
   0   4   6    3.20    3.90
   0   4   6    8.30    4.30
  -1  -3  -6   31.00    3.70
  -1  -3  -6   36.30    3.80
  -1  -3  -6   30.60    4.30
   1   3   6   29.00    7.60
   1   3   6   30.20    8.00
   1   3   6   47.10    6.30
  -2  -2  -6 4457.65  307.67
  -2  -2  -6 4890.31  307.77
  -2  -2  -6 4553.04  307.47
  -2  -2  -6 5069.79  307.57
   2   2   6 5078.19  308.17
   2   2   6 4849.92  308.47
   2   2   6 4486.45  309.67
  -3  -1  -6  823.92   58.09
  -3  -1  -6  850.31   58.09
   3   1   6 1016.70   58.49
  -4   0  -6 3176.38  204.88
  -5   1  -6 3478.65  233.98
  -5   1  -6 3774.42  233.98
  -6   2  -6   62.19    9.60
  -6   2  -6   69.19   13.20
  -6   2  -6   56.69    7.70
  -7   3  -6   55.79    7.60
  -7   3  -6   54.79   13.10
  -1  -4  -6  569.84   38.00
  -1  -4  -6  599.24   37.90
  -1  -4  -6  550.84   37.90
   1   4   6  618.64   38.60
   1   4   6  575.64   39.60
  -2  -3  -6   81.59    6.70
  -2  -3  -6   84.09    6.80
  -2  -3  -6   90.09    6.60
   2   3   6  115.39   17.50
   2   3   6   89.89   12.80
   2   3   6   87.29    8.80
  -3  -2  -6   25.00    3.00
  -3  -2  -6   20.20    2.60
  -3  -2  -6   27.60    3.00
  -3  -2  -6   26.60    3.50
   3   2   6   27.80   11.20
   3   2   6   21.90    3.70
   3   2   6   28.40    6.20
  -4  -1  -6  150.08   10.20
  -5   0  -6    0.10    1.10
  -6   1  -6  104.99    7.90
  -6   1  -6  109.79   10.00
  -6   1  -6  115.09    8.00
  -7   2  -6    7.20    5.20
  -7   2  -6    8.20    5.30
  -7   2  -6   11.50    4.00
  -8   3  -6  238.18   18.40
  -8   3  -6  271.57   19.70
   8  -3   6  260.67   17.30
  -2  -4  -6  521.15   33.00
  -2  -4  -6  515.35   33.20
  -2  -4  -6  461.25   33.00
   2   4   6  560.04   33.80
   2   4   6  479.25   34.60
  -3  -3  -6   39.60    4.00
  -3  -3  -6   35.10    4.20
   3   3   6   28.00    5.20
   3   3   6   24.60    8.10
  -4  -2  -6  761.62   49.00
  -4  -2  -6  722.03   49.50
  -4  -2  -6  809.42   49.00
  -4  -2  -6  807.32   48.90
   4   2   6  674.83   52.59
   4   2   6  674.83   49.30
   4   2   6  793.62   49.60
   4   2   6  751.12   50.19
  -5  -1  -6 3415.66  220.48
  -6   0  -6  282.17   18.70
  -7   1  -6   95.49    7.80
  -7   1  -6  106.59    9.40
  -7   1  -6  104.89    7.60
  -7   1  -6   82.29    9.20
  -7   1  -6  112.99   13.40
   7  -1   6  113.79    8.30
  -8   2  -6   13.60    4.20
  -8   2  -6   15.00    5.50
  -8   2  -6   19.10    5.20
   8  -2   6   16.40    2.80
  -9   3  -6  151.78   12.40
  -9   3  -6  188.38   13.70
   9  -3   6  158.68   11.30
  -3  -4  -6  285.27   18.20
  -3  -4  -6  266.07   18.50
   3   4   6  281.27   21.50
  -4  -3  -6  234.78   16.50
   4   3   6  255.17   18.10
   4   3   6  244.38   20.60
  -5  -2  -6   -3.60    4.60
  -5  -2  -6    2.30    2.30
  -5  -2  -6    3.50    2.00
   5   2   6    6.00    4.90
   5   2   6    9.00    4.90
   5   2   6   -6.80    9.80
  -6  -1  -6   92.09    6.70
  -7   0  -6    0.00    6.00
  -7   0  -6   -0.60    1.50
  -8   1  -6  450.65   30.10
  -8   1  -6  433.86   32.80
  -8   1  -6  437.56   30.60
  -8   1  -6  458.45   29.80
   8  -1   6  458.55   29.60
  -9   2  -6   35.10    6.60
  -9   2  -6   27.20    4.80
  -9   2  -6   26.40    5.30
   9  -2   6   28.80    3.50
 -10   3  -6    5.50    2.50
  10  -3   6    3.70    1.20
  -5  -3  -6   91.39    7.20
  -5  -3  -6   90.39    7.50
   5   3   6  107.49    9.40
   5   3   6   88.99   12.90
  -6  -2  -6   48.30    4.80
  -6  -2  -6   36.50    5.00
  -6  -2  -6   46.50    4.90
   6   2   6   46.80   11.50
   6   2   6   57.89    8.00
   6   2   6   42.40    6.30
  -7  -1  -6   66.89    7.90
  -7  -1  -6   85.29    6.20
  -7  -1  -6   80.49    7.40
   7   1   6   83.79    8.90
   7   1   6   84.69    9.70
  -8   0  -6   49.70    6.10
  -8   0  -6   44.80    6.40
  -8   0  -6   44.90    6.60
  -8   0  -6   42.80    4.20
   8   0   6   39.90    5.30
  -9   1  -6  151.28   11.10
  -9   1  -6  141.99   11.60
  -9   1  -6  141.99   12.10
   9  -1   6  160.98   10.70
 -10   2  -6  194.48   14.70
 -10   2  -6  180.18   15.90
  10  -2   6  216.38   13.60
  -6  -3  -6    1.80    2.00
  -6  -3  -6    4.70    2.90
   6   3   6    8.70    4.50
  -7  -2  -6   13.10    2.90
  -7  -2  -6    8.60    3.20
  -7  -2  -6    6.10    3.10
   7   2   6    9.50    4.90
   7   2   6    6.60    6.00
   7   2   6    8.70    4.10
  -8  -1  -6  368.76   24.90
  -8  -1  -6  345.37   24.20
  -8  -1  -6  356.06   24.50
   8   1   6  360.96   25.40
   8   1   6  380.66   24.70
  -9   0  -6   -1.40    2.90
  -9   0  -6    0.70    2.30
  -9   0  -6   -0.70    3.10
  -9   0  -6   -4.40    5.60
   9   0   6   -0.40    2.50
 -10   1  -6  151.98   13.70
 -10   1  -6  145.39   10.80
 -10   1  -6  136.29   12.50
 -10   1  -6  120.69   11.20
 -10   1  -6  134.89   11.40
  10  -1   6  143.19   10.00
 -11   2  -6  108.49   10.50
 -11   2  -6  102.19    9.50
 -11   2  -6   95.59    9.10
  11  -2   6  108.49    7.80
  -7  -3  -6   18.90    5.70
  -8  -2  -6    0.20    2.20
  -8  -2  -6    1.60    3.40
  -8  -2  -6    4.10    3.20
   8   2   6    4.70    3.40
   8   2   6    1.90    7.80
  -9  -1  -6  111.79    9.60
  -9  -1  -6  120.99    9.20
   9   1   6  138.39   10.70
 -10   0  -6  209.98   15.70
 -10   0  -6  218.18   15.70
 -10   0  -6  224.18   16.00
 -10   0  -6  237.68   16.90
  10   0   6  234.48   15.50
 -11   1  -6   79.69    9.40
 -11   1  -6   92.99    8.10
 -11   1  -6   98.49    8.50
  11  -1   6   99.89    7.20
 -12   2  -6  224.98   16.10
 -12   2  -6  235.38   17.50
 -12   2  -6  220.78   15.90
  12  -2   6  238.98   15.40
  -8  -3  -6  172.78   11.70
   8   3   6  168.18   13.00
  -9  -2  -6   24.40    3.80
   9   2   6   15.80    4.70
   9   2   6   19.00    3.50
 -10  -1  -6  114.19    9.10
 -10  -1  -6  109.69    8.90
 -10  -1  -6  114.49    8.90
  10   1   6  120.59   11.10
  10   1   6  109.69    8.80
  10   1   6  106.89   10.50
 -11   0  -6    0.00    3.10
 -11   0  -6    1.30    2.80
 -11   0  -6   -6.80    4.00
  11   0   6    2.40    2.00
  11   0   6   -4.10    5.60
 -12   1  -6    4.30    2.90
 -12   1  -6    5.20    3.80
 -12   1  -6    3.70    4.50
  12  -1   6    1.10    2.10
  -9  -3  -6  109.99    7.30
   9   3   6   95.89    8.30
 -10  -2  -6  139.99   10.30
  10   2   6  156.18   10.50
  10   2   6  123.09   11.60
 -11  -1  -6   93.09    6.80
 -11  -1  -6   78.99    6.60
  11   1   6   64.79    6.50
  11   1   6   68.49    8.80
 -12   0  -6  982.80   63.79
 -12   0  -6  964.80   63.89
  12   0   6  983.80   63.59
 -13   1  -6    6.20    3.20
 -13   1  -6    4.10    2.60
  13  -1   6    5.60    1.80
  10   3   6    3.50    2.70
 -11  -2  -6   74.49    5.70
 -11  -2  -6   70.59    6.30
  11   2   6   63.39    7.90
  11   2   6   78.89    6.50
 -12  -1  -6    0.60    3.90
 -12  -1  -6    5.10    2.70
  12   1   6    1.20    2.30
 -13   0  -6    1.20    2.70
 -13   0  -6   -2.90    2.70
  13   0   6    1.10    2.10
 -14   1  -6  157.58   10.80
 -14   1  -6  154.08   12.60
 -12  -2  -6  186.48   12.20
 -12  -2  -6  177.58   12.40
  12   2   6  175.78   12.40
 -13  -1  -6    6.90    2.60
  13   1   6    5.80    2.50
 -14   0  -6 1153.08   68.89
 -14   0  -6 1040.60   68.89
  14   0   6  988.20   68.69
 -14  -1  -6  137.19    9.20
 -14  -1  -6  110.69    9.10
  14   1   6  139.09    9.10
 -15   0   7  439.26   29.20
  14   1  -7  291.07   19.30
  13   2  -7  137.99    9.50
  14   0  -7    2.20    1.70
  14   0  -7    0.50    1.60
 -14   0   7    1.40    2.90
  13   1  -7    1.20    2.00
  12   2  -7   19.10    2.90
  14  -1  -7  278.67   18.20
  14  -1  -7  271.17   18.20
  13   0  -7 1872.31  110.09
  13   0  -7 1502.15  109.09
  12   1  -7 1959.10  125.29
  12   1  -7 1909.31  125.29
  11   2  -7  268.17   18.70
  10   3  -7 1052.49   68.29
  13  -1  -7   -1.60    2.30
  13  -1  -7    2.10    1.70
  13  -1  -7    0.10    1.60
  13  -1  -7    2.10    1.90
 -13   1   7   -4.20    3.60
  12   0  -7   -3.90    1.80
  12   0  -7    0.40    2.90
  12   0  -7   -0.70    1.70
  12   0  -7   -2.90    1.50
  11   1  -7    5.70    2.00
  11   1  -7    8.10    4.00
  11   1  -7    5.30    2.50
  11   1  -7    5.70    2.60
  10   2  -7  453.15   30.10
   9   3  -7  576.24   37.90
  13  -2  -7  148.59   10.30
  13  -2  -7  166.38   10.40
  13  -2  -7  158.08   10.40
  13  -2  -7  142.69   10.50
  12  -1  -7 2181.28  139.19
  12  -1  -7 2130.19  139.09
  12  -1  -7 2142.29  139.29
  12  -1  -7 2183.48  139.19
 -12   1   7 2123.79  139.99
  11   0  -7  317.67   21.30
  11   0  -7  317.87   21.30
  11   0  -7  323.37   21.50
  11   0  -7  312.07   21.20
  10   1  -7  469.05   32.60
  10   1  -7  519.35   32.90
  10   1  -7  466.75   32.50
  10   1  -7  512.25   32.60
   9   2  -7 1686.23  109.59
   8   3  -7   37.30    4.70
  12  -2  -7   28.40    3.10
  12  -2  -7   32.30    3.40
  12  -2  -7   25.50    3.10
  12  -2  -7   26.00    2.90
 -12   2   7   30.30    5.70
  11  -1  -7   11.50    2.40
  11  -1  -7   11.10    2.30
 -11   1   7   12.00    4.60
  10   0  -7    0.50    2.20
  10   0  -7    2.70    2.10
  10   0  -7    0.90    1.90
  10   0  -7    0.70    2.50
   9   1  -7   12.80    3.20
   8   2  -7   17.60    3.30
  -7  -3   7    3.60    3.80
  11  -2  -7  252.27   18.30
  11  -2  -7  293.97   18.50
  11  -2  -7  239.78   18.30
 -11   2   7  319.17   22.30
  10  -1  -7  577.74   38.40
  10  -1  -7  603.24   38.60
  10  -1  -7  586.84   38.50
  10  -1  -7  589.44   38.60
 -10   1   7  582.24   39.80
   9   0  -7 2567.24  160.18
   9   0  -7 2582.64  160.08
   9   0  -7 2428.06  159.88
   9   0  -7 2197.88  159.98
   9   0  -7 2599.34  160.08
   8   1  -7  169.88   11.60
   8   1  -7  150.28   11.80
   8   1  -7  153.38   11.30
   8   1  -7  156.28   11.50
   7   2  -7  689.33   43.90
   7   2  -7  645.64   44.10
   6   3  -7  278.17   19.10
  -6  -3   7  274.37   18.90
  10  -2  -7  508.05   34.60
  10  -2  -7  561.84   34.90
  10  -2  -7  568.44   34.80
  10  -2  -7  520.05   34.60
 -10   2   7  516.05   37.30
 -10   2   7  498.35   36.00
   9  -1  -7   17.70    2.30
   9  -1  -7   11.90    2.90
   9  -1  -7   17.70    3.20
  -9   1   7   22.50    5.00
   8   0  -7   -1.30    2.20
   8   0  -7    2.00    2.70
   8   0  -7    1.10    2.80
   8   0  -7    0.10    2.30
   8   0  -7   -1.00    2.40
   8   0  -7    1.00    2.40
   8   0  -7    4.30    3.50
   7   1  -7  394.16   25.50
   7   1  -7  362.56   25.10
   7   1  -7  355.76   25.00
   7   1  -7  387.36   25.20
   6   2  -7  169.58   14.40
   5   3  -7    5.10    2.90
  -5  -3   7   -0.20    3.30
  10  -3  -7 1355.86   84.89
  10  -3  -7 1268.07   84.89
 -10   3   7 1314.27   85.49
   9  -2  -7 1942.91  122.79
   9  -2  -7 1619.74  122.69
   9  -2  -7 2050.79  122.89
   9  -2  -7 1946.61  122.69
  -9   2   7 1925.21  124.89
   8  -1  -7  172.08   12.00
   8  -1  -7  171.58   12.30
   8  -1  -7  184.38   11.80
   8  -1  -7  177.48   12.10
   8  -1  -7  179.58   12.30
  -8   1   7  169.48   22.00
  -8   1   7  163.88   13.00
   7   0  -7  216.38   14.00
   7   0  -7  185.78   15.30
   6   1  -7   96.19    7.60
   6   1  -7   72.39    6.80
   6   1  -7   79.69    7.20
   5   2  -7  366.16   24.60
   5   2  -7  361.16   24.60
   5   2  -7  368.66   24.50
   4   3  -7  912.71   56.49
  -4  -3   7  808.12   56.39
   9  -3  -7  642.94   42.90
   9  -3  -7  634.04   43.10
  -9   3   7  720.53   44.80
  -9   3   7  645.44   43.90
   8  -2  -7   24.00    3.40
   8  -2  -7   16.80    2.50
   8  -2  -7   14.90    2.70
   8  -2  -7   16.50    2.50
   8  -2  -7   18.50    3.00
  -8   2   7   21.30    5.30
  -8   2   7   18.80    9.20
   7  -1  -7  427.26   26.90
   7  -1  -7  431.36   26.70
   7  -1  -7  390.46   26.90
   7  -1  -7  397.16   27.00
   7  -1  -7  403.16   26.80
  -7   1   7  434.26   27.30
  -7   1   7  338.47   34.30
   6   0  -7    0.20    1.00
   6   0  -7   -2.90    2.40
  -6   0   7    1.00    1.50
   5   1  -7  137.09    9.40
   4   2  -7  213.88   14.90
   4   2  -7  218.18   14.90
   4   2  -7  202.78   14.80
   3   3  -7   56.89    6.00
   8  -3  -7   45.10    4.20
   8  -3  -7   46.70    4.10
   8  -3  -7   47.50    4.60
  -8   3   7   43.70    9.00
  -8   3   7   49.10    7.80
   7  -2  -7  831.92   53.19
   7  -2  -7  819.52   53.09
   7  -2  -7  860.01   53.39
   7  -2  -7  744.33   53.29
   7  -2  -7  853.01   53.29
  -7   2   7  855.11   54.19
  -7   2   7  753.32   56.49
   6  -1  -7   99.89    6.60
   6  -1  -7   91.89    6.30
   6  -1  -7   89.79    6.90
   6  -1  -7   81.89    7.00
  -6   1   7   86.39    7.00
   5   0  -7   32.90    2.60
   5   0  -7   32.70    2.70
  -5   0   7   31.70    2.90
   4   1  -7 1913.11  123.59
   3   2  -7 2431.26  147.99
   3   2  -7 2083.69  147.89
   3   2  -7 2336.27  147.89
   2   3  -7 1079.39   72.19
   2   3  -7  980.70   70.89
  -2  -3   7 1205.08   70.79
   7  -3  -7    6.70    2.40
   7  -3  -7    2.40    2.40
  -7   3   7    4.10    6.20
  -7   3   7   -3.50    5.60
   6  -2  -7  258.27   16.50
   6  -2  -7  246.28   16.30
   6  -2  -7  203.28   16.30
   6  -2  -7  251.77   16.00
  -6   2   7  235.38   19.70
  -6   2   7  242.88   17.20
   5  -1  -7  137.79    9.00
   5  -1  -7  128.19    9.40
   5  -1  -7  139.29    8.90
  -5   1   7  123.79    9.40
   4   0  -7    0.60    0.80
  -4   0   7    1.10    1.10
   3   1  -7    2.90    1.00
   2   2  -7   18.00    3.90
   2   2  -7   20.80    3.90
   2   2  -7   17.80    5.80
  -2  -2   7   11.70    1.80
   1   3  -7   74.89   10.40
   1   3  -7   78.69    7.10
   6  -3  -7  339.17   21.00
   6  -3  -7  346.97   20.70
   6  -3  -7  329.27   20.80
   6  -3  -7  289.37   20.70
  -6   3   7  277.47   23.40
  -6   3   7  276.47   22.90
  -6   3   7  313.67   24.20
   5  -2  -7  504.55   29.60
   5  -2  -7  464.45   29.70
   5  -2  -7  448.86   29.90
   5  -2  -7  472.15   29.80
   5  -2  -7  457.45   29.90
  -5   2   7  461.75   31.20
  -5   2   7  387.96   34.00
  -5   2   7  400.86   34.30
   4  -1  -7 2024.10  125.09
   4  -1  -7 1916.81  125.39
   4  -1  -7 1929.31  125.19
  -4   1   7 1883.91  125.49
   3   0  -7  246.78   16.30
   3   0  -7  248.88   16.10
  -3   0   7  246.48   16.30
   2   1  -7 3194.18  206.38
   1   2  -7 1186.38   81.59
  -1  -2   7 1314.07   80.99
   0   3  -7 1768.32  115.89
   5  -3  -7    6.60    2.00
   5  -3  -7   10.10    1.80
   5  -3  -7    6.40    3.00
   5  -3  -7    8.00    2.40
   5  -3  -7    5.70    3.00
  -5   3   7    6.90    6.90
  -5   3   7   12.20    5.10
  -5   3   7    7.10    6.50
   4  -2  -7  270.37   18.10
   4  -2  -7  260.07   17.30
   4  -2  -7  247.68   17.00
   4  -2  -7  240.98   17.40
   4  -2  -7  265.07   17.20
   4  -2  -7  271.07   16.90
  -4   2   7  250.57   17.80
  -4   2   7  215.08   22.50
   3  -1  -7    1.10    1.00
  -3   1   7    2.20    1.60
   2   0  -7   -0.20    0.70
  -2   0   7    0.80    0.90
   1   1  -7   84.19    5.80
   0   2  -7  136.79   11.30
   0   2  -7  140.99   13.70
   0  -2   7  152.18    9.80
  -1   3  -7   52.89   11.10
  -1   3  -7   57.39    8.50
   4  -3  -7 1080.59   67.19
   4  -3  -7 1120.99   67.29
   4  -3  -7 1076.09   67.89
   4  -3  -7 1053.39   67.09
   4  -3  -7 1076.59   67.39
  -4   3   7 1019.10   68.89
  -4   3   7  927.01   68.89
  -4   3   7  908.61   70.09
   3  -2  -7 2784.32  176.58
   3  -2  -7 2739.53  176.58
   3  -2  -7 2587.34  176.48
   3  -2  -7 2905.61  176.68
  -3   2   7 2843.32  177.08
  -3   2   7 2536.95  178.28
   2  -1  -7 4595.04  288.07
  -2   1   7 4345.06  288.67
   1   0  -7   73.39    5.10
   0   1  -7 1438.76   92.89
  -1   2  -7 2863.91  190.98
  -1   2  -7 2721.93  191.28
   1  -2   7 3235.18  189.88
  -2   3  -7   28.00    6.00
  -2   3  -7   17.40    5.90
   3  -3  -7   38.00    4.50
   3  -3  -7   33.50    4.10
   3  -3  -7   42.10    3.80
   3  -3  -7   43.30    4.30
  -3   3   7   37.20    8.60
  -3   3   7   38.70    7.20
  -3   3   7   55.29   11.60
   2  -2  -7   18.60    3.00
   2  -2  -7   14.20    2.60
   2  -2  -7   18.10    4.20
   2  -2  -7   13.00    2.10
  -2   2   7   22.70    9.10
  -2   2   7    7.80    2.90
   1  -1  -7   81.89    5.60
   0   0  -7    1.60    0.70
  -1   1  -7    0.90    0.80
  -2   2  -7  264.77   19.20
  -2   2  -7  247.08   19.90
  -3   3  -7 1288.67   82.39
  -3   3  -7 1202.08   82.59
   2  -3  -7 1080.19   70.99
   2  -3  -7 1107.09   71.29
   2  -3  -7 1119.59   71.09
   2  -3  -7 1042.00   70.99
  -2   3   7 1052.69   71.69
  -2   3   7 1152.78   74.89
  -2   3   7 1109.89   73.19
   1  -2  -7 1110.49   69.29
   1  -2  -7 1002.70   69.29
   1  -2  -7 1140.49   69.09
   1  -2  -7 1042.00   69.19
  -1   2   7 1114.39   69.69
  -1   2   7  989.20   71.69
   0  -1  -7 1339.17   87.49
   0  -1  -7 1354.16   87.39
   0   1   7 1367.46   87.79
  -2   1  -7 1691.03  109.19
  -3   2  -7 1584.84  106.39
  -3   2  -7 1639.64  105.69
  -3   2  -7 1632.84  106.09
  -4   3  -7 1750.32  115.29
  -4   3  -7 1758.72  114.99
   2  -4  -7    1.40    1.60
   2  -4  -7    0.50    1.20
   2  -4  -7    1.70    2.20
  -2   4   7    2.20    3.80
   1  -3  -7   54.99    5.50
   1  -3  -7   58.49    5.30
   1  -3  -7   53.49    4.70
   1  -3  -7   60.89    5.00
  -1   3   7   72.09   13.50
  -1   3   7   54.19    7.10
  -1   3   7   52.79   10.40
   0  -2  -7  111.89    9.00
   0  -2  -7  127.59    8.60
   0  -2  -7  124.59    8.40
   0  -2  -7  117.29    8.80
   0   2   7  124.99    9.30
   0   2   7  115.19   14.70
   0   2   7  137.69   12.30
  -1  -1  -7    1.30    0.90
  -1  -1  -7    0.80    0.80
  -1  -1  -7    0.40    0.90
   1   1   7    1.70    1.50
  -2   0  -7    0.30    0.60
  -3   1  -7  656.33   42.60
  -3   1  -7  649.43   42.20
  -4   2  -7   37.30    8.10
  -4   2  -7   45.30    8.10
  -4   2  -7   39.70    7.20
  -5   3  -7    5.20    4.80
  -5   3  -7    4.80    4.20
   1  -4  -7  157.48   11.10
   1  -4  -7  163.48   11.50
   1  -4  -7  168.08   11.20
  -1   4   7  178.58   13.30
   0  -3  -7 1460.65   90.59
   0  -3  -7 1395.66   90.79
   0  -3  -7 1357.46   90.59
   0  -3  -7 1389.86   90.59
   0   3   7 1316.57   94.39
   0   3   7 1421.16   91.39
   0   3   7 1445.16   93.19
  -1  -2  -7 2403.06  161.88
  -1  -2  -7 2523.25  161.78
  -1  -2  -7 2485.85  161.88
  -1  -2  -7 2582.74  161.78
   1   2   7 2625.04  162.38
   1   2   7 2378.86  162.68
   1   2   7 2543.15  164.18
  -2  -1  -7 1516.85  104.49
  -2  -1  -7 1604.94  104.69
  -2  -1  -7 1538.95  104.59
   2   1   7 1819.42  104.99
  -4   1  -7  249.28   16.50
  -4   1  -7  247.88   16.40
  -5   2  -7  372.86   25.60
  -5   2  -7  347.27   26.20
  -5   2  -7  384.86   27.00
  -6   3  -7 1017.70   66.19
  -6   3  -7  967.40   66.69
  -6   3  -7 1028.30   67.39
   0  -4  -7  225.98   15.30
   0  -4  -7  229.18   15.40
   0  -4  -7  214.78   15.60
   0   4   7  246.18   17.50
   0   4   7  249.08   16.30
  -1  -3  -7   47.00    4.00
  -1  -3  -7   39.90    4.30
  -1  -3  -7   32.70    4.80
  -1  -3  -7   41.20    4.30
   1   3   7   42.20    9.70
   1   3   7   39.70    6.80
   1   3   7   70.59   16.50
  -2  -2  -7  230.28   14.40
  -2  -2  -7  213.38   14.30
  -2  -2  -7  211.88   15.40
  -2  -2  -7  206.68   14.80
  -2  -2  -7  211.18   14.50
   2   2   7  227.28   15.20
   2   2   7  215.68   21.20
   2   2   7  190.78   16.80
  -3  -1  -7  610.34   40.30
  -3  -1  -7  586.84   40.30
   3   1   7  663.93   40.70
  -4   0  -7    0.30    1.10
  -4   0  -7    0.10    1.00
  -5   1  -7  129.99    9.00
  -5   1  -7  127.39    8.90
  -6   2  -7  271.77   21.10
  -6   2  -7  267.07   20.70
  -6   2  -7  284.37   19.80
  -7   3  -7   34.70    8.30
  -7   3  -7   20.90    5.20
  -1  -4  -7  858.71   54.49
  -1  -4  -7  714.33   54.39
  -1  -4  -7  822.12   54.59
   1   4   7  962.70   55.09
   1   4   7  851.11   55.89
  -2  -3  -7   14.40    2.50
  -2  -3  -7   11.80    2.60
  -2  -3  -7   16.20    2.40
   2   3   7   13.70    4.60
   2   3   7   17.10    7.30
  -3  -2  -7 1346.37   88.89
  -3  -2  -7 1288.67   89.29
  -3  -2  -7 1371.56   88.79
  -3  -2  -7 1449.26   88.99
  -3  -2  -7 1369.36   88.79
   3   2   7 1334.17   89.89
   3   2   7 1536.25   89.59
   3   2   7 1271.37   91.59
  -4  -1  -7  222.38   15.60
  -4  -1  -7  233.48   15.60
   4   1   7  249.58   16.10
  -5   0  -7  567.94   37.00
  -6   1  -7 2289.87  150.38
  -6   1  -7 2372.96  150.38
  -6   1  -7 2324.47  151.78
  -6   1  -7 2319.77  150.68
  -6   1  -7 2326.57  151.08
  -7   2  -7   55.19    8.30
  -7   2  -7   61.89    9.10
  -7   2  -7   53.99    7.20
  -8   3  -7  536.55   36.10
  -8   3  -7  537.95   37.10
   8  -3   7  545.35   35.30
  -2  -4  -7   48.70    4.60
  -2  -4  -7   51.09    3.80
   2   4   7   44.50    7.70
   2   4   7   50.19    5.50
  -3  -3  -7  981.70   62.49
  -3  -3  -7  946.41   62.49
   3   3   7 1022.20   63.69
   3   3   7  896.31   64.99
  -4  -2  -7   29.50    3.60
  -4  -2  -7   29.80    4.40
  -4  -2  -7   30.20    5.30
  -4  -2  -7   40.60    4.00
   4   2   7   43.90    7.80
   4   2   7   44.30   11.10
  -5  -1  -7  116.59    8.20
  -6   0  -7   -1.40    1.30
  -7   1  -7    2.90    2.60
  -7   1  -7    9.50    4.00
  -7   1  -7    4.50    2.30
  -7   1  -7    1.50    3.80
  -7   1  -7    4.90    7.10
   7  -1   7    3.90    3.20
  -8   2  -7    1.50    3.30
  -8   2  -7    4.90    4.60
  -8   2  -7    4.30    4.70
   8  -2   7    0.30    2.00
  -9   3  -7   29.80    5.50
  -9   3  -7   32.40    5.90
   9  -3   7   26.50    3.30
  -4  -3  -7 1166.08   78.49
  -4  -3  -7 1308.07   78.59
   4   3   7 1211.18   79.59
   4   3   7 1155.78   80.79
  -5  -2  -7  274.77   18.90
  -5  -2  -7  280.17   17.80
  -5  -2  -7  268.07   18.00
  -5  -2  -7  282.17   18.10
   5   2   7  261.57   20.00
   5   2   7  216.18   23.50
   5   2   7  267.67   19.20
  -6  -1  -7 1955.60  133.09
  -6  -1  -7 2128.79  132.89
   6   1   7 2078.79  133.79
  -7   0  -7 1428.86   89.99
  -7   0  -7 1298.27   90.09
  -7   0  -7 1443.86   89.59
  -7   0  -7 1262.57   89.69
   7   0   7 1474.65   90.69
  -8   1  -7  357.16   25.80
  -8   1  -7  347.47   23.50
  -8   1  -7  321.67   23.10
  -8   1  -7  338.17   24.10
   8  -1   7  351.46   23.00
  -9   2  -7    2.10    4.60
  -9   2  -7   17.90    4.50
  -9   2  -7    6.10    3.40
   9  -2   7    6.40    2.00
  -5  -3  -7    3.40    3.10
  -5  -3  -7    0.20    1.80
   5   3   7    0.20    6.80
   5   3   7    5.70    3.90
  -6  -2  -7  204.38   13.60
  -6  -2  -7  213.38   14.00
  -6  -2  -7  212.18   14.00
  -6  -2  -7  178.18   15.60
  -6  -2  -7  206.48   13.80
   6   2   7  190.78   15.60
   6   2   7  177.88   15.30
  -7  -1  -7    6.60    3.10
  -7  -1  -7    6.20    2.10
  -7  -1  -7    1.60    4.40
   7   1   7    5.30    5.10
   7   1   7    7.00    4.40
  -8   0  -7   -3.10    3.10
  -8   0  -7    2.50    6.20
  -8   0  -7    0.80    2.00
  -8   0  -7   -3.60    3.30
   8   0   7   -4.40    3.20
  -9   1  -7  708.93   47.50
  -9   1  -7  654.93   46.90
  -9   1  -7  721.83   48.60
  -9   1  -7  693.33   47.00
   9  -1   7  785.92   46.70
 -10   2  -7   64.69    7.40
 -10   2  -7   61.79    7.80
  10  -2   7   68.89    6.60
  -6  -3  -7  625.94   42.70
   6   3   7  654.63   43.50
   6   3   7  672.13   45.00
  -7  -2  -7   45.20    5.20
  -7  -2  -7   39.30    4.20
  -7  -2  -7   44.20    5.30
  -7  -2  -7   41.40    5.60
   7   2   7   55.59   17.30
   7   2   7   32.80    7.60
   7   2   7   43.20    7.60
  -8  -1  -7  265.07   19.30
  -8  -1  -7  271.07   18.90
  -8  -1  -7  274.97   19.40
   8   1   7  296.07   19.60
   8   1   7  293.17   19.70
   8   1   7  275.47   20.10
  -9   0  -7  234.98   15.60
  -9   0  -7  233.58   17.10
   9   0   7  201.18   15.60
 -10   1  -7  229.28   16.60
 -10   1  -7  229.08   16.10
 -10   1  -7  236.48   18.20
  10  -1   7  220.28   15.50
 -11   2  -7  409.26   28.00
 -11   2  -7  459.35   29.20
 -11   2  -7  404.46   28.40
  11  -2   7  407.76   27.60
  -7  -3  -7   20.10    3.20
   7   3   7   13.50    4.50
  -8  -2  -7    4.40    2.30
  -8  -2  -7    3.50    1.90
   8   2   7    5.70    3.10
   8   2   7    2.30    4.30
  -9  -1  -7  617.24   39.10
  -9  -1  -7  580.94   38.80
  -9  -1  -7  579.14   38.90
   9   1   7  602.14   38.90
   9   1   7  615.84   39.50
   9   1   7  536.75   39.50
 -10   0  -7    0.50    2.70
 -10   0  -7   -0.20    3.70
 -10   0  -7   -0.80    4.00
 -10   0  -7   -5.90    2.90
  10   0   7   -0.20    2.30
 -11   1  -7    9.30    3.00
 -11   1  -7   12.50    3.70
  11  -1   7   18.40    3.10
 -12   2  -7   15.30    4.00
 -12   2  -7   15.90    3.20
  12  -2   7   15.60    2.30
  -8  -3  -7  377.66   25.00
   8   3   7  382.96   25.70
  -9  -2  -7    7.50    2.10
  -9  -2  -7    2.10    2.20
   9   2   7    0.80    2.70
   9   2   7    5.10    4.10
 -10  -1  -7  166.28   12.90
 -10  -1  -7  192.38   13.20
  10   1   7  192.28   12.90
  10   1   7  178.58   14.10
 -11   0  -7 1169.08   69.79
 -11   0  -7  971.90   69.89
 -11   0  -7 1068.29   69.89
  11   0   7  990.50   70.09
  11   0   7 1142.99   69.59
 -12   1  -7  593.24   37.80
  12  -1   7  525.55   36.80
   9   3   7    9.60    2.60
 -10  -2  -7   55.19    4.80
  10   2   7   46.30    6.70
 -11  -1  -7   10.60    2.80
 -11  -1  -7   12.10    2.80
  11   1   7    4.20    4.30
  11   1   7   17.40    2.90
 -12   0  -7   -0.20    2.60
 -12   0  -7    0.60    2.90
  12   0   7   -2.20    2.00
 -13   1  -7  593.94   39.00
 -13   1  -7  621.94   39.30
  13  -1   7  567.74   38.80
 -11  -2  -7  319.77   19.60
 -11  -2  -7  310.37   19.30
  11   2   7  259.57   19.90
  11   2   7  270.47   19.50
 -12  -1  -7  429.86   26.10
  12   1   7  407.26   26.10
  12   1   7  335.67   26.80
 -13   0  -7  814.02   49.50
 -13   0  -7  736.33   49.50
  13   0   7  717.73   49.20
 -12  -2  -7   15.90    2.90
 -12  -2  -7    9.90    1.70
  12   2   7    8.60    2.80
 -13  -1  -7  538.65   32.50
 -13  -1  -7  466.45   32.10
 -13  -1  -7  503.65   32.20
  13   1   7  457.95   32.20
 -14   0  -7    0.30    2.20
 -14   0  -7    1.50    1.90
  14   0   7    1.20    1.40
  14   1  -8   41.90    3.70
  14   0  -8  300.77   20.90
  14   0  -8  295.37   20.90
 -14   0   8  356.06   21.40
  13   1  -8  381.56   25.20
  12   2  -8  263.77   17.70
  14  -1  -8   43.00    3.40
  14  -1  -8   33.10    3.30
  14  -1  -8   43.60    4.20
 -14   1   8   41.10    6.50
  13   0  -8   -0.20    1.80
  13   0  -8    2.60    2.20
  12   1  -8   -2.40    4.40
  12   1  -8   -1.10    1.90
  11   2  -8   49.99    5.00
  13  -1  -8  382.16   26.00
  13  -1  -8  423.06   26.10
  13  -1  -8  413.66   26.10
  13  -1  -8  388.66   26.20
 -13   1   8  372.26   26.80
  12   0  -8   25.20    3.60
  12   0  -8   35.00    4.70
  12   0  -8   25.50    3.20
  12   0  -8   23.90    3.20
  11   1  -8 1245.88   79.49
  11   1  -8 1071.49   79.59
  11   1  -8 1357.46   79.79
  10   2  -8   32.10    4.20
   9   3  -8   30.00    4.10
  12  -1  -8    2.30    1.70
  12  -1  -8   -0.10    2.50
  12  -1  -8   -0.60    2.70
  12  -1  -8    2.20    1.60
  11   0  -8   -4.30    1.90
  11   0  -8    0.40    3.30
  11   0  -8    2.30    2.20
  11   0  -8   -1.30    1.60
  10   1  -8   28.90    4.50
  10   1  -8   20.80    3.10
  10   1  -8   26.60    3.60
   9   2  -8   25.30    3.60
   8   3  -8   83.39    7.10
  12  -2  -8  292.57   19.10
  12  -2  -8  254.37   19.00
  12  -2  -8  299.57   19.00
 -12   2   8  310.87   20.20
  11  -1  -8 1433.76   97.09
  11  -1  -8 1467.95   96.99
  11  -1  -8 1563.94   97.09
  11  -1  -8 1523.95   97.09
  10   0  -8  805.42   49.99
  10   0  -8  779.52   49.80
  10   0  -8  789.32   49.90
  10   0  -8  676.93   49.80
  10   0  -8  765.12   49.90
   9   1  -8   99.89    8.00
   9   1  -8  109.29    8.10
   9   1  -8  104.79    8.20
   9   1  -8  104.39    8.60
   8   2  -8 1596.94  102.99
   8   2  -8 1574.74  103.19
   7   3  -8   64.79    6.60
  11  -2  -8   52.39    4.50
  11  -2  -8   45.00    4.80
  11  -2  -8   56.89    4.60
 -11   2   8   46.60    7.30
 -11   2   8   54.09   11.50
  10  -1  -8   27.30    3.70
  10  -1  -8   28.00    3.90
  10  -1  -8   24.90    3.50
   9   0  -8    1.80    3.00
   9   0  -8    0.80    2.50
   9   0  -8    4.00    3.60
   9   0  -8    2.00    2.80
   9   0  -8    3.30    2.70
   9   0  -8    1.10    2.20
   8   1  -8 1158.98   76.69
   8   1  -8 1182.68   76.79
   8   1  -8 1190.38   76.79
   8   1  -8 1183.58   76.79
   7   2  -8   65.19    6.00
   7   2  -8   65.09    6.20
   6   3  -8   16.30    5.10
  10  -2  -8   33.80    4.30
  10  -2  -8   42.40    4.60
  10  -2  -8   46.10    4.10
  10  -2  -8   42.10    3.70
 -10   2   8   37.20    5.90
   9  -1  -8  115.69    8.70
   9  -1  -8  126.39    9.10
   9  -1  -8  129.09    9.20
   9  -1  -8  129.49    9.10
   9  -1  -8  120.39    8.90
  -9   1   8  123.19   10.90
   8   0  -8  533.95   38.20
   8   0  -8  633.84   38.30
   8   0  -8  518.65   38.40
   8   0  -8  632.84   38.20
   8   0  -8  580.74   38.10
   8   0  -8  585.84   38.20
   8   0  -8  579.24   38.10
   7   1  -8   55.59    6.80
   7   1  -8   52.49    5.40
   7   1  -8   64.89    5.90
   7   1  -8   67.89    5.70
   6   2  -8  196.68   14.10
   6   2  -8  196.88   14.40
   6   2  -8  208.78   14.10
   5   3  -8  174.78   12.80
   9  -2  -8   25.30    3.10
   9  -2  -8   29.60    3.70
   9  -2  -8   29.50    3.30
   9  -2  -8   29.60    4.60
   9  -2  -8   24.70    3.40
  -9   2   8   25.40    7.70
   8  -1  -8 1376.76   85.99
   8  -1  -8 1472.05   85.89
   8  -1  -8 1229.18   85.99
   8  -1  -8 1333.17   86.09
   8  -1  -8 1337.27   86.09
   8  -1  -8 1375.86   86.09
  -8   1   8 1154.78   89.19
   7   0  -8   -1.80    2.60
   7   0  -8   -1.60    2.60
   7   0  -8   -1.20    2.60
   7   0  -8   -0.80    2.70
   7   0  -8    0.70    2.30
   6   1  -8    2.20    2.30
   6   1  -8    4.20    3.10
   6   1  -8   10.90    3.10
   5   2  -8   15.40    3.00
   5   2  -8    4.30    3.00
   5   2  -8    9.70    3.10
   4   3  -8  127.89    9.90
   9  -3  -8   22.80    2.50
   9  -3  -8   15.90    2.90
   9  -3  -8   17.50    2.50
  -9   3   8   14.80    4.60
  -9   3   8   19.30    5.50
   8  -2  -8 1968.60  123.59
   8  -2  -8 1872.91  123.79
   8  -2  -8 1793.72  123.59
   8  -2  -8 2038.70  123.79
   8  -2  -8 1959.60  123.79
  -8   2   8 1835.82  125.99
   7  -1  -8   69.59    5.90
   7  -1  -8   72.39    6.40
   7  -1  -8   69.69    5.70
   7  -1  -8   72.49    6.10
   7  -1  -8   63.79    6.50
   7  -1  -8   75.69    5.40
  -7   1   8   69.89    6.60
   6   0  -8  656.53   40.70
   6   0  -8  592.04   40.90
   5   1  -8  203.48   13.60
   4   2  -8   26.10    4.80
   4   2  -8   30.70    4.40
   4   2  -8   25.60    4.70
   3   3  -8  476.05   31.70
   8  -3  -8   84.99    6.50
   8  -3  -8   91.79    6.90
   8  -3  -8   94.19    6.40
  -8   3   8   82.79   10.40
  -8   3   8   72.69    9.40
   7  -2  -8   78.09    6.60
   7  -2  -8   74.69    6.20
   7  -2  -8   83.89    6.50
   7  -2  -8   83.39    6.10
   7  -2  -8   78.59    6.50
   7  -2  -8   86.89    6.60
  -7   2   8   84.89    8.90
  -7   2   8   59.39   13.60
   6  -1  -8    3.70    1.60
   6  -1  -8    5.80    1.30
   6  -1  -8    8.60    2.40
   6  -1  -8    2.30    2.30
   6  -1  -8    5.00    2.20
   6  -1  -8    4.40    2.50
  -6   1   8    2.20    2.70
   5   0  -8   -0.40    0.90
  -5   0   8    3.60    1.50
   4   1  -8  480.25   31.40
   3   2  -8    2.10    3.00
   3   2  -8    9.60    3.20
   3   2  -8    5.60    3.30
   2   3  -8   50.59    9.90
   2   3  -8   61.99    6.30
   7  -3  -8   72.69    5.50
   7  -3  -8   71.59    5.70
   7  -3  -8   69.59    6.20
  -7   3   8   72.69   10.10
  -7   3   8   70.09   10.00
  -7   3   8   68.49   11.40
   6  -2  -8  242.68   16.00
   6  -2  -8  234.78   16.10
   6  -2  -8  239.98   15.80
   6  -2  -8  223.28   16.00
   6  -2  -8  231.48   15.70
  -6   2   8  220.38   21.50
  -6   2   8  250.67   17.40
   5  -1  -8  205.78   14.40
   5  -1  -8  218.68   14.00
   5  -1  -8  218.68   14.10
  -5   1   8  199.38   14.50
   4   0  -8  200.68   12.90
  -4   0   8  187.18   13.00
   3   1  -8  842.12   54.59
   2   2  -8   32.10    4.90
   2   2  -8   14.00    8.40
   2   2  -8   30.00    5.30
   2   2  -8   27.40    4.10
  -2  -2   8   26.00    3.10
   1   3  -8  838.92   51.89
   1   3  -8  705.93   50.49
   6  -3  -8   39.30    4.60
   6  -3  -8   26.30    3.90
   6  -3  -8   25.50    4.50
   6  -3  -8   27.30    4.30
   6  -3  -8   31.40    3.40
  -6   3   8   38.00    8.20
  -6   3   8   23.90   11.10
  -6   3   8   33.60    8.90
   5  -2  -8    8.30    2.60
   5  -2  -8   11.00    2.60
   5  -2  -8    4.70    2.20
   5  -2  -8    7.20    1.80
   5  -2  -8    9.50    2.60
  -5   2   8   -1.40    9.20
  -5   2   8    5.40   11.80
  -5   2   8    6.00    3.70
   4  -1  -8  457.95   31.80
   4  -1  -8  511.15   31.60
   4  -1  -8  484.55   31.50
  -4   1   8  483.35   32.00
   3   0  -8   -0.40    0.90
  -3   0   8    2.10    1.20
   2   1  -8   55.79    4.20
   1   2  -8   89.19    8.60
   1   2  -8  100.89   12.00
   0   3  -8   21.60    5.80
   5  -3  -8  162.68   12.70
   5  -3  -8  206.28   12.80
   5  -3  -8  181.68   12.90
   5  -3  -8  184.98   12.50
  -5   3   8  156.18   18.00
  -5   3   8  200.78   17.60
  -5   3   8  188.78   15.30
   4  -2  -8   28.60    4.90
   4  -2  -8   28.90    3.70
   4  -2  -8   28.50    2.90
   4  -2  -8   24.10    3.50
   4  -2  -8   25.80    3.60
   4  -2  -8   29.50    4.10
  -4   2   8   19.30    8.90
  -4   2   8   16.60    6.30
   3  -1  -8  946.71   58.19
   3  -1  -8  903.21   58.09
  -3   1   8  842.02   58.39
   2   0  -8 5247.58  340.07
  -2   0   8 5303.17  340.07
   1   1  -8 6222.98  401.06
   0   2  -8  584.74   39.10
   0   2  -8  555.24   39.50
  -1   3  -8 1043.00   71.19
  -1   3  -8 1101.69   71.49
   4  -3  -8  133.39    9.50
   4  -3  -8  123.09    8.90
   4  -3  -8  123.79    8.90
   4  -3  -8  119.29    9.10
   4  -3  -8  124.99    8.60
  -4   3   8  109.09   12.00
  -4   3   8  126.89   14.80
   3  -2  -8    2.20    1.80
   3  -2  -8    4.00    2.10
   3  -2  -8   -0.60    2.80
   3  -2  -8    6.70    2.40
   3  -2  -8    4.80    2.60
   3  -2  -8    2.30    3.90
  -3   2   8   -0.10    8.50
  -3   2   8    4.40    3.20
   2  -1  -8   64.39    4.20
   2  -1  -8   62.39    4.40
  -2   1   8   50.29    4.80
   1   0  -8   -0.10    0.80
  -1   0   8    1.70    1.00
   0   1  -8   34.20    3.00
  -1   2  -8  489.25   33.90
  -1   2  -8  489.05   34.30
  -2   3  -8 1356.26   92.39
  -2   3  -8 1452.05   92.79
   3  -3  -8  474.45   32.50
   3  -3  -8  506.75   32.50
   3  -3  -8  477.75   32.60
   3  -3  -8  519.75   32.80
   3  -3  -8  500.45   32.60
  -3   3   8  487.95   34.80
  -3   3   8  502.35   37.10
   2  -2  -8   26.30    4.00
   2  -2  -8   28.90    3.30
   2  -2  -8   18.00    4.50
   2  -2  -8   31.90    3.90
  -2   2   8   37.00    9.00
  -2   2   8   26.20    4.70
   1  -1  -8 6391.16  401.16
   1  -1  -8 6461.75  401.36
  -1   1   8 5823.82  401.56
   0   0  -8 3952.00  254.87
  -1   1  -8  251.57   16.60
  -2   2  -8 1998.60  130.49
  -2   2  -8 2015.00  130.89
  -2   2  -8 2000.20  131.09
  -3   3  -8   59.69    9.70
  -3   3  -8   70.99    8.80
   2  -3  -8   34.10    4.10
   2  -3  -8   37.50    4.10
   2  -3  -8   27.40    5.30
   2  -3  -8   36.50    3.60
  -2   3   8   45.20    6.60
  -2   3   8   33.30   10.90
  -2   3   8   45.50    9.40
   1  -2  -8   97.89    9.70
   1  -2  -8  110.89    8.20
   1  -2  -8  118.89    7.90
   1  -2  -8  111.19    7.40
  -1   2   8   95.59   11.50
  -1   2   8   89.59   13.70
  -1   2   8  107.49    8.90
   0  -1  -8   38.00    2.90
   0  -1  -8   34.60    3.10
   0  -1  -8   36.90    2.90
   0   1   8   37.00    3.50
  -1   0  -8    2.60    1.00
  -2   1  -8  135.39    9.20
  -3   2  -8  241.38   18.20
  -3   2  -8  234.28   17.40
  -3   2  -8  222.28   18.00
  -4   3  -8   47.80    7.80
  -4   3  -8   36.70    7.10
   1  -3  -8  783.22   49.10
   1  -3  -8  770.82   49.00
  -1   3   8  742.03   49.80
  -1   3   8  777.62   51.49
  -1   3   8  682.83   53.49
   0  -2  -8  561.04   37.30
   0  -2  -8  493.05   36.90
   0  -2  -8  556.74   36.70
   0  -2  -8  605.24   36.70
   0  -2  -8  539.35   36.60
   0  -2  -8  595.04   36.50
   0   2   8  558.74   38.40
   0   2   8  595.04   37.30
   0   2   8  531.15   40.40
  -1  -1  -8  244.88   16.40
  -1  -1  -8  253.97   16.50
   1   1   8  248.78   16.80
  -2   0  -8 4203.08  272.27
  -2   0  -8 4242.78  272.17
  -3   1  -8  204.08   13.70
  -4   2  -8  407.36   29.70
  -4   2  -8  451.45   28.80
  -4   2  -8  394.86   29.30
  -5   3  -8  275.27   23.20
  -5   3  -8  349.07   23.00
   0  -3  -8   22.40    3.30
   0  -3  -8   19.90    3.00
   0  -3  -8   19.50    4.10
   0   3   8   12.80   13.50
   0   3   8   12.50    6.60
   0   3   8   15.90    4.40
  -1  -2  -8  448.16   29.30
  -1  -2  -8  434.36   29.30
  -1  -2  -8  427.56   29.40
  -1  -2  -8  431.76   30.10
  -1  -2  -8  446.06   29.10
  -1  -2  -8  484.15   29.30
   1   2   8  453.25   31.30
   1   2   8  447.66   33.80
   1   2   8  438.16   30.00
  -2  -1  -8  139.79    9.50
  -2  -1  -8  133.79    9.40
   2   1   8  146.99   10.00
  -3   0  -8    0.90    1.10
  -3   0  -8    2.10    1.10
  -4   1  -8  684.43   45.70
  -4   1  -8  726.63   45.90
  -5   2  -8  178.98   18.40
  -5   2  -8  197.88   16.20
  -5   2  -8  216.38   17.00
  -6   3  -8   84.69   10.30
  -6   3  -8  106.39   14.50
  -1  -3  -8  848.42   53.49
  -1  -3  -8  861.01   53.49
   1   3   8  808.52   56.29
   1   3   8  692.93   58.99
   1   3   8  883.41   54.59
  -2  -2  -8 1809.42  112.59
  -2  -2  -8 1611.64  112.39
  -2  -2  -8 1778.02  112.59
  -2  -2  -8 1904.11  112.49
  -2  -2  -8 1726.93  112.89
   2   2   8 1660.73  113.59
   2   2   8 1873.01  113.19
   2   2   8 1540.15  114.99
  -3  -1  -8  178.28   12.90
  -3  -1  -8  190.58   12.90
   3   1   8  212.78   13.50
  -4   0  -8  416.36   26.80
  -4   0  -8  402.66   26.80
  -5   1  -8   75.69    5.70
  -5   1  -8   75.39    5.90
  -5   1  -8   72.09    7.90
  -5   1  -8   70.39   10.40
  -5   1  -8   76.09    8.20
  -6   2  -8   14.40    4.00
  -6   2  -8   18.80    5.40
  -7   3  -8  560.64   33.90
  -7   3  -8  408.96   32.60
   7  -3   8  481.95   31.70
  -2  -3  -8 1078.89   68.29
  -2  -3  -8 1066.49   68.49
  -2  -3  -8 1079.49   68.39
  -2  -3  -8 1017.90   68.39
   2   3   8  943.61   70.79
   2   3   8 1128.29   69.49
  -3  -2  -8  212.08   13.90
  -3  -2  -8  209.88   15.10
  -3  -2  -8  189.38   13.50
  -3  -2  -8  203.88   13.50
  -3  -2  -8  170.28   13.40
   3   2   8  194.38   15.70
   3   2   8  192.08   20.20
  -4  -1  -8  689.53   46.80
  -4  -1  -8  690.03   46.80
   4   1   8  780.42   47.40
  -5   0  -8    0.80    1.40
  -5   0  -8    0.10    1.30
  -6   1  -8  297.07   20.20
  -6   1  -8  301.57   22.30
  -6   1  -8  294.47   19.50
  -6   1  -8  281.57   20.40
   6  -1   8  278.47   19.90
  -7   2  -8    5.70    6.30
  -7   2  -8    3.10    3.40
  -7   2  -8    7.40    5.00
   7  -2   8    2.60    2.80
  -8   3  -8   27.80    6.20
  -8   3  -8   21.30    4.90
   8  -3   8   19.40    3.10
  -3  -3  -8   30.30    4.50
  -3  -3  -8   37.70    3.60
  -3  -3  -8   31.90    3.50
   3   3   8   13.90    8.20
   3   3   8   26.80    5.20
  -4  -2  -8  307.87   21.40
  -4  -2  -8  329.77   22.10
  -4  -2  -8  334.87   21.30
  -4  -2  -8  310.07   21.00
  -4  -2  -8  325.97   21.20
   4   2   8  308.17   23.30
   4   2   8  272.97   26.10
   4   2   8  338.87   22.60
  -5  -1  -8   64.09    6.20
  -5  -1  -8   56.49    6.80
  -5  -1  -8   68.49    5.20
  -5  -1  -8   69.59    5.10
   5   1   8   67.39    6.20
  -6   0  -8  478.85   32.00
  -6   0  -8  465.05   31.80
  -6   0  -8  480.65   31.30
  -6   0  -8  481.25   31.30
  -7   1  -8  533.25   37.70
  -7   1  -8  528.25   37.50
  -7   1  -8  594.94   39.70
  -7   1  -8  568.74   38.00
  -7   1  -8  620.84   38.50
   7  -1   8  591.44   37.80
  -8   2  -8 1120.19   74.19
  -8   2  -8 1148.69   73.59
  -8   2  -8 1077.39   72.99
   8  -2   8 1120.69   72.59
   9  -3   8  602.84   39.20
  -4  -3  -8   28.30    3.30
  -4  -3  -8   29.10    3.50
   4   3   8   23.40    5.10
   4   3   8   20.30    7.50
  -5  -2  -8  182.68   12.10
  -5  -2  -8  186.88   12.20
  -5  -2  -8  157.78   12.00
   5   2   8  156.78   14.30
   5   2   8  157.58   13.60
  -6  -1  -8  238.68   17.00
  -6  -1  -8  223.48   16.80
  -6  -1  -8  255.37   16.20
  -6  -1  -8  246.48   16.20
   6   1   8  229.58   17.70
  -7   0  -8    1.10    1.80
  -7   0  -8    1.90    3.50
  -7   0  -8    0.90    2.00
  -7   0  -8   -2.20    3.00
  -7   0  -8    3.30    4.70
   7   0   8    1.10    3.00
  -8   1  -8  102.69    8.60
  -8   1  -8   99.29    9.10
  -8   1  -8  112.49    8.80
   8  -1   8   94.49    9.20
  -9   2  -8  142.79   11.40
  -9   2  -8  137.69   12.50
   9  -2   8  141.19   10.00
  -5  -3  -8  254.77   16.90
  -5  -3  -8  266.87   17.00
   5   3   8  234.68   18.50
  -6  -2  -8   17.90    3.40
  -6  -2  -8   16.00    3.10
  -6  -2  -8   12.90    3.00
  -6  -2  -8   16.40    2.70
   6   2   8   15.40    5.30
   6   2   8    1.70    8.40
   6   2   8    5.30    5.60
  -7  -1  -8  474.25   33.40
  -7  -1  -8  483.15   33.00
  -7  -1  -8  529.05   33.10
  -7  -1  -8  479.85   33.30
   7   1   8  516.05   33.40
   7   1   8  524.55   33.70
   7   1   8  502.45   34.20
  -8   0  -8   11.40    3.30
  -8   0  -8   12.40    2.60
  -8   0  -8    7.20    2.90
  -8   0  -8   12.80    4.70
  -8   0  -8   11.60    3.70
   8   0   8    9.60    3.70
  -9   1  -8 1137.19   79.39
  -9   1  -8 1269.37   79.59
  -9   1  -8 1173.98   79.89
  -9   1  -8 1197.98   80.49
   9  -1   8 1315.07   79.19
 -10   2  -8  934.01   60.69
 -10   2  -8  871.21   59.79
 -10   2  -8  999.20   61.09
  10  -2   8  861.71   59.49
  -6  -3  -8   71.39    6.00
  -6  -3  -8   65.19    5.60
   6   3   8   76.59    9.20
  -7  -2  -8    3.30    4.50
  -7  -2  -8    1.60    3.40
  -7  -2  -8   -1.50    2.00
  -7  -2  -8    7.30    2.50
   7   2   8    2.00   11.10
   7   2   8   -2.20    4.50
   7   2   8    0.40    8.10
   7   2   8   -0.60    3.70
  -8  -1  -8   87.19    7.80
  -8  -1  -8  104.39   10.30
  -8  -1  -8   92.69    7.80
  -8  -1  -8   94.09    7.60
   8   1   8  101.19    8.70
   8   1   8   81.49    9.00
  -9   0  -8    4.60    3.90
  -9   0  -8   -2.80    2.90
  -9   0  -8    3.50    3.10
  -9   0  -8   -2.50    3.20
  -9   0  -8   -0.60    3.20
   9   0   8   -2.20    2.90
 -10   1  -8  101.39    8.50
 -10   1  -8   83.29   11.00
 -10   1  -8  109.39    9.00
  10  -1   8  110.49    7.80
 -11   2  -8   82.49    7.30
 -11   2  -8   70.99    7.00
 -11   2  -8   69.49    8.30
  11  -2   8   71.69    5.80
  -7  -3  -8  320.87   21.20
  -7  -3  -8  326.27   21.30
   7   3   8  318.87   22.40
  -8  -2  -8  811.92   52.69
  -8  -2  -8  798.62   52.99
   8   2   8  824.62   52.99
   8   2   8  802.52   53.79
  -9  -1  -8  970.90   63.59
  -9  -1  -8  941.41   63.49
  -9  -1  -8 1025.40   63.39
  -9  -1  -8  987.00   63.59
   9   1   8 1005.60   63.49
   9   1   8  911.61   63.99
   9   1   8  958.70   63.89
 -10   0  -8  121.79    9.80
 -10   0  -8  112.99    8.60
 -10   0  -8  101.69    9.30
  10   0   8  107.69    8.50
 -11   1  -8  168.98   12.10
 -11   1  -8  155.08   12.30
  11  -1   8  166.08   11.50
 -12   2  -8  513.75   36.90
  12  -2   8  620.54   36.90
  -8  -3  -8   11.60    1.80
  -8  -3  -8    9.70    1.70
   8   3   8    5.70    2.70
  -9  -2  -8  108.69    7.90
  -9  -2  -8   99.09    7.50
   9   2   8   91.69    8.80
 -10  -1  -8   74.99    6.90
 -10  -1  -8   74.09    6.60
  10   1   8   86.79    7.00
  10   1   8   80.09    8.10
 -11   0  -8    2.20    2.50
 -11   0  -8    2.10    2.80
 -11   0  -8    5.20    4.00
  11   0   8    8.80    4.40
  11   0   8    7.10    2.40
 -12   1  -8    3.40    2.80
 -12   1  -8    1.10    3.30
  12  -1   8    2.60    2.50
  -9  -3  -8  379.06   24.20
  -9  -3  -8  404.46   24.30
   9   3   8  327.27   24.50
 -10  -2  -8  676.53   41.90
 -10  -2  -8  628.94   41.70
  10   2   8  599.44   42.30
  10   2   8  647.64   41.80
 -11  -1  -8  107.09    9.80
 -11  -1  -8  129.69    9.40
 -11  -1  -8  146.79   10.10
  11   1   8  112.49   14.20
  11   1   8  107.19   10.50
 -12   0  -8  527.35   34.70
  12   0   8  501.85   34.00
 -13   1  -8  303.57   18.90
 -13   1  -8  284.47   18.50
  13  -1   8  237.48   18.20
 -11  -2  -8   50.59    4.60
 -11  -2  -8   54.09    4.40
  11   2   8   45.10    5.70
  11   2   8   51.59    5.30
 -12  -1  -8    6.30    2.60
 -12  -1  -8   -0.40    2.10
 -12  -1  -8    3.70    2.20
  12   1   8    8.80    4.20
  12   1   8   -0.20    2.40
 -13   0  -8   -2.10    2.50
 -13   0  -8    1.20    2.20
  13   0   8   -2.80    1.70
 -12  -2  -8  476.65   32.90
 -12  -2  -8  530.15   32.80
 -13  -1  -8  215.08   15.40
 -13  -1  -8  207.08   15.00
 -13  -1  -8  258.47   15.40
  13   1   8  207.68   14.90
 -14   0  -8  717.13   46.70
  14   0  -9    0.70    1.90
  14   0  -9    0.40    1.30
 -14   0   9    4.70    3.40
  13   1  -9   83.59    6.30
  12   2  -9    2.90    1.60
  13   0  -9  148.59    9.60
  13   0  -9  125.69    9.70
  12   1  -9  275.97   19.40
  11   2  -9   21.50    3.10
  13  -1  -9   91.49    7.80
  13  -1  -9   92.19    6.70
  13  -1  -9   92.79    6.70
 -13   1   9   94.99    8.70
  12   0  -9   -1.50    2.80
  12   0  -9   -0.10    1.60
  12   0  -9   -2.10    2.50
  12   0  -9    0.80    1.80
  11   1  -9   33.00    3.90
  11   1  -9   27.40    3.40
  11   1  -9   26.60    4.60
  12  -1  -9  237.88   15.60
  12  -1  -9  211.68   15.30
 -12   1   9  228.98   17.10
  11   0  -9    6.40    1.90
  11   0  -9    9.30    2.70
  11   0  -9    6.10    1.90
  11   0  -9    9.70    2.60
  11   0  -9    3.90    3.30
  10   1  -9   74.69    6.30
  10   1  -9   76.09    7.10
  10   1  -9   90.59    6.70
   9   2  -9   25.70    3.80
   8   3  -9   43.50    4.80
  12  -2  -9    0.60    1.40
  12  -2  -9   -0.10    1.20
  12  -2  -9    1.00    1.30
  12  -2  -9   -1.00    2.40
 -12   2   9   -0.10    2.60
  11  -1  -9   38.50    3.50
  11  -1  -9   36.30    3.50
  11  -1  -9   30.90    3.90
  11  -1  -9   34.80    4.70
 -11   1   9   23.70    5.00
  10   0  -9   -3.20    2.50
  10   0  -9    1.60    1.80
  10   0  -9   -2.90    3.10
  10   0  -9    2.70    2.10
  10   0  -9   -1.90    2.60
  10   0  -9   -0.90    2.30
   9   1  -9  250.07   17.30
   9   1  -9  253.47   17.10
   9   1  -9  239.48   16.90
   9   1  -9  249.28   17.10
   8   2  -9  609.64   40.00
   8   2  -9  602.94   40.10
   7   3  -9   12.00    3.20
  11  -2  -9   31.30    4.10
  11  -2  -9   23.40    3.20
  11  -2  -9   32.00    3.20
 -11   2   9   32.50    5.20
  10  -1  -9  104.79    7.70
  10  -1  -9   95.19    7.30
   9   0  -9    9.70    2.40
   9   0  -9    3.10    3.40
   9   0  -9    5.80    3.20
   9   0  -9    9.10    3.10
   9   0  -9    8.80    2.50
   8   1  -9  626.44   47.70
   8   1  -9  813.72   47.70
   7   2  -9    8.70    3.00
   7   2  -9    1.40    2.30
   6   3  -9   33.20    5.20
  10  -2  -9    6.40    2.50
  10  -2  -9    8.60    2.80
  10  -2  -9    4.10    2.70
 -10   2   9    9.70    8.10
   9  -1  -9  285.87   18.70
   9  -1  -9  277.47   18.90
   9  -1  -9  284.57   18.80
   9  -1  -9  246.78   18.80
   9  -1  -9  300.27   19.10
   9  -1  -9  291.67   19.00
   8   0  -9    3.30    4.30
   8   0  -9    0.10    2.30
   8   0  -9   -4.30    1.90
   8   0  -9   -3.10    2.30
   8   0  -9    3.10    2.90
   8   0  -9   -0.90    3.00
   7   1  -9  204.98   14.30
   7   1  -9  195.88   14.10
   7   1  -9  211.68   14.30
   6   2  -9   14.30    3.10
   6   2  -9   17.60    3.00
   6   2  -9   20.30    3.30
   9  -2  -9   35.10    3.90
   9  -2  -9   27.60    4.40
   9  -2  -9   38.00    3.40
   9  -2  -9   27.40    3.70
   9  -2  -9   31.10    4.00
  -9   2   9   33.90    8.30
   8  -1  -9  974.20   63.39
   8  -1  -9  952.10   63.19
   8  -1  -9  906.21   63.19
   8  -1  -9  993.80   63.49
  -8   1   9  999.10   64.29
  -8   1   9 1025.20   68.69
   7   0  -9 2251.07  136.49
   7   0  -9 2237.88  136.59
   7   0  -9 2008.30  136.59
   7   0  -9 2094.69  136.39
   7   0  -9 2013.80  136.39
   7   0  -9 2173.98  136.39
   7   0  -9 1980.80  136.29
   6   1  -9  206.28   14.60
   6   1  -9  200.88   14.50
   6   1  -9  222.08   14.70
   5   2  -9  273.87   20.30
   5   2  -9  311.17   20.40
   5   2  -9  306.57   20.30
   4   3  -9  539.45   35.70
   9  -3  -9   90.09    6.80
   9  -3  -9   90.19    6.40
   9  -3  -9   88.19    6.50
  -9   3   9  101.29    9.80
  -9   3   9   90.99    8.50
   8  -2  -9  712.43   46.20
   8  -2  -9  729.33   46.20
   8  -2  -9  770.92   46.90
   8  -2  -9  672.73   46.10
   8  -2  -9  730.13   46.10
  -8   2   9  625.04   48.70
   7  -1  -9  233.38   15.40
   7  -1  -9  230.28   15.40
   7  -1  -9  226.28   15.70
   7  -1  -9  215.28   15.80
   7  -1  -9  232.98   15.90
   7  -1  -9  235.28   15.70
  -7   1   9  236.18   16.70
   6   0  -9    1.50    1.20
   6   0  -9   -1.90    2.40
   6   0  -9    2.10    3.20
   6   0  -9   -4.20    3.00
   6   0  -9    4.10    2.40
   5   1  -9  277.77   17.60
   5   1  -9  270.37   18.30
   5   1  -9  261.77   18.40
   5   1  -9  249.08   18.00
   4   2  -9  164.78   11.50
   4   2  -9  145.39   11.40
   3   3  -9   90.59    7.90
   8  -3  -9   44.30    3.70
   8  -3  -9   56.29    6.30
   8  -3  -9   40.60    3.90
  -8   3   9   33.20    5.70
  -8   3   9   53.29    8.50
   7  -2  -9    5.40    2.00
   7  -2  -9    4.50    1.90
   7  -2  -9    5.70    2.40
   7  -2  -9   11.90    3.10
   7  -2  -9    7.00    2.30
   7  -2  -9    9.20    2.50
  -7   2   9   10.00    8.50
   6  -1  -9  225.38   15.70
   6  -1  -9  240.08   16.20
   6  -1  -9  222.08   15.50
   6  -1  -9  243.78   15.70
   6  -1  -9  224.68   15.80
   6  -1  -9  240.78   16.30
  -6   1   9  225.58   16.20
   5   0  -9   61.19    4.60
   4   1  -9  770.02   47.00
   4   1  -9  670.93   47.90
   3   2  -9  123.69   10.90
   3   2  -9  152.98   11.10
   3   2  -9  153.68   10.80
   2   3  -9  123.49    9.70
   7  -3  -9    7.00    2.00
   7  -3  -9   11.20    3.00
   7  -3  -9    7.90    2.40
   7  -3  -9    8.60    1.80
  -7   3   9    3.70    5.70
  -7   3   9    9.20    5.70
   6  -2  -9   26.10    3.50
   6  -2  -9   24.80    3.20
   6  -2  -9   25.40    3.80
   6  -2  -9   26.30    4.10
   6  -2  -9   19.60    3.80
  -6   2   9   15.40    5.10
  -6   2   9   24.20   10.10
   5  -1  -9  288.47   19.30
   5  -1  -9  292.87   19.20
   5  -1  -9  288.67   19.70
   5  -1  -9  284.27   18.90
   5  -1  -9  299.57   19.40
   5  -1  -9  261.17   19.30
   5  -1  -9  297.57   19.10
  -5   1   9  292.27   19.70
   4   0  -9   -1.10    1.00
   3   1  -9  400.86   26.30
   2   2  -9    2.00    3.90
   2   2  -9    5.10    3.50
   2   2  -9    4.30    3.30
   6  -3  -9   13.70    2.60
   6  -3  -9   13.20    2.60
   6  -3  -9   16.40    2.80
   6  -3  -9   21.50    3.40
   6  -3  -9   19.00    3.30
  -6   3   9   16.70   10.20
  -6   3   9   19.70    7.30
  -6   3   9   18.30    5.60
   5  -2  -9  348.07   22.30
   5  -2  -9  332.67   22.50
   5  -2  -9  317.87   23.20
   5  -2  -9  356.66   22.50
   5  -2  -9  371.26   22.30
  -5   2   9  326.77   23.50
  -5   2   9  293.07   26.90
   4  -1  -9  836.42   51.49
   4  -1  -9  797.72   51.59
  -4   1   9  746.73   51.89
   3   0  -9  991.20   61.69
  -3   0   9  913.41   61.79
   2   1  -9 1047.40   67.89
   1   2  -9  302.77   21.30
   1   2  -9  342.37   23.30
   1   2  -9  286.57   21.80
   0   3  -9  264.77   20.00
   5  -3  -9  113.59    9.00
   5  -3  -9  100.39    6.80
   5  -3  -9   76.89    7.90
   5  -3  -9   82.09    7.30
   5  -3  -9   93.69    7.60
  -5   3   9  110.69   13.60
  -5   3   9   72.39   14.00
   4  -2  -9  182.98   12.40
   4  -2  -9  203.08   13.00
   4  -2  -9  172.88   13.80
   4  -2  -9  189.98   12.90
   4  -2  -9  192.28   14.00
  -4   2   9  175.68   18.10
  -4   2   9  159.68   13.80
   3  -1  -9  455.45   28.20
   3  -1  -9  420.16   28.40
  -3   1   9  424.56   28.80
   2   0  -9    0.10    0.90
  -2   0   9    0.00    1.30
   1   1  -9  365.36   24.00
   0   2  -9   43.70    9.10
   0   2  -9   41.20    9.80
  -1   3  -9  242.18   19.30
  -1   3  -9  241.58   18.50
   4  -3  -9  560.94   38.10
   4  -3  -9  538.25   37.60
   4  -3  -9  606.54   37.50
   4  -3  -9  557.24   37.60
   4  -3  -9  565.84   37.70
  -4   3   9  596.34   41.20
  -4   3   9  595.14   39.60
   3  -2  -9  163.68   12.50
   3  -2  -9  200.38   14.10
   3  -2  -9  191.18   12.40
   3  -2  -9  169.68   12.90
   3  -2  -9  184.98   12.70
   3  -2  -9  200.08   12.30
  -3   2   9  155.28   18.30
  -3   2   9  172.98   13.50
   2  -1  -9 1082.99   71.39
   2  -1  -9 1205.28   71.19
  -2   1   9 1015.90   71.59
   1   0  -9 1922.61  130.49
  -1   0   9 2117.29  130.49
   0   1  -9 1637.94  105.89
  -1   2  -9  224.18   17.20
  -1   2  -9  199.98   16.60
  -2   3  -9  371.26   26.60
  -2   3  -9  363.46   26.30
   3  -3  -9   80.39    7.00
   3  -3  -9   74.29    6.50
   3  -3  -9   78.79    6.20
   3  -3  -9   74.79    6.20
   3  -3  -9   76.49    5.90
  -3   3   9   80.19   14.10
  -3   3   9   79.89    9.70
   2  -2  -9   -1.80    2.20
   2  -2  -9   -0.10    3.30
   2  -2  -9   -0.20    1.80
   2  -2  -9    2.70    4.30
   2  -2  -9    4.00    2.00
   2  -2  -9    3.30    3.00
  -2   2   9   -2.00    8.00
   1  -1  -9  365.06   23.20
  -1   1   9  341.87   23.50
   0   0  -9    0.00    0.90
  -1   1  -9  358.36   23.50
  -2   2  -9  196.38   15.00
  -2   2  -9  197.28   16.10
  -2   2  -9  180.68   15.60
  -3   3  -9   19.40    6.00
   2  -3  -9  103.29    9.00
   2  -3  -9  114.49    8.80
   2  -3  -9  123.89    8.70
   2  -3  -9  122.69    8.50
   2  -3  -9  124.39    9.40
  -2   3   9  130.59   10.90
  -2   3   9  123.39   12.60
  -2   3   9  127.79   17.70
   1  -2  -9  356.76   23.80
   1  -2  -9  356.16   24.90
   1  -2  -9  356.76   24.10
   1  -2  -9  342.57   23.90
   1  -2  -9  369.86   23.90
  -1   2   9  378.86   28.20
  -1   2   9  357.16   25.70
  -1   2   9  370.56   26.40
   0  -1  -9 1672.23  103.29
   0  -1  -9 1563.54  103.19
   0   1   9 1556.24  103.59
  -1   0  -9 2076.89  142.39
  -1   0  -9 2342.97  142.69
  -2   1  -9   57.29    4.60
  -3   2  -9 1342.87   83.69
  -3   2  -9 1351.46   82.39
  -3   2  -9 1072.19   83.99
  -4   3  -9   33.40    7.10
   1  -3  -9   28.00    3.80
   1  -3  -9   38.00    3.50
   1  -3  -9   29.00    5.20
   1  -3  -9   41.00    4.00
   1  -3  -9   29.70    4.20
  -1   3   9   44.50    9.50
  -1   3   9   50.39   12.90
  -1   3   9   28.40    5.10
   0  -2  -9   47.00    6.20
   0  -2  -9   39.50    7.30
   0  -2  -9   39.70    4.50
   0  -2  -9   46.10    4.30
   0   2   9   51.89    8.70
   0   2   9   54.09   10.30
  -1  -1  -9  346.27   22.90
  -1  -1  -9  326.57   22.80
   1   1   9  374.66   23.30
  -2   0  -9   -1.20    1.00
  -3   1  -9  579.34   37.80
  -4   2  -9  141.69   13.30
  -5   3  -9   31.30    7.90
  -5   3  -9   54.49   11.20
   0  -3  -9  236.18   15.50
   0  -3  -9  243.88   16.20
   0  -3  -9  215.08   15.80
   0  -3  -9  227.48   15.60
   0   3   9  199.78   24.20
   0   3   9  232.98   16.90
   0   3   9  258.77   20.10
  -1  -2  -9  169.48   14.40
  -1  -2  -9  190.58   13.20
  -1  -2  -9  192.98   14.60
  -1  -2  -9  184.08   13.30
  -1  -2  -9  218.18   13.50
   1   2   9  206.68   19.20
   1   2   9  203.28   14.40
   1   2   9  175.18   16.20
  -2  -1  -9   51.99    4.20
  -2  -1  -9   59.89    4.40
   2   1   9   56.39    5.00
  -3   0  -9   22.40    2.50
  -3   0  -9   22.70    2.30
  -4   1  -9   43.20    6.00
  -4   1  -9   38.00    4.00
  -4   1  -9   47.30    6.10
  -4   1  -9   31.30    6.70
  -5   2  -9  157.38   12.80
  -5   2  -9  165.08   14.30
  -6   3  -9  160.88   15.00
  -6   3  -9  208.38   15.50
   6  -3   9  197.68   13.20
  -1  -3  -9  186.58   12.60
  -1  -3  -9  190.38   12.70
  -1  -3  -9  195.78   13.40
   1   3   9  159.58   24.50
   1   3   9  191.88   14.30
   1   3   9  165.78   16.40
  -2  -2  -9  165.18   11.40
  -2  -2  -9  163.48   12.60
  -2  -2  -9  158.48   11.60
  -2  -2  -9  168.38   11.50
  -2  -2  -9  162.18   11.50
   2   2   9  166.38   14.40
   2   2   9  180.48   12.80
   2   2   9  136.39   18.40
  -3  -1  -9  532.65   36.10
  -3  -1  -9  567.94   36.20
   3   1   9  561.24   36.70
  -4   0  -9    1.60    1.40
  -4   0  -9   -0.40    1.30
  -5   1  -9   34.30    5.00
  -5   1  -9   39.50    7.30
  -5   1  -9   33.30    4.30
  -5   1  -9   30.90    5.00
  -6   2  -9  177.08   13.90
  -6   2  -9  183.98   15.40
  -7   3  -9   50.69    7.20
  -7   3  -9   40.40    7.20
   7  -3   9   46.80    4.40
  -2  -3  -9  258.37   18.20
  -2  -3  -9  282.67   18.10
  -2  -3  -9  268.17   18.70
   2   3   9  306.77   19.70
   2   3   9  242.78   21.90
  -3  -2  -9 1090.49   63.19
  -3  -2  -9 1077.49   63.49
   3   2   9  860.01   64.39
   3   2   9  832.72   66.59
  -4  -1  -9   25.80    4.10
  -4  -1  -9   25.30    2.90
  -4  -1  -9   23.10    3.80
  -4  -1  -9   24.90    3.80
  -4  -1  -9   29.80    3.30
   4   1   9   34.30    4.40
  -5   0  -9  336.47   21.30
  -5   0  -9  302.37   21.10
  -5   0  -9  298.97   21.70
  -5   0  -9  346.27   23.20
  -6   1  -9  403.76   28.30
  -6   1  -9  410.36   29.00
  -6   1  -9  439.26   28.80
  -6   1  -9  421.56   30.20
   6  -1   9  458.25   28.60
  -7   2  -9   41.50    6.20
  -7   2  -9   35.70    8.20
  -7   2  -9   37.20    8.00
   7  -2   9   36.50    4.30
  -8   3  -9   80.99    8.30
  -8   3  -9  100.99    8.60
   8  -3   9   84.59    6.50
  -3  -3  -9    8.60    2.00
  -3  -3  -9   10.60    2.00
  -3  -3  -9    8.60    4.10
   3   3   9    8.60    4.20
   3   3   9    5.00    7.00
  -4  -2  -9  110.79    8.20
  -4  -2  -9  106.09    7.80
  -4  -2  -9   99.59    7.70
   4   2   9   72.69   15.80
   4   2   9  102.19   11.20
   4   2   9   96.69    9.90
  -5  -1  -9   26.10    4.60
  -5  -1  -9   25.40    3.10
  -5  -1  -9   30.20    3.40
  -5  -1  -9   24.60    3.50
  -5  -1  -9   25.30    3.70
   5   1   9   26.80    4.10
   5   1   9   23.50    5.80
  -6   0  -9    2.70    4.20
  -6   0  -9   -0.60    2.90
  -6   0  -9    4.30    3.30
  -6   0  -9    2.50    1.90
  -7   1  -9  129.39   10.60
   7  -1   9  133.29   10.20
  -8   2  -9    4.30    3.50
  -8   2  -9    5.10    4.60
  -8   2  -9    5.80    4.90
   8  -2   9    1.30    2.00
  -4  -3  -9   23.50    3.10
  -4  -3  -9   23.40    3.20
   4   3   9   35.70   10.20
   4   3   9   20.30    5.10
  -5  -2  -9  105.69    8.90
  -5  -2  -9  106.29    9.00
  -5  -2  -9  110.69    8.20
  -5  -2  -9  128.69    8.60
   5   2   9   90.69   11.00
   5   2   9   99.09   11.40
   5   2   9  123.39   15.40
  -6  -1  -9  343.77   24.70
  -6  -1  -9  417.16   24.80
  -6  -1  -9  342.27   24.40
  -6  -1  -9  373.16   24.90
   6   1   9  360.46   25.90
  -7   0  -9   11.10    3.20
  -7   0  -9    4.50    3.40
  -7   0  -9    7.80    4.20
  -7   0  -9   16.10    4.00
  -8   1  -9  247.28   19.40
  -8   1  -9  256.17   17.50
  -8   1  -9  237.28   18.00
   8  -1   9  262.67   17.20
  -9   2  -9   17.80    8.30
  -9   2  -9   13.90    4.90
  -5  -3  -9   28.70    4.20
  -5  -3  -9   24.70    3.50
   5   3   9   27.70    8.30
  -6  -2  -9  109.99    8.40
  -6  -2  -9  119.79    9.80
  -6  -2  -9  125.09    9.10
  -6  -2  -9  123.49    9.10
   6   2   9  110.09   12.40
   6   2   9  114.19   10.90
   6   2   9   87.29   14.60
  -7  -1  -9  111.09    8.80
  -7  -1  -9  109.99    8.50
   7   1   9  120.29    9.80
  -8   0  -9   -2.70    4.50
  -8   0  -9    2.80    3.20
  -8   0  -9   -1.40    2.90
  -8   0  -9   -1.70    2.70
   8   0   9    2.80    3.50
  -9   1  -9   33.00    5.80
  -9   1  -9   30.90    5.20
  -9   1  -9   32.50    8.00
   9  -1   9   36.10    4.40
 -10   2  -9    3.10    3.80
 -10   2  -9    5.70    4.30
 -10   2  -9    7.60    3.20
  -6  -3  -9  130.29    8.70
  -6  -3  -9  125.59    8.80
   6   3   9  126.59   13.10
   6   3   9  116.69   10.40
  -7  -2  -9   19.90    3.10
  -7  -2  -9   27.60    3.10
   7   2   9   36.90    6.70
   7   2   9   22.10    8.00
  -8  -1  -9  198.68   14.00
  -8  -1  -9  205.68   14.30
  -8  -1  -9  202.58   14.10
  -8  -1  -9  207.18   13.90
  -8  -1  -9  188.08   13.90
   8   1   9  194.18   15.00
   8   1   9  190.28   14.90
  -9   0  -9  937.71   60.79
  -9   0  -9  870.51   60.79
  -9   0  -9  862.11   60.59
  -9   0  -9  950.30   60.69
  -9   0  -9 1002.50   61.09
   9   0   9  942.31   60.49
 -10   1  -9 1047.70   70.29
 -10   1  -9 1145.09   70.79
  10  -1   9 1040.60   69.99
 -11   2  -9  224.58   16.70
 -11   2  -9  252.47   16.30
  11  -2   9  224.38   15.60
  -7  -3  -9   37.50    3.30
  -7  -3  -9   29.40    3.00
   7   3   9   29.50    5.30
  -8  -2  -9    1.80    2.00
  -8  -2  -9    1.30    2.10
   8   2   9    2.90    3.90
  -9  -1  -9   27.40    4.50
  -9  -1  -9   28.80    4.10
  -9  -1  -9   26.10    4.10
   9   1   9   21.00    4.40
 -10   0  -9   -0.30    2.50
 -10   0  -9    2.70    3.30
  10   0   9   -1.50    2.50
  11  -1   9    4.20    2.50
  -8  -3  -9   56.79    4.10
  -8  -3  -9   48.70    4.00
   8   3   9   53.19    5.20
  -9  -2  -9    3.10    2.70
 -10  -1  -9  861.41   55.19
 -10  -1  -9  898.21   55.39
 -10  -1  -9  855.91   55.49
  10   1   9  838.22   55.29
  10   1   9  784.02   55.79
 -11   0  -9 1735.93  112.19
 -11   0  -9 1859.61  112.19
  11   0   9 1687.63  111.89
  11   0   9 1630.44  112.59
 -12   1  -9   93.99    7.30
 -12   1  -9   90.29    7.80
  12  -1   9   88.09    6.80
 -10  -2  -9    5.20    2.00
 -10  -2  -9   -0.10    2.00
  10   2   9   -1.60    3.30
 -11  -1  -9    3.70    2.40
 -11  -1  -9    9.50    2.80
  11   1   9   13.10    5.30
  11   1   9    7.70    3.10
 -12   0  -9   -0.20    2.40
 -12   0  -9    0.90    2.70
  12   0   9    0.60    4.40
  12   0   9   -0.30    2.30
 -13   1  -9   20.70    3.40
  13  -1   9   15.60    2.40
 -11  -2  -9  174.28   10.80
 -11  -2  -9  168.98   11.00
  11   2   9  133.69   11.20
 -12  -1  -9   80.59    6.30
 -12  -1  -9   82.29    6.40
 -12  -1  -9   78.49    6.10
  12   1   9   61.19    7.50
  12   1   9   70.49    6.30
 -13   0  -9  394.16   24.60
 -13   0  -9  367.06   24.70
  13   0   9  355.16   24.50
 -13  -1  -9   11.10    2.10
 -13  -1  -9    8.80    2.60
  13   1   9    8.60    2.50
  14   0 -10  343.97   22.00
 -14   0  10  308.77   21.90
  13   1 -10  284.17   18.90
  13   0 -10   -0.10    1.40
  13   0 -10    1.70    2.20
  12   1 -10  114.99    8.40
  11   2 -10   -0.90    1.60
  13  -1 -10  264.67   20.40
  13  -1 -10  295.57   20.70
  13  -1 -10  319.27   20.40
  13  -1 -10  328.87   20.50
 -13   1  10  347.97   21.60
  12   0 -10  284.67   19.20
  11   1 -10  717.43   47.00
  10   2 -10   34.80    4.40
  12  -1 -10  121.19    8.90
  12  -1 -10  122.29    9.20
  12  -1 -10  130.79    8.70
  12  -1 -10  119.99    8.60
 -12   1  10  121.89   10.90
  11   0 -10    0.50    2.50
  11   0 -10   -1.00    3.30
  11   0 -10    0.90    1.70
  11   0 -10    1.20    2.30
  11   0 -10    1.20    1.90
  10   1 -10   21.70    3.40
  10   1 -10   25.20    3.60
   9   2 -10  559.64   37.00
   8   3 -10   32.50    4.20
  11  -1 -10  859.81   53.99
  11  -1 -10  780.82   53.09
  11  -1 -10  790.62   52.99
  11  -1 -10  828.42   53.09
  10   0 -10    8.00    2.90
  10   0 -10    3.20    2.00
  10   0 -10    6.40    2.00
  10   0 -10    1.10    4.10
  10   0 -10    3.70    2.80
  10   0 -10    6.50    2.20
   9   1 -10  592.34   39.00
   9   1 -10  611.64   39.20
   9   1 -10  563.04   39.10
   9   1 -10  607.24   39.20
   8   2 -10 1817.92  116.19
   8   2 -10 1762.92  116.09
   7   3 -10  217.28   15.00
  11  -2 -10    0.80    1.40
  11  -2 -10    2.20    3.00
  11  -2 -10    4.20    1.50
  11  -2 -10    2.60    1.80
 -11   2  10    2.50    3.30
  10  -1 -10   31.00    4.20
  10  -1 -10   20.00    3.70
  10  -1 -10   21.90    3.30
  10  -1 -10   25.90    3.80
  10  -1 -10   27.80    3.10
   9   0 -10   -3.20    2.00
   9   0 -10    0.90    3.20
   9   0 -10   -1.70    2.20
   9   0 -10   -4.70    2.70
   9   0 -10    3.40    3.30
   9   0 -10    1.30    1.90
   8   1 -10   18.30    3.20
   8   1 -10   16.10    2.90
   8   1 -10   15.50    2.70
   7   2 -10   54.49    5.50
   7   2 -10   63.69    5.90
   7   2 -10   58.69    5.40
   6   3 -10   29.50    4.70
  10  -2 -10   54.29    4.50
  10  -2 -10   48.80    4.70
  10  -2 -10   50.59    5.30
 -10   2  10   59.69   11.10
   9  -1 -10  669.13   42.80
   9  -1 -10  617.94   42.70
   9  -1 -10  662.53   42.80
   9  -1 -10  660.43   42.70
   9  -1 -10  658.63   42.90
   8   0 -10  670.83   43.30
   8   0 -10  635.44   43.30
   8   0 -10  671.93   43.70
   6   2 -10 1116.29   73.39
   6   2 -10 1144.59   73.39
   6   2 -10 1115.49   73.49
   5   3 -10  226.78   15.90
   9  -2 -10  626.74   43.70
   9  -2 -10  677.13   43.30
   9  -2 -10  655.03   43.40
   9  -2 -10  699.83   43.50
   8  -1 -10   19.40    2.70
   8  -1 -10   15.90    2.80
   8  -1 -10   17.40    2.60
   8  -1 -10   12.60    2.50
   8  -1 -10   26.80    3.60
   8  -1 -10   21.70    3.20
  -8   1  10   19.90   13.00
   7   0 -10    7.60    3.80
   7   0 -10    0.90    2.30
   7   0 -10    0.40    3.70
   7   0 -10   -1.40    2.60
   7   0 -10    0.60    2.40
   7   0 -10    3.30    2.30
   6   1 -10    8.10    2.90
   6   1 -10    9.80    2.50
   6   1 -10    3.20    2.60
   5   2 -10   -3.90    2.70
   5   2 -10    2.90    2.40
   5   2 -10   -0.30    2.60
   4   3 -10   57.09    6.30
   8  -2 -10 2039.50  129.49
   8  -2 -10 2062.69  129.39
   8  -2 -10 2083.89  129.39
   8  -2 -10 1907.01  129.29
   8  -2 -10 1974.40  129.29
   8  -2 -10 2008.70  129.29
  -8   2  10 1924.71  131.59
   7  -1 -10  159.58   11.80
   7  -1 -10  170.38   12.30
   7  -1 -10  160.98   11.90
   7  -1 -10  183.38   11.60
   6   0 -10  126.59    8.70
   6   0 -10  108.39    7.90
   6   0 -10  119.49    8.80
   6   0 -10  100.79    8.20
   6   0 -10  105.49    8.20
   6   0 -10  101.19    9.20
   5   1 -10 1207.98   78.39
   5   1 -10 1154.78   78.39
   5   1 -10 1181.68   78.39
   5   1 -10 1274.57   78.19
   4   2 -10  548.45   35.90
   4   2 -10  604.24   36.10
   4   2 -10  473.25   36.00
   3   3 -10  705.23   46.90
   8  -3 -10   17.30    2.30
   8  -3 -10   24.20    3.90
   8  -3 -10   17.90    2.70
  -8   3  10   22.40    5.60
  -8   3  10   11.80    4.60
   7  -2 -10   48.00    6.50
   7  -2 -10   55.79    5.70
   7  -2 -10   66.99    5.40
   7  -2 -10   69.09    5.10
   7  -2 -10   72.69    5.30
  -7   2  10   53.59   10.20
   6  -1 -10    6.30    2.10
   6  -1 -10    9.20    3.20
   6  -1 -10    4.40    2.10
   6  -1 -10    2.40    2.00
   6  -1 -10    3.20    2.00
   6  -1 -10    4.60    2.40
   6  -1 -10    3.80    2.60
  -6   1  10    0.20    4.00
   5   0 -10   -1.90    2.80
   5   0 -10    2.20    2.90
   5   0 -10   -2.00    2.30
   5   0 -10    0.80    1.30
   5   0 -10   -5.30    2.60
   4   1 -10    5.20    2.80
   4   1 -10    7.40    5.70
   4   1 -10   -1.10    2.70
   4   1 -10    1.20    1.50
   3   2 -10   75.29    7.20
   2   3 -10   95.69   11.20
   7  -3 -10  215.08   14.50
   7  -3 -10  223.28   15.10
   7  -3 -10  220.28   14.30
   7  -3 -10  205.68   14.40
  -7   3  10  209.68   16.40
  -7   3  10  217.58   17.30
   6  -2 -10 1335.47   84.89
   6  -2 -10 1323.37   85.09
   6  -2 -10 1245.88   84.89
   6  -2 -10 1412.76   85.09
   6  -2 -10 1363.96   85.09
   6  -2 -10 1424.46   85.09
  -6   2  10 1194.58   87.59
  -6   2  10 1178.58   85.89
   5  -1 -10 1361.76   87.69
   5  -1 -10 1308.07   87.09
   5  -1 -10 1335.87   87.19
   5  -1 -10 1379.96   87.29
   5  -1 -10 1308.57   87.29
   5  -1 -10 1420.66   87.39
  -5   1  10 1313.37   87.79
   4   0 -10 1653.23  106.99
   3   1 -10 1653.33  117.19
   3   1 -10 1871.11  117.29
   3   1 -10 1896.81  116.89
   2   2 -10  691.93   47.50
   2   2 -10  750.92   47.60
   6  -3 -10    9.80    2.00
   6  -3 -10    8.00    2.40
   6  -3 -10    7.80    1.70
   6  -3 -10    8.40    2.20
   6  -3 -10    7.00    3.20
  -6   3  10    6.60    5.20
  -6   3  10   -0.30    6.00
  -6   3  10   10.80    6.60
   5  -2 -10    6.50    2.10
   5  -2 -10   -0.20    2.80
   5  -2 -10   -1.00    2.20
   5  -2 -10    3.90    1.90
   5  -2 -10    6.20    2.90
  -5   2  10    6.00    4.90
  -5   2  10    1.20    8.10
   4  -1 -10    1.80    1.50
   4  -1 -10    4.10    2.40
   4  -1 -10   -2.80    2.30
   4  -1 -10    1.80    2.80
   4  -1 -10    0.40    1.40
  -4   1  10   -1.10    2.60
   3   0 -10   -2.00    1.10
   2   1 -10  549.35   35.90
   1   2 -10    2.30    3.60
   1   2 -10   -3.20    4.20
   1   2 -10    0.90    7.10
   5  -3 -10  225.58   14.60
   5  -3 -10  196.28   14.90
   5  -3 -10  233.58   14.60
   5  -3 -10  218.28   14.70
  -5   3  10  177.68   18.20
  -5   3  10  215.88   17.40
  -5   3  10  236.68   20.80
   4  -2 -10  681.23   42.50
   4  -2 -10  656.73   42.60
   4  -2 -10  636.94   42.40
   4  -2 -10  689.93   43.10
   4  -2 -10  639.14   42.60
  -4   2  10  631.84   43.60
  -4   2  10  615.04   45.10
   3  -1 -10 2074.69  129.19
   3  -1 -10 1985.10  128.79
   3  -1 -10 1908.61  128.79
  -3   1  10 2001.80  129.19
   2   0 -10  795.02   54.49
  -2   0  10  886.81   55.39
   1   1 -10 1774.02  114.69
   0   2 -10    5.50    5.60
   4  -3 -10   48.70    5.20
   4  -3 -10   48.20    5.60
   4  -3 -10   52.09    4.90
  -4   3  10   49.00   12.70
  -4   3  10   48.80   11.60
   3  -2 -10   66.29    7.00
   3  -2 -10   86.79    7.40
   3  -2 -10   89.49    6.40
   3  -2 -10   88.29    6.80
  -3   2  10   71.59    8.20
   2  -1 -10  582.64   38.30
   2  -1 -10  543.35   38.70
   2  -1 -10  639.34   38.60
   2  -1 -10  603.94   39.50
  -2   1  10  565.04   38.70
   1   0 -10   -0.70    1.10
  -1   0  10    0.80    1.60
   0   1 -10  494.05   32.30
  -1   2 -10  239.38   19.10
   3  -3 -10 1286.67   75.39
   3  -3 -10 1129.29   74.79
   3  -3 -10 1122.99   74.59
  -3   3  10 1096.39   77.79
  -3   3  10 1121.29   76.49
   2  -2 -10  973.40   60.39
  -2   2  10  875.41   60.59
  -2   2  10  907.51   63.09
   1  -1 -10 1820.22  113.99
  -1   1  10 1704.53  114.29
   0   0 -10   23.60    2.50
  -1   1 -10    8.30    1.80
  -2   2 -10  632.54   42.80
  -3   3 -10    4.80    8.60
   2  -3 -10  105.29    8.00
   2  -3 -10  107.99    8.90
   2  -3 -10  117.09    7.90
  -2   3  10   99.39   17.70
  -2   3  10  111.49   11.50
   1  -2 -10    4.50    2.50
   1  -2 -10    1.40    2.30
   1  -2 -10    1.70    3.30
  -1   2  10    3.40    3.80
  -1   2  10   13.90    5.60
  -1   2  10    6.00    8.70
   0  -1 -10  506.25   32.60
   0   1  10  490.25   33.00
  -1   0 -10    2.60    1.10
  -2   1 -10   45.20    8.90
  -2   1 -10   34.30    3.50
  -2   1 -10   28.60    5.20
  -3   2 -10 1167.78   77.19
  -3   2 -10 1159.08   76.39
  -4   3 -10   87.99   10.80
   1  -3 -10  564.04   35.10
   1  -3 -10  521.65   35.20
   1  -3 -10  545.35   35.00
  -1   3  10  450.15   40.10
  -1   3  10  587.54   38.10
   0  -2 -10    4.00    2.30
   0  -2 -10    7.70    3.20
   0  -2 -10    9.80    3.40
   0   2  10    5.40    4.10
   0   2  10    2.90    9.60
   0   2  10   12.00    7.40
  -1  -1 -10    7.10    1.60
  -1  -1 -10    8.60    1.70
  -1  -1 -10    6.60    3.00
   1   1  10    4.40    2.30
  -2   0 -10  171.88   11.70
  -3   1 -10  634.94   42.20
  -3   1 -10  633.24   40.60
  -3   1 -10  589.04   41.10
  -3   1 -10  624.54   41.30
  -4   2 -10   33.80    5.60
  -4   2 -10   49.99    8.20
  -5   3 -10  306.67   22.40
   0  -3 -10    0.10    5.10
   0  -3 -10   -0.90    2.00
   0   3  10    8.20    4.60
   0   3  10   12.60    6.50
   0   3  10   -3.30   13.80
  -1  -2 -10  179.98   13.30
  -1  -2 -10  167.08   12.30
  -1  -2 -10  189.68   12.60
   1   2  10  186.28   15.50
   1   2  10  172.88   13.70
  -2  -1 -10   30.60    4.40
  -2  -1 -10   33.60    5.70
  -2  -1 -10   40.00    5.30
  -2  -1 -10   31.50    3.30
  -2  -1 -10   33.30    3.30
   2   1  10   38.00    4.30
   2   1  10   37.80   12.60
  -3   0 -10    1.70    1.40
  -3   0 -10    1.30    1.40
  -4   1 -10  238.38   16.30
  -4   1 -10  217.58   15.70
  -4   1 -10  238.38   16.60
  -4   1 -10  227.48   18.00
  -5   2 -10   53.19    8.50
  -5   2 -10   55.49    7.20
  -6   3 -10   62.19    8.30
  -6   3 -10   65.19    8.10
   6  -3  10   46.80    5.00
  -1  -3 -10 1141.79   71.99
  -1  -3 -10 1110.49   72.09
   1   3  10 1152.68   72.89
   1   3  10 1036.00   74.49
  -2  -2 -10  724.23   47.30
  -2  -2 -10  669.33   47.10
  -2  -2 -10  779.92   47.30
   2   2  10  710.83   48.20
  -3  -1 -10  539.05   37.80
  -3  -1 -10  564.24   37.70
  -3  -1 -10  595.14   38.20
  -3  -1 -10  568.34   38.20
  -3  -1 -10  598.34   37.80
   3   1  10  605.24   38.40
   3   1  10  571.44   39.50
  -4   0 -10 1750.82  113.09
  -4   0 -10 1753.42  112.79
  -4   0 -10 1743.73  112.99
  -4   0 -10 1706.23  112.49
  -5   1 -10  255.47   17.90
  -5   1 -10  264.07   19.30
  -5   1 -10  250.87   18.00
  -5   1 -10  245.18   17.50
  -6   2 -10  321.57   22.80
  -6   2 -10  302.37   21.70
   6  -2  10  300.77   20.70
  -7   3 -10 1080.69   76.89
  -7   3 -10 1261.07   76.79
   7  -3  10 1159.98   75.59
  -2  -3 -10    6.30    2.10
  -2  -3 -10    4.20    1.90
   2   3  10    4.40    4.70
   2   3  10   -1.10    7.10
  -3  -2 -10  924.01   59.49
  -3  -2 -10  952.30   59.29
  -3  -2 -10  892.81   59.69
  -3  -2 -10  957.60   59.39
  -3  -2 -10  891.21   59.49
   3   2  10  878.81   60.59
   3   2  10  883.31   60.39
  -4  -1 -10  202.78   13.40
  -4  -1 -10  199.48   13.50
  -4  -1 -10  182.18   14.00
  -4  -1 -10  189.38   14.20
  -4  -1 -10  188.88   13.60
   4   1  10  208.88   14.30
   4   1  10  202.68   15.80
  -5   0 -10   -1.60    3.30
  -5   0 -10   -0.70    2.00
  -5   0 -10   -0.80    1.80
  -5   0 -10   -0.90    3.00
  -5   0 -10    0.30    3.80
  -6   1 -10  119.29    9.60
  -6   1 -10  102.99   10.70
  -7   2 -10  254.67   18.50
  -7   2 -10  271.87   19.60
   7  -2  10  251.97   17.50
  -4  -2 -10   34.10    4.70
  -4  -2 -10   22.10    3.00
  -4  -2 -10   29.50    4.00
  -4  -2 -10   20.50    3.40
   4   2  10   29.50    6.60
   4   2  10   24.00    9.20
   4   2  10   33.20    6.20
  -5  -1 -10  224.08   15.80
  -5  -1 -10  248.98   17.40
  -5  -1 -10  216.08   15.90
  -5  -1 -10  204.88   15.30
   5   1  10  220.88   17.10
  -6   0 -10  196.48   14.30
  -6   0 -10  189.48   14.50
  -6   0 -10  201.98   13.90
  -6   0 -10  222.38   15.30
  -7   1 -10 1241.88   82.19
  -7   1 -10 1294.07   82.99
  -7   1 -10 1225.88   81.69
   7  -1  10 1252.97   81.49
  -8   2 -10  482.05   30.80
  -8   2 -10  451.25   31.50
  -8   2 -10  420.26   30.60
  -4  -3 -10   96.99    7.00
  -4  -3 -10   92.89    6.70
   4   3  10   72.19    9.10
   4   3  10   90.09   13.30
  -5  -2 -10   37.30    4.00
  -5  -2 -10   37.10    4.90
  -5  -2 -10   38.10    6.10
  -5  -2 -10   34.80    5.30
   5   2  10   21.70    8.30
   5   2  10   34.60    7.10
   5   2  10   47.10    6.70
  -6  -1 -10   91.89    7.60
  -6  -1 -10   89.79    7.50
  -6  -1 -10   95.19    8.20
  -6  -1 -10   89.39    7.50
   6   1  10  106.49    8.80
  -7   0 -10   -2.10    2.50
  -7   0 -10    1.30    4.30
  -7   0 -10    2.20    4.10
  -7   0 -10   -0.10    2.80
  -8   1 -10  178.38   13.00
  -8   1 -10  175.78   14.90
  -8   1 -10  168.48   13.20
   8  -1  10  178.78   12.50
  -9   2 -10    8.20    5.20
  -9   2 -10    7.70    4.00
  -9   2 -10   14.10    3.90
   9  -2  10    7.20    2.60
  -5  -3 -10  206.58   13.70
  -5  -3 -10  196.18   13.80
   5   3  10  208.78   15.30
   5   3  10  213.48   17.60
  -6  -2 -10  241.48   15.80
  -6  -2 -10  227.68   15.20
   6   2  10  220.38   17.00
   6   2  10  205.98   19.30
  -7  -1 -10 1005.40   65.19
  -7  -1 -10  949.40   65.29
  -7  -1 -10  911.91   65.09
  -7  -1 -10 1007.70   65.19
  -7  -1 -10  976.50   64.99
   7   1  10 1123.69   65.89
   7   1  10 1021.80   65.89
  -8   0 -10  729.93   49.30
  -8   0 -10  773.92   49.50
  -8   0 -10  785.22   49.20
  -8   0 -10  745.43   49.20
  -8   0 -10  706.23   49.00
  -9   1 -10  680.83   44.50
  -9   1 -10  638.64   44.00
   9  -1  10  684.83   43.80
 -10   2 -10  330.67   22.10
 -10   2 -10  325.67   21.20
 -10   2 -10  292.97   21.00
  10  -2  10  292.07   20.50
  -6  -3 -10   42.20    3.70
  -6  -3 -10   37.20    3.70
   6   3  10   41.10    7.20
   6   3  10   41.00    5.90
  -7  -2 -10  182.28   12.00
  -7  -2 -10  179.88   12.40
   7   2  10  146.09   16.00
   7   2  10  181.48   13.80
  -8  -1 -10  148.89   10.60
  -8  -1 -10  148.99   10.50
  -8  -1 -10  133.69   11.10
  -8  -1 -10  136.79   11.10
  -8  -1 -10  149.69   10.80
   8   1  10  142.19   11.80
   8   1  10  150.28   12.40
  -9   0 -10    4.50    3.20
  -9   0 -10    1.80    3.00
  -9   0 -10   -5.40    2.50
   9   0  10   -6.40    3.10
 -10   1 -10  324.07   22.40
 -10   1 -10  324.57   22.00
 -11   2 -10    0.50    2.10
  11  -2  10    8.40    2.00
  -7  -3 -10  823.92   50.19
  -7  -3 -10  707.63   49.99
   7   3  10  789.52   50.69
  -8  -2 -10  308.27   19.60
  -8  -2 -10  301.77   19.90
   8   2  10  295.27   20.80
   8   2  10  261.97   23.90
  -9  -1 -10  503.05   33.20
  -9  -1 -10  528.15   33.40
  -9  -1 -10  502.35   33.60
   9   1  10  487.25   34.00
 -10   0 -10   56.89    5.40
 -10   0 -10   63.39    6.20
 -10   0 -10   58.79    6.70
  10   0  10   54.59    5.80
 -11   1 -10  217.68   15.30
 -11   1 -10  224.28   15.70
  11  -1  10  215.68   15.00
  -9  -2 -10    3.90    2.60
  -9  -2 -10    4.80    2.00
   9   2  10    2.10    3.80
 -10  -1 -10  226.18   17.40
 -10  -1 -10  255.27   16.40
  10   1  10  223.18   17.00
 -11   0 -10    2.50    3.70
 -11   0 -10    3.40    4.40
  11   0  10    2.20    2.80
  11   0  10   10.00    4.90
 -12   1 -10   61.19    5.30
 -12   1 -10   66.79    6.10
  12  -1  10   52.39    9.00
  12  -1  10   55.09    5.10
 -10  -2 -10  236.98   14.60
 -10  -2 -10  216.18   14.80
  10   2  10  200.18   15.30
 -11  -1 -10  168.58   11.90
 -11  -1 -10  186.68   12.20
 -11  -1 -10  166.28   11.70
  11   1  10  153.48   12.80
 -12   0 -10  902.31   51.99
 -12   0 -10  788.12   51.99
  12   0  10  767.22   51.69
  12   0  10  723.33   52.09
 -11  -2 -10    3.30    1.30
 -11  -2 -10    2.40    1.50
  11   2  10    3.40    2.20
 -12  -1 -10   47.20    4.60
 -12  -1 -10   46.90    4.30
  12   1  10   36.30    5.10
 -13   0 -10    3.00    2.70
 -13   0 -10   -0.80    1.50
  13   0  10    0.00    2.30
  13   1 -11   -0.90    1.50
  13   0 -11   46.40    4.80
  12   1 -11  250.77   16.80
  11   2 -11  125.89    8.90
  13  -1 -11   -1.10    1.20
  13  -1 -11    0.40    1.00
  13  -1 -11   -0.20    1.90
 -13   1  11   -1.80    3.60
  12   0 -11    1.30    2.60
  12   0 -11   -0.60    1.70
  11   1 -11  147.59   10.90
  11   1 -11  164.48   11.40
  10   2 -11  110.79    8.30
  12  -1 -11  296.87   18.90
  12  -1 -11  288.07   18.80
  12  -1 -11  272.77   18.90
 -12   1  11  276.77   19.90
  11   0 -11   22.10    2.90
  11   0 -11   16.90    2.90
  11   0 -11   30.30    6.20
  10   1 -11  614.44   42.60
  10   1 -11  689.23   42.80
   9   2 -11   76.89    6.60
  11  -1 -11  166.18   12.20
  11  -1 -11  164.48   12.00
  11  -1 -11  193.18   12.30
  11  -1 -11  163.68   12.40
  10   0 -11   -1.20    2.70
  10   0 -11    0.50    4.30
  10   0 -11    5.00    2.10
  10   0 -11    4.40    3.00
  10   0 -11    1.00    1.90
  10   0 -11    1.40    1.80
   9   1 -11  134.39    9.80
   9   1 -11  146.69   10.20
   9   1 -11  133.59   10.10
   8   2 -11    6.00    2.60
   8   2 -11   -0.30    2.20
   7   3 -11    4.70    2.60
  11  -2 -11  121.89    9.90
  11  -2 -11  144.49   10.20
  11  -2 -11  160.78    9.70
  11  -2 -11  142.89    9.60
 -11   2  11  137.69   11.00
  10  -1 -11  656.13   45.10
  10  -1 -11  774.62   45.20
  10  -1 -11  675.13   45.10
  10  -1 -11  717.53   45.00
  10  -1 -11  627.24   45.20
   9   0 -11  264.37   17.80
   9   0 -11  299.07   17.90
   9   0 -11  242.78   18.20
   9   0 -11  241.68   17.90
   9   0 -11  265.87   17.70
   8   1 -11  718.23   48.30
   8   1 -11  763.72   48.30
   8   1 -11  726.13   48.20
   7   2 -11 1492.45   93.79
   7   2 -11 1392.26   93.79
   7   2 -11 1445.46   93.79
   6   3 -11  185.38   13.00
  10  -2 -11  118.69    9.00
  10  -2 -11  144.59   11.00
  10  -2 -11  127.19    8.90
 -10   2  11  130.49   14.00
   9  -1 -11  132.39   10.20
   9  -1 -11  150.88   11.30
   9  -1 -11  153.78   10.30
   9  -1 -11  151.28   10.30
   9  -1 -11  142.69   10.60
   8   0 -11    1.60    2.80
   8   0 -11   -1.40    2.00
   8   0 -11    1.40    2.20
   8   0 -11   -0.30    2.60
   8   0 -11    2.60    2.10
   7   1 -11  543.75   36.10
   7   1 -11  547.05   36.10
   7   1 -11  544.75   36.00
   6   2 -11   50.49    4.80
   6   2 -11   35.80    4.90
   6   2 -11   37.80    4.80
   5   3 -11   12.50    3.20
   9  -2 -11   98.69    7.20
   9  -2 -11   89.69    7.80
   9  -2 -11   93.79    7.30
   9  -2 -11   85.19    7.30
   9  -2 -11  117.19    8.60
  -9   2  11   95.39   14.00
   8  -1 -11  793.82   50.39
   8  -1 -11  780.32   50.49
   8  -1 -11  813.52   50.39
   8  -1 -11  826.92   50.39
   8  -1 -11  721.23   50.49
  -8   1  11  694.53   54.09
   7   0 -11 9038.50  532.45
   7   0 -11 7820.62  532.15
   7   0 -11 7600.84  532.75
   7   0 -11 8417.66  532.45
   7   0 -11 8392.96  532.25
   6   1 -11 1234.08   80.39
   5   2 -11  528.35   33.50
   5   2 -11  477.75   33.50
   5   2 -11  503.75   33.30
   4   3 -11  694.43   45.50
   8  -2 -11    3.30    1.70
   8  -2 -11    3.40    1.80
   8  -2 -11    5.30    3.20
  -8   2  11   -1.80    6.90
   7  -1 -11  611.14   39.30
   7  -1 -11  622.44   39.40
   7  -1 -11  591.84   39.40
   7  -1 -11  630.14   39.30
   7  -1 -11  550.04   39.50
   6   0 -11    3.10    2.30
   6   0 -11    1.90    3.30
   6   0 -11    0.80    2.00
   6   0 -11    2.50    2.40
   6   0 -11    1.20    3.10
   6   0 -11    0.70    2.80
   5   1 -11   66.99    6.00
   5   1 -11   50.79    5.30
   5   1 -11   51.89    5.50
   5   1 -11   55.89    5.50
   4   2 -11  135.59    9.70
   4   2 -11  124.09    9.70
   4   2 -11  111.29    9.70
   7  -2 -11 1579.04  107.39
   7  -2 -11 1674.13  107.29
   7  -2 -11 1683.63  107.19
   7  -2 -11 1620.94  107.29
   7  -2 -11 1644.44  107.29
  -7   2  11 1746.63  109.89
   6  -1 -11 1204.98   78.29
   5   0 -11 2240.78  145.29
   5   0 -11 2284.97  145.59
   5   0 -11 2167.08  145.39
   5   0 -11 2346.27  145.39
   5   0 -11 2207.68  145.49
   5   0 -11 2234.48  145.29
   4   1 -11 1786.82  110.59
   4   1 -11 1719.03  110.89
   4   1 -11 1617.74  110.79
   3   2 -11  279.27   19.60
   3   2 -11  286.17   19.50
   7  -3 -11    4.10    1.80
   7  -3 -11    4.10    2.40
   7  -3 -11   -0.40    1.50
  -7   3  11    3.20    5.00
  -7   3  11    6.20    5.10
   6  -2 -11   64.99    5.00
   6  -2 -11   64.19    5.20
   6  -2 -11   48.00    6.20
   6  -2 -11   63.99    5.00
  -6   2  11   57.19   12.30
   5  -1 -11   67.39    5.80
   5  -1 -11   65.89    6.40
   5  -1 -11   63.99    7.50
   5  -1 -11   66.89    5.40
   5  -1 -11   65.69    5.70
  -5   1  11   68.99    8.00
   4   0 -11    2.40    3.00
   4   0 -11   -5.60    3.10
   4   0 -11   -0.50    2.20
   4   0 -11    1.90    1.50
   4   0 -11    0.90    3.00
   3   1 -11   46.90    5.10
   3   1 -11   40.50    5.10
   3   1 -11   44.40    4.30
   2   2 -11   91.49    8.20
   2   2 -11   84.29    7.90
   6  -3 -11  185.78   13.10
   6  -3 -11  208.88   13.10
   6  -3 -11  178.18   13.10
  -6   3  11  175.58   15.70
  -6   3  11  213.68   17.10
  -6   3  11  215.18   16.20
   5  -2 -11  572.34   37.40
   5  -2 -11  617.74   37.20
   5  -2 -11  629.54   37.10
  -5   2  11  522.65   39.40
  -5   2  11  481.85   38.50
   4  -1 -11 2052.59  120.99
   4  -1 -11 1790.32  120.89
   4  -1 -11 1800.92  120.79
   4  -1 -11 1718.03  121.09
   4  -1 -11 1921.21  121.29
   4  -1 -11 1896.71  120.89
  -4   1  11 1897.91  121.49
   3   0 -11 2093.39  131.69
   3   0 -11 2077.89  131.69
   3   0 -11 2027.90  131.49
   3   0 -11 1914.81  131.69
   3   0 -11 2056.49  131.89
   2   1 -11 1203.28   82.69
   2   1 -11 1288.77   82.79
   2   1 -11 1321.97   82.39
   1   2 -11  138.09   11.20
   1   2 -11  136.09   11.50
   5  -3 -11    0.70    1.70
   5  -3 -11    4.60    2.00
   5  -3 -11    5.30    2.60
   5  -3 -11    5.00    2.00
  -5   3  11   -1.90    6.70
  -5   3  11    0.80    6.90
  -5   3  11   -7.40    4.60
   4  -2 -11  155.28   11.50
   4  -2 -11  162.48   10.70
   4  -2 -11  154.58   10.80
  -4   2  11  135.69   14.80
  -4   2  11  159.48   13.20
   3  -1 -11   53.09    5.70
   3  -1 -11   43.10    6.50
   3  -1 -11   43.90    4.70
   3  -1 -11   43.10    4.80
   3  -1 -11   43.70    4.30
  -3   1  11   45.60    5.40
   2   0 -11    0.60    1.40
   2   0 -11    3.20    2.70
   1   1 -11  272.87   18.30
   1   1 -11  252.67   17.50
   1   1 -11  229.08   17.50
   1   1 -11  245.88   16.70
   0   2 -11    6.00    6.30
   4  -3 -11  785.92   55.19
   4  -3 -11  836.72   55.29
   4  -3 -11  878.41   55.19
  -4   3  11  882.11   56.89
  -4   3  11  872.31   58.39
   3  -2 -11  343.27   22.60
   3  -2 -11  337.67   22.70
   3  -2 -11  339.87   23.20
  -3   2  11  323.07   26.00
  -3   2  11  365.16   24.30
   2  -1 -11 1432.56   87.69
   2  -1 -11 1315.27   87.79
   2  -1 -11 1392.06   87.49
   2  -1 -11 1315.27   87.69
   2  -1 -11 1366.86   87.39
   2  -1 -11 1323.97   87.39
  -2   1  11 1296.17   87.79
   1   0 -11 1860.31  120.29
   0   1 -11 2235.78  150.18
   0   1 -11 2509.45  150.88
   0   1 -11 2228.68  150.68
  -1   2 -11  121.29   12.90
  -1   2 -11  137.79   13.20
  -2   3 -11   72.89   11.00
   3  -3 -11  221.78   16.10
   3  -3 -11  242.88   15.70
  -3   3  11  215.38   22.80
  -3   3  11  246.58   19.10
   2  -2 -11  105.39    8.50
   2  -2 -11   87.09    8.90
   2  -2 -11  113.09    7.80
   2  -2 -11  100.79    7.50
  -2   2  11  107.29   10.00
  -2   2  11   92.29   13.50
   1  -1 -11  246.08   17.30
   1  -1 -11  255.37   17.50
   1  -1 -11  254.17   16.80
   1  -1 -11  232.28   16.80
  -1   1  11  262.27   17.50
   0   0 -11    0.70    1.30
  -1   1 -11   30.60    5.00
  -1   1 -11   21.30    5.00
  -1   1 -11   27.90    5.10
  -1   1 -11   31.10    7.10
  -2   2 -11 1052.49   69.49
  -2   2 -11 1061.69   70.39
  -3   3 -11  408.46   28.80
   2  -3 -11  666.43   43.30
  -2   3  11  645.14   53.29
   1  -2 -11  175.98   12.90
   1  -2 -11  170.88   12.00
   1  -2 -11  178.98   12.20
  -1   2  11  171.38   13.80
  -1   2  11  172.48   17.30
   0  -1 -11 2305.97  145.09
   0  -1 -11 2143.49  144.69
   0  -1 -11 2254.07  144.79
   0  -1 -11 2226.98  144.99
   0   1  11 2265.17  145.19
  -1   0 -11  366.16   23.00
  -1   0 -11  273.97   22.90
  -1   0 -11  342.67   21.80
  -2   1 -11  450.35   30.50
  -2   1 -11  404.16   31.40
  -2   1 -11  510.65   31.40
  -2   1 -11  459.05   30.90
  -2   1 -11  483.55   32.30
  -3   2 -11 3179.38  213.88
  -3   2 -11 3399.56  213.18
  -4   3 -11  415.76   29.30
   1  -3 -11   60.69    6.10
  -1   3  11   67.89   15.20
  -1   3  11   51.39   26.50
  -1   3  11   66.99   11.50
   0  -2 -11    3.50    1.90
   0  -2 -11    0.90    2.40
   0  -2 -11    0.00    2.80
   0   2  11   -4.10    4.80
   0   2  11    4.10    8.60
   0   2  11   -3.00    7.10
  -1  -1 -11   22.30    4.10
  -1  -1 -11   19.80    2.80
  -1  -1 -11   15.50    3.40
  -1  -1 -11   13.40    2.90
  -1  -1 -11   21.70    3.00
   1   1  11   19.90    3.50
   1   1  11   20.10    8.30
  -2   0 -11   -4.10    3.10
  -2   0 -11    3.50    3.60
  -2   0 -11   -0.60    1.50
  -3   1 -11  164.08   12.60
  -3   1 -11  188.38   15.20
  -3   1 -11  179.58   13.40
  -3   1 -11  181.78   13.50
  -4   2 -11   18.70    4.40
  -4   2 -11   15.80    5.00
  -5   3 -11    4.40    4.00
   5  -3  11   -1.60    2.50
   0   3  11  465.05   37.30
   0   3  11  434.76   30.60
  -1  -2 -11  106.29    8.60
  -1  -2 -11  103.79    7.70
  -1  -2 -11  112.09    7.80
   1   2  11   96.59   10.60
   1   2  11  101.89   11.10
   1   2  11   84.09   14.50
  -2  -1 -11  428.96   28.60
  -2  -1 -11  420.96   28.60
  -2  -1 -11  421.76   28.00
  -2  -1 -11  398.56   28.20
  -2  -1 -11  457.25   28.20
   2   1  11  439.46   28.70
   2   1  11  417.96   30.60
  -3   0 -11 3294.07  217.98
  -3   0 -11 3493.75  218.28
  -3   0 -11 3539.15  218.58
  -3   0 -11 3179.58  218.28
  -4   1 -11  203.18   15.30
  -4   1 -11  217.78   15.60
  -4   1 -11  206.88   14.90
  -4   1 -11  216.48   17.00
  -5   2 -11 1489.25   96.59
  -5   2 -11 1511.35   95.79
   5  -2  11 1396.76   94.99
   1   3  11   -0.40    9.60
   1   3  11  -15.60   14.80
   1   3  11    4.60    4.70
  -2  -2 -11  800.82   51.59
  -2  -2 -11  837.42   51.99
  -2  -2 -11  795.02   51.49
   2   2  11  784.42   52.79
   2   2  11  798.92   52.89
   2   2  11  723.83   54.99
  -3  -1 -11  142.59   11.40
  -3  -1 -11  157.58   11.50
  -3  -1 -11  145.29   10.70
  -3  -1 -11  159.78   10.80
  -3  -1 -11  143.79   11.10
   3   1  11  152.58   14.30
   3   1  11  171.88   11.80
  -4   0 -11   -1.00    2.20
  -4   0 -11    1.70    2.90
  -4   0 -11   -1.00    3.60
  -4   0 -11    4.20    3.50
  -4   0 -11    1.10    2.00
  -5   1 -11   95.29    9.00
  -5   1 -11  110.59    9.10
  -6   2 -11   48.70    6.10
  -6   2 -11   43.40    8.10
   6  -2  11   42.50    5.00
  -2  -3 -11   70.09    5.80
  -2  -3 -11   72.29    5.50
   2   3  11   63.99    8.40
   2   3  11   83.39   22.90
   2   3  11   56.69   13.40
  -3  -2 -11 2307.47  155.48
  -3  -2 -11 2439.26  155.28
  -3  -2 -11 2523.25  155.18
  -3  -2 -11 2544.45  155.68
   3   2  11 2450.75  156.38
   3   2  11 2054.89  157.58
   3   2  11 2494.55  156.48
  -4  -1 -11  182.28   13.10
  -4  -1 -11  183.28   13.50
  -4  -1 -11  188.08   13.10
  -4  -1 -11  194.88   13.50
   4   1  11  193.58   15.60
  -5   0 -11   52.39    5.60
  -5   0 -11   59.39    6.90
  -5   0 -11   52.39    6.30
  -6   1 -11 1260.87   84.39
  -6   1 -11 1349.96   85.69
  -6   1 -11 1277.77   84.79
  -7   2 -11  390.86   27.00
  -7   2 -11  360.66   25.80
  -3  -3 -11  280.17   18.20
  -3  -3 -11  289.77   18.40
   3   3  11  239.58   21.60
   3   3  11  285.57   19.90
  -4  -2 -11    9.00    3.60
  -4  -2 -11    9.00    2.60
  -4  -2 -11   15.00    2.90
   4   2  11    9.00    5.00
   4   2  11   12.70    8.80
   4   2  11    8.50    6.40
  -5  -1 -11   71.39    8.30
  -5  -1 -11   72.39    6.30
  -5  -1 -11   66.89    6.60
  -5  -1 -11   76.39    6.30
   5   1  11   80.09    8.40
  -6   0 -11   -1.90    2.60
  -6   0 -11   -0.20    4.00
  -6   0 -11   -0.70    3.10
  -6   0 -11   -0.80    3.10
  -7   1 -11   99.09    9.40
  -7   1 -11  127.09    9.30
  -7   1 -11  111.19   11.20
  -8   2 -11    6.10    7.90
  -8   2 -11   12.10    7.20
  -8   2 -11    6.00    4.80
  -4  -3 -11  264.17   17.50
  -4  -3 -11  266.67   17.40
   4   3  11  251.57   20.80
   4   3  11  267.87   19.00
  -5  -2 -11 1050.09   66.99
  -5  -2 -11 1041.70   66.89
  -5  -2 -11 1061.39   67.39
   5   2  11 1085.29   68.29
   5   2  11  917.41   69.29
  -6  -1 -11 1087.89   70.89
  -6  -1 -11 1016.00   70.79
  -6  -1 -11 1041.00   70.69
  -6  -1 -11 1087.59   71.09
  -6  -1 -11 1125.89   70.99
   6   1  11 1156.58   71.69
   6   1  11 1105.69   71.79
  -7   0 -11 1083.59   67.59
  -7   0 -11 1004.60   67.19
  -7   0 -11  984.60   67.39
  -7   0 -11 1045.70   67.29
  -8   1 -11 1424.66   88.59
  -8   1 -11 1367.36   88.09
   8  -1  11 1268.57   88.39
  -9   2 -11 1062.49   68.49
  -9   2 -11 1100.79   69.19
   9  -2  11  978.70   67.89
  -5  -3 -11    1.40    1.20
  -5  -3 -11    3.30    1.80
   5   3  11   -4.90    3.40
   5   3  11    7.50    5.70
  -6  -2 -11   30.20    4.80
  -6  -2 -11   37.90    3.90
  -6  -2 -11   28.70    4.30
   6   2  11   39.50    8.40
   6   2  11   37.60    5.80
  -7  -1 -11   88.29    7.20
  -7  -1 -11   75.39    8.10
  -7  -1 -11   91.09    7.60
  -7  -1 -11   69.39    7.90
  -7  -1 -11   94.19    7.20
   7   1  11  115.49   10.40
   7   1  11   87.39    8.70
  -8   0 -11    4.60    2.90
  -8   0 -11    0.50    3.80
  -8   0 -11    1.60    2.60
  -8   0 -11   -1.30    3.40
  -9   1 -11  110.19    9.00
  -9   1 -11  110.09    8.50
   9  -1  11   87.89    9.70
 -10   2 -11    6.50    2.70
  10  -2  11    6.30    2.40
  -6  -3 -11  295.47   19.30
  -6  -3 -11  306.87   19.40
   6   3  11  281.37   20.10
  -7  -2 -11  236.48   16.60
  -7  -2 -11  245.48   16.30
   7   2  11  242.98   17.50
  -8  -1 -11 1137.19   72.09
  -8  -1 -11 1128.39   71.69
  -8  -1 -11 1115.99   71.89
   8   1  11 1033.50   72.39
  -9   0 -11  259.77   19.00
  -9   0 -11  279.97   19.20
  -9   0 -11  286.77   18.80
 -10   1 -11 1128.99   75.89
  10  -1  11 1173.18   74.79
  -8  -2 -11   10.50    2.80
  -8  -2 -11   13.60    2.50
   8   2  11   11.30    5.60
   8   2  11   13.50    7.90
  -9  -1 -11   84.09    7.00
  -9  -1 -11   83.89    6.80
  -9  -1 -11   82.59    6.80
   9   1  11   77.89    7.60
 -10   0 -11    1.30    3.00
 -10   0 -11    3.30    2.40
 -11   1 -11  259.97   17.00
 -11   1 -11  272.07   17.40
  11  -1  11  215.28   16.70
  -9  -2 -11  730.83   46.00
  -9  -2 -11  735.13   46.20
   9   2  11  654.63   46.50
 -10  -1 -11 1030.70   61.99
 -10  -1 -11  997.60   61.79
  10   1  11  824.62   62.59
 -11   0 -11  259.17   17.00
 -11   0 -11  237.58   16.90
 -11   0 -11  247.58   16.70
  11   0  11  226.48   17.30
 -12   1 -11    8.00    2.80
 -12   1 -11    9.60    2.40
  12  -1  11    8.90    3.70
 -10  -2 -11    6.60    1.70
 -10  -2 -11    5.00    1.80
  10   2  11    1.30    2.60
 -11  -1 -11  200.58   13.30
 -11  -1 -11  212.68   13.50
  11   1  11  168.58   13.80
 -12   0 -11    1.90    1.90
 -12   0 -11    1.20    2.50
  12   0  11    2.50    3.10
 -12  -1 -11   13.40    2.80
  13   0 -12    0.10    1.20
  12   1 -12    3.00    1.70
  12   0 -12  126.49    9.00
  12   0 -12  130.49    9.00
  11   1 -12   64.69    5.60
  11   1 -12   73.49    5.80
  10   2 -12   27.30    3.50
  12  -1 -12    1.90    1.40
  12  -1 -12    0.60    1.20
 -12   1  12   -1.30    3.50
  11   0 -12    1.20    2.40
  11   0 -12    3.10    2.80
  11   0 -12   -2.50    2.10
   9   2 -12   -2.00    2.40
  11  -1 -12   69.89    6.60
  11  -1 -12   80.69    5.90
  11  -1 -12   80.79    6.00
  10   0 -12   61.19    5.00
  10   0 -12   63.69    5.20
  10   0 -12   47.40    4.90
  10   0 -12   52.89    5.50
   9   1 -12  325.87   21.70
   9   1 -12  327.37   21.70
   9   1 -12  317.27   21.70
   8   2 -12  211.48   14.70
  10  -1 -12   36.70    5.50
  10  -1 -12   39.50    3.90
  10  -1 -12   31.20    4.20
  10  -1 -12   33.90    4.60
   9   0 -12    3.20    1.90
   9   0 -12   -1.30    1.90
   9   0 -12    3.70    2.50
   9   0 -12    1.20    2.40
   8   1 -12   83.99    6.10
   8   1 -12   73.49    6.30
   8   1 -12   65.49    6.30
   7   2 -12   45.90    5.30
   7   2 -12   49.40    4.90
   7   2 -12   44.40    4.80
   6   3 -12   20.40    3.90
  10  -2 -12   37.00    3.30
  10  -2 -12   33.90    3.30
 -10   2  12   50.49   12.30
 -10   2  12   34.00    5.60
   9  -1 -12  360.26   23.50
   9  -1 -12  366.06   23.50
   9  -1 -12  362.06   23.40
   9  -1 -12  329.87   23.50
   8   0 -12   30.40    4.10
   8   0 -12   35.80    3.90
   8   0 -12   33.10    4.50
   8   0 -12   39.50    4.40
   7   1 -12  248.78   16.90
   7   1 -12  241.98   16.80
   7   1 -12  247.18   17.00
   6   2 -12  955.90   60.09
   6   2 -12  897.71   60.09
   6   2 -12  902.31   59.99
   9  -2 -12    1.20    1.90
   9  -2 -12    4.10    2.20
   9  -2 -12    3.70    3.00
   9  -2 -12    2.30    1.90
  -9   2  12    5.40    7.50
   8  -1 -12   87.29    6.60
   8  -1 -12   78.49    6.50
   8  -1 -12   90.79    6.60
  -8   1  12   75.99   16.50
   7   0 -12    0.70    2.20
   7   0 -12    1.50    2.00
   7   0 -12    4.80    3.40
   7   0 -12    0.80    2.70
   7   0 -12    3.90    2.40
   7   0 -12    4.50    2.40
   6   1 -12  925.61   61.69
   6   1 -12  962.70   61.79
   6   1 -12  945.91   61.69
   5   2 -12  162.88   12.20
   5   2 -12  156.68   12.10
   5   2 -12  182.68   12.10
   8  -2 -12  239.68   15.40
   8  -2 -12  192.58   16.40
  -8   2  12  254.27   21.00
   7  -1 -12  261.77   18.20
   7  -1 -12  272.77   18.30
   7  -1 -12  282.87   18.30
   6   0 -12 1725.53  121.09
   6   0 -12 1892.71  120.29
   6   0 -12 1953.10  120.29
   5   1 -12 1078.99   69.39
   5   1 -12 1092.89   69.19
   5   1 -12 1057.99   69.39
   5   1 -12 1020.80   69.49
   4   2 -12  168.78   11.30
   4   2 -12  146.49   11.10
   4   2 -12  129.69   12.50
   7  -2 -12   59.69    4.80
   7  -2 -12   55.39    4.90
   7  -2 -12   53.39    4.80
  -7   2  12   61.19   10.20
   6  -1 -12  970.30   67.09
   6  -1 -12 1047.60   67.19
   6  -1 -12 1059.39   66.89
   6  -1 -12 1096.79   66.99
   6  -1 -12 1040.30   66.79
   6  -1 -12  957.40   66.99
   5   0 -12   -1.00    2.80
   5   0 -12   -1.20    1.90
   5   0 -12    0.00    2.00
   5   0 -12    5.20    2.60
   5   0 -12    1.80    2.80
   5   0 -12    7.40    2.90
   4   1 -12    1.70    2.50
   4   1 -12    1.50    2.10
   4   1 -12   -0.80    2.40
   3   2 -12    2.30    2.90
   3   2 -12    9.30    3.20
   6  -2 -12 1168.38   70.59
   6  -2 -12 1109.29   70.49
   6  -2 -12 1093.79   70.39
  -6   2  12  968.10   72.89
   5  -1 -12 1043.30   78.49
   5  -1 -12 1251.07   78.09
   5  -1 -12 1180.88   77.69
   5  -1 -12 1284.37   77.79
   5  -1 -12 1215.48   77.79
   4   0 -12   44.30    4.60
   4   0 -12   53.49    5.60
   4   0 -12   49.00    4.30
   4   0 -12   41.50    5.30
   4   0 -12   51.19    5.40
   3   1 -12  323.27   21.00
   3   1 -12  290.37   20.90
   2   2 -12  110.69    9.00
   2   2 -12  104.39    9.00
   6  -3 -12   17.10    2.60
   6  -3 -12   20.40    2.10
   6  -3 -12   17.50    2.70
  -6   3  12   14.80    5.90
  -6   3  12   17.70    5.10
   5  -2 -12  207.78   14.70
   5  -2 -12  223.78   14.70
   5  -2 -12  218.38   14.60
  -5   2  12  216.08   18.10
   4  -1 -12    0.90    2.50
   4  -1 -12   -0.50    2.20
   4  -1 -12    0.90    2.10
   4  -1 -12   -0.10    2.10
   4  -1 -12    3.70    2.50
   4  -1 -12    4.80    3.70
   3   0 -12    1.50    1.60
   3   0 -12   -0.40    3.30
   3   0 -12    2.10    2.80
   3   0 -12   -0.50    2.20
   3   0 -12    5.70    2.80
   3   0 -12   -2.40    2.80
   2   1 -12   67.89    6.80
   2   1 -12   83.49    7.80
   2   1 -12   61.69    5.80
   2   1 -12   72.59    6.80
   1   2 -12   -1.20    3.70
   1   2 -12    2.40    4.00
   5  -3 -12    6.90    2.00
   5  -3 -12   11.10    1.90
  -5   3  12    6.20    5.20
  -5   3  12    3.30    4.80
  -5   3  12    7.70    5.30
   4  -2 -12  186.58   13.30
   4  -2 -12  184.08   12.80
   4  -2 -12  201.98   12.70
  -4   2  12  164.28   16.30
   3  -1 -12  327.37   22.10
   3  -1 -12  320.37   21.60
   3  -1 -12  329.67   22.00
   3  -1 -12  322.97   21.60
   3  -1 -12  307.67   21.60
  -3   1  12  333.97   22.70
   2   0 -12   50.69    6.00
   2   0 -12   49.70    7.20
   2   0 -12   55.19    6.50
   2   0 -12   49.99    5.70
   2   0 -12   48.00    5.40
   2   0 -12   57.69    4.60
   1   1 -12  117.69    9.60
   1   1 -12  103.29    7.90
   1   1 -12   97.89    8.80
   1   1 -12  105.29    9.30
   1   1 -12  102.79    8.80
   0   2 -12   78.59   13.00
   4  -3 -12   31.90    3.60
   4  -3 -12   35.30    3.50
   4  -3 -12   34.90    3.30
  -4   3  12   44.90   10.80
   3  -2 -12   11.80    2.30
   3  -2 -12   11.60    2.30
   3  -2 -12    5.10    2.60
  -3   2  12   18.70    7.60
  -3   2  12   15.60    8.30
   2  -1 -12   65.09    6.70
   2  -1 -12   70.69    6.20
   2  -1 -12   67.09    6.30
   2  -1 -12   66.99    5.50
   2  -1 -12   58.39    5.70
   2  -1 -12   62.49    6.30
  -2   1  12   65.19    7.00
   1   0 -12    0.70    3.00
   1   0 -12    3.40    2.80
   1   0 -12   -1.30    3.10
   1   0 -12    5.60    3.10
   1   0 -12    1.30    1.60
   0   1 -12  346.07   23.10
   0   1 -12  302.47   23.10
   0   1 -12  386.66   23.50
   0   1 -12  329.07   23.10
   0   1 -12  323.97   22.50
  -1   2 -12  230.78   17.90
  -1   2 -12  254.57   19.30
   3  -3 -12  188.48   13.30
   3  -3 -12  201.18   13.20
  -3   3  12  209.18   16.30
  -3   3  12  188.08   18.80
   2  -2 -12  138.59   10.20
   2  -2 -12  146.29    9.80
   2  -2 -12  144.99    9.50
   2  -2 -12  134.69   10.20
  -2   2  12  120.29   12.90
  -2   2  12  105.99   13.80
   1  -1 -12   87.19    7.50
   1  -1 -12   96.49    8.20
   1  -1 -12  104.09    8.30
   1  -1 -12  108.29    8.10
   1  -1 -12  105.49    7.70
  -1   1  12   98.49    9.00
   0   0 -12  994.40   59.19
   0   0 -12  847.02   59.09
   0   0 -12  948.01   59.49
   0   0 -12  903.31   58.89
   0   0 -12  934.21   59.09
   0   0 -12  801.42   59.19
  -1   1 -12  402.36   28.90
  -1   1 -12  477.05   29.60
  -1   1 -12  426.66   29.20
  -1   1 -12  436.46   29.50
  -2   2 -12  168.48   14.30
  -2   2 -12  207.98   15.90
   2  -3 -12   10.10    2.20
   2  -3 -12    4.80    1.90
  -2   3  12    1.80   10.50
  -2   3  12    3.10    6.40
   1  -2 -12    3.50    2.90
   1  -2 -12    3.90    2.50
   1  -2 -12    6.20    2.20
  -1   2  12    5.40    5.30
  -1   2  12   10.20    7.90
   0  -1 -12  330.77   22.20
   0  -1 -12  327.87   22.60
   0  -1 -12  334.57   22.50
   0  -1 -12  346.87   22.20
   0   1  12  319.57   22.90
  -1   0 -12   -3.40    3.00
  -1   0 -12   -5.30    3.30
  -1   0 -12    1.60    1.80
  -1   0 -12    3.80    4.30
  -1   0 -12   -1.30    2.90
  -1   0 -12    0.70    2.70
   1   0  12   -2.40    3.00
  -2   1 -12  524.95   38.20
  -2   1 -12  557.64   37.90
  -2   1 -12  636.14   38.40
  -2   1 -12  568.34   37.80
  -3   2 -12  447.26   30.60
  -3   2 -12  416.36   29.40
   1  -3 -12   59.69    5.20
   1  -3 -12   62.69    5.00
  -1   3  12   66.69    9.90
  -1   3  12   64.49   14.10
   0  -2 -12  109.09    7.80
   0  -2 -12  103.29    7.90
   0  -2 -12  106.99    8.70
   0   2  12   94.29   13.30
   0   2  12  129.29   11.10
   0   2  12   96.69   10.90
  -1  -1 -12  375.56   25.40
  -1  -1 -12  373.56   25.70
  -1  -1 -12  399.56   26.00
   1   1  12  389.36   28.80
  -2   0 -12  226.68   15.70
  -2   0 -12  217.68   15.20
  -2   0 -12  238.88   16.10
  -2   0 -12  199.58   16.00
  -2   0 -12  234.98   15.80
  -3   1 -12   19.60    4.00
  -3   1 -12   20.30    4.10
  -3   1 -12   21.60    3.70
  -4   2 -12 1231.48   81.29
  -4   2 -12 1251.17   82.19
   0  -3 -12    8.60    1.90
   0  -3 -12    8.30    1.90
   0   3  12    6.00    6.10
   0   3  12    9.10   12.00
   0   3  12    9.60    5.00
  -1  -2 -12  196.68   13.40
  -1  -2 -12  204.88   14.00
  -1  -2 -12  205.98   13.40
   1   2  12  183.98   18.50
   1   2  12  179.18   16.20
   1   2  12  189.48   15.60
  -2  -1 -12  464.35   32.90
  -2  -1 -12  502.55   33.00
  -2  -1 -12  502.25   33.40
  -2  -1 -12  522.45   33.30
   2   1  12  515.05   35.00
  -3   0 -12   -3.60    2.90
  -3   0 -12    2.10    3.60
  -3   0 -12    1.30    3.00
  -3   0 -12    1.70    2.00
  -4   1 -12  489.45   31.40
  -4   1 -12  471.65   33.00
  -4   1 -12  425.76   30.90
  -5   2 -12   16.50    4.00
  -5   2 -12   15.40    5.40
  -1  -3 -12  326.27   21.10
  -1  -3 -12  322.37   21.30
   1   3  12  293.97   24.60
   1   3  12  338.37   22.40
  -2  -2 -12  142.09   10.60
  -2  -2 -12  149.39   10.00
  -2  -2 -12  150.68   10.10
   2   2  12  128.79   16.40
   2   2  12  121.39   13.20
   2   2  12  142.19   12.10
  -3  -1 -12   25.10    4.40
  -3  -1 -12   19.10    3.00
  -3  -1 -12   22.90    4.00
  -3  -1 -12   18.80    2.90
   3   1  12   35.90    7.00
   3   1  12   20.90    4.80
  -4   0 -12 5618.64  334.57
  -4   0 -12 5074.59  334.07
  -4   0 -12 5126.29  334.17
  -4   0 -12 4886.41  334.17
  -5   1 -12 1944.61  125.99
  -5   1 -12 2114.49  127.19
  -5   1 -12 1918.31  126.29
  -5   1 -12 1788.32  125.89
  -6   2 -12  245.28   18.70
  -6   2 -12  245.98   17.80
  -2  -3 -12  292.97   18.70
  -2  -3 -12  262.27   18.70
  -2  -3 -12  314.97   18.60
   2   3  12  290.27   19.80
   2   3  12  241.98   21.70
  -3  -2 -12  321.67   21.70
  -3  -2 -12  313.67   21.60
  -3  -2 -12  324.27   21.20
  -3  -2 -12  338.07   21.30
   3   2  12  309.17   22.80
   3   2  12  298.77   25.60
  -4  -1 -12  408.56   27.80
  -4  -1 -12  401.36   27.50
   4   1  12  428.26   28.50
  -5   0 -12    1.20    2.60
  -5   0 -12    1.30    4.00
  -6   1 -12   16.60    3.60
  -6   1 -12   17.70    3.80
  -7   2 -12    7.70    5.80
  -7   2 -12    5.30    7.10
  -3  -3 -12   25.30    3.10
  -3  -3 -12   25.30    3.10
   3   3  12   28.40    4.60
   3   3  12   35.90    7.30
  -4  -2 -12  902.51   56.69
  -4  -2 -12  936.41   56.29
  -4  -2 -12  856.11   56.19
   4   2  12  873.11   57.49
   4   2  12  749.62   58.79
  -5  -1 -12 1605.74  107.39
  -5  -1 -12 1764.72  107.49
  -5  -1 -12 1598.04  107.19
  -5  -1 -12 1608.74  107.59
   5   1  12 1598.94  108.09
   5   1  12 1758.72  108.29
  -6   0 -12 1380.16   85.39
  -6   0 -12 1247.98   85.39
  -6   0 -12 1325.17   85.59
  -6   0 -12 1289.97   85.29
  -7   1 -12  729.13   47.60
  -7   1 -12  705.43   47.20
  -8   2 -12   77.39    7.60
  -4  -3 -12    1.20    1.70
  -4  -3 -12    1.60    1.40
   4   3  12    7.20    5.30
   4   3  12    3.30    3.60
  -5  -2 -12   13.00    2.50
  -5  -2 -12   13.10    2.20
   5   2  12   17.60    7.50
   5   2  12   12.30    4.70
  -6  -1 -12   12.30    3.80
  -6  -1 -12   14.20    2.90
  -6  -1 -12   16.00    3.10
  -6  -1 -12   17.90    4.20
  -6  -1 -12   14.40    2.70
   6   1  12   14.10    5.30
   6   1  12   15.60    4.60
  -7   0 -12   -0.80    2.50
  -7   0 -12   -3.70    3.00
  -7   0 -12    2.40    3.00
  -7   0 -12    3.80    4.10
  -8   1 -12   12.30    3.40
  -8   1 -12   12.80    3.10
  -9   2 -12   14.90    3.00
  -5  -3 -12   57.49    4.60
  -5  -3 -12   65.89    5.10
   5   3  12   59.59    9.10
   5   3  12   67.89    6.60
  -6  -2 -12  154.88   11.00
  -6  -2 -12  159.38   10.50
   6   2  12  154.08   12.10
   6   2  12  131.39   14.70
  -7  -1 -12  590.84   38.80
  -7  -1 -12  609.54   39.00
  -7  -1 -12  598.64   39.20
   7   1  12  571.94   39.80
  -8   0 -12  439.56   29.20
  -8   0 -12  455.65   29.60
  -8   0 -12  417.16   29.40
  -8   0 -12  444.56   29.50
  -7  -2 -12    6.30    2.40
  -7  -2 -12    5.30    2.90
   7   2  12    5.10    5.60
  -8  -1 -12    9.60    2.60
  -8  -1 -12   11.90    2.60
   8   1  12   15.80    3.70
  -9   0 -12    1.80    2.90
  -9   0 -12    0.20    3.00
  -9   0 -12   -0.40    2.30
 -10   1 -12   63.39    6.40
 -10   1 -12   55.29    5.90
  -8  -2 -12   50.39    4.40
  -8  -2 -12   48.70    5.00
   8   2  12   59.89   11.00
   8   2  12   47.40    5.70
  -9  -1 -12  274.97   20.00
  -9  -1 -12  303.67   20.40
   9   1  12  288.17   22.60
 -10   0 -12  360.96   27.60
 -10   0 -12  403.06   27.80
 -10   0 -12  460.05   28.00
  10   0  12  432.56   28.30
 -11   1 -12  446.16   29.90
 -11   1 -12  462.55   30.20
  -9  -2 -12    6.60    1.50
  -9  -2 -12    7.50    1.80
   9   2  12    6.40    2.70
 -10  -1 -12   42.40    4.70
 -10  -1 -12   41.10    4.50
  10   1  12   39.50    5.60
 -11   0 -12    0.80    2.40
 -11   0 -12    1.00    2.30
 -11   0 -12    1.60    3.10
  11   0  12    1.40    3.10
 -11  -1 -12  346.67   22.00
 -11  -1 -12  352.96   22.10
  11   1  12  294.67   22.20
 -12   0 -12  385.16   25.80
 -12   0 -12  399.96   26.10
  12   1 -13  106.89    7.50
  12   0 -13    0.50    1.40
  12   0 -13    5.40    2.50
  11   1 -13   35.20    3.70
  11   1 -13   36.80    3.70
  10   2 -13    2.30    1.70
  12  -1 -13  117.79    7.50
  12  -1 -13  106.39    7.40
 -12   1  13   95.99    9.40
  11   0 -13    2.90    2.10
  11   0 -13    4.90    1.90
  10   1 -13  515.25   34.60
  10   1 -13  538.15   34.70
   9   2 -13  238.38   16.10
  11  -1 -13   45.50    3.90
  11  -1 -13   44.70    4.00
 -11   1  13   49.90    7.20
  10   0 -13    1.00    2.70
  10   0 -13   -1.40    2.90
   9   1 -13   40.50    4.30
   9   1 -13   42.00    4.60
   9   1 -13   45.20    6.70
   8   2 -13   10.30    2.60
  10  -1 -13  575.24   36.20
  10  -1 -13  582.44   36.20
  10  -1 -13  502.55   36.10
   9   0 -13  158.28   11.90
   9   0 -13  164.18   11.80
   9   0 -13  184.68   11.90
   9   0 -13  172.98   11.80
   8   1 -13 1209.98   79.09
   8   1 -13 1246.48   79.19
   8   1 -13 1194.28   79.09
   7   2 -13  579.44   38.10
  10  -2 -13    0.60    1.30
  10  -2 -13    2.00    1.30
 -10   2  13    1.40    2.60
   9  -1 -13   43.50    4.60
   9  -1 -13   48.30    4.30
   9  -1 -13   36.20    4.80
   8   0 -13    0.90    1.70
   8   0 -13   -0.40    2.10
   8   0 -13    5.00    2.40
   7   1 -13  106.09    8.30
   7   1 -13  105.59    8.20
   7   1 -13  112.39    8.40
   6   2 -13  175.18   15.90
   6   2 -13  207.48   14.40
   6   2 -13  219.78   14.20
   9  -2 -13  274.67   17.20
   9  -2 -13  250.07   17.10
   9  -2 -13  218.48   17.10
   9  -2 -13  269.97   17.10
  -9   2  13  285.57   20.60
   8  -1 -13 1294.67   86.29
   8  -1 -13 1342.27   86.29
   8  -1 -13 1411.96   86.39
   8  -1 -13 1362.16   86.19
  -8   1  13 1241.08   88.79
   7   0 -13  810.52   52.99
   7   0 -13  816.72   52.89
   7   0 -13  820.82   52.79
   7   0 -13  824.42   52.79
   7   0 -13  828.22   52.89
   7   0 -13  752.02   52.89
   6   1 -13  452.95   28.60
   6   1 -13  427.66   28.60
   6   1 -13  406.46   28.50
   5   2 -13  358.46   25.20
   5   2 -13  392.06   25.20
   8  -2 -13    9.50    2.20
   8  -2 -13    9.70    2.00
   8  -2 -13   15.30    2.20
  -8   2  13   12.20    8.90
   7  -1 -13  119.59    8.60
   7  -1 -13  118.69    8.60
   7  -1 -13  114.69    8.60
   6   0 -13    1.60    2.10
   6   0 -13   -1.90    2.70
   6   0 -13   -1.20    2.30
   6   0 -13    3.00    2.40
   6   0 -13    0.00    2.40
   5   1 -13  622.44   43.20
   5   1 -13  682.93   43.40
   5   1 -13  667.23   43.30
   4   2 -13   84.89    7.10
   4   2 -13   70.39    7.10
   7  -2 -13  793.12   54.39
   7  -2 -13  723.53   54.19
   7  -2 -13  963.90   55.19
  -7   2  13  867.11   59.09
   6  -1 -13  501.55   31.00
   6  -1 -13  502.25   30.90
   6  -1 -13  476.85   30.80
   6  -1 -13  431.76   31.10
   6  -1 -13  430.26   31.20
   5   0 -13   59.79    5.60
   5   0 -13   48.90    6.40
   5   0 -13   54.59    5.50
   5   0 -13   61.49    5.20
   4   1 -13   55.99    6.10
   4   1 -13   64.79    5.80
   4   1 -13   62.49    6.00
   3   2 -13   13.20    3.30
   3   2 -13    5.60    3.30
   6  -2 -13  257.47   17.20
   6  -2 -13  265.07   17.30
   6  -2 -13  262.67   17.10
  -6   2  13  235.88   21.50
   5  -1 -13  781.32   47.40
   5  -1 -13  757.42   47.70
   5  -1 -13  634.34   47.40
   5  -1 -13  744.83   47.30
   5  -1 -13  700.43   47.20
   5  -1 -13  724.93   47.60
   4   0 -13    5.60    2.70
   4   0 -13   -0.80    2.90
   4   0 -13   -1.90    2.50
   4   0 -13    1.30    2.00
   4   0 -13   -0.70    2.10
   3   1 -13   38.00    5.80
   3   1 -13   33.40    4.90
   3   1 -13   35.50    4.60
   2   2 -13   15.70    3.50
   2   2 -13   19.00    3.80
   5  -2 -13  495.25   30.70
   5  -2 -13  471.75   30.50
   5  -2 -13  452.55   30.60
  -5   2  13  439.56   33.20
   4  -1 -13   64.99    5.50
   4  -1 -13   66.79    6.20
   4  -1 -13   67.79    5.70
   4  -1 -13   61.99    6.20
   4  -1 -13   62.79    6.60
   3   0 -13   47.70    5.30
   3   0 -13   49.80    4.80
   3   0 -13   55.49    5.00
   3   0 -13   40.20    6.20
   3   0 -13   57.39    6.10
   2   1 -13    5.90    2.70
   2   1 -13    8.00    4.50
   1   2 -13    9.10    4.00
   1   2 -13   13.00    4.10
   5  -3 -13   30.90    2.80
   5  -3 -13   23.30    2.90
  -5   3  13   36.60    8.00
  -5   3  13   17.90    8.00
   4  -2 -13   94.59    7.60
   4  -2 -13   96.99    7.30
   4  -2 -13   99.09    7.20
   4  -2 -13   95.09    7.10
  -4   2  13   91.79   11.20
   3  -1 -13   28.80    4.60
   3  -1 -13   37.00    5.00
   3  -1 -13   37.20    4.40
   3  -1 -13   35.30    4.80
   3  -1 -13   44.80    4.20
   2   0 -13   -2.10    2.30
   2   0 -13    5.80    3.00
   2   0 -13   -2.80    2.50
   2   0 -13    0.10    3.70
   2   0 -13    0.10    2.10
   2   0 -13    4.20    3.10
   1   1 -13   36.40    5.40
   1   1 -13   20.90    5.90
   1   1 -13   28.60    4.40
   1   1 -13   36.90    6.10
   0   2 -13   19.20    5.00
   4  -3 -13  365.46   24.10
   4  -3 -13  358.46   24.10
   4  -3 -13  360.66   24.10
  -4   3  13  378.66   25.60
  -4   3  13  380.66   26.90
   3  -2 -13   10.80    2.30
   3  -2 -13    5.50    2.30
   3  -2 -13    8.40    2.10
  -3   2  13    6.30    5.70
   2  -1 -13    7.70    2.40
  -2   1  13   -3.50    4.90
   1   0 -13   24.50    4.40
   1   0 -13   29.40    4.00
   1   0 -13   23.80    4.00
   0   1 -13   59.79    7.20
   0   1 -13   59.89    6.70
   0   1 -13   78.49    7.00
   0   1 -13   78.89    7.50
   0   1 -13   81.59    7.80
  -1   2 -13   56.09    7.90
   3  -3 -13   74.69    6.00
   3  -3 -13   92.89    6.10
   3  -3 -13   81.19    5.90
  -3   3  13   75.69    8.60
  -3   3  13   84.59   12.40
   2  -2 -13   25.70    3.50
   2  -2 -13   26.40    3.20
  -2   2  13   27.20    7.20
   1  -1 -13   28.70    4.90
   1  -1 -13   18.90    4.20
   1  -1 -13   20.10    3.10
   1  -1 -13   31.00    4.00
   0   0 -13   -1.10    3.70
   0   0 -13    0.90    2.80
   0   0 -13   -1.70    2.60
   0   0 -13   -0.30    3.10
   0   0 -13    1.50    2.80
  -1   1 -13    8.30    3.10
  -1   1 -13    0.10    3.90
  -1   1 -13    7.70    4.50
  -2   2 -13  174.68   13.50
   2  -3 -13  208.48   13.90
   2  -3 -13  206.08   13.80
  -2   3  13  190.68   19.00
  -2   3  13  219.28   16.20
   1  -2 -13   20.10    2.80
   1  -2 -13   15.60    3.10
   1  -2 -13   15.00    3.10
   1  -2 -13   17.40    2.50
  -1   2  13    6.40    6.90
   0  -1 -13   58.79    7.40
   0  -1 -13   61.59    5.50
   0  -1 -13   53.29    6.80
   0   1  13   53.29    7.50
  -1   0 -13  252.37   18.20
  -1   0 -13  274.57   18.50
  -1   0 -13  236.38   17.70
  -1   0 -13  260.67   17.90
  -1   0 -13  252.37   18.00
  -1   0 -13  286.87   18.00
  -2   1 -13  360.26   26.40
  -2   1 -13  422.66   26.80
  -3   2 -13  740.93   49.10
   1  -3 -13   20.40    2.80
  -1   3  13   26.70    6.60
  -1   3  13   18.70    9.20
   0  -2 -13   20.50    3.20
   0  -2 -13    9.40    2.50
   0  -2 -13   11.80    2.60
   0   2  13   14.90    8.00
   0   2  13   18.00    5.40
  -1  -1 -13    6.10    2.60
   1   1  13    5.10    4.70
   1   1  13    6.10    7.50
  -2   0 -13   -0.30    2.60
  -2   0 -13   -1.10    3.10
  -2   0 -13   -1.00    2.30
  -2   0 -13    1.10    2.70
  -2   0 -13    1.30    3.20
  -3   1 -13   11.40    4.90
  -3   1 -13   10.70    3.80
  -3   1 -13   10.40    4.20
  -3   1 -13   12.20    3.80
  -4   2 -13  197.28   14.80
   0  -3 -13  343.37   23.10
   0  -3 -13  351.86   23.00
   0   3  13  361.46   25.90
  -1  -2 -13   60.29    5.30
  -1  -2 -13   66.29    5.50
  -1  -2 -13   63.29    6.00
   1   2  13   57.89   12.20
   1   2  13   65.39    7.60
  -2  -1 -13  359.76   24.40
  -2  -1 -13  361.46   24.60
  -2  -1 -13  358.26   24.50
   2   1  13  375.76   25.50
  -3   0 -13  138.79   11.20
  -3   0 -13  140.69   11.20
  -3   0 -13  150.48   10.60
  -4   1 -13  782.52   52.09
  -4   1 -13  803.72   52.49
  -5   2 -13  354.96   24.80
  -1  -3 -13   25.70    2.90
  -1  -3 -13   28.20    3.00
   1   3  13   11.00   11.30
   1   3  13   23.30    4.70
   1   3  13   16.30    5.50
  -2  -2 -13  150.48   10.10
  -2  -2 -13  131.09    9.80
  -2  -2 -13  141.49   10.50
   2   2  13  139.99   15.40
   2   2  13  134.99   11.80
  -3  -1 -13    2.10    2.40
  -3  -1 -13    8.20    3.10
  -3  -1 -13    4.60    2.70
  -3  -1 -13    2.80    2.90
   3   1  13    7.90    5.30
   3   1  13    0.30    4.40
  -4   0 -13    0.80    3.30
  -4   0 -13    4.10    3.10
  -4   0 -13    4.20    2.80
  -4   0 -13    3.60    2.90
  -4   0 -13   -3.90    2.90
  -5   1 -13  844.02   53.19
  -5   1 -13  761.72   52.59
  -6   2 -13   58.59    7.30
  -2  -3 -13  265.67   18.10
  -2  -3 -13  263.17   18.60
  -2  -3 -13  277.67   18.10
   2   3  13  287.87   20.70
   2   3  13  282.97   19.30
  -3  -2 -13  629.44   39.60
  -3  -2 -13  605.74   39.90
  -3  -2 -13  573.04   39.70
   3   2  13  619.24   40.60
   3   2  13  593.94   42.60
  -4  -1 -13  661.93   43.70
  -4  -1 -13  647.24   43.80
  -4  -1 -13  675.03   43.50
  -4  -1 -13  678.83   44.00
   4   1  13  656.63   44.60
   4   1  13  671.43   44.70
  -5   0 -13  379.26   26.70
  -5   0 -13  385.16   26.40
  -5   0 -13  378.86   26.60
  -5   0 -13  417.06   26.60
  -5   0 -13  407.86   26.80
  -6   1 -13  945.71   60.89
  -6   1 -13  902.71   60.49
  -7   2 -13   86.79    8.30
  -3  -3 -13   47.60    3.60
  -3  -3 -13   41.10    3.50
  -3  -3 -13   43.30    4.20
   3   3  13   35.10    6.00
   3   3  13   34.00    7.40
  -4  -2 -13  127.79    9.40
  -4  -2 -13  130.99    9.00
   4   2  13  118.59   10.90
   4   2  13  121.39   13.70
  -5  -1 -13  666.43   43.90
  -5  -1 -13  696.43   44.10
  -5  -1 -13  688.73   44.30
   5   1  13  729.03   45.00
   5   1  13  555.54   47.40
  -6   0 -13   -0.80    4.00
  -6   0 -13    2.10    2.70
  -6   0 -13   -2.90    3.10
  -6   0 -13    0.80    2.60
  -6   0 -13    2.40    2.90
  -7   1 -13   69.29    6.90
  -7   1 -13   59.69    6.10
  -8   2 -13    5.40    2.80
  -4  -3 -13  192.58   12.70
  -4  -3 -13  207.08   12.80
   4   3  13  166.98   14.70
   4   3  13  193.88   13.60
  -5  -2 -13  267.77   18.20
  -5  -2 -13  256.27   17.70
   5   2  13  280.27   19.30
   5   2  13  257.57   21.20
  -6  -1 -13  770.22   48.50
  -6  -1 -13  703.23   48.00
  -6  -1 -13  730.43   48.30
   6   1  13  744.63   49.10
  -7   0 -13   20.30    3.70
  -7   0 -13   15.00    3.10
  -7   0 -13   12.60    3.40
  -7   0 -13   14.80    3.40
  -8   1 -13  137.79   10.80
  -9   2 -13   91.69    7.60
  -6  -2 -13   43.70    4.10
  -6  -2 -13   31.50    4.80
   6   2  13   46.30   10.40
   6   2  13   42.30    7.70
  -7  -1 -13   50.99    4.90
  -7  -1 -13   53.09    5.30
   7   1  13   44.60    6.50
  -8   0 -13   -2.00    2.30
  -8   0 -13   -0.90    2.60
  -8   0 -13    2.10    3.10
  -9   1 -13   18.90    3.50
  -9   1 -13   16.30    3.50
  -7  -2 -13   51.29    5.10
  -7  -2 -13   52.99    4.60
   7   2  13   54.09    6.60
   7   2  13   67.09    9.40
  -8  -1 -13  129.09    9.50
  -8  -1 -13  125.39    9.70
   8   1  13  125.49   10.50
  -9   0 -13   13.20    3.90
  -9   0 -13    7.40    3.50
 -10   1 -13   27.00    4.50
 -10   1 -13   22.20    3.70
  -8  -2 -13    3.00    1.60
  -8  -2 -13    4.00    1.80
   8   2  13    3.20    8.70
   8   2  13    2.50    2.60
  -9  -1 -13   11.10    2.50
  -9  -1 -13   16.60    2.70
   9   1  13   10.60    3.60
 -10   0 -13    3.60    2.80
 -10   0 -13    1.10    2.20
 -10   0 -13    5.20    2.90
  10   0  13    0.90    3.20
 -10  -1 -13   24.90    3.70
  10   1  13   27.90    4.60
 -11   0 -13  448.36   26.80
 -11   0 -13  407.66   27.00
  11   0  13  364.06   27.00
  12   0 -14  411.36   26.90
  11   1 -14  649.83   43.70
  11   1 -14  693.63   43.70
  11   0 -14   -1.30    1.80
  11   0 -14   -0.20    1.60
  10   1 -14   39.90    3.90
  10   1 -14   37.20    3.90
   9   2 -14    3.00    2.10
  11  -1 -14  750.62   48.50
  11  -1 -14  688.03   48.50
 -11   1  14  807.62   49.40
  10   0 -14 1217.28   80.59
  10   0 -14 1233.28   80.59
  10   0 -14 1277.37   80.59
   9   1 -14  998.60   64.49
   9   1 -14  961.50   64.39
   9   1 -14 1011.30   64.49
   8   2 -14  379.66   25.10
  10  -1 -14   50.59    4.40
  10  -1 -14   54.59    4.40
  10  -1 -14   47.50    4.30
   9   0 -14   -4.60    3.00
   9   0 -14    0.00    2.20
   8   1 -14   -0.30    2.00
   8   1 -14    3.00    2.10
   7   2 -14    6.90    2.60
   7   2 -14    4.80    3.00
   9  -1 -14 1116.49   71.29
   9  -1 -14 1047.20   71.29
   9  -1 -14 1154.28   71.29
   9  -1 -14 1079.69   71.29
   8   0 -14  415.26   27.70
   8   0 -14  420.56   27.60
   8   0 -14  425.86   27.60
   8   0 -14  404.96   27.60
   7   1 -14  846.52   57.29
   7   1 -14  874.81   57.39
   7   1 -14  915.41   57.49
   6   2 -14  786.82   49.80
   6   2 -14  731.83   49.70
   9  -2 -14    1.30    1.60
   9  -2 -14    3.20    1.40
   9  -2 -14    0.10    1.70
  -9   2  14   -2.90    7.40
   8  -1 -14    1.50    1.90
   8  -1 -14    1.20    1.90
  -8   1  14    4.90   12.70
   7   0 -14   -0.30    1.80
   7   0 -14    0.60    2.30
   7   0 -14   -0.70    2.40
   7   0 -14    3.10    2.00
   6   1 -14  160.88   11.50
   6   1 -14  158.68   11.40
   6   1 -14  158.18   12.40
   5   2 -14   50.09    7.80
   8  -2 -14  528.15   33.10
   8  -2 -14  547.35   33.20
   8  -2 -14  464.15   33.10
   8  -2 -14  498.05   33.10
  -8   2  14  501.95   35.40
   7  -1 -14  885.41   64.89
   7  -1 -14  993.40   64.79
   7  -1 -14 1044.40   64.79
   7  -1 -14 1018.30   64.79
   7  -1 -14 1040.40   64.69
   6   0 -14 5594.64  348.67
   6   0 -14 5680.13  348.57
   6   0 -14 4572.14  348.97
   6   0 -14 5728.63  348.57
   6   0 -14 5434.36  348.77
   5   1 -14  224.08   15.60
   5   1 -14  227.88   15.70
   4   2 -14   50.79    5.90
   4   2 -14   61.29    6.00
   7  -2 -14    8.50    2.10
   7  -2 -14   12.60    2.30
   7  -2 -14    7.90    2.00
  -7   2  14    7.20    7.10
   6  -1 -14  193.18   12.50
   6  -1 -14  189.98   12.70
   6  -1 -14  173.98   12.50
   6  -1 -14  161.88   12.70
   6  -1 -14  181.88   12.50
   5   0 -14   -1.60    2.30
   5   0 -14    0.90    2.60
   5   0 -14    2.30    2.10
   5   0 -14   -2.30    2.40
   5   0 -14   -1.60    2.30
   4   1 -14   48.40    6.00
   4   1 -14   52.69    5.10
   4   1 -14   46.40    5.10
   3   2 -14  195.48   13.70
   3   2 -14  186.58   13.70
   6  -2 -14  740.73   54.59
   6  -2 -14  899.21   54.49
   6  -2 -14  909.81   54.69
  -6   2  14  805.02   57.49
   5  -1 -14  279.87   18.00
   5  -1 -14  273.07   17.90
   5  -1 -14  258.37   17.90
   5  -1 -14  271.57   18.30
   5  -1 -14  244.08   18.20
   4   0 -14  512.55   36.80
   4   0 -14  593.54   36.90
   4   0 -14  560.54   37.00
   4   0 -14  569.74   36.80
   4   0 -14  556.44   37.10
   3   1 -14  671.83   46.40
   3   1 -14  725.33   46.40
   3   1 -14  717.33   46.50
   2   2 -14  247.78   17.40
   2   2 -14  253.17   17.50
   5  -2 -14   44.30    4.40
   5  -2 -14   40.30    4.20
  -5   2  14   34.70   10.30
   4  -1 -14   60.09    5.00
   4  -1 -14   50.59    5.40
   4  -1 -14   54.79    6.40
   4  -1 -14   56.39    5.70
   4  -1 -14   51.49    5.10
   4  -1 -14   53.79    5.60
   3   0 -14   -4.20    2.40
   3   0 -14    1.00    2.40
   3   0 -14    1.10    2.20
   3   0 -14    0.60    2.90
   2   1 -14   -2.90    3.20
   2   1 -14    2.20    2.80
   1   2 -14    7.70    3.70
   4  -2 -14   75.29    5.70
   4  -2 -14   66.69    6.30
   4  -2 -14   75.09    5.80
   4  -2 -14   70.59    5.80
  -4   2  14   66.69   14.30
   3  -1 -14  770.12   50.29
   3  -1 -14  674.73   50.39
   3  -1 -14  886.61   50.49
   3  -1 -14  758.02   50.69
   3  -1 -14  763.12   50.59
   2   0 -14  307.37   21.90
   2   0 -14  341.17   22.10
   1   1 -14  903.91   56.59
   1   1 -14  827.92   56.49
   1   1 -14  891.51   56.79
   1   1 -14  830.12   56.49
   0   2 -14  606.04   40.30
   3  -2 -14  255.87   15.50
   3  -2 -14  222.08   15.40
   3  -2 -14  204.58   15.70
   3  -2 -14  239.18   15.30
  -3   2  14  215.48   18.40
   2  -1 -14    2.60    2.20
   2  -1 -14    1.30    2.80
   2  -1 -14    4.40    2.20
   2  -1 -14    1.50    2.60
   2  -1 -14    2.20    2.50
   1   0 -14   -0.40    2.80
   1   0 -14    3.90    2.50
   1   0 -14    0.40    4.20
   0   1 -14  165.78   12.70
   0   1 -14  174.28   12.70
   0   1 -14  170.98   12.70
   3  -3 -14  379.16   26.70
   3  -3 -14  410.86   26.80
   3  -3 -14  430.46   26.80
  -3   3  14  404.96   29.30
  -3   3  14  425.46   28.20
   2  -2 -14  276.37   20.10
   2  -2 -14  293.17   20.20
   2  -2 -14  318.67   19.80
   2  -2 -14  319.87   19.90
  -2   2  14  277.17   22.70
   1  -1 -14  827.92   59.49
   1  -1 -14  909.91   59.49
   1  -1 -14 1022.70   59.39
   1  -1 -14  901.01   59.49
   1  -1 -14  929.11   59.79
   1  -1 -14  870.21   59.29
   0   0 -14  344.87   23.50
   0   0 -14  356.16   24.40
  -1   1 -14 1746.23  111.79
  -1   1 -14 1815.12  112.29
  -1   1 -14 1608.04  111.99
  -2   2 -14  973.90   63.99
   2  -3 -14   20.10    2.40
   2  -3 -14   19.20    2.50
   2  -3 -14   23.60    2.60
  -2   3  14   17.10    7.80
  -2   3  14   20.70    4.80
   1  -2 -14    3.10    2.30
   1  -2 -14   10.90    2.20
   1  -2 -14    8.30    2.60
   1  -2 -14    9.20    2.40
  -1   2  14    5.40    6.70
   0  -1 -14  165.08   12.30
   0  -1 -14  181.48   12.60
   0  -1 -14  172.08   12.10
   0  -1 -14  170.78   12.20
   0  -1 -14  164.48   12.00
   0   1  14  156.68   14.80
  -1   0 -14    0.60    2.90
  -1   0 -14    2.60    2.80
  -1   0 -14    4.30    3.30
  -1   0 -14    0.50    2.70
  -2   1 -14    6.40    3.60
  -2   1 -14    3.00    3.50
  -2   1 -14    1.90    3.70
  -2   1 -14   -1.80    4.20
   1  -3 -14  214.18   14.80
   1  -3 -14  211.28   14.70
   1  -3 -14  256.87   14.80
  -1   3  14  205.48   18.30
  -1   3  14  222.38   17.00
   0  -2 -14  690.33   45.70
   0  -2 -14  694.23   45.40
   0  -2 -14  692.23   45.60
   0  -2 -14  710.73   45.90
   0   2  14  700.13   48.40
  -1  -1 -14 1634.04  104.49
  -1  -1 -14 1656.03  104.59
  -1  -1 -14 1573.64  104.19
  -1  -1 -14 1632.94  104.39
  -1  -1 -14 1853.41  104.29
  -1  -1 -14 1511.75  104.39
   1   1  14 1547.75  105.09
   1   1  14 1449.06  105.09
  -2   0 -14  564.54   39.60
  -2   0 -14  628.84   39.80
  -2   0 -14  624.74   39.70
  -2   0 -14  621.44   40.10
  -2   0 -14  561.34   39.80
  -3   1 -14 2430.66  147.49
  -3   1 -14 2240.68  146.99
  -3   1 -14 2135.29  147.09
  -4   2 -14 1521.25   99.59
   0  -3 -14    5.30    1.90
   0  -3 -14    4.50    1.20
   0   3  14    3.20    4.00
   0   3  14    1.50    8.30
  -1  -2 -14   15.30    3.50
  -1  -2 -14   12.60    2.10
  -1  -2 -14    8.60    2.50
  -1  -2 -14   14.40    2.70
   1   2  14   22.50    7.70
   1   2  14   18.20    5.00
  -2  -1 -14    2.20    2.10
  -2  -1 -14    2.30    2.40
  -2  -1 -14    0.60    3.20
  -2  -1 -14    5.00    2.90
  -2  -1 -14    2.30    2.40
   2   1  14   -4.00    5.10
   2   1  14   14.30    6.20
  -3   0 -14    0.10    2.90
  -3   0 -14   -4.70    3.00
  -3   0 -14   -1.50    2.40
  -3   0 -14   -1.60    2.80
  -3   0 -14    0.70    2.90
  -4   1 -14  145.99   11.10
  -4   1 -14  138.09   10.80
  -5   2 -14  184.88   14.00
  -1  -3 -14  645.94   38.10
  -1  -3 -14  534.25   38.00
   1   3  14  578.54   39.60
  -2  -2 -14  731.53   46.90
  -2  -2 -14  745.83   47.20
   2   2  14  743.63   49.60
   2   2  14  652.53   47.80
  -3  -1 -14 2021.00  126.69
  -3  -1 -14 2021.30  126.19
  -3  -1 -14 1894.41  126.49
  -3  -1 -14 2012.30  126.49
   3   1  14 1996.70  127.19
   3   1  14 1757.42  127.09
  -4   0 -14 4423.56  266.37
  -4   0 -14 3917.61  265.97
  -4   0 -14 4111.39  265.97
  -4   0 -14 4216.48  266.07
  -4   0 -14 3917.11  266.07
  -5   1 -14   64.79    6.60
  -6   2 -14  497.05   33.20
  -2  -3 -14   75.19    5.80
  -2  -3 -14   77.19    5.90
  -2  -3 -14   90.49    7.10
   2   3  14   81.99    8.70
   2   3  14   88.19    7.50
  -3  -2 -14   94.19    7.60
  -3  -2 -14   97.89    7.10
   3   2  14   82.39   11.70
   3   2  14  100.09   10.00
  -4  -1 -14  109.19    8.40
  -4  -1 -14  111.59    8.60
  -4  -1 -14  104.69    8.30
   4   1  14  117.29   10.20
  -5   0 -14    3.30    2.80
  -5   0 -14    1.60    2.60
  -5   0 -14    1.00    2.80
  -5   0 -14    6.90    2.70
  -6   1 -14  717.93   47.80
  -6   1 -14  738.73   48.20
  -7   2 -14   27.80    4.20
  -5  -1 -14   24.90    3.80
  -5  -1 -14   14.00    2.80
  -5  -1 -14   17.30    2.80
   5   1  14   22.00    4.60
  -6   0 -14  276.37   18.30
  -6   0 -14  268.47   18.40
  -6   0 -14  249.18   18.40
  -6   0 -14  263.47   18.10
  -7   1 -14  276.37   21.90
  -7   1 -14  328.57   21.20
  -8   2 -14   29.20    4.40
  -5  -2 -14  142.79    9.40
  -5  -2 -14  125.69    9.60
   5   2  14  127.59   13.50
   5   2  14  129.19   11.10
  -6  -1 -14  608.64   39.20
  -6  -1 -14  578.74   38.90
  -6  -1 -14  579.84   38.90
   6   1  14  603.44   39.70
  -7   0 -14   -4.10    2.70
  -7   0 -14    1.90    2.60
  -7   0 -14    1.40    3.40
  -7   0 -14    0.40    2.40
  -8   1 -14    7.50    3.20
  -8   1 -14    8.20    3.10
  -6  -2 -14  353.26   22.40
  -6  -2 -14  354.06   22.70
   6   2  14  311.37   24.60
   6   2  14  335.47   23.30
  -7  -1 -14  268.17   18.40
  -7  -1 -14  270.77   18.60
   7   1  14  277.37   19.30
  -8   0 -14   92.39   11.00
  -8   0 -14  117.89    9.70
  -8   0 -14   84.99    8.70
  -9   1 -14   97.39    7.40
  -9   1 -14   89.39    7.70
  -7  -2 -14    8.20    1.70
   7   2  14   15.40    3.00
   7   2  14    6.00    5.30
  -8  -1 -14    5.60    2.60
  -8  -1 -14    3.50    2.10
   8   1  14    9.80    4.10
  -9   0 -14    1.20    3.00
  -9   0 -14   -2.10    2.20
  -9   0 -14    0.60    2.90
   9   0  14   -0.10    3.10
 -10   1 -14   58.29    5.10
 -10   1 -14   60.49    5.60
  -8  -2 -14   24.10    3.40
  -8  -2 -14   16.20    2.60
   8   2  14   19.80    7.00
   8   2  14   13.60    2.90
  -9  -1 -14   82.59    6.50
  -9  -1 -14   80.69    6.20
  -9  -1 -14   65.99    5.80
   9   1  14   75.09    6.90
   9   1  14   62.39   11.10
 -10   0 -14  126.29    9.70
 -10   0 -14  152.18   10.20
  10   0  14  139.29   10.60
 -10  -1 -14   37.90    4.10
 -10  -1 -14   47.30    4.10
 -10  -1 -14   39.10    4.50
  10   1  14   36.40    4.30
  11   0 -15  463.35   27.70
  11   0 -15  379.36   27.50
  10   1 -15  474.55   31.10
  10   0 -15    2.50    2.10
  10   0 -15    0.50    1.80
   9   1 -15  154.48   10.70
   9   1 -15  152.88   10.70
   9   1 -15  150.98   10.60
  10  -1 -15  423.66   29.90
  10  -1 -15  484.55   29.90
  10  -1 -15  465.35   30.00
   9   0 -15   14.00    2.70
   9   0 -15   21.10    2.90
   9   0 -15   13.30    2.50
   8   1 -15  179.98   12.70
   8   1 -15  171.88   12.70
   8   1 -15  191.08   12.70
   9  -1 -15  175.68   11.70
   9  -1 -15  164.78   11.70
   9  -1 -15  171.78   11.70
   8   0 -15    0.60    2.60
   8   0 -15    0.00    2.10
   7   1 -15   65.69    5.80
   7   1 -15   65.69    5.70
   6   2 -15   63.49    5.90
   6   2 -15   69.19    5.90
   8  -1 -15  191.78   13.50
   8  -1 -15  199.78   13.50
   8  -1 -15  183.28   13.50
   8  -1 -15  205.98   13.50
  -8   1  15  215.48   20.60
   7   0 -15    4.90    3.60
   7   0 -15   10.60    2.20
   7   0 -15    7.60    2.30
   6   1 -15   58.09    5.50
   6   1 -15   61.19    5.30
   5   2 -15 1451.45   94.89
   5   2 -15 1474.15   94.99
   8  -2 -15   42.20    3.50
   8  -2 -15   33.00    3.70
   8  -2 -15   37.20    3.60
   8  -2 -15   43.90    3.50
  -8   2  15   60.19   11.40
   7  -1 -15   67.89    6.90
   7  -1 -15   64.39    5.70
   7  -1 -15   80.49    6.50
   7  -1 -15   63.39    6.20
   7  -1 -15   70.69    5.70
   6   0 -15    0.50    1.80
   6   0 -15    1.20    2.30
   6   0 -15   -2.20    2.00
   5   1 -15  277.57   19.00
   5   1 -15  278.97   18.90
   4   2 -15  656.23   42.70
   4   2 -15  641.54   42.70
   7  -2 -15  103.49    7.20
   7  -2 -15   96.99    7.20
   7  -2 -15  104.29    7.50
   7  -2 -15   97.39    7.10
  -7   2  15  107.89   12.20
   6  -1 -15   62.89    5.90
   6  -1 -15   59.19    5.20
   6  -1 -15   66.39    5.20
   5   0 -15   38.40    4.90
   5   0 -15   44.80    4.70
   5   0 -15   44.10    4.50
   4   1 -15  165.28   11.90
   4   1 -15  161.18   11.80
   3   2 -15   83.79    7.70
   3   2 -15   84.79    7.50
   6  -2 -15   73.19    5.50
   6  -2 -15   68.79    5.50
   6  -2 -15   70.69    5.50
  -6   2  15   76.19   11.90
   5  -1 -15  299.27   20.70
   5  -1 -15  327.87   20.40
   5  -1 -15  312.67   20.40
   5  -1 -15  303.07   20.60
   5  -1 -15  280.37   20.40
   4   0 -15    0.40    2.30
   4   0 -15   -2.10    3.90
   4   0 -15    3.40    2.20
   4   0 -15    0.20    2.40
   4   0 -15   -0.40    2.90
   3   1 -15    0.40    2.50
   3   1 -15    0.80    2.40
   2   2 -15    7.50    3.90
   5  -2 -15 1619.24  107.59
   5  -2 -15 1619.04  107.69
   5  -2 -15 1699.53  107.79
  -5   2  15 1725.03  110.09
   4  -1 -15  170.28   12.00
   4  -1 -15  170.18   12.30
   4  -1 -15  179.18   12.10
   4  -1 -15  171.68   12.50
   3   0 -15  208.28   15.80
   3   0 -15  221.48   15.60
   3   0 -15  201.78   15.50
   3   0 -15  232.98   15.80
   3   0 -15  248.48   15.50
   2   1 -15 1172.98   74.79
   2   1 -15 1118.59   74.59
   1   2 -15  552.54   36.80
   4  -2 -15  702.13   49.20
   4  -2 -15  774.12   49.00
   4  -2 -15  865.21   49.30
  -4   2  15  672.03   50.69
   3  -1 -15    1.30    2.30
   3  -1 -15   -0.70    2.30
   3  -1 -15    0.70    2.20
   3  -1 -15   -2.20    1.90
  -3   1  15    1.70    7.30
   2   0 -15   -1.90    2.40
   2   0 -15    3.60    2.90
   2   0 -15   -2.90    3.00
   2   0 -15   -3.80    2.30
   1   1 -15    0.90    2.60
   1   1 -15    5.20    3.70
   1   1 -15    3.20    3.20
   3  -2 -15  101.29    8.40
   3  -2 -15   89.59    9.80
   3  -2 -15  111.19    7.80
  -3   2  15  108.79   12.30
   2  -1 -15 1243.88   82.59
   2  -1 -15 1365.86   82.29
   2  -1 -15 1229.08   82.09
   2  -1 -15 1225.38   82.39
   1   0 -15  512.05   36.00
   1   0 -15  557.74   35.70
   1   0 -15  553.54   36.00
   1   0 -15  593.14   35.90
   1   0 -15  489.05   35.80
   0   1 -15 1270.27   81.79
   0   1 -15 1236.08   81.49
   2  -2 -15    1.80    3.70
   2  -2 -15    0.70    2.80
   2  -2 -15    4.00    2.80
   2  -2 -15    5.40    2.10
   2  -2 -15    1.00    2.10
   1  -1 -15   -1.00    2.60
   1  -1 -15    0.70    2.20
   1  -1 -15    2.00    2.20
   1  -1 -15    5.60    2.20
   0   0 -15   -1.90    2.70
   0   0 -15    3.50    2.50
   0   0 -15   -1.10    3.20
   0   0 -15    3.20    2.80
   0   0 -15    3.00    3.30
  -1   1 -15  172.78   13.10
  -1   1 -15  186.88   13.30
   1  -2 -15  647.34   39.20
   1  -2 -15  564.94   39.00
   1  -2 -15  557.64   39.60
   1  -2 -15  624.74   39.20
   1  -2 -15  595.54   40.00
   0  -1 -15 1376.06   82.69
   0  -1 -15 1195.28   82.69
   0  -1 -15 1236.98   82.79
   0  -1 -15 1280.07   82.99
  -1   0 -15 1576.64  110.39
  -1   0 -15 1752.12  110.49
  -1   0 -15 1795.62  110.39
  -1   0 -15 1734.23  110.19
  -1   0 -15 1640.04  110.49
  -2   1 -15 1049.79   70.79
  -2   1 -15 1050.59   70.59
  -2   1 -15 1150.08   71.19
  -3   2 -15  526.15   35.20
   0  -2 -15    4.70    2.10
   0  -2 -15    4.60    2.80
   0  -2 -15    9.50    2.60
   0   2  15    3.20    6.80
  -1  -1 -15  162.08   12.20
  -1  -1 -15  186.28   12.10
  -1  -1 -15  178.98   12.50
  -1  -1 -15  169.38   12.30
  -1  -1 -15  161.48   12.00
  -2   0 -15    0.80    2.80
  -2   0 -15    0.70    2.60
  -2   0 -15   -2.20    3.60
  -2   0 -15    0.20    2.60
  -3   1 -15   18.60    3.90
  -3   1 -15   20.20    4.00
  -3   1 -15   21.00    4.10
  -4   2 -15   16.00    4.20
   1   2  15  172.88   14.10
   1   2  15  154.98   18.60
  -2  -1 -15  984.30   65.19
  -2  -1 -15  970.20   64.99
  -2  -1 -15 1009.30   65.29
  -2  -1 -15 1102.69   65.09
  -2  -1 -15  982.40   65.39
   2   1  15  947.61   65.89
  -3   0 -15  193.08   13.90
  -3   0 -15  194.88   13.70
  -3   0 -15  193.08   14.20
  -4   1 -15  139.59   10.50
  -4   1 -15  124.39   10.20
  -5   2 -15  856.81   56.19
  -2  -2 -15   76.99    5.90
  -2  -2 -15   55.99    8.10
   2   2  15   66.99    8.90
  -3  -1 -15   16.60    3.00
  -3  -1 -15   17.50    3.00
  -3  -1 -15   11.30    2.70
  -3  -1 -15   16.90    2.70
   3   1  15    9.60    4.30
  -4   0 -15    3.30    2.60
  -4   0 -15    5.40    2.80
  -4   0 -15    2.00    2.70
  -4   0 -15    6.00    2.50
  -5   1 -15   90.99    8.20
  -5   1 -15   99.59    8.20
  -6   2 -15  123.29    9.80
  -3  -2 -15  391.46   25.80
  -3  -2 -15  375.16   25.90
  -3  -2 -15  384.86   25.60
  -3  -2 -15  444.66   25.70
   3   2  15  375.76   26.70
   3   2  15  352.76   28.10
  -4  -1 -15  106.69    8.20
  -4  -1 -15  116.29    8.40
  -4  -1 -15  111.79    8.40
  -4  -1 -15  109.89    8.70
   4   1  15   98.79    9.80
  -5   0 -15 4794.52  308.47
  -5   0 -15 4739.83  308.77
  -5   0 -15 4702.23  308.57
  -5   0 -15 4875.51  308.57
  -6   1 -15  631.54   41.90
  -4  -2 -15    7.80    2.30
  -4  -2 -15   10.50    2.60
  -4  -2 -15    6.90    1.80
   4   2  15   17.90    4.70
   4   2  15   15.10    6.70
  -5  -1 -15   82.39    6.80
  -5  -1 -15   72.99    6.20
   5   1  15   67.59    7.50
  -6   0 -15    2.00    2.40
  -6   0 -15    1.40    2.10
  -6   0 -15   -0.20    2.80
  -6   0 -15    1.10    3.00
  -7   1 -15    1.20    2.60
  -7   1 -15    0.10    2.60
  -5  -2 -15  647.54   39.20
  -5  -2 -15  609.74   39.40
   5   2  15  602.84   39.90
   5   2  15  543.65   40.70
  -6  -1 -15  553.94   36.50
  -7   0 -15  355.96   22.70
  -7   0 -15  344.57   22.80
  -7   0 -15  296.97   24.20
  -8   1 -15  453.15   33.00
  -8   1 -15  551.24   33.50
  -6  -2 -15   74.49    5.60
  -6  -2 -15   79.39    5.50
  -6  -2 -15   70.49    5.70
   6   2  15   71.39    6.70
   6   2  15   67.59    8.80
  -7  -1 -15    5.70    2.60
  -7  -1 -15    2.70    2.20
  -7  -1 -15    0.90    2.20
   7   1  15    1.10    3.50
  -8   0 -15   -5.60    2.70
  -8   0 -15    0.30    1.90
   8   0  15    2.30    4.00
  -9   1 -15    0.40    1.70
  -9   1 -15    0.50    1.70
  -8  -1 -15  395.96   25.50
  -8  -1 -15  388.76   25.60
   8   1  15  373.66   26.00
  -9   0 -15  203.68   13.60
  -9   0 -15  187.38   13.20
   9   0  15  187.78   13.70
  -9  -1 -15    1.80    2.10
  -9  -1 -15   -0.90    1.60
  -9  -1 -15   -1.60    2.60
   9   1  15    5.60    2.60
  10   0 -16   40.30    3.80
  10   0 -16   44.70    3.80
   9   1 -16  173.88   11.80
   9   0 -16    3.10    2.40
   9   0 -16   -0.20    1.80
   9   0 -16   -2.80    1.90
   8   1 -16   81.59    6.20
   8   1 -16   76.29    6.20
   9  -1 -16  196.78   13.20
   8   0 -16    2.50    2.40
   8   0 -16    6.90    2.20
   7   1 -16    7.50    2.20
   7   1 -16    2.90    2.20
   8  -1 -16   80.99    6.60
   8  -1 -16   77.09    6.10
   8  -1 -16   90.39    6.20
   7   0 -16    2.00    4.20
   5   2 -16  333.87   22.20
   7  -1 -16    6.40    2.80
   7  -1 -16    8.70    3.00
   7  -1 -16    6.50    2.20
   7  -1 -16    7.40    2.00
  -7   1  16    3.50   10.10
   6   0 -16   22.30    3.50
   6   0 -16   20.10    2.90
   5   1 -16  249.78   17.50
   5   1 -16  260.67   17.50
   4   2 -16   24.20    4.40
   7  -2 -16   93.99    6.70
   7  -2 -16   97.19    6.80
   6  -1 -16    4.40    2.70
   5   0 -16   -1.10    2.00
   5   0 -16   -3.10    2.60
   5   0 -16    1.80    1.90
   4   1 -16  296.97   19.80
   4   1 -16  287.97   19.90
   3   2 -16   44.80    5.30
   6  -2 -16    8.30    2.50
   6  -2 -16    9.10    1.70
   6  -2 -16   13.20    2.00
  -6   2  16   20.70    6.70
   5  -1 -16  291.07   19.70
   5  -1 -16  296.97   19.70
   4   0 -16  527.55   35.10
   4   0 -16  557.94   35.40
   4   0 -16  517.05   35.10
   4   0 -16  530.15   35.30
   3   1 -16   12.80    2.80
   3   1 -16   20.00    3.30
   2   2 -16   22.60    3.90
   5  -2 -16  421.66   26.70
   5  -2 -16  399.36   26.70
   5  -2 -16  398.16   26.60
  -5   2  16  409.26   29.50
   4  -1 -16  326.47   21.90
   4  -1 -16  339.77   21.60
   4  -1 -16  302.17   21.70
   4  -1 -16  324.57   21.50
   3   0 -16    0.40    2.10
   3   0 -16   -1.30    2.00
   2   1 -16   57.19    5.90
   2   1 -16   69.19    6.20
   1   2 -16    7.90    3.20
   4  -2 -16   35.90    3.40
   4  -2 -16   27.70    3.90
   4  -2 -16   34.90    3.60
  -4   2  16   32.40    7.10
  -4   2  16   26.50    7.60
   3  -1 -16   12.20    2.50
   3  -1 -16   13.60    2.50
  -3   1  16   14.80    7.00
   2   0 -16   51.39    5.70
   2   0 -16   43.90    5.00
   2   0 -16   49.99    5.00
   1   1 -16  201.58   15.30
   1   1 -16  240.48   15.60
   3  -2 -16   50.09    5.00
   3  -2 -16   53.69    4.50
   3  -2 -16   47.90    5.00
   3  -2 -16   54.19    6.20
   3  -2 -16   55.59    4.50
  -3   2  16   46.80    8.30
   2  -1 -16   76.49    6.80
   2  -1 -16   83.09    6.10
   2  -1 -16   70.69    6.40
   2  -1 -16   72.89    6.30
   1   0 -16    1.90    2.50
   1   0 -16    1.90    2.60
   1   0 -16    0.80    2.90
   1   0 -16    2.00    2.30
   0   1 -16    7.20    3.10
   0   1 -16    8.40    3.30
   2  -2 -16   27.30    3.30
   2  -2 -16   23.40    3.90
   2  -2 -16   24.90    3.90
   2  -2 -16   25.90    3.20
  -2   2  16   18.60    5.90
   1  -1 -16  249.97   17.40
   1  -1 -16  239.78   17.60
   1  -1 -16  251.77   17.20
   1  -1 -16  273.97   17.20
   0   0 -16  442.16   30.90
   0   0 -16  495.65   30.80
   0   0 -16  474.15   30.90
   0   0 -16  436.66   30.50
  -1   1 -16  285.07   19.50
  -1   1 -16  277.57   19.30
   1  -2 -16   12.80    2.30
   1  -2 -16    7.20    1.90
   1  -2 -16    6.30    2.40
   1  -2 -16    5.80    2.30
  -1   2  16    7.20    5.50
   0  -1 -16   17.40    2.80
   0  -1 -16   11.80    2.60
   0  -1 -16   13.60    2.70
   0  -1 -16   14.90    2.70
   0  -1 -16   10.40    2.60
  -1   0 -16    2.00    5.00
  -1   0 -16   -1.70    2.40
  -1   0 -16   -1.60    2.90
  -1   0 -16   -2.40    2.30
  -2   1 -16  145.89   11.20
  -2   1 -16  147.89   11.10
   0  -2 -16  100.09    7.40
   0  -2 -16   99.39    7.70
   0  -2 -16   92.59    7.90
   0  -2 -16  110.39    7.40
   0   2  16   97.19   12.10
  -1  -1 -16  273.67   19.10
  -1  -1 -16  266.87   18.90
  -1  -1 -16  268.67   19.10
  -1  -1 -16  302.27   19.00
  -1  -1 -16  292.97   19.40
   1   1  16  289.17   22.20
  -2   0 -16   33.40    4.40
  -2   0 -16   24.00    3.50
  -2   0 -16   20.90    3.80
  -3   1 -16  120.39   10.20
  -3   1 -16  143.99   10.40
  -1  -2 -16   68.39    5.20
  -1  -2 -16   59.39    5.60
  -1  -2 -16   59.39    5.80
  -1  -2 -16   64.29    5.20
   1   2  16   66.49   10.30
  -2  -1 -16  131.39   10.00
  -2  -1 -16  152.68   10.50
  -2  -1 -16  145.99   10.10
  -2  -1 -16  139.29   10.10
  -2  -1 -16  144.39   10.20
   2   1  16  112.59   11.70
  -3   0 -16    5.90    2.90
  -3   0 -16    2.40    2.50
  -3   0 -16   -3.60    2.50
  -4   1 -16   30.80    4.70
  -2  -2 -16   43.10    4.20
  -2  -2 -16   41.50    4.30
  -2  -2 -16   38.80    4.70
  -2  -2 -16   45.20    4.10
   2   2  16   49.10    7.60
   2   2  16   47.80    7.50
  -3  -1 -16  120.39    8.70
  -3  -1 -16  109.29    8.60
  -3  -1 -16  123.09    9.00
   3   1  16  109.59   10.30
  -4   0 -16   29.80    4.70
  -4   0 -16   31.10    5.20
  -4   0 -16   31.60    4.20
  -5   1 -16  848.92   54.99
  -5   1 -16  822.02   54.59
  -3  -2 -16    6.90    2.00
  -3  -2 -16    8.50    2.30
  -3  -2 -16    3.80    2.10
  -3  -2 -16    6.50    2.00
   3   2  16    8.30    3.90
   3   2  16   11.30    5.70
  -4  -1 -16   29.40    4.30
  -4  -1 -16   41.10    4.80
  -4  -1 -16   24.60    3.80
  -4  -1 -16   29.40    4.70
  -5   0 -16    3.20    2.50
  -5   0 -16    2.50    4.50
  -6   1 -16   89.29    7.60
  -6   1 -16   95.39    7.70
  -4  -2 -16   31.90    3.70
  -4  -2 -16   31.20    3.40
  -4  -2 -16   27.90    3.20
   4   2  16   32.70    6.60
   4   2  16   34.30    5.50
  -5  -1 -16  716.63   47.60
  -5  -1 -16  804.92   47.80
  -5  -1 -16  673.93   47.70
   5   1  16  714.43   48.20
  -6   0 -16  144.99   11.70
  -6   0 -16  152.18   11.10
  -6   0 -16  163.88   11.40
  -7   1 -16  123.89    9.40
  -7   1 -16  128.29    9.30
  -5  -2 -16  157.78   11.20
  -5  -2 -16  173.38   11.20
  -5  -2 -16  170.48   11.00
   5   2  16  142.89   12.80
   5   2  16  167.58   11.90
  -6  -1 -16   75.69    6.20
  -6  -1 -16   77.99    6.60
  -6  -1 -16   85.89    6.50
   6   1  16   67.29    7.80
  -7   0 -16    1.60    2.10
  -7   0 -16   -0.10    3.30
  -7   0 -16   -1.40    2.80
   7   0  16    0.00    3.30
  -8   1 -16   56.09    5.20
  -8   1 -16   62.69    5.30
  -7  -1 -16  114.19    8.50
  -7  -1 -16  116.09    8.70
  -7  -1 -16  124.59    8.70
   7   1  16  118.69    9.50
  -8   0 -16   39.00    3.90
  -8   0 -16   39.60    5.50
   8   0  16   35.60    5.20
  -8  -1 -16   56.79    4.70
  -8  -1 -16   50.69    4.40
  -8  -1 -16   45.40    4.90
   8   1  16   48.10    5.10
   8   1  16   57.99   12.80
   9   0 -17  170.08   13.10
   9   0 -17  225.08   13.60
   8   1 -17  327.47   21.30
   8   1 -17  316.77   21.30
   8   0 -17   -2.20    2.10
   8   0 -17   -0.60    1.70
   7   1 -17   20.20    3.10
   7   1 -17   23.90    3.20
   8  -1 -17  338.17   22.20
   7   0 -17  438.66   28.90
   7   0 -17  434.06   28.80
   6   1 -17  264.57   18.00
   6   1 -17  271.27   18.10
   7  -1 -17   25.60    3.10
   7  -1 -17   25.20    3.10
  -7   1  17   37.50   10.00
   6   0 -17    0.20    2.40
   6   0 -17    3.60    2.40
   5   1 -17  344.47   22.80
   5   1 -17  332.37   22.60
   4   2 -17    9.10    2.60
   6  -1 -17  284.77   18.40
   6  -1 -17  283.87   18.40
   6  -1 -17  258.27   18.50
   5   0 -17 1653.03  107.69
   4   1 -17  275.87   18.80
   3   2 -17  321.67   21.50
   5  -1 -17  398.96   25.10
   5  -1 -17  389.36   25.10
   5  -1 -17  350.06   25.20
   4   0 -17    1.80    2.10
   4   0 -17    2.30    2.30
   3   1 -17    0.50    3.30
   2   2 -17   34.30    4.60
   5  -2 -17  919.91   61.69
   5  -2 -17  989.10   61.69
  -5   2  17  948.71   63.19
   4  -1 -17  302.87   20.90
   4  -1 -17  348.57   22.20
   4  -1 -17  296.37   21.20
   3   0 -17 1263.17   79.29
   3   0 -17 1190.18   79.49
   3   0 -17 1208.18   79.49
   2   1 -17 1520.15   96.99
   2   1 -17 1462.45   96.89
   1   2 -17  338.07   23.80
   4  -2 -17   17.30    2.60
  -4   2  17   27.80    7.00
   3  -1 -17    3.30    3.40
   3  -1 -17    0.80    3.70
  -3   1  17    1.40    7.20
   2   0 -17    0.80    2.30
   2   0 -17   -1.80    2.60
   2   0 -17   -0.60    2.30
   1   1 -17   42.60    5.80
   1   1 -17   30.50    5.20
   3  -2 -17  375.06   24.50
   3  -2 -17  381.56   24.50
  -3   2  17  367.96   27.10
  -3   2  17  368.66   27.60
   2  -1 -17 1263.37   87.99
   2  -1 -17 1233.28   88.19
   2  -1 -17 1504.75   88.09
  -2   1  17 1410.96   91.89
   1   0 -17  202.18   14.30
   1   0 -17  209.98   14.50
   1   0 -17  208.88   14.70
   2  -2 -17   43.30    4.60
   2  -2 -17   44.90    3.90
   2  -2 -17   44.60    4.00
   2  -2 -17   49.90    4.40
  -2   2  17   48.70    8.40
   1  -1 -17   38.30    4.50
   1  -1 -17   38.80    4.70
   0   0 -17   -2.30    2.30
   0   0 -17    1.20    2.90
   0   0 -17   -0.80    2.30
   0   0 -17   -2.40    2.60
  -1   1 -17    9.80    3.80
  -1   1 -17   14.30    5.60
   1  -2 -17  236.08   15.20
   1  -2 -17  240.18   15.20
   1  -2 -17  217.18   15.40
   1  -2 -17  223.38   15.40
  -1   2  17  219.78   17.40
   0  -1 -17  318.77   21.60
   0  -1 -17  322.47   21.80
  -1   0 -17    3.10    2.40
  -1   0 -17    9.50    2.70
  -1   0 -17    7.60    2.80
  -2   1 -17  273.87   19.20
  -2   1 -17  281.87   19.00
   0  -2 -17    1.70    1.30
   0  -2 -17    2.70    1.80
   0  -2 -17    4.60    1.80
   0  -2 -17    3.90    1.80
   0   2  17    6.50    4.60
  -1  -1 -17    8.10    3.60
  -1  -1 -17    4.80    2.70
  -1  -1 -17    9.10    2.90
  -1  -1 -17   15.90    3.00
  -2   0 -17   -0.10    3.20
  -2   0 -17   -2.60    2.30
  -2   0 -17    0.40    2.40
  -3   1 -17  206.78   14.00
  -3   1 -17  184.08   14.00
  -1  -2 -17  158.58   10.40
  -1  -2 -17  149.69   10.60
  -1  -2 -17  150.38   10.40
  -1  -2 -17  148.89   10.70
   1   2  17  156.78   13.30
  -2  -1 -17  280.77   18.10
  -2  -1 -17  253.97   18.10
   2   1  17  267.87   19.50
  -3   0 -17   66.89    8.90
  -3   0 -17   38.00    5.90
  -3   0 -17   46.10    4.80
  -4   1 -17  206.08   14.50
  -2  -2 -17   48.70    3.90
  -2  -2 -17   44.60    4.30
  -2  -2 -17   47.40    4.10
  -2  -2 -17   47.40    4.50
   2   2  17   40.10    7.50
  -3  -1 -17  193.68   13.70
  -3  -1 -17  197.68   13.70
  -3  -1 -17  216.68   13.80
  -3  -1 -17  205.08   14.00
   3   1  17  163.88   14.60
  -4   0 -17   -4.40    3.10
  -4   0 -17    4.10    4.40
  -4   0 -17   -0.90    2.80
   4   0  17    1.20    4.70
  -5   1 -17   26.00    4.30
  -3  -2 -17  222.88   14.80
  -3  -2 -17  224.18   14.50
  -3  -2 -17  224.98   14.60
   3   2  17  216.78   15.60
   3   2  17  202.58   16.40
  -4  -1 -17  170.68   12.00
  -4  -1 -17  180.18   12.30
  -4  -1 -17  186.18   12.10
   4   1  17  145.89   13.10
  -5   0 -17  578.94   39.50
  -5   0 -17  606.34   39.70
  -5   0 -17  617.54   39.70
   5   0  17  606.14   40.10
  -6   1 -17   40.90    4.60
  -5  -1 -17   25.70    3.50
  -5  -1 -17   25.90    3.60
  -5  -1 -17   22.90    3.50
   5   1  17   25.90    4.20
  -6   0 -17   -1.90    3.00
  -6   0 -17    0.20    1.90
  -6   0 -17    2.20    3.00
   6   0  17    0.80    3.30
  -6  -1 -17   31.10    3.60
  -6  -1 -17   37.50    4.00
  -6  -1 -17   41.40    4.10
   6   1  17   36.00    5.00
  -7   0 -17  269.07   19.00
   7   0  17  304.07   19.80
   8   0 -18  122.09    8.50
   7   1 -18  119.69    8.40
   7   1 -18  121.29    8.40
   7   0 -18    0.70    1.80
   7   0 -18    0.30    1.60
   6   1 -18    1.00    1.80
   6   1 -18    4.00    1.80
   7  -1 -18  128.19    8.80
   6   0 -18  948.81   63.89
   6   0 -18 1017.70   63.89
   5   1 -18  430.56   27.80
   5   1 -18  414.26   27.90
   6  -1 -18    2.90    1.60
   6  -1 -18    5.80    1.70
   6  -1 -18   -3.60    2.70
  -6   1  18    4.60    7.00
   5   0 -18   -0.60    1.90
   5   0 -18   -2.60    2.20
   4   1 -18   11.00    2.30
   4   1 -18    8.50    2.30
   5  -1 -18  475.95   31.00
   5  -1 -18  469.35   30.90
   5  -1 -18  469.65   30.80
   4   0 -18  612.04   40.00
   4   0 -18  604.14   39.80
   3   1 -18  268.07   16.90
   3   1 -18  222.98   16.50
   4  -1 -18   15.40    2.30
   4  -1 -18   10.40    2.20
   4  -1 -18    6.60    2.20
   3   0 -18    4.60    2.60
   3   0 -18   -1.00    2.60
   2   1 -18    3.30    2.60
   2   1 -18   -1.30    2.70
   3  -1 -18  262.47   18.30
   3  -1 -18  263.37   18.40
   3  -1 -18  291.07   18.20
   3  -1 -18  269.37   18.10
   2   0 -18  933.41   60.09
   2   0 -18  903.91   59.79
   1   1 -18 1339.97   87.09
   2  -1 -18    1.80    2.10
   2  -1 -18   -1.40    2.00
   2  -1 -18    0.20    2.10
   2  -1 -18   -0.30    2.00
  -2   1  18    1.70    5.50
   1   0 -18    4.20    2.70
   1   0 -18   -0.30    3.10
   0   1 -18   -0.70    2.50
   1  -1 -18 1320.17   85.99
   1  -1 -18 1289.97   85.99
   1  -1 -18 1368.96   85.79
   1  -1 -18 1323.87   85.69
  -1   1  18 1315.37   87.39
   0   0 -18  531.75   37.30
   0   0 -18  605.74   37.70
  -1   1 -18  313.47   21.20
   0  -1 -18    7.70    2.60
   0  -1 -18    8.00    2.20
   0  -1 -18    8.10    2.70
  -1   0 -18   -4.10    2.90
  -1   0 -18    0.20    3.10
  -1   0 -18   -4.40    2.70
  -2   1 -18   72.69    6.80
  -1  -1 -18  296.27   19.90
  -1  -1 -18  299.37   20.30
  -1  -1 -18  306.77   20.00
  -1  -1 -18  293.67   20.10
  -2   0 -18  465.05   29.50
  -2   0 -18  461.15   29.70
  -2   0 -18  450.65   29.60
   2   0  18  398.26   30.00
  -3   1 -18  156.18   11.10
  -3   1 -18  149.59   12.20
  -2  -1 -18   67.49    5.80
  -2  -1 -18   75.99    6.30
  -3   0 -18   -2.40    3.00
  -3   0 -18    3.60    2.70
  -3   0 -18   -1.30    2.20
   3   0  18    0.50    4.60
  -4   1 -18   15.90    3.00
  -3  -1 -18  143.19   10.10
  -3  -1 -18  150.78   10.30
   3   1  18  133.59   11.40
  -4   0 -18  313.57   21.70
  -4   0 -18  322.27   21.90
  -4   0 -18  352.06   21.70
   4   0  18  305.97   22.30
  -5   1 -18  250.07   17.10
  -4  -1 -18   24.40    3.50
  -4  -1 -18   20.40    3.30
  -4  -1 -18   22.40    3.10
   4   1  18   21.40    4.30
  -5   0 -18   -0.10    2.70
  -5   0 -18    0.70    3.00
  -5   0 -18    4.30    1.80
   5   0  18    7.70    3.50
  -5  -1 -18  292.07   17.90
  -5  -1 -18  257.37   17.90
  -5  -1 -18  253.47   17.70
  -6   0 -18 1273.17   77.19
  -6   0 -18 1051.59   77.29
   6   0  18 1252.27   77.59
   6   0 -19    2.70    1.70
   6   0 -19    0.00    1.40
   5   0 -19  224.18   15.50
   5   0 -19  239.28   15.60
   4   1 -19   73.99    5.20
   4   1 -19   52.59    5.00
   5  -1 -19   15.60    2.80
   4   0 -19   -1.20    1.80
   4   0 -19   -0.20    1.90
   3   1 -19   29.90    3.80
   3   1 -19   33.20    5.70
   4  -1 -19   73.19    6.30
   4  -1 -19   77.09    5.40
   4  -1 -19   65.39    5.60
   3   0 -19  821.12   54.89
   3   0 -19  868.31   55.09
   2   1 -19    7.60    2.10
   3  -1 -19   33.20    4.00
   3  -1 -19   28.30    3.10
   2   0 -19   -0.30    1.90
   2   0 -19    1.60    2.20
   1   1 -19   22.00    3.60
   2  -1 -19    1.00    2.80
   2  -1 -19    2.60    1.50
   2  -1 -19    4.30    1.80
   2  -1 -19    8.00    2.00
  -2   1  19   -1.00    8.80
   1   0 -19  297.07   20.30
   1   0 -19  304.67   20.30
   0   1 -19   41.90    4.90
   1  -1 -19   19.40    2.70
   1  -1 -19   16.00    2.90
  -1   1  19   18.80    4.80
   0   0 -19   -3.20    2.50
   0   0 -19    2.30    2.10
  -1   1 -19   32.20    4.20
   0  -1 -19   41.10    3.70
   0  -1 -19   30.20    3.80
   0  -1 -19   34.20    3.70
   0   1  19   36.50    7.60
  -1   0 -19   29.20    4.10
  -1   0 -19   27.80    4.80
  -2   1 -19  198.08   13.80
  -1  -1 -19   29.60    3.80
  -1  -1 -19   28.20    3.40
   1   1  19   34.20    6.30
  -2   0 -19   -0.90    2.70
  -2   0 -19   -0.30    2.10
  -2  -1 -19  232.08   15.60
  -3   0 -19  104.09    7.60
  -3   0 -19  105.39    7.30
  -3   0 -19   81.19    8.60
  -3  -1 -19   26.10    3.20
  -3  -1 -19   23.30    3.50
  -4   0 -19    0.40    1.90
  -4   0 -19   -0.60    2.60
  -4   0 -19   -0.70    4.70
   4   0  19    2.50    4.50
   3   0 -20    0.40    1.60
   3   0 -20    1.60    1.70
   2   0 -20   43.60    4.10
   2   0 -20   42.90    4.10
  -1   0  20   13.80    7.70
   0   0 -20    2.20    1.90
  -1   0 -20    0.40    2.20
   0   0   0    0.00    0.00

_computing_structure_solution     'SHELXT 2014/5 (Sheldrick, 2014)'
;
_shelx_hkl_checksum              72161
loop_
_space_group_symop_operation_xyz
'x, y, z'
'-x+1/2, y+1/2, -z+1/2'
'-x, -y, -z'
'x-1/2, -y-1/2, z-1/2'
loop_
_atom_site_label
_atom_site_type_symbol
_atom_site_fract_x
_atom_site_fract_y
_atom_site_fract_z
_atom_site_U_iso_or_equiv
_atom_site_adp_type
_atom_site_occupancy
_atom_site_site_symmetry_order
_atom_site_calc_flag
_atom_site_refinement_flags_posn
_atom_site_refinement_flags_adp
_atom_site_refinement_flags_occupancy
_atom_site_disorder_assembly
_atom_site_disorder_group
Ca Ca 0.500000 1.000000 0.500000 0.0104(3) Uani 1 2 d S . P . .
O3 O 0.39864(11) 0.5050(3) 0.53051(9) 0.0131(4) Uani 1 1 d . . . . .
O1 O -0.05023(10) 0.2213(5) 0.61637(9) 0.0209(4) Uani 1 1 d . . . . .
O2 O 0.00939(13) 0.5072(5) 0.72138(9) 0.0248(5) Uani 1 1 d . . . . .
O4 O 0.57913(14) 1.0221(6) 0.62853(10) 0.0335(5) Uani 1 1 d . . . . .
H7 H 0.629799 1.202401 0.641366 0.040 Uiso 1 1 calc R U . . .
H8 H 0.560260 0.850704 0.667355 0.040 Uiso 1 1 calc R U . . .
N1 N 0.02023(13) 0.3815(5) 0.65452(10) 0.0148(4) Uani 1 1 d . . . . .
C5 C 0.22382(15) 0.3339(5) 0.51363(11) 0.0117(4) Uani 1 1 d . . . . .
H5 H 0.232603 0.255954 0.461075 0.014 Uiso 1 1 calc R U . . .
C4 C 0.30801(16) 0.4808(5) 0.55921(12) 0.0107(5) Uani 1 1 d . . . . .
C2 C 0.19791(16) 0.5742(6) 0.66702(12) 0.0122(4) Uani 1 1 d . . . . .
H2 H 0.187894 0.658380 0.718953 0.015 Uiso 1 1 calc R U . . .
C3 C 0.29204(15) 0.6016(6) 0.63664(11) 0.0115(4) Uani 1 1 d . . . . .
H3 H 0.347203 0.703314 0.668103 0.014 Uiso 1 1 calc R U . . .
C1 C 0.11682(15) 0.4212(6) 0.62090(11) 0.0109(4) Uani 1 1 d . . . . .
C6 C 0.12949(14) 0.3020(5) 0.54407(11) 0.0115(4) Uani 1 1 d . . . . .
H6 H 0.073862 0.200136 0.513138 0.014 Uiso 1 1 calc R U . . .
O5 O 0.76268(15) 0.2530(12) 0.69460(12) 0.0807(12) Uani 1 1 d . . . . .
loop_
_atom_site_aniso_label
_atom_site_aniso_U_11
_atom_site_aniso_U_22
_atom_site_aniso_U_33
_atom_site_aniso_U_23
_atom_site_aniso_U_13
_atom_site_aniso_U_12
Ca 0.0105(4) 0.0074(4) 0.0134(4) -0.00050(19) 0.0011(2) -0.00068(19)
O3 0.0101(7) 0.0102(8) 0.0194(8) 0.0006(5) 0.0043(6) -0.0003(5)
O1 0.0115(7) 0.0300(9) 0.0211(8) 0.0007(7) -0.0005(6) -0.0054(7)
O2 0.0217(9) 0.0380(11) 0.0153(8) -0.0034(6) 0.0063(7) -0.0007(7)
O4 0.0224(9) 0.0641(15) 0.0138(8) -0.0003(7) -0.0013(7) -0.0042(8)
N1 0.0132(8) 0.0176(9) 0.0136(8) 0.0029(7) 0.0016(6) 0.0012(8)
C5 0.0152(10) 0.0096(10) 0.0102(9) -0.0011(7) 0.0004(7) 0.0010(8)
C4 0.0119(10) 0.0050(9) 0.0153(10) 0.0034(7) 0.0016(8) 0.0009(7)
C2 0.0158(10) 0.0101(9) 0.0105(9) 0.0002(8) -0.0011(7) 0.0011(8)
C3 0.0125(10) 0.0078(9) 0.0139(10) 0.0010(8) -0.0032(7) -0.0008(8)
C1 0.0100(9) 0.0086(9) 0.0139(10) 0.0025(8) 0.0008(7) 0.0014(8)
C6 0.0121(9) 0.0092(9) 0.0129(9) 0.0010(7) -0.0032(7) -0.0010(8)
O5 0.0236(10) 0.184(4) 0.0339(11) -0.0006(17) -0.0001(8) -0.0153(16)
loop_
_atom_type_symbol
_atom_type_description
_atom_type_scat_dispersion_real
_atom_type_scat_dispersion_imag
_atom_type_scat_source
C C 0.0181 0.0091 'International Tables Vol C Tables 4.2.6.8 and 6.1.1.4'
H H 0.0000 0.0000 'International Tables Vol C Tables 4.2.6.8 and 6.1.1.4'
Ca Ca 0.3641 1.2855 'International Tables Vol C Tables 4.2.6.8 and 6.1.1.4'
N N 0.0311 0.0180 'International Tables Vol C Tables 4.2.6.8 and 6.1.1.4'
O O 0.0492 0.0322 'International Tables Vol C Tables 4.2.6.8 and 6.1.1.4'
loop_
_geom_angle_atom_site_label_1
_geom_angle_atom_site_label_2
_geom_angle_atom_site_label_3
_geom_angle
_geom_angle_site_symmetry_1
_geom_angle_site_symmetry_3
_geom_angle_publ_flag
O3 Ca O3 180.00(6) 3_676 . ?
O3 Ca O3 102.34(6) 3_676 3_666 ?
O3 Ca O3 77.66(6) . 3_666 ?
O3 Ca O3 77.66(6) 3_676 1_565 ?
O3 Ca O3 102.34(6) . 1_565 ?
O3 Ca O3 180.00(7) 3_666 1_565 ?
O3 Ca O4 87.27(6) 3_676 . ?
O3 Ca O4 92.73(6) . . ?
O3 Ca O4 90.31(6) 3_666 . ?
O3 Ca O4 89.69(6) 1_565 . ?
O3 Ca O4 92.73(6) 3_676 3_676 ?
O3 Ca O4 87.27(6) . 3_676 ?
O3 Ca O4 89.68(6) 3_666 3_676 ?
O3 Ca O4 90.32(6) 1_565 3_676 ?
O4 Ca O4 180.0 . 3_676 ?
O3 Ca Ca 140.89(3) 3_676 1_545 ?
O3 Ca Ca 39.11(3) . 1_545 ?
O3 Ca Ca 38.55(3) 3_666 1_545 ?
O3 Ca Ca 141.45(3) 1_565 1_545 ?
O4 Ca Ca 91.94(5) . 1_545 ?
O4 Ca Ca 88.06(5) 3_676 1_545 ?
O3 Ca Ca 39.11(3) 3_676 1_565 ?
O3 Ca Ca 140.89(3) . 1_565 ?
O3 Ca Ca 141.45(3) 3_666 1_565 ?
O3 Ca Ca 38.55(3) 1_565 1_565 ?
O4 Ca Ca 88.06(5) . 1_565 ?
O4 Ca Ca 91.94(5) 3_676 1_565 ?
Ca Ca Ca 180.0 1_545 1_565 ?
C4 O3 Ca 132.93(11) . . ?
C4 O3 Ca 124.72(11) . 1_545 ?
Ca O3 Ca 102.34(6) . 1_545 ?
Ca O4 H7 120.0 . . ?
Ca O4 H8 120.0 . . ?
H7 O4 H8 120.0 . . ?
O2 N1 O1 121.76(17) . . ?
O2 N1 C1 118.81(17) . . ?
O1 N1 C1 119.44(17) . . ?
C6 C5 C4 121.28(18) . . ?
C6 C5 H5 119.4 . . ?
C4 C5 H5 119.4 . . ?
O3 C4 C3 120.75(19) . . ?
O3 C4 C5 121.21(18) . . ?
C3 C4 C5 118.03(18) . . ?
C3 C2 C1 119.52(18) . . ?
C3 C2 H2 120.2 . . ?
C1 C2 H2 120.2 . . ?
C2 C3 C4 120.95(18) . . ?
C2 C3 H3 119.5 . . ?
C4 C3 H3 119.5 . . ?
C6 C1 C2 121.12(18) . . ?
C6 C1 N1 120.05(18) . . ?
C2 C1 N1 118.81(17) . . ?
C5 C6 C1 119.07(18) . . ?
C5 C6 H6 120.5 . . ?
C1 C6 H6 120.5 . . ?
loop_
_geom_bond_atom_site_label_1
_geom_bond_atom_site_label_2
_geom_bond_distance
_geom_bond_site_symmetry_2
_geom_bond_publ_flag
Ca O3 2.3137(13) 3_676 ?
Ca O3 2.3137(13) . ?
Ca O3 2.3420(13) 3_666 ?
Ca O3 2.3420(13) 1_565 ?
Ca O4 2.3635(17) . ?
Ca O4 2.3635(17) 3_676 ?
Ca Ca 3.6268(3) 1_545 ?
Ca Ca 3.6268(3) 1_565 ?
O3 C4 1.318(3) . ?
O1 N1 1.243(2) . ?
O2 N1 1.240(2) . ?
O4 H7 0.9500 . ?
O4 H8 0.9500 . ?
N1 C1 1.431(2) . ?
C5 C6 1.378(3) . ?
C5 C4 1.417(3) . ?
C5 H5 0.9500 . ?
C4 C3 1.414(3) . ?
C2 C3 1.374(3) . ?
C2 C1 1.400(3) . ?
C2 H2 0.9500 . ?
C3 H3 0.9500 . ?
C1 C6 1.394(3) . ?
C6 H6 0.9500 . ?
