#------------------------------------------------------------------------------
#$Date: 2020-06-27 01:43:54 +0300 (Sat, 27 Jun 2020) $
#$Revision: 253486 $
#$URL: file:///home/coder/svn-repositories/cod/cif/1/55/84/1558429.cif $
#------------------------------------------------------------------------------
#
# This file is available in the Crystallography Open Database (COD),
# http://www.crystallography.net/
#
# All data on this site have been placed in the public domain by the
# contributors.
#
data_1558429
loop_
_publ_author_name
'Yu, Bin'
'Zhou, Shuang'
'Cao, Lixin'
'Hao, Zesheng'
'Yang, Dongyan'
'Guo, Xiaofeng'
'Zhang, Nailou'
'Bakulev, Vasiliy A.'
'Fan, Zhijin'
_publ_section_title
;
 Design, Synthesis and Evaluation of Antifungal Activity of Novel
 Pyrazole-thiazole Carboxamides as Succinate Dehydrogenase Inhibitors.
;
_journal_name_full               'Journal of agricultural and food chemistry'
_journal_paper_doi               10.1021/acs.jafc.0c00062
_journal_year                    2020
_chemical_formula_moiety         'C15 H11 Br F2 N4 O S'
_chemical_formula_sum            'C15 H11 Br F2 N4 O S'
_chemical_formula_weight         413.25
_space_group_crystal_system      triclinic
_space_group_IT_number           2
_space_group_name_Hall           '-P 1'
_space_group_name_H-M_alt        'P -1'
_atom_sites_solution_hydrogens   mixed
_atom_sites_solution_primary     dual
_audit_creation_date             2019-03-11
_audit_creation_method
;
Olex2 1.2
(compiled 2017.08.10 svn.r3458 for OlexSys, GUI svn.r5381)
;
_audit_update_record
;
2019-10-19 deposited with the CCDC.	2019-12-24 downloaded from the CCDC.
;
_cell_angle_alpha                92.048(2)
_cell_angle_beta                 106.633(2)
_cell_angle_gamma                102.379(2)
_cell_formula_units_Z            2
_cell_length_a                   8.0375(2)
_cell_length_b                   9.3645(2)
_cell_length_c                   12.0386(3)
_cell_measurement_reflns_used    10027
_cell_measurement_temperature    294.15
_cell_measurement_theta_max      28.6620
_cell_measurement_theta_min      3.6600
_cell_volume                     843.44(4)
_computing_cell_refinement       'CrysAlisPro 1.171.39.46 (Rigaku OD, 2018)'
_computing_data_collection       'CrysAlisPro 1.171.39.46 (Rigaku OD, 2018)'
_computing_data_reduction        'CrysAlisPro 1.171.39.46 (Rigaku OD, 2018)'
_computing_molecular_graphics    'Olex2 (Dolomanov et al., 2009)'
_computing_publication_material  'Olex2 (Dolomanov et al., 2009)'
_computing_structure_refinement  'ShelXL (Sheldrick, 2015)'
_computing_structure_solution    'ShelXT (Sheldrick, 2015)'
_diffrn_ambient_temperature      294.15
_diffrn_detector                 PILT
_diffrn_measured_fraction_theta_full 0.997
_diffrn_measured_fraction_theta_max 0.993
_diffrn_measurement_details
;
List of Runs (angles in degrees, time in seconds):

  # Type    Start    End  Width  t~exp~   \w     \q     \k     \f   Frames
#--------------------------------------------------------------------------
  1  \w    -84.00  94.00   0.50    1.57    --    5.00  45.00 174.00  356
  2  \w    -97.00  81.00   0.50    1.57    --   -8.10  45.00  30.00  356
  3  \w    -18.00  19.00   0.50    1.57    --   -8.10  45.00 150.00   74
  4  \w    -16.00  81.00   0.50    1.57    --   -8.10  45.00  90.00  194
  5  \w     20.00  51.00   0.50    1.57    --   -8.10  45.00   0.00   62
  6  \w    -78.00 -22.00   0.50    1.57    --   -8.10  45.00 150.00  112
  7  \w    -97.00 -33.00   0.50    1.57    --   -8.10  45.00  90.00  128
  8  \w    -51.00 -25.00   0.50    1.57    --   -8.10  45.00  30.00   52
  9  \w    -97.00  81.00   0.50    1.57    --   -8.10  45.00 179.43  356
;
_diffrn_measurement_device       'four-circle diffractometer'
_diffrn_measurement_device_type  'XtaLAB AFC10 (RCD3): fixed-chi single'
_diffrn_measurement_method       '\w scans'
_diffrn_orient_matrix_type
'CrysAlisPro convention (1999,Acta A55,543-557)'
_diffrn_orient_matrix_UB_11      -0.0507965000
_diffrn_orient_matrix_UB_12      -0.0050455000
_diffrn_orient_matrix_UB_13      0.0397495000
_diffrn_orient_matrix_UB_21      0.0773145000
_diffrn_orient_matrix_UB_22      -0.0014977000
_diffrn_orient_matrix_UB_23      0.0463073000
_diffrn_orient_matrix_UB_31      0.0204686000
_diffrn_orient_matrix_UB_32      0.0777895000
_diffrn_orient_matrix_UB_33      0.0098988000
_diffrn_radiation_monochromator  mirror
_diffrn_radiation_probe          x-ray
_diffrn_radiation_type           MoK\a
_diffrn_radiation_wavelength     0.71073
_diffrn_reflns_av_R_equivalents  0.0336
_diffrn_reflns_av_unetI/netI     0.0228
_diffrn_reflns_Laue_measured_fraction_full 0.997
_diffrn_reflns_Laue_measured_fraction_max 0.993
_diffrn_reflns_limit_h_max       10
_diffrn_reflns_limit_h_min       -10
_diffrn_reflns_limit_k_max       11
_diffrn_reflns_limit_k_min       -12
_diffrn_reflns_limit_l_max       16
_diffrn_reflns_limit_l_min       -16
_diffrn_reflns_number            23620
_diffrn_reflns_point_group_measured_fraction_full 0.997
_diffrn_reflns_point_group_measured_fraction_max 0.993
_diffrn_reflns_theta_full        25.242
_diffrn_reflns_theta_max         28.279
_diffrn_reflns_theta_min         3.552
_diffrn_source                   'Rotating-anode X-ray tube'
_diffrn_source_type              'Rigaku (Mo) X-ray Source'
_exptl_absorpt_coefficient_mu    2.591
_exptl_absorpt_correction_T_max  1.00000
_exptl_absorpt_correction_T_min  0.34791
_exptl_absorpt_correction_type   multi-scan
_exptl_absorpt_process_details
;
CrysAlisPro 1.171.39.46 (Rigaku Oxford Diffraction, 2018)
Empirical absorption correction using spherical harmonics,
 implemented in SCALE3 ABSPACK scaling algorithm.
;
_exptl_crystal_colour            colourless
_exptl_crystal_colour_primary    colourless
_exptl_crystal_density_diffrn    1.627
_exptl_crystal_description       plate
_exptl_crystal_F_000             412
_exptl_crystal_size_max          0.32
_exptl_crystal_size_mid          0.26
_exptl_crystal_size_min          0.24
_refine_diff_density_max         0.588
_refine_diff_density_min         -0.820
_refine_diff_density_rms         0.063
_refine_ls_extinction_method     none
_refine_ls_goodness_of_fit_ref   1.038
_refine_ls_hydrogen_treatment    mixed
_refine_ls_matrix_type           full
_refine_ls_number_parameters     247
_refine_ls_number_reflns         4163
_refine_ls_number_restraints     26
_refine_ls_restrained_S_all      1.048
_refine_ls_R_factor_all          0.0530
_refine_ls_R_factor_gt           0.0385
_refine_ls_shift/su_max          0.001
_refine_ls_shift/su_mean         0.000
_refine_ls_structure_factor_coef Fsqd
_refine_ls_weighting_details
'w=1/[\s^2^(Fo^2^)+(0.0421P)^2^+0.5293P] where P=(Fo^2^+2Fc^2^)/3'
_refine_ls_weighting_scheme      calc
_refine_ls_wR_factor_gt          0.0946
_refine_ls_wR_factor_ref         0.1018
_reflns_Friedel_coverage         0.000
_reflns_number_gt                3295
_reflns_number_total             4163
_reflns_threshold_expression     'I > 2\s(I)'
_cod_data_source_file            jf0c00062_si_001.cif
_cod_data_source_block           m20190311b
_cod_database_code               1558429
_shelx_shelxl_version_number     2018/3
_chemical_oxdiff_formula         C15H11BrF2N4OS
_shelx_space_group_comment
;
The symmetry employed for this shelxl refinement is uniquely defined
by the following loop, which should always be used as a source of
symmetry information in preference to the above space-group names.
They are only intended as comments.
;
_reflns_odcompleteness_completeness 99.33
_reflns_odcompleteness_iscentric 1
_reflns_odcompleteness_theta     28.22
_olex2_refinement_description
;
1. Fixed Uiso
 At 1.2 times of:
  All C(H) groups
 At 1.5 times of:
  All C(H,H,H) groups
2. Restrained distances
 C3-C5 \\sim C3-C5A
 with sigma of 0.01
 C5-F1 \\sim C5-F2 \\sim C5A-F1A \\sim C5A-F2A
 with sigma of 0.01
 C3-F1 \\sim C3-F2 \\sim C3-F1A \\sim C3-F2A
 with sigma of 0.01
 F1-F2 \\sim F1A-F2A
 with sigma of 0.01
3. Uiso/Uaniso restraints and constraints
Uanis(F2) \\sim Ueq, Uanis(F1A) \\sim Ueq: with sigma of 0.01 and sigma for
terminal atoms of 0.02
Uanis(C5) = Uanis(C5A)
4. Others
 Sof(C5A)=Sof(H5A)=Sof(F1A)=Sof(F2A)=1-FVAR(1)
 Sof(C5)=Sof(H5)=Sof(F1)=Sof(F2)=FVAR(1)
5.a Ternary CH refined with riding coordinates:
 C5(H5), C5A(H5A)
5.b Aromatic/amide H refined with riding coordinates:
 C1(H1), C7(H7), C11(H11), C13(H13), C14(H14), C15(H15)
5.c Idealised Me refined as rotating group:
 C4(H4A,H4B,H4C)
;
_shelx_res_file
;
TITL m20190311b_a.res in P-1
    m20190311b.res
    created by SHELXL-2018/3 at 20:55:14 on 11-Mar-2019
REM Old TITL m20190311b in P-1
REM SHELXT solution in P-1: R1 0.210, Rweak 0.034, Alpha 0.043
REM <I/s> 0.000 for 0 systematic absences, Orientation as input
REM Formula found by SHELXT: C18 N2 O2 S Br
CELL 0.71073 8.0375 9.3645 12.0386 92.048 106.633 102.379
ZERR 2 0.0002 0.0002 0.0003 0.002 0.002 0.002
LATT 1
SFAC C H Br F N O S
UNIT 30 22 2 4 8 2 2
SADI 0.01 C3 C5 C3 C5A
SADI 0.01 C5 F1 C5 F2 C5A F1A C5A F2A
SADI 0.01 C3 F1 C3 F2 C3 F1A C3 F2A
SADI 0.01 F1 F2 F1A F2A
ISOR 0.01 0.02 F2 F1A
EADP C5 C5A

L.S. 10
PLAN  20
TEMP 21
BOND $h
htab
conf
fmap 2
acta
SHEL 99 0.75
REM <olex2.extras>
REM <HklSrc "%.\\m20190311b.hkl">
REM </olex2.extras>

WGHT    0.042100    0.529300
FVAR       0.52151   0.85136
BR1   3    1.192300    0.197426    1.023597    11.00000    0.08019    0.08717 =
         0.07401    0.01603    0.00793    0.04998
S1    7    0.681074    0.723976    0.401190    11.00000    0.05013    0.05998 =
         0.04920    0.01569    0.02586    0.02368
O1    6    0.977309    0.468056    0.672137    11.00000    0.05838    0.08090 =
         0.05990    0.02158    0.03044    0.04308
N1    5    0.206646    0.910916    0.403428    11.00000    0.04281    0.04366 =
         0.04362    0.00532    0.01000    0.01710
N2    5    0.190591    0.890153    0.510110    11.00000    0.04577    0.05011 =
         0.04831    0.00858    0.01841    0.02072
N3    5    0.621214    0.656834    0.592766    11.00000    0.03851    0.04212 =
         0.04398    0.00440    0.01645    0.01580
N4    5    0.769388    0.495086    0.761124    11.00000    0.04408    0.05654 =
         0.04149    0.00576    0.01557    0.02653
H4    2    0.688386    0.531861    0.751371    11.00000    0.04933
C1    1    0.339050    0.857463    0.383728    11.00000    0.04337    0.03972 =
         0.04240    0.00290    0.01414    0.01242
AFIX  43
H1    2    0.372626    0.860644    0.315901    11.00000   -1.20000
AFIX   0
C2    1    0.415997    0.796941    0.482869    11.00000    0.03795    0.03554 =
         0.04218    0.00282    0.01340    0.01096
C3    1    0.317420    0.821401    0.558588    11.00000    0.04187    0.04432 =
         0.04520    0.00677    0.01618    0.01614
C4    1    0.082819    0.980516    0.323272    11.00000    0.05317    0.06356 =
         0.05571    0.01162    0.00693    0.02842
AFIX 137
H4A   2   -0.012864    0.906226    0.272335    11.00000   -1.50000
H4B   2    0.144633    1.040856    0.277896    11.00000   -1.50000
H4C   2    0.035041    1.040358    0.366734    11.00000   -1.50000
AFIX   0
PART 1
C5    1    0.335790    0.780056    0.679302    21.00000    0.04936    0.06646 =
         0.05401    0.02194    0.02795    0.02627
AFIX  13
H5    2    0.336267    0.675582    0.680848    21.00000   -1.20000
AFIX   0
PART 0
PART 2
C5A   1    0.392114    0.807483    0.684732   -21.00000    0.04936    0.06646 =
         0.05401    0.02194    0.02795    0.02627
AFIX  13
H5A   2    0.520767    0.819046    0.698700   -21.00000   -1.20000
AFIX   0
PART 0
C6    1    0.563562    0.724878    0.502291    11.00000    0.03786    0.03820 =
         0.04304    0.00196    0.01649    0.01056
C7    1    0.813594    0.626659    0.487633    11.00000    0.04178    0.05294 =
         0.05269    0.00831    0.02120    0.02008
AFIX  43
H7    2    0.906823    0.595548    0.470683    11.00000    0.05927
AFIX   0
C8    1    0.763459    0.601203    0.584571    11.00000    0.03774    0.04162 =
         0.04483    0.00298    0.01568    0.01376
C9    1    0.849210    0.516240    0.676054    11.00000    0.04181    0.04568 =
         0.04378    0.00205    0.01503    0.01770
C10   1    0.804517    0.406154    0.853032    11.00000    0.04785    0.05011 =
         0.03485    0.00104    0.01211    0.01744
C11   1    0.959216    0.354821    0.886263    11.00000    0.04811    0.05251 =
         0.04061    0.00096    0.01150    0.01910
AFIX  43
H11   2    1.046271    0.378916    0.848752    11.00000    0.05059
AFIX   0
C12   1    0.980578    0.266488    0.977049    11.00000    0.06066    0.05789 =
         0.04451    0.00412    0.00808    0.02601
C13   1    0.856579    0.228963    1.034392    11.00000    0.08540    0.08248 =
         0.05687    0.02656    0.02432    0.03164
AFIX  43
H13   2    0.873994    0.168770    1.094439    11.00000    0.11324
AFIX   0
C14   1    0.704546    0.282470    1.001173    11.00000    0.07325    0.10393 =
         0.06674    0.03037    0.03832    0.02957
AFIX  43
H14   2    0.619313    0.259269    1.040194    11.00000   -1.20000
AFIX   0
C15   1    0.676970    0.369839    0.910994    11.00000    0.05375    0.08308 =
         0.05399    0.01346    0.02205    0.02771
AFIX  43
H15   2    0.573263    0.404380    0.889013    11.00000   -1.20000
AFIX   0
PART 1
F1    4    0.491636    0.861660    0.752270    21.00000    0.07156    0.12484 =
         0.04454    0.01611    0.00453    0.02032
F2    4    0.204457    0.805499    0.716292    21.00000    0.08228    0.14922 =
         0.07027    0.03805    0.04898    0.05840
PART 0
PART 2
F1A   4    0.333524    0.675051    0.712579   -21.00000    0.17541    0.13357 =
         0.07796    0.03584    0.04640   -0.03015
F2A   4    0.376427    0.912936    0.753481   -21.00000    0.34432    0.08453 =
         0.05591    0.00299    0.08241    0.07000
HKLF 4




REM  m20190311b_a.res in P-1
REM wR2 = 0.1018, GooF = S = 1.038, Restrained GooF = 1.048 for all data
REM R1 = 0.0385 for 3295 Fo > 4sig(Fo) and 0.0530 for all 4163 data
REM 247 parameters refined using 26 restraints

END

WGHT      0.0421      0.5293

REM Instructions for potential hydrogen bonds
HTAB N4 N3
HTAB C5A N3
EQIV $1 -x+2, -y+1, -z+1
HTAB C7 O1_$1
HTAB C11 O1
EQIV $2 -x+1, -y+1, -z+2
HTAB C13 F2_$2

REM Highest difference peak  0.588,  deepest hole -0.820,  1-sigma level  0.063
Q1    1   1.2509  0.2735  1.0059  11.00000  0.05    0.59
Q2    1   1.0987  0.1981  1.0196  11.00000  0.05    0.38
Q3    1   0.3907  0.6583  0.7220  11.00000  0.05    0.25
Q4    1   0.2140  0.7050  0.7002  11.00000  0.05    0.25
Q5    1   0.4487  0.9322  0.7590  11.00000  0.05    0.21
Q6    1   0.4689  0.7810  0.7581  11.00000  0.05    0.21
Q7    1   0.3393  0.8231  0.6242  11.00000  0.05    0.20
Q8    1   0.5548  0.8738  0.7619  11.00000  0.05    0.20
Q9    1   1.1791  0.1278  0.9823  11.00000  0.05    0.18
Q10   1   1.2170  0.1949  1.0532  11.00000  0.05    0.18
Q11   1   0.0974  0.9605  0.2408  11.00000  0.05    0.18
Q12   1   0.1600  1.1218  0.3408  11.00000  0.05    0.18
Q13   1   0.0320  0.9180  0.2258  11.00000  0.05    0.17
Q14   1   0.8302  0.5954  0.6436  11.00000  0.05    0.16
Q15   1   0.4283  0.9046  0.7258  11.00000  0.05    0.16
Q16   1   0.8532  0.7115  0.7574  11.00000  0.05    0.16
Q17   1   0.1092  1.2563  0.2510  11.00000  0.05    0.15
Q18   1   1.0254  0.3054  1.2061  11.00000  0.05    0.15
Q19   1   0.8071  0.4582  0.8175  11.00000  0.05    0.15
Q20   1   0.9546  0.0731  0.9358  11.00000  0.05    0.15
;
_shelx_res_checksum              69397
_shelx_hkl_file
;
   0   0   2 2163.27   79.18
   0   0  -2 2022.22   79.16
   0   0  -2 1915.05   79.20
   0   0  -3 1806.21   66.54
   0   0   3 1762.55   66.52
   0   0  -3 1805.11   66.53
   0   0   3 1644.99   66.54
   0   0   3 1750.10   66.52
   0   0   4  692.80   27.29
   0   0  -4  723.10   27.33
   0   0  -4  748.07   27.31
   0   0   4  717.58   27.29
   0   0   4  801.59   27.37
   0   0  -5  193.41    7.15
   0   0  -5  205.91    7.13
   0   0   5  186.11    7.09
   0   0   5  192.60    7.10
   0   0   5  211.98    7.20
   0   0  -6   61.57    2.52
   0   0   6   60.79    2.45
   0   0   6   59.95    2.44
   0   0  -6   68.19    2.49
   0   0   6   65.22    2.56
   0   0  -6   59.20    2.48
   0   0   7  168.40    6.67
   0   0   7  164.00    6.67
   0   0  -7  177.20    6.75
   0   0  -7  176.10    6.71
   0   0  -7  174.36    6.71
   0   0  -7  195.57    6.73
   0   0   7  183.00    6.80
   0   0   8  181.78    6.96
   0   0  -8  181.44    7.00
   0   0   8  179.08    6.95
   0   0   8  166.80    7.01
   0   0   8  194.52    7.09
   0   0  -8  196.78    7.06
   0   0  -8  182.78    7.00
   0   0  -9    3.04    0.75
   0   0  -9    1.60    0.75
   0   0   9    3.34    0.92
   0   0   9    1.70    0.58
   0   0   9    2.94    0.62
   0   0   9    1.56    0.84
   0   0  -9    3.34    1.01
   0   0  10   77.02    3.16
   0   0  10   75.38    3.28
   0   0  10   78.01    3.18
   0   0 -10   79.42    3.25
   0   0 -10   76.69    3.25
   0   0  10   80.40    3.35
   0   0 -11  122.16    4.41
   0   0  11  112.71    4.42
   0   0 -11  103.88    4.31
   0   0  11  109.92    4.23
   0   0  11  102.06    4.23
   0   0  11   95.86    4.32
   0   0 -11  107.61    4.32
   0   0  12   27.15    1.41
   0   0  12   26.83    1.43
   0   0 -12   31.02    1.61
   0   0  12   24.93    1.61
   0   0 -12   25.35    1.64
   0   0 -12   27.06    1.58
   0   0  12   28.63    1.78
   0   0  13    0.13    1.14
   0   0 -13    0.97    1.15
   0   0 -13   -0.66    1.09
   0   0 -13   -0.16    1.08
   0   0  13    0.27    0.99
   0   0  13   -0.04    1.28
   0   0  14   13.82    1.47
   0   0  14   14.53    1.63
   0   0 -14   15.33    1.45
   0   0  14   15.62    1.24
   0   0 -15   -1.29    1.40
   0   0  15   -0.40    1.20
   0   0  15   -0.60    1.03
   0   0  15   -0.09    1.48
   0   0 -16   -0.04    1.37
   0   1 -16    0.97    1.48
   0  -1  16    1.20    1.46
   0   1 -15   -1.38    1.37
   0  -1  15    0.29    0.99
   0  -1  15   -0.09    1.46
   0  -1  15   -0.18    1.28
   0  -1  14    4.15    1.25
   0  -1  14    6.30    1.38
   0  -1  14    5.56    1.00
   0   1 -14    4.84    1.28
   0  -1  13   -0.03    1.10
   0  -1  13   -0.84    1.19
   0   1 -13    0.73    1.14
   0  -1  13    1.21    0.81
   0   1 -13    1.04    1.04
   0   1 -13   -0.03    0.99
   0   1 -12   17.49    1.86
   0   1 -12   18.51    1.37
   0   1 -12   22.80    1.39
   0  -1  12   21.29    1.16
   0  -1  12   21.58    1.22
   0   1 -12   19.44    1.40
   0  -1  12   19.59    1.43
   0  -1  12   22.61    1.61
   0   1 -11    5.02    1.51
   0   1 -11    6.75    0.98
   0   1 -11    9.65    1.24
   0  -1  11    7.24    1.07
   0  -1  11   10.54    1.24
   0  -1  11    7.87    0.84
   0   1 -11    7.85    0.98
   0  -1  11    7.91    0.77
   0   1 -10   57.24    3.00
   0  -1  10   63.64    2.81
   0   1 -10   67.31    2.71
   0  -1  10   56.49    2.73
   0  -1  10   61.58    2.60
   0   1 -10   71.33    2.86
   0   1 -10   66.24    2.72
   0  -1  10   66.57    2.60
   0   1  -9   42.35    1.92
   0   1  -9   36.42    1.71
   0  -1   9   37.98    1.63
   0  -1   9   37.25    1.62
   0  -1   9   38.80    1.83
   0   1  -9   40.79    1.75
   0   1  -8  150.93    5.45
   0  -1   8  140.72    5.29
   0  -1   8  145.16    5.30
   0  -1   8  149.63    5.43
   0   1  -8  107.74    5.47
   0  -1   8  116.00    5.34
   0   1  -8  145.69    5.36
   0   1  -8  142.98    5.37
   0  -1   7  399.99   14.85
   0  -1   7  417.33   14.95
   0  -1   7  400.27   14.85
   0   1  -7  417.02   14.96
   0   1  -7  408.51   14.89
   0   1  -7  394.84   14.89
   0   1  -6   73.24    2.80
   0   1  -6   70.14    2.87
   0   1  -6   70.75    2.80
   0  -1   6   76.48    2.88
   0  -1   6   75.86    2.77
   0  -1   6   70.20    2.75
   0  -1   5  953.83   37.98
   0  -1   5 1005.81   37.95
   0   1  -5  985.63   38.01
   0  -1   5 1042.97   37.95
   0   1  -5 1004.75   37.97
   0  -1   5 1130.97   38.05
   0   1  -5 1000.41   37.97
   0  -1   4 1459.39   53.88
   0   1  -4 1407.05   53.93
   0  -1   4 1392.74   53.91
   0  -1   4 1429.31   53.88
   0   1  -4 1380.87   53.89
   0   1  -3   22.43    0.95
   0  -1   3   21.54    0.90
   0  -1   3   23.11    0.86
   0  -1   3   22.99    0.87
   0   1  -2  224.38    8.39
   0  -1   2  231.04    8.36
   0  -1   2  207.21    8.38
   0  -1   2  229.29    8.36
   0  -1   2  212.61    8.38
   0  -1  -2   40.34    1.57
   0   1   2   41.49    1.58
   0  -1  -2   39.46    1.61
   0   1   2   44.09    1.62
   0   1   2   40.56    1.57
   0  -1  -2   39.03    1.57
   0  -1  -2   41.22    1.57
   0  -1  -3  526.45   21.56
   0   1   3  569.60   21.51
   0  -1  -3  572.33   21.51
   0  -1  -3  562.30   21.51
   0   1   3  586.20   21.51
   0  -1  -3  586.33   21.50
   0   1   3  588.84   21.57
   0  -1  -3  582.98   21.52
   0   1   4   18.55    0.80
   0  -1  -4   17.39    0.80
   0   1   4   18.00    0.92
   0   1   4   17.31    0.80
   0  -1  -4   16.30    0.79
   0  -1  -4   17.74    0.79
   0  -1  -4   15.59    0.99
   0  -1  -4   17.67    0.85
   0  -1  -5  287.02   10.28
   0  -1  -5  278.63   10.31
   0   1   5  283.24   10.29
   0   1   5  281.73   10.29
   0   1   5  293.93   10.39
   0  -1  -5  248.51   10.40
   0   1   6   17.82    1.03
   0   1   6   14.81    0.89
   0   1   6   15.39    0.81
   0  -1  -6   15.65    0.95
   0   1   6   16.23    0.84
   0  -1  -6   16.78    0.83
   0   1   7  259.13   10.27
   0  -1  -7  283.87   10.27
   0   1   7  271.82   10.27
   0   1   7  281.41   10.40
   0  -1  -7  273.75   10.31
   0   1   7  259.69   10.31
   0  -1  -8   31.63    1.48
   0  -1  -8   30.28    1.54
   0   1   8   31.20    1.68
   0   1   8   33.70    1.45
   0  -1  -8   32.24    1.46
   0   1   8   30.58    1.55
   0   1   8   29.48    1.42
   0  -1  -9  120.52    4.71
   0   1   9  114.57    4.74
   0   1   9  116.89    4.67
   0   1   9  130.38    4.88
   0  -1  -9  123.22    4.74
   0   1   9  119.40    4.67
   0  -1  -9  118.28    4.71
   0   1  10   58.37    2.46
   0  -1 -10   58.37    2.52
   0  -1 -10   57.51    2.51
   0   1  10   56.92    2.54
   0  -1 -10   61.28    2.57
   0   1  10   57.36    2.46
   0   1  10   61.00    2.70
   0   1  11    5.50    0.83
   0  -1 -11    4.39    0.93
   0   1  11    6.41    1.35
   0  -1 -11    6.69    1.14
   0   1  11    6.82    0.86
   0   1  11    4.03    1.03
   0  -1 -11    5.72    0.98
   0  -1 -12   65.47    2.80
   0   1  12   64.09    2.96
   0   1  12   65.01    2.71
   0   1  12   62.83    2.84
   0  -1 -12   55.01    2.84
   0  -1 -12   63.68    2.82
   0   1  13   -0.64    1.14
   0  -1 -13   -0.75    1.10
   0   1  13   -0.93    1.35
   0   1  13   -0.03    0.98
   0  -1 -14    4.94    1.28
   0   1  14    6.43    1.52
   0   1  14    4.46    1.11
   0   1  14    5.05    1.33
   0  -1 -15    0.44    1.31
   0   1  15    0.67    1.11
   0   1  15    0.96    1.34
   0   1  15    0.84    1.52
   0   1  15    0.19    1.33
   0  -2  16   -0.39    1.37
   0   2 -16    3.83    1.46
   0   2 -15   -0.92    1.30
   0  -2  15    0.46    1.22
   0  -2  15   -0.45    1.34
   0   2 -14    8.59    1.33
   0  -2  14    9.78    1.47
   0  -2  14    8.63    0.98
   0  -2  14    7.37    1.27
   0  -2  13   18.72    1.56
   0   2 -13   17.86    1.44
   0   2 -13   17.55    1.32
   0  -2  13   16.25    1.42
   0  -2  13   18.01    1.17
   0   2 -13   17.86    1.43
   0  -2  12   21.02    1.48
   0  -2  12   25.03    1.26
   0   2 -12   25.59    1.49
   0   2 -12   22.58    1.98
   0  -2  12   24.60    1.58
   0   2 -12   22.32    1.37
   0  -2  12   21.80    1.21
   0   2 -12   22.90    1.48
   0   2 -11    7.53    1.00
   0   2 -11   10.66    1.58
   0   2 -11    6.46    0.92
   0   2 -11    8.05    1.05
   0   2 -11    8.77    1.30
   0  -2  11    9.27    1.11
   0  -2  11    8.90    0.74
   0  -2  11    9.03    0.78
   0  -2  10   11.46    0.79
   0   2 -10   10.17    1.41
   0   2 -10   13.68    1.07
   0  -2  10    9.92    1.03
   0   2 -10   13.44    1.06
   0   2 -10   13.25    1.31
   0  -2  10   12.84    0.85
   0  -2  10   12.18    1.16
   0  -2   9  282.81   10.28
   0  -2   9  239.69   10.34
   0   2  -9  274.52   10.36
   0   2  -9  284.77   10.47
   0   2  -9  236.71   10.54
   0   2  -9  265.00   10.35
   0  -2   9  288.73   10.40
   0  -2   9  282.71   10.28
   0   2  -8   39.31    2.18
   0   2  -8   44.68    2.04
   0  -2   8   42.02    1.90
   0   2  -8   44.67    1.88
   0   2  -8   44.63    1.90
   0  -2   8   43.84    1.79
   0  -2   8   45.23    1.80
   0  -2   8   39.42    1.90
   0  -2   8   48.11    1.98
   0  -2   7   15.30    0.94
   0  -2   7   12.88    0.89
   0   2  -7   15.06    0.87
   0   2  -7   16.00    1.17
   0  -2   7   17.79    1.03
   0  -2   7   16.47    0.77
   0   2  -7   15.64    0.85
   0   2  -7   13.98    1.04
   0  -2   7   15.73    0.78
   0  -2   6   65.80    2.51
   0  -2   6   69.43    2.66
   0   2  -6   64.48    2.55
   0  -2   6   62.49    2.51
   0   2  -6   68.70    2.73
   0  -2   6   62.70    2.58
   0   2  -6   64.80    2.56
   0   2  -6   61.28    2.64
   0  -2   5   59.20    2.54
   0   2  -5   64.54    2.51
   0   2  -5   70.29    2.64
   0  -2   5   66.04    2.48
   0   2  -5   64.22    2.59
   0  -2   5   65.33    2.49
   0   2  -5   62.36    2.51
   0   2  -4   63.01    2.31
   0  -2   4   57.14    2.34
   0  -2   4   51.17    2.33
   0   2  -4   58.27    2.37
   0   2  -4   61.12    2.31
   0  -2   4   59.70    2.29
   0   2  -4   66.43    2.39
   0  -2   4   60.35    2.29
   0   2  -3  384.66   15.12
   0  -2   3  396.72   15.11
   0   2  -3  401.46   15.11
   0   2  -3  401.45   15.08
   0  -2   3  401.72   15.12
   0   2  -3  411.85   15.08
   0  -2   3  405.85   15.07
   0  -2   3  400.98   15.10
   0  -2   3  403.30   15.08
   0   2  -2  695.19   27.34
   0  -2   2  757.22   27.34
   0  -2   2  734.15   27.35
   0  -2   2  752.94   27.33
   0  -2   2  740.69   27.33
   0   2  -2  697.19   27.33
   0  -2   1   18.85    0.74
   0  -2   1   18.60    0.73
   0  -2   1   16.95    0.75
   0  -2   1   19.31    0.72
   0  -2   1   18.50    0.73
   0  -2   0 2286.64   81.71
   0  -2   0 2241.10   81.71
   0  -2   0 2115.92   81.71
   0  -2   0 2209.91   81.71
   0  -2   0 2130.68   81.70
   0  -2   0 2165.92   81.71
   0  -2  -1 1438.66   53.19
   0  -2  -1 1425.25   53.17
   0  -2  -1 1428.72   53.17
   0  -2  -1 1403.93   53.18
   0  -2  -1 1411.02   53.17
   0  -2  -2 5222.71  203.00
   0  -2  -2 5322.31  203.00
   0  -2  -2 5887.95  203.04
   0  -2  -2 5764.13  202.99
   0   2   2 4841.77  203.00
   0   2   2 5380.76  203.01
   0  -2  -2 5673.29  202.99
   0   2   3  332.08   12.50
   0  -2  -3  324.89   12.44
   0  -2  -3  337.55   12.44
   0  -2  -3  336.16   12.42
   0  -2  -3  322.26   12.48
   0   2   3  315.54   12.43
   0   2   3  346.08   12.45
   0   2   3  323.57   12.43
   0   2   3  340.82   12.45
   0  -2  -4  964.08   40.33
   0   2   4 1047.50   40.28
   0  -2  -4 1099.60   40.29
   0   2   4 1103.34   40.29
   0  -2  -4 1088.83   40.29
   0   2   4 1100.66   40.29
   0  -2  -4 1100.65   40.27
   0   2   4 1085.51   40.36
   0   2   4 1056.07   40.28
   0  -2  -5  782.20   33.04
   0   2   5  847.99   32.98
   0  -2  -5  908.53   32.93
   0   2   5  873.78   32.98
   0  -2  -5  873.88   32.97
   0   2   5  876.91   32.98
   0  -2  -5  909.15   32.97
   0  -2  -5  876.00   32.97
   0   2   5  892.32   32.98
   0   2   5  907.82   33.07
   0  -2  -6    4.15    0.49
   0  -2  -6    5.21    0.55
   0   2   6    6.07    0.57
   0  -2  -6    5.00    0.91
   0  -2  -6    3.53    0.56
   0   2   6    5.30    0.57
   0   2   6    6.06    0.86
   0   2   6    5.24    0.61
   0   2   6    4.26    0.58
   0  -2  -6    6.00    0.60
   0   2   7  313.95   11.46
   0  -2  -7  294.07   11.45
   0   2   7  279.85   11.47
   0  -2  -7  285.02   11.63
   0   2   7  301.12   11.45
   0   2   7  328.67   11.61
   0  -2  -7  310.81   11.41
   0  -2  -8   64.61    2.44
   0   2   8   54.39    2.56
   0   2   8   63.51    2.72
   0   2   8   60.45    2.48
   0  -2  -8   57.66    2.52
   0   2   8   60.06    2.49
   0  -2  -9   20.86    1.04
   0   2   9   15.76    1.19
   0   2   9   19.91    1.10
   0  -2  -9   19.19    1.18
   0  -2  -9   15.95    1.13
   0   2   9   17.24    1.43
   0   2   9   16.35    1.08
   0  -2 -10   91.10    3.64
   0   2  10   89.82    3.58
   0   2  10   91.79    3.61
   0   2  10   84.17    3.68
   0  -2 -10   92.76    3.62
   0   2  10   86.58    3.68
   0   2  10   94.60    3.81
   0  -2 -10   79.57    3.60
   0  -2 -11    1.73    0.95
   0   2  11    3.22    1.28
   0   2  11    1.73    1.09
   0   2  11    1.08    0.90
   0  -2 -11   -0.44    1.09
   0  -2 -11    1.49    0.97
   0   2  11    1.67    1.15
   0  -2 -11    2.20    0.97
   0   2  12    0.97    1.25
   0   2  12    1.12    0.93
   0   2  12    2.87    1.37
   0  -2 -12   -0.09    1.09
   0   2  12    2.20    1.15
   0   2  13    0.47    1.25
   0   2  13    0.26    1.01
   0   2  13    1.64    1.48
   0   2  13   -1.21    1.27
   0  -2 -13   -1.56    1.21
   0  -2 -14    2.11    1.34
   0   2  14    0.77    1.09
   0   2  14    0.15    1.32
   0   2  14   -0.10    1.37
   0   2  14    1.00    1.29
   0  -2 -15    0.25    1.44
   0   2  15    1.75    1.55
   0   2  15    1.71    1.41
   0   2  15   -1.25    1.41
   0   3 -16    3.12    1.60
   0  -3  15    5.22    1.29
   0   3 -15    8.20    1.47
   0  -3  15    6.56    1.37
   0   3 -14    1.64    1.23
   0   3 -14    1.22    1.37
   0  -3  14   -0.27    1.16
   0  -3  14    0.41    1.32
   0   3 -13   -0.50    1.10
   0  -3  13    1.27    0.77
   0  -3  13    1.26    1.21
   0   3 -13    1.00    1.11
   0   3 -13    0.21    0.90
   0   3 -12    1.91    1.11
   0   3 -12    2.32    1.66
   0  -3  12    2.23    1.12
   0  -3  12    2.07    0.63
   0  -3  12    1.20    0.69
   0   3 -12    2.25    0.85
   0   3 -12    2.05    1.07
   0   3 -11    4.03    1.38
   0  -3  11    5.11    0.65
   0   3 -11    5.68    0.95
   0  -3  11    6.35    1.09
   0  -3  11    4.85    0.70
   0   3 -11    8.02    1.06
   0   3 -11    5.83    0.92
   0   3 -11    3.32    1.49
   0  -3  11    6.20    1.05
   0   3 -10    5.38    1.20
   0   3 -10    4.20    0.86
   0  -3  10    3.54    0.92
   0   3 -10    3.54    1.46
   0  -3  10    4.23    0.63
   0  -3  10    4.87    0.96
   0  -3  10    4.28    0.62
   0   3 -10    3.66    0.88
   0  -3  10    2.73    0.92
   0   3 -10    3.39    0.72
   0   3  -9   79.20    3.33
   0  -3   9   76.17    3.36
   0  -3   9   86.55    3.40
   0   3  -9   86.08    3.61
   0  -3   9   86.62    3.25
   0   3  -9   83.58    3.54
   0  -3   9   84.82    3.23
   0   3  -9   81.35    3.35
   0  -3   9   79.00    3.36
   0   3  -8   18.53    1.07
   0  -3   8   18.02    1.11
   0   3  -8   21.07    1.47
   0   3  -8   20.95    1.34
   0  -3   8   22.88    1.22
   0  -3   8   17.98    1.12
   0   3  -8   22.25    1.11
   0  -3   8   21.40    0.97
   0  -3   8   21.06    0.95
   0  -3   7  206.70    8.57
   0   3  -7  215.05    8.66
   0   3  -7  249.12    8.71
   0  -3   7  250.77    8.65
   0  -3   7  223.13    8.50
   0  -3   7  222.11    8.51
   0   3  -7  230.99    8.56
   0   3  -7  224.07    8.55
   0   3  -6  117.90    4.39
   0  -3   6  106.49    4.31
   0   3  -6  107.95    4.27
   0   3  -6  105.66    4.37
   0   3  -6  113.22    4.28
   0  -3   6  112.87    4.25
   0  -3   6  113.10    4.24
   0  -3   5   10.37    0.50
   0   3  -5   10.19    0.55
   0   3  -5   10.08    0.68
   0   3  -5   10.16    0.55
   0  -3   5    9.74    0.64
   0   3  -5   11.06    0.48
   0  -3   5    9.93    0.52
   0  -3   5    8.47    0.65
   0   3  -4 2230.02   82.59
   0  -3   4 2217.31   82.63
   0   3  -4 2228.38   82.58
   0  -3   4 2197.55   82.57
   0  -3   4 2182.72   82.57
   0  -3   4 2198.28   82.62
   0   3  -4 2237.38   82.61
   0  -3   4 2180.73   82.61
   0  -3   3  634.80   24.26
   0  -3   3  648.10   24.22
   0   3  -3  671.07   24.23
   0   3  -3  635.89   24.25
   0  -3   3  659.83   24.23
   0   3  -3  617.17   24.23
   0  -3   3  650.79   24.25
   0   3  -2  191.17    7.24
   0   3  -2  182.22    7.22
   0  -3   2  192.48    7.20
   0  -3   2  191.28    7.25
   0  -3   2  192.18    7.22
   0  -3   2  188.13    7.24
   0  -3   2  198.83    7.22
   0   3  -2  197.61    7.22
   0  -3   1  440.82   17.56
   0   3  -1  459.21   17.55
   0   3  -1  484.80   17.56
   0   3  -1  485.72   17.55
   0  -3   1  476.89   17.54
   0  -3   1  475.35   17.55
   0  -3   1  457.42   17.57
   0  -3   1  460.03   17.55
   0  -3   0  760.57   29.09
   0  -3   0  779.97   29.09
   0   3   0  769.63   29.08
   0  -3   0  790.97   29.09
   0  -3   0  787.06   29.09
   0  -3   0  755.62   29.08
   0  -3   0  775.79   29.08
   0  -3   0  797.02   29.07
   0  -3   0  768.16   29.08
   0  -3  -1   13.78    0.67
   0  -3  -1   15.55    0.67
   0  -3  -1   14.89    0.66
   0   3   1   15.34    0.68
   0  -3  -1   15.69    0.72
   0  -3  -1   15.30    0.69
   0   3   2  125.35    4.75
   0  -3  -2  120.31    4.76
   0  -3  -2  125.90    4.73
   0  -3  -2  127.24    4.75
   0  -3  -2  128.80    4.78
   0  -3  -2  122.81    4.73
   0  -3  -2  125.03    4.74
   0  -3  -3  249.86    9.67
   0  -3  -3  259.86    9.63
   0  -3  -3  255.28    9.61
   0  -3  -3  255.43    9.61
   0  -3  -3  254.40    9.62
   0   3   3  254.37    9.62
   0   3   4   94.34    3.62
   0  -3  -4   95.82    3.63
   0  -3  -4   88.43    3.69
   0  -3  -4   93.12    3.59
   0   3   4   97.60    3.65
   0  -3  -4   95.41    3.62
   0   3   4   91.10    3.62
   0  -3  -5   33.01    1.66
   0  -3  -5   36.33    1.54
   0   3   5   36.03    1.53
   0  -3  -5   35.66    1.52
   0   3   5   37.35    1.54
   0   3   5   39.59    1.59
   0   3   5   37.66    1.56
   0  -3  -5   34.47    1.54
   0  -3  -6   73.84    2.77
   0  -3  -6   69.11    2.76
   0   3   6   73.77    2.81
   0  -3  -6   68.97    2.76
   0   3   6   71.97    2.79
   0   3   6   65.39    2.91
   0   3   6   65.38    2.78
   0   3   6   67.41    2.78
   0  -3  -6   61.23    2.91
   0  -3  -6   69.08    2.68
   0   3   7   55.74    2.47
   0  -3  -7   59.52    2.44
   0  -3  -7   56.98    2.43
   0   3   7   56.29    2.46
   0  -3  -7   58.79    2.44
   0   3   7   62.25    2.45
   0  -3  -7   53.62    2.66
   0  -3  -7   60.32    2.35
   0   3   7   53.68    2.64
   0   3   8    1.18    0.82
   0   3   8   -0.28    0.83
   0  -3  -8   -0.01    0.55
   0   3   8    1.35    1.04
   0  -3  -8   -1.11    0.80
   0   3   8    0.20    0.68
   0  -3  -8   -0.64    0.70
   0   3   8   -1.09    0.79
   0  -3  -8    2.44    1.16
   0   3   9    1.24    0.82
   0   3   9    0.62    0.91
   0  -3  -9    1.02    0.86
   0   3   9    0.93    0.94
   0   3   9    2.97    1.17
   0  -3  -9    1.11    0.63
   0   3   9    0.90    0.80
   0  -3 -10   52.65    2.06
   0   3  10   47.33    2.17
   0   3  10   48.22    2.48
   0   3  10   46.44    2.32
   0   3  10   42.56    2.26
   0  -3 -10   47.82    2.22
   0   3  10   49.39    2.20
   0  -3 -11   -0.94    1.03
   0   3  11    0.88    1.19
   0   3  11    0.89    1.18
   0   3  11   -0.68    1.32
   0   3  11   -0.45    0.96
   0  -3 -11    0.13    1.08
   0  -3 -12    5.79    1.17
   0   3  12    6.56    1.30
   0   3  12    8.38    1.10
   0   3  12    6.14    1.47
   0   3  12    6.82    1.27
   0   3  13    3.43    1.35
   0  -3 -13    3.00    1.16
   0   3  13    3.49    1.10
   0   3  13    2.91    1.26
   0   3  13    4.36    1.51
   0   3  14    5.61    1.42
   0  -3 -14    9.30    1.35
   0   3  14    6.19    1.49
   0   3  14    5.99    1.68
   0   3  15    0.04    1.29
   0   3  15   -1.11    1.38
   0   4 -15   -0.36    1.41
   0   4 -14   13.54    1.51
   0  -4  14   12.18    1.50
   0  -4  13    3.88    1.17
   0   4 -13    7.48    1.24
   0   4 -13    6.10    1.24
   0  -4  13    6.50    1.25
   0   4 -12   11.89    1.17
   0   4 -12   12.10    1.29
   0  -4  12    8.99    1.23
   0  -4  12   10.81    1.22
   0  -4  12   10.97    0.81
   0  -4  12   10.01    1.25
   0   4 -12   11.51    1.60
   0   4 -12    7.47    0.90
   0   4 -11   74.17    3.00
   0  -4  11   65.42    2.98
   0   4 -11   72.67    2.96
   0  -4  11   74.24    3.00
   0   4 -11   74.51    3.32
   0  -4  11   64.77    2.99
   0  -4  11   73.52    2.78
   0  -4  11   72.32    2.77
   0   4 -10   50.77    2.15
   0   4 -10   51.60    2.17
   0   4 -10   52.11    2.49
   0  -4  10   45.56    2.19
   0  -4  10   48.22    2.17
   0   4 -10   49.40    2.47
   0  -4  10   49.29    2.17
   0  -4  10   50.33    1.97
   0  -4  10   52.91    1.96
   0  -4   9    0.48    0.87
   0   4  -9    0.04    1.08
   0  -4   9    0.79    0.47
   0   4  -9    0.62    0.49
   0   4  -9    1.10    0.69
   0   4  -9   -0.02    0.71
   0   4  -9    1.71    1.08
   0  -4   9    0.93    0.49
   0  -4   9    1.09    0.82
   0  -4   8  283.22    9.64
   0   4  -8  301.37    9.86
   0   4  -8  270.29    9.63
   0  -4   8  257.02    9.74
   0   4  -8  282.56    9.72
   0  -4   8  278.86    9.65
   0   4  -8  275.92    9.70
   0   4  -7   12.74    0.76
   0   4  -7   14.24    0.76
   0  -4   7   14.28    0.90
   0   4  -7   15.23    0.97
   0   4  -7   14.95    0.61
   0  -4   7   15.00    0.69
   0  -4   7   14.37    0.66
   0   4  -6    1.13    0.57
   0   4  -6    0.61    0.43
   0  -4   6    0.60    0.59
   0  -4   6    0.49    0.33
   0   4  -6    1.39    0.37
   0  -4   6    0.50    0.57
   0  -4   6    1.51    0.34
   0  -4   5   71.58    2.86
   0  -4   5   72.56    2.80
   0   4  -5   73.67    2.87
   0  -4   5   72.20    2.89
   0  -4   5   69.92    2.90
   0   4  -5   70.12    2.82
   0   4  -5   74.85    2.83
   0  -4   5   76.57    2.80
   0  -4   4    0.80    0.43
   0  -4   4    0.17    0.26
   0   4  -4    0.49    0.27
   0  -4   4    0.46    0.24
   0   4  -4    0.30    0.26
   0  -4   4    0.21    0.48
   0   4  -4    0.74    0.36
   0  -4   4    0.37    0.36
   0  -4   3  115.06    4.55
   0   4  -3  121.83    4.52
   0   4  -3  119.86    4.55
   0   4  -3  117.64    4.60
   0  -4   3  118.05    4.57
   0  -4   3  117.63    4.53
   0  -4   3  119.35    4.52
   0   4  -3  123.69    4.53
   0  -4   2    6.31    0.45
   0   4  -2    6.69    0.51
   0   4  -2    6.33    0.40
   0  -4   2    6.00    0.35
   0   4  -2    6.72    0.36
   0   4  -2    6.75    0.37
   0  -4   2    5.99    0.40
   0  -4   2    6.33    0.37
   0  -4   2    6.46    0.32
   0  -4   1    6.45    0.37
   0  -4   1    6.69    0.41
   0  -4   1    6.42    0.36
   0   4  -1    6.93    0.38
   0  -4   1    6.45    0.38
   0  -4   1    6.49    0.41
   0  -4   1    6.30    0.44
   0  -4   1    6.30    0.37
   0  -4   0   42.76    1.70
   0  -4   0   42.65    1.72
   0  -4   0   43.84    1.70
   0  -4   0   46.32    1.73
   0  -4   0   42.67    1.73
   0  -4   0   41.91    1.70
   0  -4   0   42.48    1.72
   0  -4   0   44.85    1.72
   0  -4  -1  316.21   11.11
   0  -4  -1  283.60   11.14
   0  -4  -1  296.13   11.11
   0  -4  -1  297.22   11.12
   0  -4  -1  289.65   11.12
   0   4   1  291.31   11.12
   0  -4  -1  287.09   11.11
   0  -4  -1  296.31   11.13
   0   4   1  295.79   11.14
   0   4   2    4.42    0.47
   0  -4  -2    3.88    0.50
   0  -4  -2    4.30    0.43
   0   4   2    4.33    0.39
   0  -4  -2    4.18    0.38
   0   4   2    4.45    0.43
   0  -4  -2    4.61    0.38
   0  -4  -2    4.11    0.41
   0  -4  -2    4.74    0.38
   0  -4  -3  927.47   34.61
   0  -4  -3  883.03   34.63
   0   4   3  877.54   34.66
   0  -4  -3  932.53   34.66
   0  -4  -3  916.18   34.59
   0  -4  -3  937.29   34.59
   0  -4  -3  935.71   34.62
   0   4   3  957.72   34.62
   0  -4  -4  252.77    9.52
   0  -4  -4  252.58    9.53
   0  -4  -4  258.54    9.49
   0   4   4  253.04    9.52
   0  -4  -4  232.04    9.58
   0   4   5  230.15    8.71
   0  -4  -5  222.53    8.67
   0  -4  -5  240.28    8.72
   0  -4  -5  239.07    8.71
   0  -4  -5  210.55    8.78
   0  -4  -6  243.46    9.21
   0   4   6  243.94    9.22
   0  -4  -6  245.42    9.22
   0  -4  -6  223.25    9.32
   0   4   6  244.11    9.21
   0  -4  -6  242.11    9.18
   0   4   6  244.54    9.24
   0  -4  -7   20.37    0.95
   0  -4  -7   21.61    1.11
   0  -4  -7   19.62    1.11
   0   4   7   22.80    1.17
   0  -4  -7   15.76    1.36
   0   4   7   21.46    1.18
   0   4   7   17.58    1.15
   0  -4  -7   17.81    1.10
   0   4   7   19.71    1.16
   0   4   8   42.10    1.97
   0  -4  -8   42.49    1.93
   0  -4  -8   39.15    2.28
   0   4   8   44.25    2.00
   0  -4  -8   47.52    1.79
   0  -4  -8   42.08    1.93
   0   4   8   43.18    1.99
   0  -4  -8   39.18    1.89
   0   4   8   43.76    2.00
   0  -4  -9   10.86    0.93
   0  -4  -9   10.53    0.75
   0   4   9   11.54    1.07
   0  -4  -9   12.70    1.04
   0   4   9   11.40    1.06
   0   4   9   10.42    1.04
   0  -4  -9    9.61    0.96
   0   4   9   14.17    1.12
   0   4   9   13.02    1.48
   0   4  10   34.83    2.14
   0  -4 -10   31.75    1.66
   0  -4 -10   30.84    1.68
   0   4  10   34.42    1.73
   0   4  10   33.05    1.85
   0   4  10   32.34    1.84
   0  -4 -11    1.74    1.04
   0   4  11    3.64    1.26
   0   4  11    0.96    1.25
   0   4  11    0.73    1.01
   0   4  11    1.16    1.45
   0   4  12   12.45    1.29
   0   4  12    8.22    1.33
   0   4  12    7.51    1.56
   0   4  12    8.18    1.31
   0   4  13    4.35    1.58
   0   4  13    1.83    1.41
   0   4  13    3.66    1.24
   0   4  13    4.04    1.30
   0   4  14    1.32    1.40
   0   4  14    0.31    1.38
   0  -4 -14   -2.26    1.35
   0   4  15   -1.31    1.39
   0   4  15    1.13    1.38
   0  -5  14    2.95    1.25
   0   5 -14    0.52    1.49
   0   5 -13   18.29    1.98
   0  -5  13   15.30    1.46
   0  -5  13   13.57    1.44
   0   5 -13   19.92    1.51
   0  -5  13   16.02    1.35
   0  -5  12    2.53    1.09
   0   5 -12    4.03    1.44
   0  -5  12    1.74    1.15
   0  -5  12    5.11    1.12
   0   5 -12    4.12    0.74
   0   5 -12    5.28    1.15
   0   5 -12    5.01    1.03
   0   5 -11   10.60    0.72
   0  -5  11   10.57    1.11
   0   5 -11   10.27    1.41
   0   5 -11   10.60    1.05
   0   5 -11    7.55    0.66
   0   5 -11    9.61    1.12
   0  -5  11    9.98    0.73
   0  -5  11    8.12    1.18
   0  -5  11    9.41    1.15
   0  -5  10   33.35    1.39
   0  -5  10   34.71    1.41
   0   5 -10   34.07    1.62
   0   5 -10   34.71    1.81
   0  -5  10   30.36    1.65
   0   5 -10   33.03    1.33
   0   5 -10   33.94    1.56
   0  -5  10   34.61    1.68
   0   5  -9   23.08    1.18
   0  -5   9   19.86    1.31
   0  -5   9   22.83    1.04
   0  -5   9   24.39    1.38
   0  -5   9   22.62    1.05
   0   5  -9   22.50    1.40
   0   5  -9   23.10    1.22
   0  -5   8   64.79    2.46
   0   5  -8   61.80    2.64
   0   5  -8   63.90    2.56
   0   5  -8   63.26    2.53
   0  -5   8   64.44    2.48
   0  -5   8   63.05    2.64
   0  -5   8   53.90    2.65
   0  -5   7   77.86    3.24
   0   5  -7   79.26    3.13
   0   5  -7   84.20    3.23
   0   5  -7   83.43    3.16
   0  -5   7   82.56    3.10
   0   5  -7   75.42    3.35
   0  -5   7   83.28    3.11
   0   5  -6   65.46    2.53
   0   5  -6   62.24    2.58
   0  -5   6   65.69    2.49
   0   5  -6   64.75    2.51
   0   5  -6   64.30    2.71
   0  -5   6   65.89    2.50
   0  -5   6   59.39    2.65
   0  -5   6   62.05    2.62
   0  -5   5   18.32    0.94
   0   5  -5   18.70    0.94
   0   5  -5   19.57    0.87
   0   5  -5   19.19    1.10
   0  -5   5   19.59    1.04
   0  -5   5   19.14    0.99
   0  -5   5   19.67    0.83
   0   5  -5   19.30    0.85
   0  -5   5   19.46    0.85
   0   5  -4  249.09    9.07
   0  -5   4  235.74    9.12
   0   5  -4  243.71    9.10
   0   5  -4  235.68    9.05
   0  -5   4  243.64    9.06
   0  -5   4  230.44    9.09
   0   5  -4  244.00    9.16
   0  -5   4  241.50    9.05
   0   5  -3   31.86    1.37
   0   5  -3   29.30    1.25
   0  -5   3   29.45    1.31
   0  -5   3   29.44    1.23
   0  -5   3   31.10    1.22
   0   5  -3   30.86    1.22
   0  -5   3   29.64    1.25
   0   5  -3   30.52    1.22
   0  -5   2  675.11   24.90
   0   5  -2  656.92   24.95
   0  -5   2  655.89   24.89
   0  -5   2  671.04   24.92
   0  -5   2  659.67   24.93
   0  -5   2  651.41   24.88
   0  -5   2  668.65   24.90
   0   5  -2  676.21   24.89
   0  -5   1  195.54    7.45
   0  -5   1  192.14    7.42
   0   5  -1  207.95    7.44
   0  -5   1  193.67    7.43
   0  -5   1  198.89    7.44
   0  -5   1  198.99    7.48
   0  -5   1  191.07    7.43
   0  -5   1  192.47    7.46
   0  -5   1  202.17    7.43
   0  -5   0   90.79    3.63
   0  -5   0   94.91    3.63
   0  -5   0   97.26    3.66
   0  -5   0  101.43    3.64
   0  -5   0   93.27    3.62
   0  -5   0   93.55    3.66
   0  -5   0   95.00    3.65
   0  -5   0   92.19    3.65
   0  -5   0   93.57    3.65
   0  -5  -1  604.38   22.86
   0  -5  -1  607.63   22.87
   0  -5  -1  621.34   22.86
   0  -5  -1  588.59   22.87
   0  -5  -1  607.11   22.87
   0  -5  -1  611.88   22.87
   0  -5  -1  614.95   22.88
   0  -5  -1  618.20   22.90
   0  -5  -2   17.21    0.89
   0  -5  -2   18.69    0.85
   0  -5  -2   17.14    0.94
   0  -5  -2   17.73    0.85
   0  -5  -2   17.92    0.87
   0   5   2   18.27    0.87
   0   5   2   17.79    0.92
   0  -5  -2   18.10    0.89
   0  -5  -2   16.55    0.96
   0  -5  -3   62.85    2.58
   0   5   3   59.58    2.57
   0  -5  -3   66.79    2.55
   0   5   3   65.00    2.55
   0  -5  -3   62.84    2.64
   0  -5  -3   65.90    2.53
   0  -5  -3   65.99    2.53
   0  -5  -3   63.02    2.56
   0   5   3   65.41    2.65
   0   5   4    9.40    0.73
   0  -5  -4    7.93    0.88
   0  -5  -4    8.60    0.68
   0   5   4    9.17    0.68
   0  -5  -4    9.39    0.62
   0  -5  -4    7.77    0.71
   0  -5  -4    9.54    0.70
   0  -5  -4    8.15    0.61
   0   5   4    9.48    0.90
   0  -5  -5   12.07    0.75
   0  -5  -5   11.95    0.82
   0  -5  -5   11.13    1.04
   0   5   5   12.05    0.81
   0   5   5   10.81    1.06
   0  -5  -5   11.26    0.81
   0  -5  -5   12.40    0.85
   0  -5  -6   92.42    3.50
   0  -5  -6   93.16    3.50
   0  -5  -6   74.80    3.47
   0   5   6   92.07    3.51
   0  -5  -6   82.38    3.64
   0   5   6   82.48    3.67
   0  -5  -6   91.23    3.44
   0  -5  -7   15.33    1.30
   0   5   7   17.19    1.07
   0  -5  -7   15.13    0.98
   0  -5  -7   11.98    0.94
   0  -5  -7   16.12    1.02
   0  -5  -7   15.98    0.80
   0  -5  -7   15.43    1.04
   0  -5  -8    6.04    1.34
   0  -5  -8    5.73    0.86
   0  -5  -8    6.98    1.01
   0   5   8    5.33    0.95
   0  -5  -8    6.84    0.57
   0   5   8    6.39    1.01
   0  -5  -8    4.00    0.80
   0  -5  -8    6.72    0.89
   0  -5  -8    6.74    0.75
   0  -5  -9    1.69    0.91
   0  -5  -9   -0.60    0.81
   0   5   9   -0.62    1.01
   0   5   9    1.34    1.05
   0  -5  -9    2.89    0.89
   0  -5 -10    0.20    0.89
   0  -5 -10    0.98    0.98
   0   5  10    0.14    1.13
   0   5  10   -0.60    1.07
   0   5  10    1.76    1.19
   0   5  11   -0.31    1.19
   0   5  11    1.21    1.06
   0  -5 -11   -0.44    1.10
   0   5  11   -0.47    1.23
   0  -5 -12    4.66    1.26
   0   5  12    4.88    1.41
   0   5  12    3.74    1.37
   0   5  12    6.04    1.27
   0   5  12    5.66    1.70
   0   5  13   -0.49    1.66
   0   5  13   -1.65    1.36
   0   5  13    2.49    1.37
   0   5  14    1.99    1.40
   0   5  14    1.02    1.43
   0  -6  14    0.48    1.33
   0  -6  14    0.60    1.41
   0   6 -13    6.02    1.30
   0  -6  13    5.98    1.33
   0  -6  13    5.72    1.40
   0  -6  12    1.09    1.15
   0  -6  12    1.98    1.17
   0   6 -12    0.78    1.11
   0   6 -11   35.92    1.69
   0   6 -11   32.74    1.80
   0  -6  11   28.92    1.66
   0   6 -11   33.04    1.59
   0  -6  11   27.52    1.73
   0  -6  10   13.87    1.17
   0   6 -10   15.79    1.26
   0   6 -10   15.75    0.99
   0   6 -10   15.39    1.05
   0  -6  10   14.50    1.27
   0   6  -9   26.81    1.83
   0  -6   9   28.49    1.49
   0  -6   9   25.00    1.11
   0   6  -9   25.69    1.22
   0  -6   9   24.58    1.45
   0   6  -9   23.68    1.39
   0  -6   9   24.23    1.47
   0   6  -9   24.90    1.27
   0  -6   9   25.68    1.15
   0   6  -8  143.13    5.81
   0   6  -8  142.43    5.55
   0  -6   8  140.80    5.64
   0   6  -8  140.89    5.61
   0   6  -8  144.68    5.53
   0  -6   8  150.50    5.51
   0  -6   8  132.06    5.67
   0  -6   8  147.89    5.49
   0   6  -7   10.25    0.63
   0  -6   7    9.91    0.56
   0   6  -7   10.11    1.10
   0   6  -7    9.89    0.66
   0  -6   7    8.85    0.96
   0   6  -7   10.05    0.81
   0  -6   7    8.27    0.91
   0  -6   7   10.54    0.60
   0  -6   6  162.01    6.54
   0  -6   6  162.91    6.51
   0   6  -6  168.49    6.47
   0  -6   6  170.86    6.39
   0   6  -6  172.23    6.41
   0   6  -6  168.63    6.60
   0  -6   6  164.03    6.47
   0  -6   6  170.41    6.40
   0   6  -6  172.37    6.43
   0  -6   5    9.31    0.52
   0  -6   5    7.58    0.85
   0   6  -5    9.27    0.92
   0  -6   5    9.33    0.75
   0  -6   5    9.30    0.54
   0   6  -5    8.55    0.52
   0   6  -5    8.10    0.65
   0   6  -5    8.99    0.57
   0  -6   5    8.93    0.65
   0  -6   4   67.42    2.71
   0   6  -4   70.64    2.62
   0  -6   4   66.56    2.63
   0   6  -4   67.92    2.78
   0   6  -4   67.06    2.67
   0  -6   4   64.72    2.66
   0   6  -4   69.27    2.63
   0  -6   4   67.35    2.62
   0  -6   3  246.62    9.60
   0  -6   3  252.59    9.57
   0  -6   3  238.96    9.51
   0   6  -3  264.09    9.55
   0  -6   3  261.21    9.55
   0  -6   3  261.77    9.54
   0   6  -3  253.35    9.63
   0  -6   2  161.92    6.14
   0   6  -2  164.60    6.13
   0  -6   2  163.17    6.19
   0  -6   2  166.80    6.12
   0  -6   2  162.73    6.12
   0  -6   2  161.45    6.17
   0  -6   2  152.06    6.09
   0  -6   2  160.22    6.10
   0  -6   2  164.25    6.15
   0  -6   1   98.80    3.78
   0  -6   1   95.72    3.78
   0  -6   1  100.62    3.81
   0  -6   1   91.81    3.74
   0  -6   1  100.81    3.74
   0  -6   1   95.36    3.76
   0  -6   1   96.57    3.72
   0  -6   1   99.27    3.74
   0  -6   0   15.34    0.74
   0  -6   0   15.37    0.79
   0  -6   0   14.22    0.84
   0  -6   0   15.35    0.80
   0  -6   0   14.84    0.82
   0  -6   0   14.06    0.82
   0  -6   0   15.26    0.85
   0  -6   0   15.07    0.80
   0  -6   0   15.25    0.76
   0  -6  -1    2.50    0.48
   0  -6  -1    1.07    0.46
   0  -6  -1    1.64    0.59
   0  -6  -1    1.78    0.52
   0  -6  -1    1.12    0.47
   0  -6  -1    1.90    0.50
   0  -6  -1    1.96    0.55
   0  -6  -1    1.80    0.54
   0  -6  -1    0.29    0.42
   0  -6  -2   13.87    0.76
   0  -6  -2   13.56    0.90
   0  -6  -2   14.06    0.78
   0   6   2   13.55    0.90
   0  -6  -2   13.65    0.80
   0  -6  -2   13.15    0.80
   0  -6  -2   13.76    0.79
   0  -6  -2   12.85    0.88
   0  -6  -3   11.15    0.77
   0  -6  -3    9.94    0.67
   0  -6  -3   10.03    0.93
   0  -6  -3   10.75    0.79
   0   6   3    9.79    0.88
   0  -6  -3   11.00    0.67
   0  -6  -3   11.16    0.72
   0  -6  -3    9.70    0.74
   0   6   3    9.19    0.72
   0  -6  -3    9.91    0.74
   0  -6  -4    0.59    0.57
   0  -6  -4    0.39    0.61
   0  -6  -4    1.04    0.53
   0  -6  -4    0.22    0.69
   0   6   4    0.59    0.82
   0  -6  -4    0.56    0.76
   0  -6  -4    0.19    0.62
   0  -6  -4    0.74    0.51
   0   6   4    0.21    0.54
   0  -6  -5   26.03    1.38
   0  -6  -5   30.82    1.41
   0   6   5   28.26    1.43
   0   6   5   29.29    1.60
   0  -6  -5   32.04    1.43
   0   6   5   31.25    1.41
   0  -6  -5   30.15    1.31
   0  -6  -5   25.38    1.54
   0  -6  -5   24.07    1.46
   0   6   6   74.77    2.84
   0  -6  -6   71.57    2.84
   0  -6  -6   72.77    2.76
   0  -6  -6   59.53    2.79
   0  -6  -6   70.06    2.84
   0   6   6   70.50    3.05
   0  -6  -6   62.28    2.96
   0   6   6   70.83    2.88
   0  -6  -6   60.25    2.88
   0  -6  -7    0.87    0.70
   0  -6  -7    1.82    0.77
   0   6   7   -0.47    0.96
   0  -6  -7    0.79    1.22
   0  -6  -7    1.80    0.75
   0   6   7   -0.14    1.15
   0   6   7    1.10    0.89
   0  -6  -7    0.99    0.83
   0  -6  -7    1.21    0.91
   0  -6  -8   79.91    3.25
   0   6   8   77.99    3.29
   0   6   8   74.23    3.57
   0  -6  -8   80.60    3.26
   0  -6  -8   75.44    3.16
   0  -6  -9   13.89    1.20
   0   6   9   14.03    1.32
   0   6   9   10.47    1.76
   0   6  10   16.69    1.53
   0   6  10   18.02    1.98
   0  -6 -10   19.66    1.42
   0   6  11   -0.70    1.22
   0  -6 -11   -0.57    1.12
   0   6  11    1.94    1.27
   0   6  12    0.49    1.31
   0  -6 -12    2.90    1.21
   0   6  13   -0.57    1.40
   0  -7  13    4.42    1.36
   0  -7  13    5.53    1.39
   0  -7  12    6.68    1.34
   0   7 -11    8.42    0.91
   0  -7  11    4.19    1.21
   0   7 -10   11.22    0.89
   0   7 -10    8.84    1.01
   0   7 -10    9.77    0.80
   0  -7  10    9.39    1.18
   0  -7  10    8.26    1.29
   0   7  -9    2.27    0.65
   0   7  -9    2.92    0.58
   0  -7   9    0.27    0.94
   0   7  -9    3.92    0.84
   0  -7   9    1.15    1.05
   0   7  -8   62.05    2.47
   0  -7   8   55.65    2.67
   0   7  -8   64.16    2.88
   0   7  -8   63.84    2.44
   0   7  -8   62.47    2.56
   0  -7   8   60.33    2.38
   0  -7   8   59.94    2.64
   0   7  -7    1.51    1.07
   0   7  -7    0.41    0.44
   0   7  -7   -0.04    0.51
   0  -7   7    0.67    0.85
   0  -7   7    0.83    0.93
   0  -7   7    0.32    0.43
   0  -7   7    0.69    0.38
   0   7  -7    0.32    0.68
   0   7  -6    0.38    0.60
   0   7  -6    0.66    0.92
   0  -7   6    0.14    0.42
   0  -7   6   -1.07    0.83
   0   7  -6    0.15    0.41
   0  -7   6    0.11    0.54
   0  -7   6   -0.19    0.74
   0   7  -6    0.49    0.48
   0  -7   6   -0.01    0.36
   0  -7   5   45.44    1.82
   0   7  -5   44.39    2.06
   0  -7   5   42.54    2.03
   0   7  -5   46.92    1.90
   0  -7   5   44.80    1.90
   0   7  -5   45.43    1.84
   0  -7   5   45.80    1.99
   0  -7   5   45.80    1.84
   0   7  -5   48.24    1.83
   0  -7   4   47.22    1.99
   0  -7   4   44.83    1.80
   0  -7   4   41.90    1.67
   0  -7   4   44.18    1.75
   0   7  -4   44.15    1.96
   0  -7   4   40.38    1.70
   0  -7   4   46.03    1.75
   0  -7   4   43.83    1.89
   0   7  -4   47.45    1.77
   0   7  -3    8.77    0.60
   0  -7   3    8.50    0.60
   0  -7   3    7.66    0.57
   0  -7   3    7.53    0.58
   0  -7   3    7.40    0.47
   0  -7   3    7.53    0.73
   0  -7   3    7.14    0.64
   0  -7   3    7.57    0.49
   0  -7   2    9.16    0.64
   0  -7   2    9.45    0.61
   0  -7   2    9.70    0.63
   0  -7   2    8.86    0.72
   0  -7   2    8.91    0.56
   0  -7   2    8.18    0.69
   0  -7   2    9.43    0.78
   0  -7   2    9.64    0.57
   0  -7   1   18.08    0.95
   0  -7   1   19.94    0.93
   0  -7   1   18.82    0.90
   0  -7   1   19.83    0.98
   0  -7   1   18.59    1.00
   0  -7   1   18.76    0.89
   0  -7   1   19.99    0.94
   0  -7   1   20.64    1.02
   0  -7   1   19.93    1.04
   0  -7   0   41.78    1.78
   0  -7   0   39.05    1.75
   0  -7   0   41.81    1.69
   0  -7   0   41.53    1.77
   0  -7   0   41.15    1.71
   0  -7   0   40.55    1.68
   0  -7   0   38.31    1.72
   0  -7   0   41.94    1.72
   0  -7   0   41.91    1.75
   0  -7  -1   84.72    3.45
   0  -7  -1   90.15    3.53
   0  -7  -1   88.08    3.49
   0  -7  -1   91.49    3.50
   0  -7  -1   87.84    3.48
   0  -7  -1   89.01    3.50
   0  -7  -1   87.90    3.45
   0  -7  -1   90.70    3.54
   0  -7  -1   89.72    3.49
   0  -7  -2   12.15    0.77
   0  -7  -2   12.17    0.80
   0  -7  -2   12.58    0.83
   0  -7  -2   10.45    0.96
   0  -7  -2   12.22    0.79
   0  -7  -2   12.07    0.88
   0  -7  -2   11.67    0.91
   0  -7  -2   11.85    0.81
   0  -7  -2   12.93    0.83
   0  -7  -3   63.63    2.64
   0  -7  -3   67.78    2.64
   0   7   3   60.69    2.74
   0  -7  -3   60.98    2.69
   0  -7  -3   66.41    2.60
   0  -7  -3   62.97    2.71
   0  -7  -3   64.17    2.66
   0  -7  -3   66.92    2.66
   0  -7  -3   66.85    2.60
   0   7   4   23.88    1.20
   0  -7  -4   21.75    1.18
   0  -7  -4   20.68    1.22
   0  -7  -4   23.52    1.10
   0  -7  -4   21.31    1.36
   0  -7  -4   23.11    1.20
   0  -7  -4   19.95    1.25
   0  -7  -4   22.09    1.24
   0   7   4   23.11    1.40
   0  -7  -4   23.29    1.11
   0  -7  -5    0.08    0.76
   0  -7  -5    0.39    0.61
   0  -7  -5    1.04    0.82
   0  -7  -5    1.02    0.76
   0   7   5   -0.14    1.13
   0   7   5   -0.29    0.72
   0  -7  -5    0.26    0.74
   0  -7  -5   -0.52    1.04
   0  -7  -5    0.43    0.83
   0  -7  -6   12.04    1.13
   0   7   6   13.88    1.05
   0  -7  -6   15.75    1.09
   0  -7  -6   13.65    1.05
   0  -7  -6   10.99    1.25
   0  -7  -6   13.06    1.02
   0  -7  -6   14.57    0.90
   0   7   6   12.17    1.38
   0  -7  -7    0.26    0.90
   0  -7  -7    1.23    0.94
   0   7   7    0.64    1.37
   0  -7  -7   -1.60    1.26
   0  -7  -7    0.12    0.71
   0   7   7    0.88    0.96
   0   7   8   10.33    1.21
   0   7   8    7.89    1.64
   0  -7  -8    8.94    1.13
   0   7   9    8.72    1.77
   0   7   9    9.06    1.25
   0  -7  -9    8.40    1.17
   0   7  10    1.02    1.26
   0   7  10   -0.33    1.77
   0  -7 -10   -0.10    1.14
   0   7  11   -1.06    1.91
   0   7  11   -0.79    1.37
   0  -7 -11   -1.10    1.30
   0  -8  12   10.40    1.56
   0  -8  12   10.59    1.48
   0  -8  11   14.37    1.42
   0  -8  11   13.46    1.45
   0  -8  10    1.07    1.15
   0   8 -10    0.44    0.72
   0  -8  10   -0.65    1.15
   0  -8   9    1.67    1.11
   0   8  -9    1.79    0.66
   0  -8   9    1.67    1.11
   0   8  -9    2.13    0.82
   0   8  -8   17.96    0.89
   0  -8   8   17.58    1.32
   0  -8   8   16.09    1.41
   0   8  -8   16.44    1.09
   0   8  -8   18.91    0.96
   0   8  -7   25.03    1.63
   0   8  -7   23.04    1.10
   0   8  -7   23.52    1.06
   0   8  -7   23.51    1.21
   0  -8   7   19.89    1.43
   0  -8   7   23.09    1.42
   0  -8   6   43.20    2.01
   0  -8   6   42.95    1.75
   0   8  -6   42.43    2.11
   0  -8   6   39.71    2.09
   0  -8   6   43.66    1.88
   0   8  -6   45.68    1.82
   0   8  -6   47.39    1.88
   0   8  -5   12.35    0.75
   0  -8   5   13.71    1.01
   0  -8   5   13.54    0.76
   0  -8   5   12.76    1.12
   0  -8   5   13.40    0.71
   0  -8   5   13.09    0.83
   0   8  -5   14.36    1.18
   0  -8   5   11.55    0.61
   0  -8   5   12.23    0.69
   0  -8   4   29.78    1.47
   0  -8   4   26.86    1.19
   0  -8   4   27.56    1.26
   0  -8   4   26.94    1.18
   0  -8   4   28.68    1.37
   0   8  -4   27.98    1.23
   0  -8   4   29.03    1.24
   0  -8   4   23.94    1.11
   0  -8   4   26.78    1.08
   0  -8   3   59.88    2.34
   0  -8   3   55.19    2.29
   0  -8   3   60.67    2.34
   0  -8   3   56.58    2.29
   0  -8   3   59.40    2.46
   0  -8   3   58.91    2.38
   0  -8   3   59.52    2.35
   0  -8   3   59.07    2.45
   0  -8   2    3.41    0.46
   0  -8   2    4.70    0.81
   0  -8   2    4.01    0.50
   0  -8   2    2.81    0.60
   0  -8   2    3.29    0.59
   0  -8   2    3.04    0.65
   0  -8   2    4.46    0.74
   0  -8   2    3.16    0.57
   0  -8   2    3.64    0.46
   0  -8   1   79.67    3.05
   0  -8   1   77.66    3.07
   0  -8   1   76.15    2.99
   0  -8   1   77.91    3.01
   0  -8   1   73.26    3.00
   0  -8   1   81.64    3.09
   0  -8   1   71.55    2.96
   0  -8   1   72.75    2.97
   0  -8   1   78.40    3.04
   0  -8   0    0.82    0.59
   0  -8   0    1.17    0.68
   0  -8   0    0.55    0.54
   0  -8   0    1.29    0.70
   0  -8   0    1.45    0.60
   0  -8   0    0.09    0.70
   0  -8   0    1.62    0.54
   0  -8   0    0.71    0.65
   0  -8   0    0.63    0.59
   0  -8  -1    2.96    0.71
   0  -8  -1    4.00    0.64
   0  -8  -1    3.19    0.67
   0  -8  -1    3.10    0.61
   0  -8  -1    3.46    0.60
   0  -8  -1    2.90    0.80
   0  -8  -1    3.40    0.66
   0  -8  -1    3.02    0.79
   0  -8  -1    4.58    0.63
   0  -8  -2   31.28    1.49
   0  -8  -2   34.00    1.50
   0  -8  -2   32.97    1.49
   0  -8  -2   31.91    1.55
   0  -8  -2   34.56    1.55
   0  -8  -2   33.82    1.50
   0  -8  -2   31.38    1.55
   0  -8  -2   32.95    1.64
   0  -8  -2   34.47    1.64
   0  -8  -2   32.06    1.50
   0  -8  -3   -0.33    0.76
   0  -8  -3   -0.39    0.66
   0  -8  -3    0.06    0.69
   0  -8  -3    0.17    0.76
   0  -8  -3    0.79    0.95
   0  -8  -3    0.37    0.62
   0  -8  -3    0.11    0.67
   0  -8  -3   -0.28    0.61
   0  -8  -3    0.63    0.74
   0  -8  -3   -0.05    0.85
   0  -8  -4   -0.77    0.81
   0  -8  -4    2.97    0.82
   0  -8  -4    2.03    0.78
   0  -8  -4    0.86    0.74
   0  -8  -4    0.69    0.62
   0  -8  -4    0.12    1.04
   0  -8  -4    3.03    0.82
   0  -8  -4    0.95    0.61
   0   8   5    8.03    1.29
   0  -8  -5    7.98    0.92
   0  -8  -5    7.16    1.19
   0  -8  -5    7.56    0.99
   0  -8  -5    6.80    0.77
   0  -8  -5    9.09    0.97
   0  -8  -5    6.80    0.88
   0  -8  -5    7.64    0.97
   0   8   5    7.12    0.90
   0   8   6    1.83    1.25
   0   8   6    2.33    0.91
   0  -8  -6    2.50    0.92
   0  -8  -6    3.42    0.93
   0  -8  -6    1.66    0.87
   0  -8  -7   -0.16    0.95
   0   8   7    3.00    1.50
   0   8   7    1.22    0.96
   0  -8  -7    2.36    0.97
   0  -8  -8   11.76    1.20
   0   8   8   14.85    1.30
   0   8   8   15.21    1.88
   0  -8  -8   15.56    1.33
   0  -8  -9    0.71    1.00
   0  -8  -9    1.02    1.14
   0   8   9   -0.25    1.17
   0   8   9   -0.27    1.77
   0  -8 -10    1.45    1.30
   0   8  10    3.92    1.85
   0   8  10    3.45    1.32
   0  -9  11    0.53    1.41
   0  -9  11    2.56    1.37
   0  -9  10   11.18    1.43
   0  -9  10    8.03    1.39
   0  -9   9    0.58    1.24
   0  -9   9    1.71    1.07
   0  -9   8    5.32    1.11
   0   9  -8    7.59    0.70
   0  -9   8    5.55    1.28
   0   9  -7   15.20    0.87
   0  -9   7   13.81    1.23
   0  -9   7   12.31    1.32
   0  -9   6    0.15    1.03
   0   9  -6   -0.43    0.62
   0  -9   6    0.38    0.93
   0   9  -6   -0.38    1.10
   0  -9   5   29.11    1.50
   0  -9   5   25.78    1.60
   0  -9   5   26.47    1.48
   0  -9   4    5.55    0.95
   0  -9   4    5.57    0.60
   0  -9   4    6.40    0.91
   0  -9   4    4.99    0.69
   0  -9   4    4.91    0.47
   0  -9   4    6.38    1.00
   0  -9   3    2.52    0.48
   0  -9   3    3.52    0.86
   0  -9   3    3.33    0.61
   0  -9   3    2.52    0.48
   0  -9   3    5.09    0.97
   0  -9   3    4.21    0.88
   0  -9   3    2.41    0.70
   0  -9   2    2.52    0.76
   0  -9   2    2.42    0.64
   0  -9   2    2.65    0.62
   0  -9   2    1.53    0.48
   0  -9   2    0.73    0.76
   0  -9   2    2.31    0.80
   0  -9   2    1.70    0.51
   0  -9   2    1.66    0.67
   0  -9   1   -1.04    0.76
   0  -9   1   -0.52    0.64
   0  -9   1    0.73    0.76
   0  -9   1   -0.23    0.78
   0  -9   1    0.40    0.80
   0  -9   1    0.33    0.62
   0  -9   1   -0.09    0.56
   0  -9   1   -0.45    0.58
   0  -9   1   -0.54    0.53
   0  -9   0    9.04    0.78
   0  -9   0    9.12    0.79
   0  -9   0   10.36    0.90
   0  -9   0    8.75    0.69
   0  -9   0   10.07    0.97
   0  -9   0   11.23    0.96
   0  -9   0   10.40    0.83
   0  -9   0   11.90    0.94
   0  -9   0    9.43    0.74
   0  -9  -1   11.54    0.98
   0  -9  -1   11.46    0.84
   0  -9  -1   12.73    0.91
   0  -9  -1   10.98    0.95
   0  -9  -1   10.90    0.85
   0  -9  -1   10.09    0.91
   0  -9  -1   10.07    0.85
   0  -9  -1   11.64    1.08
   0  -9  -1   12.41    0.90
   0  -9  -2   -0.20    0.84
   0  -9  -2   -0.22    0.73
   0  -9  -2   -0.70    0.72
   0  -9  -2    0.02    0.73
   0  -9  -2   -0.04    0.71
   0  -9  -2   -0.75    0.80
   0  -9  -2    0.16    0.96
   0  -9  -2   -0.89    0.73
   0  -9  -2   -0.42    0.82
   0  -9  -2   -0.59    0.71
   0  -9  -3    5.23    0.85
   0  -9  -3    5.82    0.93
   0  -9  -3    4.55    0.94
   0  -9  -3    6.58    0.94
   0  -9  -3    5.54    0.82
   0  -9  -3    5.56    0.94
   0  -9  -3    5.52    0.87
   0  -9  -3    6.44    0.80
   0  -9  -4    8.03    0.97
   0  -9  -4    8.32    1.06
   0  -9  -4    6.62    0.93
   0  -9  -4    7.74    0.97
   0  -9  -4    8.28    0.95
   0  -9  -4    5.11    1.01
   0  -9  -4    6.33    1.10
   0  -9  -5   -0.41    0.99
   0  -9  -5    0.43    0.92
   0  -9  -5   -0.07    0.92
   0  -9  -6    6.91    1.06
   0   9   6    7.15    1.01
   0  -9  -6    6.39    1.07
   0  -9  -7    0.58    1.03
   0   9   7   -0.08    0.95
   0  -9  -7   -0.42    1.07
   0   9   7   -1.68    1.50
   0   9   8   -0.53    1.13
   0   9   8   -0.81    1.75
   0  -9  -8    0.65    0.99
   0  -9  -8   -1.58    1.17
   0   9   9    1.46    1.93
   0  -9  -9   -0.69    1.25
   0 -10  10   -0.37    1.42
   0 -10  10   -1.18    1.43
   0 -10   9    1.64    1.31
   0 -10   9    1.74    1.25
   0 -10   8    1.47    1.16
   0 -10   8    1.72    1.34
   0 -10   7    1.80    1.14
   0 -10   7    3.53    1.22
   0 -10   6   10.20    1.21
   0 -10   6   12.87    1.33
   0 -10   5    1.43    1.02
   0 -10   5    1.49    1.08
   0 -10   4    6.60    1.00
   0 -10   4    5.45    1.03
   0 -10   4    4.93    1.07
   0 -10   3    7.56    1.05
   0 -10   3    7.17    0.98
   0 -10   3    7.92    1.14
   0 -10   2    1.83    0.91
   0 -10   2    2.72    0.88
   0 -10   2    1.12    0.57
   0 -10   1    2.06    0.84
   0 -10   1    3.99    0.76
   0 -10   1    2.69    0.89
   0 -10   1    0.94    0.57
   0 -10   0   16.78    1.21
   0 -10   0   17.39    1.13
   0 -10   0   15.60    1.03
   0 -10   0   15.95    0.95
   0 -10  -1    1.31    0.77
   0 -10  -1    0.42    0.93
   0 -10  -1    1.04    0.69
   0 -10  -1    0.97    0.82
   0 -10  -2    7.64    0.84
   0 -10  -2    8.40    1.08
   0 -10  -2    7.37    0.87
   0 -10  -2   10.30    0.99
   0 -10  -2    9.37    0.98
   0 -10  -3    2.28    0.87
   0 -10  -3    1.41    0.96
   0 -10  -3    0.85    0.92
   0 -10  -3    0.11    0.89
   0 -10  -4    8.38    1.10
   0 -10  -4    8.42    0.99
   0 -10  -4    7.97    1.15
   0 -10  -5   -0.98    1.01
   0 -10  -5    0.77    1.06
   0 -10  -5    0.27    0.95
   0 -10  -6    0.48    0.96
   0 -10  -6    1.19    1.21
   0 -10  -6    0.58    1.07
   0 -10  -7    1.44    1.16
   0 -10  -7    1.57    1.00
   0 -10  -7    2.08    1.18
   0 -10  -8    0.52    1.16
   0 -11   8    2.48    1.25
   0 -11   8    4.09    1.43
   0 -11   7    3.16    1.26
   0 -11   7    2.39    1.38
   0 -11   6   -0.14    1.10
   0 -11   6    1.05    1.27
   0 -11   5    3.23    1.05
   0 -11   5    1.17    1.14
   0 -11   4    3.75    1.19
   0 -11   4    5.28    1.03
   0 -11   3    1.12    1.10
   0 -11   3    0.56    0.94
   0 -11   2   14.92    1.15
   0 -11   2   18.15    1.30
   0 -11   1   -0.34    0.94
   0 -11  -3    0.78    0.84
   0 -11  -3    2.12    1.05
   0 -11  -4   -0.51    0.87
   0 -11  -4    0.38    1.19
   0 -11  -5    0.08    1.09
   0 -11  -5   -0.04    1.19
   0 -11  -6    0.37    1.07
   0 -12   6    1.94    1.31
   0 -12   5    2.21    1.30
   0 -12   4   -0.31    1.20
   0 -12   3   -0.94    1.15
   1 -13   4   -1.01    1.40
   1 -12   2    2.65    1.09
   1 -12   3    1.33    1.18
   1 -12   3   -1.71    1.05
   1 -12   4    0.39    1.14
   1 -12   4   -0.40    1.25
   1 -12   5    5.39    1.29
   1 -12   5    7.30    1.42
   1 -12   6   -0.51    1.34
   1 -12   6   -0.06    1.20
   1 -12   7    2.10    1.31
   1 -11  -7    2.42    1.11
   1 -11  -7    3.31    1.24
   1 -11  -6    0.97    1.27
   1 -11  -6   -0.88    1.15
   1 -11  -6    0.79    1.05
   1 -11  -5   -0.61    1.10
   1 -11  -5    1.27    1.17
   1 -11  -5   -0.31    1.03
   1 -11  -4    4.25    1.08
   1 -11  -4    2.89    0.94
   1 -11  -3    1.08    1.16
   1 -11  -2    5.04    1.12
   1 -11  -2    5.73    1.06
   1 -11  -1    1.57    1.01
   1 -11  -1    0.88    0.97
   1 -11   0    3.23    1.00
   1 -11   1   23.04    1.44
   1 -11   2    2.97    1.03
   1 -11   3   27.42    1.61
   1 -11   4    5.61    1.25
   1 -11   4    4.85    1.07
   1 -11   5    7.08    1.23
   1 -11   5    6.50    1.33
   1 -11   6   -0.62    1.23
   1 -11   6    0.33    1.11
   1 -11   7   -1.11    1.22
   1 -11   7    1.23    1.36
   1 -11   8   -0.03    1.21
   1 -11   8    2.51    1.32
   1 -11   9    0.58    1.33
   1 -10  -9   -0.45    1.28
   1 -10  -8   -1.39    1.18
  -1  10   8    0.82    1.18
   1 -10  -8    0.26    1.07
   1 -10  -8    0.76    1.08
   1 -10  -7    2.39    1.09
   1 -10  -7    1.49    1.13
  -1  10   7    1.71    1.15
   1 -10  -7    0.92    1.16
   1 -10  -6    0.32    1.08
   1 -10  -6    1.43    1.02
   1 -10  -6    0.26    1.04
   1 -10  -5    6.86    1.09
   1 -10  -5    6.33    1.04
   1 -10  -5    4.41    1.08
   1 -10  -5    3.37    0.95
   1 -10  -4   -0.02    0.95
   1 -10  -4   -0.26    1.11
   1 -10  -4    0.22    0.91
   1 -10  -4    0.21    0.94
   1 -10  -4    0.22    0.92
   1 -10  -3    1.65    0.84
   1 -10  -3    2.58    0.76
   1 -10  -3    5.12    1.11
   1 -10  -3    2.52    0.81
   1 -10  -3    2.76    1.13
   1 -10  -3    2.50    0.96
   1 -10  -2    0.84    0.75
   1 -10  -2   -2.43    1.03
   1 -10  -2    0.60    0.97
   1 -10  -2   -0.28    0.75
   1 -10  -2   -0.30    0.88
   1 -10  -1   12.98    1.13
   1 -10  -1   13.72    0.94
   1 -10  -1   13.31    0.95
   1 -10  -1   15.29    1.15
   1 -10  -1   15.04    1.12
   1 -10  -1   16.46    1.21
   1 -10   0    3.69    0.90
   1 -10   0    4.65    0.99
   1 -10   0    3.69    0.65
   1 -10   0    4.16    0.93
   1 -10   0    4.01    0.70
   1 -10   1    1.41    0.98
   1 -10   1   -0.23    0.91
   1 -10   1   -0.33    0.89
   1 -10   2    3.02    0.92
   1 -10   2    1.53    0.97
   1 -10   2    2.66    0.97
   1 -10   3   -1.06    0.90
   1 -10   3    0.79    0.87
   1 -10   3   -0.94    0.99
   1 -10   4    1.06    1.01
   1 -10   5   -1.60    1.02
   1 -10   5   -0.90    1.14
   1 -10   6   12.76    1.22
   1 -10   6   14.10    1.34
   1 -10   7    0.88    1.10
   1 -10   7   -1.31    1.09
   1 -10   8   12.24    1.35
   1 -10   8    9.88    1.39
   1 -10   9    0.52    1.19
   1 -10   9    1.87    1.34
   1 -10  10   13.93    1.52
  -1   9  10    0.36    2.00
  -1   9  10    0.49    1.41
   1  -9 -10    0.31    1.31
   1  -9  -9    1.76    1.26
  -1   9   9    0.52    1.62
  -1   9   9    1.21    1.36
   1  -9  -9   -0.04    1.00
   1  -9  -8    0.17    0.97
   1  -9  -8    1.09    1.09
  -1   9   8    1.80    1.19
   1  -9  -7    2.03    1.11
  -1   9   7   -0.93    1.13
   1  -9  -7   -1.55    1.03
   1  -9  -7    0.67    0.95
  -1   9   6   -0.67    1.06
   1  -9  -6   -0.05    0.99
   1  -9  -6    0.32    0.96
   1  -9  -6    0.91    0.95
   1  -9  -6    0.77    0.93
   1  -9  -5    0.53    1.04
  -1   9   5    0.42    1.00
   1  -9  -5    1.47    0.93
   1  -9  -5    1.42    0.87
   1  -9  -5    1.00    0.88
   1  -9  -5   -0.38    0.85
   1  -9  -4    6.56    0.82
   1  -9  -4    5.01    0.87
   1  -9  -4    5.00    0.88
   1  -9  -4    7.51    0.82
   1  -9  -4    5.98    0.85
   1  -9  -4    5.93    0.92
   1  -9  -4    8.82    0.96
   1  -9  -4    6.44    1.11
   1  -9  -4    6.80    0.99
   1  -9  -4    5.60    1.02
   1  -9  -3    0.03    0.98
   1  -9  -3    0.42    0.83
   1  -9  -3    2.18    0.72
   1  -9  -3    1.29    0.73
   1  -9  -3    0.18    0.75
   1  -9  -3    1.95    0.83
   1  -9  -3    1.31    0.75
   1  -9  -3    2.18    1.04
   1  -9  -3    2.04    0.82
   1  -9  -3    1.67    0.79
   1  -9  -2    8.78    0.90
   1  -9  -2    9.42    0.81
   1  -9  -2    8.54    0.85
   1  -9  -2    8.64    0.74
   1  -9  -2    8.62    0.82
   1  -9  -2    7.57    0.97
   1  -9  -2    7.75    1.01
   1  -9  -2    8.35    1.13
   1  -9  -2    8.69    0.83
   1  -9  -1   34.58    1.57
   1  -9  -1   35.60    1.72
   1  -9  -1   35.00    1.62
   1  -9  -1   39.22    1.76
   1  -9  -1   38.02    1.81
   1  -9  -1   38.66    1.64
   1  -9  -1   33.97    1.58
   1  -9  -1   35.69    1.60
   1  -9  -1   37.30    1.74
   1  -9   0    0.78    0.85
   1  -9   0    1.05    0.72
   1  -9   0    0.75    0.58
   1  -9   0    1.24    0.55
   1  -9   0   -0.54    0.90
   1  -9   0    1.10    0.57
   1  -9   0    0.10    0.58
   1  -9   0    0.91    0.91
   1  -9   0    0.34    0.57
   1  -9   1   73.15    2.90
   1  -9   1   76.10    2.99
   1  -9   1   72.61    2.87
   1  -9   1   76.55    3.04
   1  -9   1   77.67    3.07
   1  -9   1   72.03    2.89
   1  -9   1   70.73    2.87
   1  -9   1   74.16    3.06
   1  -9   1   72.46    2.89
   1  -9   2   -0.02    0.42
   1  -9   2    0.89    0.50
   1  -9   2    0.53    0.74
   1  -9   2    0.81    0.42
   1  -9   2    0.34    0.79
   1  -9   2   -0.56    0.85
   1  -9   2    0.52    0.93
   1  -9   3   99.99    3.85
   1  -9   3  100.00    3.73
   1  -9   3   93.88    3.59
   1  -9   3   94.89    3.77
   1  -9   3   92.44    3.75
   1  -9   3   89.56    3.57
   1  -9   4    5.98    0.95
   1  -9   4    6.40    0.81
   1  -9   4    7.00    0.75
   1  -9   4    6.48    0.99
   1  -9   5   22.07    1.42
   1  -9   5   22.26    1.36
   1  -9   5   22.42    1.27
   1  -9   6   10.41    1.08
  -1   9  -6   11.07    0.96
   1  -9   6    9.14    1.15
   1  -9   6    9.39    0.99
   1  -9   7    2.01    1.14
  -1   9  -7    1.47    0.83
   1  -9   7    1.60    1.01
   1  -9   8    8.30    1.21
   1  -9   8    6.72    1.19
   1  -9   9    2.12    1.17
   1  -9   9    3.45    1.19
   1  -9  10    1.67    1.28
   1  -9  10    1.35    1.29
   1  -9  11    5.58    1.42
   1  -9  11    7.37    1.36
  -1   8  11   10.21    1.57
   1  -8 -11    6.78    1.42
  -1   8  11    7.82    1.96
   1  -8 -10    2.93    1.27
  -1   8  10    1.89    1.32
  -1   8  10    1.82    1.47
  -1   8   9    0.60    1.25
  -1   8   9   -0.31    1.59
   1  -8  -9    1.19    1.16
  -1   8   9   -0.71    1.26
   1  -8  -8    5.62    1.16
  -1   8   8    6.97    1.23
  -1   8   8    5.74    1.14
  -1   8   8    7.64    1.56
   1  -8  -7   -0.20    1.02
  -1   8   7   -0.38    1.07
   1  -8  -7    1.64    0.99
   1  -8  -7   -0.86    0.80
  -1   8   7   -0.53    0.95
  -1   8   7    2.44    1.35
   1  -8  -6   22.11    1.20
   1  -8  -6   20.15    1.50
   1  -8  -6   22.56    1.38
  -1   8   6   21.18    1.39
   1  -8  -6   22.87    1.39
   1  -8  -6   20.40    1.29
   1  -8  -5    5.68    0.87
   1  -8  -5    6.33    0.87
   1  -8  -5    3.96    0.87
   1  -8  -5    5.94    0.95
  -1   8   5    6.40    0.97
   1  -8  -5    3.47    0.98
   1  -8  -5    5.53    0.76
   1  -8  -5    7.43    0.77
   1  -8  -5    4.44    1.18
   1  -8  -4    2.75    0.66
   1  -8  -4    0.82    0.72
  -1   8   4    2.98    0.86
   1  -8  -4    1.49    0.73
   1  -8  -4    3.03    0.79
   1  -8  -4    1.38    0.72
   1  -8  -4    3.22    1.00
   1  -8  -4    1.65    0.71
   1  -8  -4    2.95    0.88
   1  -8  -4    1.59    0.66
   1  -8  -3   77.75    3.13
   1  -8  -3   82.08    3.14
   1  -8  -3   77.20    3.24
   1  -8  -3   82.39    3.13
   1  -8  -3   75.13    3.15
   1  -8  -3   81.35    3.15
   1  -8  -3   82.14    3.15
   1  -8  -3   78.64    3.27
   1  -8  -2    1.66    0.64
   1  -8  -2    0.52    0.78
   1  -8  -2    1.24    0.63
   1  -8  -2    0.54    0.76
   1  -8  -2    1.74    0.73
   1  -8  -2    0.39    0.58
   1  -8  -2    0.77    0.69
   1  -8  -2    2.43    0.71
   1  -8  -2    1.57    0.62
   1  -8  -1   86.85    3.45
   1  -8  -1   85.54    3.45
   1  -8  -1   84.46    3.48
   1  -8  -1   90.35    3.54
   1  -8  -1   87.45    3.53
   1  -8  -1   92.24    3.55
   1  -8  -1   87.56    3.58
   1  -8  -1   89.14    3.46
   1  -8  -1   90.60    3.46
   1  -8   0    3.25    0.76
   1  -8   0    2.56    0.75
   1  -8   0    2.70    0.72
   1  -8   0    2.57    0.74
   1  -8   0    2.15    0.50
   1  -8   0    2.42    0.53
   1  -8   0    2.20    0.60
   1  -8   0    2.34    0.50
   1  -8   0    2.56    0.51
   1  -8   1   97.42    4.00
   1  -8   1  101.56    4.02
   1  -8   1  108.59    4.03
   1  -8   1   99.59    3.88
   1  -8   1  100.06    3.87
   1  -8   1  101.12    3.89
   1  -8   1  101.43    3.97
   1  -8   1   99.93    3.87
   1  -8   1  100.72    3.88
   1  -8   2    3.86    0.41
   1  -8   2    5.33    0.81
   1  -8   2    4.83    0.44
   1  -8   2    5.49    0.76
   1  -8   2    4.53    0.43
   1  -8   2    4.79    0.49
   1  -8   2    4.24    0.70
   1  -8   2    4.81    0.48
   1  -8   2    4.94    0.82
   1  -8   3    0.08    0.32
   1  -8   3    0.50    0.31
   1  -8   3    0.19    0.32
   1  -8   3    0.46    0.88
   1  -8   3    0.69    0.62
   1  -8   3   -1.25    0.76
   1  -8   3    0.04    0.69
   1  -8   3    0.88    0.36
   1  -8   3    0.05    0.31
  -1   8  -4   10.49    0.85
   1  -8   4   10.33    0.47
   1  -8   4    9.54    0.46
   1  -8   4    9.73    0.90
   1  -8   4    9.92    0.86
   1  -8   4    9.68    0.48
   1  -8   4    9.92    1.05
   1  -8   4    9.75    0.51
   1  -8   5    5.28    0.32
   1  -8   5    5.30    0.34
   1  -8   5    5.04    0.77
  -1   8  -5    4.45    1.03
   1  -8   5    4.64    0.91
  -1   8  -5    5.97    0.80
  -1   8  -6    0.85    1.04
   1  -8   6    0.81    0.95
   1  -8   6    0.37    0.88
  -1   8  -6    0.76    0.78
   1  -8   6    1.14    0.74
   1  -8   7    3.60    0.85
   1  -8   7    2.15    1.02
   1  -8   7    4.39    1.00
  -1   8  -7    4.19    0.86
  -1   8  -7    2.59    0.33
   1  -8   8   13.40    1.22
   1  -8   8   12.84    1.20
  -1   8  -8   11.30    1.12
  -1   8  -8   13.46    0.64
  -1   8  -9    1.29    0.93
  -1   8  -9    1.56    0.45
   1  -8   9    3.28    1.08
   1  -8   9    1.44    1.04
   1  -8  10   15.45    1.38
   1  -8  10   15.83    1.38
   1  -8  11   -0.98    1.17
   1  -8  12    0.97    1.28
  -1   7  13    1.49    1.64
  -1   7  12    0.35    1.56
   1  -7 -12    0.04    1.35
  -1   7  11    1.07    1.35
   1  -7 -11    3.86    1.25
  -1   7  11    0.97    1.87
  -1   7  11    3.13    1.51
  -1   7  10    5.81    1.77
  -1   7  10    9.63    1.31
  -1   7  10    9.12    1.42
   1  -7 -10    8.94    1.23
  -1   7   9    1.80    1.10
   1  -7  -9    1.64    1.05
  -1   7   9    0.99    1.52
  -1   7   9    1.12    1.13
   1  -7  -8   16.25    1.25
  -1   7   8   13.67    1.25
  -1   7   8   16.45    1.30
   1  -7  -8   16.00    1.23
   1  -7  -8   15.13    1.11
  -1   7   8   15.96    1.66
   1  -7  -7   -0.96    1.05
   1  -7  -7    0.92    0.91
  -1   7   7    0.18    1.19
  -1   7   7    0.20    0.91
   1  -7  -7    0.13    0.74
   1  -7  -7   -0.32    0.93
  -1   7   7    0.42    1.03
   1  -7  -7    1.01    0.78
   1  -7  -6    1.11    0.72
   1  -7  -6   -0.36    0.86
   1  -7  -6   -0.49    1.04
  -1   7   6    0.27    1.05
   1  -7  -6    1.59    0.76
  -1   7   6    1.31    0.82
  -1   7   6    1.75    0.84
   1  -7  -6    1.79    0.85
   1  -7  -5   31.49    1.45
  -1   7   5   31.93    1.55
   1  -7  -5   29.63    1.50
   1  -7  -5   30.70    1.65
   1  -7  -5   32.00    1.55
  -1   7   5   30.69    1.52
   1  -7  -5   32.58    1.45
  -1   7   5   31.87    1.69
   1  -7  -5   29.61    1.49
   1  -7  -4    5.32    0.70
   1  -7  -4    1.93    0.88
  -1   7   4    4.07    0.72
  -1   7   4    4.09    0.72
   1  -7  -4    5.16    0.68
   1  -7  -4    4.02    0.68
   1  -7  -4    4.32    0.70
   1  -7  -4    4.07    0.72
   1  -7  -3    5.13    0.69
   1  -7  -3    4.22    0.65
   1  -7  -3    4.28    0.67
   1  -7  -3    4.53    0.79
   1  -7  -3    4.56    0.65
   1  -7  -3    5.55    0.65
  -1   7   3    3.90    0.68
   1  -7  -3    4.99    0.80
   1  -7  -2    1.07    0.52
   1  -7  -2    0.28    0.63
   1  -7  -2    0.87    0.57
   1  -7  -2    0.22    0.54
   1  -7  -2    0.76    0.50
   1  -7  -2    0.60    0.72
   1  -7  -2    1.72    0.67
   1  -7  -2    0.54    0.60
   1  -7  -1   33.22    1.55
   1  -7  -1   33.61    1.45
   1  -7  -1   33.82    1.53
   1  -7  -1   33.90    1.45
   1  -7  -1   32.09    1.44
   1  -7  -1   34.66    1.44
   1  -7  -1   34.47    1.57
   1  -7  -1   36.03    1.56
   1  -7   0    1.83    0.62
   1  -7   0    0.92    0.43
   1  -7   0    1.47    0.43
   1  -7   0    1.46    0.66
   1  -7   0    1.17    0.70
   1  -7   0    0.97    0.42
   1  -7   0    1.30    0.41
   1  -7   0    1.21    0.51
   1  -7   0    1.70    0.68
   1  -7   1  122.29    4.78
   1  -7   1  125.82    4.66
   1  -7   1  119.04    4.66
   1  -7   1  128.00    4.75
   1  -7   1  118.44    4.65
   1  -7   1  124.45    4.76
   1  -7   1  121.20    4.67
   1  -7   1  122.59    4.77
   1  -7   1  122.89    4.65
   1  -7   2   35.56    1.44
   1  -7   2   36.63    1.56
   1  -7   2   35.51    1.41
   1  -7   2   35.63    1.59
   1  -7   2   35.35    1.41
   1  -7   2   36.14    1.63
   1  -7   2   34.65    1.41
   1  -7   2   34.29    1.43
   1  -7   2   38.95    1.60
   1  -7   3   85.27    3.43
   1  -7   3   86.94    3.24
   1  -7   3   85.55    3.24
   1  -7   3   85.02    3.22
   1  -7   3   79.53    3.22
   1  -7   3   89.56    3.38
   1  -7   3   87.80    3.40
   1  -7   3   85.84    3.23
  -1   7  -3   90.13    3.38
  -1   7  -4   15.01    0.90
   1  -7   4   13.66    0.88
   1  -7   4   13.92    0.59
   1  -7   4   11.94    0.56
   1  -7   4   12.72    0.54
  -1   7  -4   11.96    1.02
   1  -7   4   13.93    0.55
   1  -7   4   12.91    0.90
   1  -7   5   73.36    2.92
  -1   7  -5   72.89    2.92
   1  -7   5   72.29    2.90
  -1   7  -5   70.74    3.02
   1  -7   5   71.69    2.71
  -1   7  -5   69.89    2.72
   1  -7   6  169.70    6.72
   1  -7   6  177.05    6.74
  -1   7  -6  187.92    6.74
  -1   7  -6  186.95    6.86
   1  -7   6  179.66    6.78
  -1   7  -6  179.58    6.57
   1  -7   6  166.88    6.55
  -1   7  -7    0.88    1.10
   1  -7   7    0.43    0.91
   1  -7   7   -0.66    0.76
  -1   7  -7    0.50    0.79
   1  -7   7    0.65    0.28
   1  -7   7    2.28    0.89
  -1   7  -7    1.50    0.36
   1  -7   8   34.82    1.83
  -1   7  -8   38.00    1.53
  -1   7  -8   37.07    1.82
   1  -7   8   38.13    1.87
   1  -7   9   17.89    1.39
  -1   7  -9   22.36    0.95
  -1   7  -9   21.67    1.05
  -1   7  -9   22.78    1.38
   1  -7   9   21.99    1.40
  -1   7 -10    3.99    0.66
  -1   7 -10    3.36    1.08
   1  -7  10    3.74    1.08
   1  -7  11   11.16    1.41
  -1   7 -11   13.43    1.44
   1  -7  11   11.63    1.27
   1  -7  12    0.31    1.18
   1  -7  12    1.48    1.21
   1  -7  13   12.84    1.53
   1  -7  13   10.76    1.50
  -1   6  14    0.85    1.76
  -1   6  13   -1.27    1.49
  -1   6  13   -1.50    1.88
   1  -6 -13   -1.61    1.32
  -1   6  12    2.77    1.66
   1  -6 -12    3.86    1.26
  -1   6  12    3.20    1.52
  -1   6  12    2.93    1.31
   1  -6 -11    2.84    1.18
  -1   6  11   -0.52    1.32
   1  -6 -10    1.39    1.03
   1  -6 -10    1.56    1.12
  -1   6  10    2.93    1.18
   1  -6  -9   -0.44    0.98
   1  -6  -9   -1.44    1.02
   1  -6  -9    0.22    0.92
  -1   6   9   -0.31    1.17
  -1   6   8    5.97    1.03
  -1   6   8    6.23    0.99
   1  -6  -8    7.02    0.96
   1  -6  -8    4.86    0.98
  -1   6   8    5.59    1.01
   1  -6  -8    3.06    1.13
   1  -6  -8    7.05    0.85
  -1   6   7   13.73    1.00
   1  -6  -7   12.23    1.21
   1  -6  -7   11.30    1.01
  -1   6   7   12.93    1.07
   1  -6  -7   12.60    1.03
  -1   6   7   11.90    1.07
   1  -6  -7   11.36    0.88
  -1   6   7   10.36    1.32
   1  -6  -6   85.54    3.39
   1  -6  -6   86.18    3.45
   1  -6  -6   78.00    3.53
   1  -6  -6   84.42    3.47
  -1   6   6   89.54    3.49
  -1   6   6   86.17    3.48
  -1   6   6   89.63    3.63
   1  -6  -5    1.31    0.69
   1  -6  -5    0.44    0.64
  -1   6   5    0.99    0.64
  -1   6   5    1.53    0.86
   1  -6  -5    0.50    0.56
   1  -6  -5    1.23    0.57
  -1   6   5    0.63    0.75
   1  -6  -5   -0.20    0.82
   1  -6  -4  110.81    4.12
  -1   6   4  109.47    4.15
   1  -6  -4  106.32    4.22
  -1   6   4  101.53    4.23
   1  -6  -4  107.68    4.14
  -1   6   4   98.34    4.16
   1  -6  -4  104.43    4.11
   1  -6  -4  106.99    4.15
   1  -6  -4  105.58    4.16
  -1   6   3   95.81    3.67
  -1   6   3   92.44    3.63
   1  -6  -3   93.98    3.68
   1  -6  -3   93.81    3.64
   1  -6  -3   89.64    3.63
   1  -6  -3   88.54    3.69
   1  -6  -3   95.89    3.63
   1  -6  -3   91.20    3.64
   1  -6  -3   93.42    3.63
   1  -6  -2   28.09    1.30
   1  -6  -2   30.86    1.36
   1  -6  -2   28.79    1.24
   1  -6  -2   27.06    1.32
  -1   6   2   30.84    1.35
   1  -6  -2   28.79    1.26
   1  -6  -2   27.38    1.25
  -1   6   2   27.17    1.24
   1  -6  -1  237.35    9.19
   1  -6  -1  242.76    9.21
   1  -6  -1  236.43    9.19
   1  -6  -1  243.80    9.14
   1  -6  -1  238.33    9.14
   1  -6  -1  246.85    9.14
   1  -6  -1  241.97    9.19
   1  -6  -1  244.07    9.14
   1  -6   0   67.56    2.57
   1  -6   0   67.37    2.57
   1  -6   0   65.57    2.67
   1  -6   0   65.78    2.57
   1  -6   0   65.58    2.65
   1  -6   0   65.40    2.66
   1  -6   0   66.32    2.56
   1  -6   0   63.88    2.66
   1  -6   1   62.22    2.52
   1  -6   1   67.39    2.62
   1  -6   1   65.94    2.60
   1  -6   1   67.44    2.50
   1  -6   1   65.26    2.62
   1  -6   1   64.62    2.50
   1  -6   1   63.43    2.50
   1  -6   1   65.36    2.64
   1  -6   1   63.97    2.51
   1  -6   2  305.08   11.44
   1  -6   2  295.02   11.32
   1  -6   2  291.68   11.42
   1  -6   2  285.75   11.32
   1  -6   2  312.12   11.31
   1  -6   2  308.60   11.31
   1  -6   2  306.22   11.41
  -1   6  -2  312.62   11.41
   1  -6   2  299.41   11.32
   1  -6   3   34.02    1.47
   1  -6   3   34.23    1.27
   1  -6   3   31.70    1.27
  -1   6  -3   35.55    1.47
   1  -6   3   30.31    1.27
   1  -6   3   33.60    1.46
   1  -6   3   33.68    1.29
  -1   6  -3   34.89    1.56
   1  -6   4  157.39    5.87
  -1   6  -4  163.36    5.86
   1  -6   4  143.39    5.70
   1  -6   4  154.53    5.85
   1  -6   4  158.56    5.72
  -1   6  -4  155.74    5.91
   1  -6   4  153.00    5.70
  -1   6  -4  158.35    5.72
   1  -6   5   46.82    2.04
  -1   6  -5   48.60    2.06
  -1   6  -5   49.03    2.16
   1  -6   5   50.10    1.86
   1  -6   5   47.74    2.03
  -1   6  -5   46.76    1.87
  -1   6  -6   48.37    2.04
   1  -6   6   45.82    2.01
   1  -6   6   46.52    1.77
  -1   6  -6   50.14    1.83
   1  -6   6   44.53    1.80
   1  -6   6   48.24    2.03
  -1   6  -6   44.53    2.14
   1  -6   7   14.76    0.64
   1  -6   7   15.15    1.09
  -1   6  -7   15.29    0.74
  -1   6  -7   16.77    0.69
  -1   6  -7   15.65    1.07
   1  -6   7   16.02    1.07
   1  -6   7   14.61    0.68
   1  -6   7   14.14    1.06
   1  -6   8   13.19    0.66
   1  -6   8   13.19    0.62
  -1   6  -8   13.41    0.69
   1  -6   8   13.89    1.08
  -1   6  -8   14.92    1.09
  -1   6  -8   13.82    0.78
  -1   6  -9   23.37    1.13
  -1   6  -9   22.32    1.07
   1  -6   9   22.29    0.97
   1  -6   9   20.13    1.37
  -1   6 -10    0.62    0.63
   1  -6  10   -0.11    1.02
  -1   6 -10   -1.09    1.17
   1  -6  10   -0.33    1.06
  -1   6 -10    0.87    0.73
   1  -6  11    3.68    1.23
   1  -6  11    3.12    1.06
  -1   6 -11    3.86    1.30
  -1   6 -11    4.24    0.84
  -1   6 -11    2.54    0.93
   1  -6  11    1.83    1.11
  -1   6 -12    6.44    1.15
   1  -6  12    5.04    1.18
  -1   6 -12    6.04    1.52
   1  -6  12    6.07    1.19
   1  -6  12    6.39    1.27
   1  -6  13    8.18    1.41
   1  -6  13   10.83    1.48
   1  -6  14   -1.32    1.36
  -1   5  15    1.89    1.64
  -1   5  15    4.02    1.68
  -1   5  14   -0.36    1.74
  -1   5  14   -1.11    1.55
  -1   5  13    3.40    1.22
  -1   5  13    2.52    1.51
   1  -5 -13   -1.30    1.33
  -1   5  13   -0.15    1.55
  -1   5  13    2.22    1.67
  -1   5  12   -1.41    1.15
  -1   5  12    0.09    1.42
   1  -5 -12    2.22    1.15
  -1   5  12    0.14    1.47
  -1   5  12   -0.30    1.58
  -1   5  11    4.91    1.34
   1  -5 -11    5.55    1.15
  -1   5  11    8.12    1.65
   1  -5 -11    4.14    1.06
  -1   5  11    4.93    1.29
  -1   5  11    5.73    1.13
  -1   5  10   10.93    1.54
  -1   5  10   12.78    1.38
   1  -5 -10   12.79    1.16
   1  -5 -10   12.52    1.13
   1  -5 -10   12.91    1.22
  -1   5  10   14.04    1.34
  -1   5  10   12.26    1.22
   1  -5  -9    4.57    0.90
   1  -5  -9    1.92    1.25
  -1   5   9    1.25    1.07
  -1   5   9    3.92    1.31
   1  -5  -9    1.95    0.92
   1  -5  -9    2.38    0.71
   1  -5  -9    2.26    0.84
   1  -5  -8   73.90    3.06
  -1   5   8   75.89    3.16
   1  -5  -8   67.17    3.20
   1  -5  -8   79.02    3.12
   1  -5  -8   77.20    3.11
  -1   5   7   92.05    3.71
   1  -5  -7   82.13    3.78
  -1   5   7   93.33    3.70
   1  -5  -7   96.51    3.71
   1  -5  -7   92.63    3.69
   1  -5  -7   93.72    3.65
  -1   5   6   11.57    0.95
  -1   5   6   13.88    0.97
   1  -5  -6   11.83    0.81
  -1   5   6   13.70    0.89
   1  -5  -6   12.67    0.89
   1  -5  -6   14.57    0.92
   1  -5  -6   11.85    1.01
  -1   5   5   48.79    1.90
   1  -5  -5   41.37    1.86
   1  -5  -5   42.69    1.89
  -1   5   5   47.73    1.92
   1  -5  -5   42.92    1.96
  -1   5   5   43.65    1.91
   1  -5  -5   43.40    1.85
   1  -5  -5   43.63    1.84
   1  -5  -4   19.16    0.95
   1  -5  -4   20.35    1.09
   1  -5  -4   18.71    0.96
  -1   5   4   22.10    1.01
   1  -5  -4   18.11    1.00
  -1   5   4   17.30    1.06
  -1   5   4   20.19    1.02
  -1   5   4   19.66    0.96
   1  -5  -4   17.67    0.97
   1  -5  -3  152.84    5.66
   1  -5  -3  146.26    5.66
  -1   5   3  149.93    5.69
   1  -5  -3  146.03    5.66
  -1   5   3  149.75    5.67
  -1   5   3  144.42    5.72
   1  -5  -3  143.49    5.70
   1  -5  -3  150.47    5.67
  -1   5   2   78.82    3.12
   1  -5  -2   81.39    3.13
   1  -5  -2   81.25    3.12
   1  -5  -2   78.64    3.18
   1  -5  -2   78.12    3.18
   1  -5  -2   83.99    3.14
   1  -5  -2   80.55    3.15
  -1   5   2   81.05    3.17
   1  -5  -1    1.75    0.49
   1  -5  -1    1.65    0.36
   1  -5  -1    2.37    0.36
  -1   5   1    1.85    0.31
   1  -5  -1    2.23    0.44
   1  -5  -1    1.61    0.31
   1  -5  -1    2.78    0.47
   1  -5   0   92.81    3.66
   1  -5   0   94.42    3.73
   1  -5   0   95.66    3.72
   1  -5   0   96.75    3.66
   1  -5   0   93.88    3.73
   1  -5   0  100.34    3.66
   1  -5   0   97.30    3.66
   1  -5   0   94.73    3.73
   1  -5   1   11.20    0.67
  -1   5  -1   11.14    0.65
   1  -5   1   10.77    0.49
   1  -5   1   11.21    0.50
   1  -5   1   11.01    0.50
   1  -5   1    9.92    0.50
   1  -5   1   11.82    0.66
   1  -5   1   10.90    0.71
   1  -5   2    7.88    0.36
   1  -5   2    6.91    0.37
  -1   5  -2    7.20    0.66
   1  -5   2    6.78    0.36
   1  -5   2    6.90    0.56
  -1   5  -2    7.30    0.56
   1  -5   2    7.86    0.55
   1  -5   2    8.06    0.37
   1  -5   2    8.03    0.35
  -1   5  -3   88.56    3.28
   1  -5   3   85.15    3.40
   1  -5   3   85.83    3.39
   1  -5   3   86.06    3.28
   1  -5   3   83.74    3.26
   1  -5   3   90.24    3.27
  -1   5  -3   85.12    3.39
   1  -5   4  125.71    4.88
  -1   5  -4  128.82    4.90
   1  -5   4  125.89    4.89
  -1   5  -4  130.22    4.77
   1  -5   4  123.59    4.76
   1  -5   5   19.30    0.97
   1  -5   5   16.43    0.66
  -1   5  -5   16.49    0.71
   1  -5   5   15.84    0.69
  -1   5  -5   17.07    0.68
  -1   5  -5   17.30    0.98
   1  -5   5   16.46    0.94
   1  -5   6  227.39    8.53
   1  -5   6  229.56    8.68
   1  -5   6  220.74    8.52
  -1   5  -6  225.64    8.54
   1  -5   6  224.99    8.66
  -1   5  -6  234.08    8.56
   1  -5   6  237.59    8.68
  -1   5  -6  231.46    8.69
   1  -5   7   65.64    2.47
  -1   5  -7   64.31    2.71
   1  -5   7   65.28    2.67
   1  -5   7   64.67    2.49
  -1   5  -7   57.75    2.76
  -1   5  -7   66.74    2.54
  -1   5  -7   61.70    2.51
  -1   5  -8   14.62    1.32
   1  -5   8   14.16    1.04
  -1   5  -8   15.00    0.87
  -1   5  -8   15.87    1.17
   1  -5   8   15.85    0.73
  -1   5  -8   14.48    0.82
   1  -5   8   15.35    0.72
  -1   5  -9   69.66    3.31
   1  -5   9   75.42    2.86
  -1   5  -9   77.53    2.95
   1  -5   9   66.13    3.06
  -1   5  -9   84.70    3.29
   1  -5   9   73.51    2.85
   1  -5   9   65.40    3.06
  -1   5  -9   73.26    2.97
   1  -5  10    3.80    0.99
  -1   5 -10    4.30    0.77
   1  -5  10    4.88    1.22
  -1   5 -10    3.40    0.89
  -1   5 -10    4.98    0.58
   1  -5  10    3.87    0.56
  -1   5 -10    3.67    0.50
   1  -5  10    3.50    0.99
  -1   5 -11   24.20    1.90
  -1   5 -11   21.22    1.08
   1  -5  11   21.93    1.46
  -1   5 -11   23.01    1.35
  -1   5 -11   22.28    1.40
  -1   5 -11   23.25    1.12
   1  -5  11   19.72    1.50
   1  -5  11   21.24    1.56
   1  -5  12    7.43    1.27
   1  -5  12    6.95    1.19
  -1   5 -12    7.51    1.16
  -1   5 -12    3.93    1.71
   1  -5  13    7.81    1.31
   1  -5  13    5.58    1.28
  -1   5 -13    8.80    1.31
   1  -5  14    2.85    1.40
  -1   4  15    0.55    1.73
  -1   4  15    1.80    1.65
  -1   4  14   -1.49    1.46
  -1   4  14    1.31    1.47
  -1   4  14    0.80    1.56
  -1   4  13    8.79    1.25
  -1   4  13   10.97    1.63
  -1   4  13    8.86    1.59
  -1   4  13    9.34    1.68
  -1   4  12    3.64    1.12
   1  -4 -12    4.28    1.15
  -1   4  12    4.58    1.33
  -1   4  12    1.23    1.55
  -1   4  12    2.90    1.34
  -1   4  11    7.06    1.57
  -1   4  11    4.98    1.22
   1  -4 -11    5.87    1.07
   1  -4 -11    3.79    1.07
  -1   4  11    5.02    1.20
  -1   4  11    6.50    1.04
   1  -4 -10    2.30    0.99
   1  -4 -10    1.05    0.89
  -1   4  10    1.27    0.90
   1  -4 -10    1.47    0.70
  -1   4  10   -0.29    1.07
   1  -4 -10    0.38    0.92
  -1   4  10    2.45    0.95
   1  -4 -10    0.83    1.30
  -1   4  10    0.76    1.09
  -1   4  10    1.53    1.34
   1  -4  -9   56.36    2.90
   1  -4  -9   62.80    2.63
   1  -4  -9   65.00    2.73
   1  -4  -9   64.93    2.75
  -1   4   9   64.43    2.75
  -1   4   9   70.13    2.76
  -1   4   9   70.21    3.00
  -1   4   9   66.44    2.86
  -1   4   9   67.27    2.85
   1  -4  -9   61.88    2.75
  -1   4   8   84.42    3.59
   1  -4  -8   84.52    3.51
  -1   4   8   86.78    3.61
  -1   4   8   97.16    3.75
   1  -4  -8   76.30    3.63
   1  -4  -8   86.98    3.56
  -1   4   8   96.37    3.56
   1  -4  -8   92.02    3.56
  -1   4   7  116.18    4.53
  -1   4   7  121.91    4.67
   1  -4  -7  114.12    4.50
   1  -4  -7  114.95    4.46
   1  -4  -7   99.77    4.56
  -1   4   7  109.57    4.49
   1  -4  -7  121.05    4.51
  -1   4   7  119.30    4.53
   1  -4  -6   63.85    2.78
   1  -4  -6   65.62    2.64
   1  -4  -6   69.00    2.70
  -1   4   6   66.91    2.83
  -1   4   6   63.74    2.69
   1  -4  -6   67.51    2.69
   1  -4  -5   32.67    1.41
  -1   4   5   31.53    1.43
   1  -4  -5   31.99    1.49
   1  -4  -5   31.57    1.41
   1  -4  -5   31.64    1.38
   1  -4  -4    3.72    0.49
   1  -4  -4    2.69    0.59
   1  -4  -4    3.48    0.48
  -1   4   4    3.33    0.49
   1  -4  -4    3.85    0.45
  -1   4   4    2.76    0.48
   1  -4  -4    2.75    0.51
   1  -4  -3  129.89    5.02
  -1   4   3  134.71    5.05
  -1   4   3  132.05    5.02
   1  -4  -3  124.97    5.02
   1  -4  -3  129.65    5.06
  -1   4   3  136.78    5.03
   1  -4  -3  131.73    5.03
   1  -4  -3  133.13    5.02
   1  -4  -2  182.36    7.10
   1  -4  -2  186.71    7.12
  -1   4   2  198.39    7.10
   1  -4  -2  184.11    7.09
   1  -4  -2  188.37    7.08
  -1   4   2  184.46    7.12
  -1   4   2  186.44    7.08
   1  -4  -1  494.94   18.90
   1  -4  -1  517.84   18.90
   1  -4  -1  495.34   18.85
  -1   4   1  517.14   18.85
   1  -4  -1  503.89   18.86
  -1   4   1  477.21   18.89
   1  -4  -1  506.78   18.89
   1  -4   0    2.92    0.24
   1  -4   0    2.80    0.40
   1  -4   0    3.08    0.39
  -1   4   0    2.97    0.24
   1  -4   0    3.09    0.26
   1  -4   0    2.78    0.40
   1  -4   0    3.48    0.26
   1  -4   1  228.74    8.62
   1  -4   1  231.50    8.70
   1  -4   1  235.33    8.62
   1  -4   1  224.86    8.62
   1  -4   1  228.22    8.62
  -1   4  -1  235.10    8.69
   1  -4   1  229.59    8.70
   1  -4   1  229.86    8.70
   1  -4   2 1593.13   59.29
   1  -4   2 1580.69   59.21
   1  -4   2 1568.45   59.29
  -1   4  -2 1642.16   59.29
   1  -4   2 1574.57   59.21
   1  -4   3  142.31    5.54
   1  -4   3  144.63    5.44
   1  -4   3  144.27    5.54
  -1   4  -3  149.84    5.55
   1  -4   4  550.47   20.96
   1  -4   4  568.40   21.05
  -1   4  -4  576.34   21.07
   1  -4   4  557.32   21.06
  -1   4  -4  502.02   21.07
  -1   4  -4  579.43   20.97
   1  -4   4  561.72   20.95
   1  -4   5  324.86   12.73
   1  -4   5  339.94   12.72
  -1   4  -5  347.39   12.87
   1  -4   5  335.47   12.82
  -1   4  -5  348.26   12.86
  -1   4  -5  351.32   12.75
  -1   4  -5  341.85   12.74
   1  -4   5  343.10   12.85
   1  -4   6  131.45    4.92
  -1   4  -6  135.90    5.10
   1  -4   6  139.73    5.04
   1  -4   6  129.59    4.92
  -1   4  -6  134.42    5.11
  -1   4  -6  122.96    4.94
  -1   4  -6  127.62    4.95
   1  -4   7  226.04    8.70
  -1   4  -7  243.08    8.91
  -1   4  -7  227.32    8.73
  -1   4  -7  239.59    8.70
  -1   4  -7  225.67    8.75
  -1   4  -7  225.22    8.90
   1  -4   7  231.49    8.70
   1  -4   7  228.20    8.80
   1  -4   8    8.10    0.81
  -1   4  -8   11.05    1.15
   1  -4   8   10.30    0.61
  -1   4  -8    9.87    0.61
  -1   4  -8    8.69    1.12
  -1   4  -8   10.02    0.78
   1  -4   8    9.20    0.58
   1  -4   8    9.62    0.87
  -1   4  -8    8.87    0.71
  -1   4  -9  122.94    5.08
   1  -4   9  130.98    4.77
   1  -4   9  132.45    4.77
   1  -4   9  122.01    4.91
  -1   4  -9  132.82    4.88
  -1   4  -9  138.77    5.17
   1  -4   9  114.55    4.89
  -1   4  -9  131.06    4.86
  -1   4  -9  104.16    4.78
  -1   4 -10   34.27    1.56
  -1   4 -10   32.47    1.60
  -1   4 -10   35.56    2.10
   1  -4  10   35.09    1.85
  -1   4 -10   30.83    1.93
   1  -4  10   32.42    1.39
   1  -4  10   28.34    1.64
   1  -4  10   35.31    1.40
   1  -4  11   11.26    1.35
  -1   4 -11   13.30    1.19
   1  -4  11   11.93    1.18
   1  -4  11   12.54    0.86
  -1   4 -11    9.42    0.88
  -1   4 -11   14.98    1.11
  -1   4 -11   13.94    1.75
  -1   4 -12    9.98    1.17
  -1   4 -12   11.73    1.22
   1  -4  12    8.18    1.15
   1  -4  12    9.24    1.26
   1  -4  13    2.24    1.21
   1  -4  13    0.36    1.13
   1  -4  13    0.96    1.12
  -1   4 -13   -0.04    1.19
  -1   4 -14    6.77    1.38
   1  -4  14    3.93    1.38
   1  -4  15   -1.51    1.60
  -1   3  15   -0.76    1.56
   1  -3 -15   -0.26    1.36
  -1   3  15    2.01    1.62
  -1   3  15    1.80    1.55
  -1   3  14    2.64    1.47
  -1   3  14    2.04    1.18
   1  -3 -14   -1.50    1.33
  -1   3  14    0.59    1.37
  -1   3  14    0.16    1.61
  -1   3  13    2.99    1.45
  -1   3  13    4.46    1.13
  -1   3  13    7.25    1.60
   1  -3 -13    3.64    1.25
  -1   3  13    4.19    1.43
  -1   3  12    7.05    1.32
  -1   3  12    2.50    1.25
  -1   3  12    5.90    1.02
  -1   3  12    4.79    1.46
  -1   3  11    1.26    1.11
  -1   3  11    1.36    1.28
   1  -3 -11    0.86    0.77
  -1   3  11    1.61    1.18
  -1   3  11    1.54    0.84
   1  -3 -11    0.08    1.04
  -1   3  10   52.54    2.16
  -1   3  10   49.91    2.42
  -1   3  10   43.93    2.30
   1  -3 -10   50.62    2.09
  -1   3  10   46.67    2.32
   1  -3 -10   50.00    2.22
  -1   3  10   49.43    2.17
   1  -3 -10   44.48    2.21
   1  -3  -9    1.66    0.80
   1  -3  -9    0.79    0.75
   1  -3  -9    1.21    0.86
  -1   3   9    0.74    1.03
  -1   3   9   -0.49    0.91
  -1   3   9    0.38    0.72
  -1   3   9    1.40    0.72
  -1   3   9    0.31    0.91
   1  -3  -9    1.48    0.69
   1  -3  -8   42.97    1.89
  -1   3   8   38.64    1.90
  -1   3   8   41.16    1.94
   1  -3  -8   41.39    1.86
   1  -3  -8   34.46    1.99
  -1   3   8   46.85    1.86
  -1   3   8   39.72    2.04
  -1   3   8   44.78    1.86
   1  -3  -8   44.28    1.90
   1  -3  -8   42.59    1.81
   1  -3  -7   98.08    3.67
   1  -3  -7  100.34    3.68
  -1   3   7   93.77    3.70
   1  -3  -7   87.24    3.63
  -1   3   7   98.29    3.66
  -1   3   7   91.92    3.80
   1  -3  -7   79.40    3.71
  -1   3   7   92.33    3.65
  -1   3   7   88.58    3.69
  -1   3   6  216.28    8.36
   1  -3  -6  224.27    8.35
  -1   3   6  218.98    8.39
  -1   3   6  231.30    8.38
  -1   3   6  217.57    8.46
   1  -3  -6  225.12    8.38
   1  -3  -6  226.54    8.38
  -1   3   6  216.93    8.39
   1  -3  -6  195.94    8.41
   1  -3  -5  423.01   15.36
  -1   3   5  382.75   15.35
  -1   3   5  412.65   15.36
   1  -3  -5  411.56   15.33
   1  -3  -5  389.23   15.39
   1  -3  -5  419.72   15.36
  -1   3   5  418.96   15.42
  -1   3   5  401.87   15.36
   1  -3  -4   13.76    0.66
   1  -3  -4   12.91    0.67
   1  -3  -4   13.17    0.76
   1  -3  -4   11.09    0.66
  -1   3   4   12.62    0.69
  -1   3   4   12.69    0.76
   1  -3  -4   13.31    0.70
   1  -3  -3  207.94    7.75
   1  -3  -3  208.58    7.77
   1  -3  -3  206.53    7.74
   1  -3  -3  206.96    7.73
   1  -3  -3  204.18    7.74
  -1   3   3  190.50    7.78
   1  -3  -2  618.71   22.60
   1  -3  -2  609.71   22.59
  -1   3   2  576.65   22.58
   1  -3  -2  620.29   22.62
   1  -3  -2  596.99   22.59
   1  -3  -1    6.01    0.45
   1  -3  -1    5.14    0.33
  -1   3   1    5.32    0.32
   1  -3  -1    5.42    0.44
   1  -3  -1    5.39    0.45
  -1   3   1    5.27    0.31
   1  -3  -1    4.88    0.33
  -1   3   0  720.45   28.56
   1  -3   0  734.34   28.56
   1  -3   0  790.54   28.61
   1  -3   0  780.78   28.61
   1  -3   0  764.50   28.61
   1  -3   0  801.96   28.56
   1  -3   0  783.15   28.56
   1  -3   1  263.68   10.00
   1  -3   1  266.80   10.00
   1  -3   2  306.96   11.60
  -1   3  -2  311.94   11.61
   1  -3   2  298.32   11.59
  -1   3  -2  315.09   11.60
  -1   3  -3  250.47    9.18
   1  -3   3  231.12    9.15
   1  -3   3  249.46    9.07
   1  -3   3  234.02    9.08
   1  -3   3  243.60    9.17
  -1   3  -3  238.49    9.17
   1  -3   4  100.34    3.94
   1  -3   4  102.97    3.92
  -1   3  -4  103.96    3.84
   1  -3   4  100.81    3.84
  -1   3  -4   98.85    3.95
   1  -3   4  102.06    3.83
  -1   3  -4   98.42    3.85
  -1   3  -4  105.85    3.95
  -1   3  -5  178.41    6.98
  -1   3  -5  193.41    7.01
   1  -3   5  177.63    6.86
  -1   3  -5  181.06    6.89
  -1   3  -5  183.15    6.88
   1  -3   5  177.01    6.94
  -1   3  -5  185.08    6.86
   1  -3   5  189.48    6.98
   1  -3   5  182.06    6.87
  -1   3  -6  121.46    4.76
  -1   3  -6  139.16    4.94
  -1   3  -6  118.51    4.73
   1  -3   6  127.46    4.72
  -1   3  -6  121.19    4.75
   1  -3   6  126.20    4.72
   1  -3   6  121.84    4.81
  -1   3  -6  131.78    4.88
   1  -3   7    3.15    0.65
  -1   3  -7    3.91    0.55
  -1   3  -7    5.05    0.88
   1  -3   7    4.87    0.43
  -1   3  -7    3.97    0.53
   1  -3   7    5.16    0.45
  -1   3  -7    3.60    0.47
  -1   3  -7    3.27    0.96
   1  -3   7    5.33    0.62
   1  -3   8    0.48    0.45
  -1   3  -8    0.81    0.60
   1  -3   8    0.92    0.44
  -1   3  -8    0.56    0.56
   1  -3   8    0.21    0.70
  -1   3  -8    0.99    1.11
  -1   3  -8    0.45    0.91
  -1   3  -8    0.50    0.50
  -1   3  -9  116.96    4.56
  -1   3  -9  124.49    4.37
   1  -3   9  134.88    4.57
  -1   3  -9  120.60    4.35
   1  -3   9  105.46    4.36
   1  -3   9  128.12    4.28
   1  -3   9  122.28    4.28
  -1   3  -9  118.39    4.71
  -1   3 -10    4.79    1.62
   1  -3  10    5.91    0.62
  -1   3 -10    5.92    1.28
  -1   3 -10    3.52    0.72
   1  -3  10    7.71    1.15
  -1   3 -10    6.34    0.85
  -1   3 -10    5.86    0.83
   1  -3  10    5.06    0.95
   1  -3  10    4.66    0.64
   1  -3  11   65.64    2.47
   1  -3  11   69.02    2.50
   1  -3  11   54.81    2.61
   1  -3  11   52.78    2.63
  -1   3 -11   58.59    3.15
  -1   3 -11   63.08    2.56
   1  -3  11   62.75    2.76
  -1   3 -11   75.32    2.68
   1  -3  12   -0.15    1.04
  -1   3 -12    0.58    0.93
   1  -3  12    0.26    0.75
  -1   3 -12    1.77    1.05
   1  -3  12    3.00    1.28
  -1   3 -12   -0.68    0.84
   1  -3  12    1.32    1.06
  -1   3 -13    2.38    1.09
  -1   3 -13    4.60    1.04
   1  -3  13    4.27    1.21
   1  -3  13    3.09    1.18
   1  -3  14    8.75    1.53
  -1   3 -14   10.30    1.40
   1  -3  14    7.86    1.35
  -1   3 -15    0.47    1.31
   1  -3  15    1.45    1.48
  -1   2  15    4.57    1.55
  -1   2  15    2.47    1.34
   1  -2 -15    2.17    1.33
  -1   2  15    1.01    1.41
  -1   2  14   -1.10    1.46
  -1   2  14   -1.29    1.36
   1  -2 -14    0.63    1.31
  -1   2  14    1.34    1.26
  -1   2  14   -0.73    1.11
  -1   2  13    3.71    0.98
  -1   2  13    2.89    1.43
   1  -2 -13    3.59    1.23
  -1   2  13    2.62    1.26
  -1   2  13    2.11    1.34
  -1   2  12   14.30    1.56
  -1   2  12   13.26    1.39
   1  -2 -12   14.83    1.11
   1  -2 -12   13.57    1.30
  -1   2  12   13.25    1.44
   1  -2 -12   14.14    1.31
  -1   2  12   14.18    1.18
  -1   2  11   70.68    2.75
  -1   2  11   60.23    2.89
   1  -2 -11   64.89    2.86
  -1   2  11   60.23    2.72
  -1   2  11   61.95    2.90
   1  -2 -11   65.66    2.84
  -1   2  11   65.08    2.99
   1  -2 -11   68.52    2.71
  -1   2  10   10.43    1.11
   1  -2 -10   11.34    1.11
   1  -2 -10   12.71    0.92
   1  -2 -10   10.77    1.10
  -1   2  10   10.81    0.96
  -1   2  10   11.11    0.95
  -1   2  10   10.06    1.11
  -1   2  10   12.35    1.26
  -1   2   9   33.14    1.53
  -1   2   9   33.04    1.54
  -1   2   9   34.46    1.78
   1  -2  -9   34.62    1.54
  -1   2   9   28.03    1.67
   1  -2  -9   33.69    1.63
  -1   2   9   30.55    1.69
  -1   2   8   25.43    1.18
   1  -2  -8   24.77    1.26
   1  -2  -8   23.26    1.27
   1  -2  -8   24.13    1.19
  -1   2   8   24.01    1.16
  -1   2   8   24.08    1.42
  -1   2   8   20.35    1.27
  -1   2   8   21.74    1.26
  -1   2   7  327.52   11.67
  -1   2   7  286.36   11.71
   1  -2  -7  312.64   11.65
   1  -2  -7  319.07   11.70
  -1   2   7  321.86   11.67
  -1   2   7  290.00   11.71
   1  -2  -7  298.93   11.67
   1  -2  -7  296.98   11.69
  -1   2   7  315.16   11.78
   1  -2  -6   28.27    1.28
   1  -2  -6   28.71    1.28
  -1   2   6   26.00    1.30
  -1   2   6   31.00    1.27
   1  -2  -6   27.34    1.30
  -1   2   6   29.97    1.38
  -1   2   6   29.14    1.27
  -1   2   6   26.15    1.31
  -1   2   5  129.65    4.73
   1  -2  -5  119.70    4.77
   1  -2  -5  123.75    4.74
  -1   2   5  126.06    4.74
   1  -2  -5  126.37    4.74
   1  -2  -5  118.70    4.72
  -1   2   5  116.83    4.78
   1  -2  -4  126.90    4.93
  -1   2   4  126.57    4.95
   1  -2  -4  119.95    4.90
  -1   2   4  128.47    4.91
   1  -2  -4  130.15    4.94
   1  -2  -4  126.65    4.92
   1  -2  -3   47.88    1.96
   1  -2  -3   52.11    1.98
   1  -2  -3   51.07    2.00
   1  -2  -3   51.53    1.98
  -1   2   3   49.91    1.97
  -1   2   3   48.07    2.00
   1  -2  -3   50.16    1.96
   1  -2  -2 1298.66   49.28
   1  -2  -2 1304.49   49.28
  -1   2   2 1345.40   49.30
   1  -2  -2 1316.94   49.28
   1  -2  -2 1306.98   49.28
   1  -2  -2 1339.80   49.30
   1  -2  -1 2148.19   80.59
  -1   2   1 2176.53   80.60
   1  -2  -1 2180.49   80.60
   1  -2  -1 2129.79   80.57
   1  -2  -1 2154.66   80.57
   1  -2   0   17.45    0.75
   1  -2   0   17.68    0.75
  -1   2   0   17.68    0.74
   1  -2   0   18.47    0.69
   1  -2   0   18.14    0.69
  -1   2  -1   30.66    1.26
   1  -2   1   31.75    1.20
   1  -2   1   30.30    1.25
   1  -2   1   31.37    1.25
   1  -2   2  306.72   11.44
   1  -2   2  295.96   11.50
   1  -2   2  307.46   11.45
   1  -2   2  305.39   11.51
  -1   2  -2  304.76   11.51
   1  -2   3  754.26   27.88
  -1   2  -3  758.00   27.89
   1  -2   3  755.40   27.96
  -1   2  -3  740.62   27.89
  -1   2  -3  735.93   27.89
  -1   2  -3  747.41   27.94
   1  -2   3  735.51   27.93
   1  -2   3  735.57   27.88
  -1   2  -4   64.49    2.58
  -1   2  -4   61.94    2.62
   1  -2   4   64.07    2.55
  -1   2  -4   63.85    2.51
   1  -2   4   66.75    2.61
  -1   2  -4   67.31    2.51
   1  -2   4   65.25    2.50
  -1   2  -4   65.71    2.51
   1  -2   4   66.19    2.50
  -1   2  -5   15.24    0.73
   1  -2   5   16.60    0.69
  -1   2  -5   15.11    0.85
   1  -2   5   16.21    0.70
  -1   2  -5   18.72    1.02
  -1   2  -5   15.31    0.72
  -1   2  -5   15.31    0.73
   1  -2   5   12.82    0.77
  -1   2  -6  442.24   15.47
   1  -2   6  420.16   15.25
  -1   2  -6  430.12   15.27
  -1   2  -6  351.05   15.27
   1  -2   6  420.73   15.25
  -1   2  -6  414.84   15.28
  -1   2  -6  411.83   15.36
   1  -2   6  373.57   15.28
   1  -2   7  244.34    8.88
  -1   2  -7  245.53    9.15
  -1   2  -7  255.80    8.91
  -1   2  -7  239.37    9.02
  -1   2  -7  255.60    8.92
   1  -2   7  218.64    8.91
   1  -2   7  256.41    8.88
  -1   2  -8   16.40    0.89
   1  -2   8   11.70    0.87
  -1   2  -8   12.44    1.38
  -1   2  -8   14.63    1.14
   1  -2   8   13.74    0.78
   1  -2   8   14.23    1.16
   1  -2   8   15.38    0.80
  -1   2  -8    9.58    0.83
  -1   2  -8   15.63    0.88
  -1   2  -9  307.91   10.63
   1  -2   9  297.86   10.57
   1  -2   9  314.63   10.58
  -1   2  -9  244.34   10.87
  -1   2  -9  310.28   10.78
   1  -2   9  303.94   10.75
   1  -2   9  256.41   10.63
  -1   2  -9  300.15   10.62
   1  -2   9  261.06   10.62
  -1   2 -10    2.03    0.81
  -1   2 -10    1.30    0.77
  -1   2 -10    0.17    1.45
   1  -2  10    0.71    1.03
  -1   2 -10    1.55    1.09
   1  -2  10    1.63    0.86
   1  -2  10    1.64    0.59
  -1   2 -10    1.49    0.76
   1  -2  10    4.19    0.80
   1  -2  10    1.23    0.69
  -1   2 -11   70.01    2.83
  -1   2 -11   60.76    2.51
   1  -2  11   54.18    2.59
   1  -2  11   58.86    2.43
  -1   2 -11   53.74    3.06
   1  -2  11   65.52    2.44
   1  -2  11   51.00    2.54
  -1   2 -11   62.35    2.55
   1  -2  11   60.85    2.71
  -1   2 -11   47.91    2.49
  -1   2 -12   51.40    2.47
   1  -2  12   50.10    2.55
   1  -2  12   58.04    2.40
   1  -2  12   55.97    2.72
   1  -2  12   60.09    2.39
  -1   2 -12   58.44    2.50
  -1   2 -12   57.62    2.54
   1  -2  13    2.66    1.20
  -1   2 -13    2.65    1.18
   1  -2  13    2.71    0.86
   1  -2  13    2.44    1.35
  -1   2 -13    2.61    1.02
  -1   2 -13    1.59    0.95
  -1   2 -14   -0.17    1.18
   1  -2  14    1.24    1.37
   1  -2  14   -2.11    1.19
   1  -2  15    4.52    1.56
   1  -2  15    5.09    1.32
  -1   2 -15    4.41    1.39
  -1   2 -16    0.93    1.39
  -1   1  16    3.12    1.53
  -1   1  15    0.74    1.46
  -1   1  15    0.38    1.06
  -1   1  15    3.54    1.30
   1  -1 -15    1.14    1.41
  -1   1  15   -1.93    1.36
  -1   1  14    0.16    1.20
  -1   1  14    1.04    0.97
  -1   1  14   -1.05    1.47
   1  -1 -14    1.32    1.34
  -1   1  14    3.30    1.26
  -1   1  13    5.06    0.97
  -1   1  13    2.98    1.24
   1  -1 -13    4.34    1.25
  -1   1  13    6.49    1.24
  -1   1  13    5.74    1.41
  -1   1  12    6.31    0.89
   1  -1 -12    4.90    1.11
  -1   1  12    5.88    1.19
   1  -1 -12    5.25    1.12
   1  -1 -12    6.11    1.04
  -1   1  12    6.36    1.27
   1  -1 -11    7.02    1.07
  -1   1  11    6.33    1.05
  -1   1  11    7.24    1.25
  -1   1  11    8.20    0.83
  -1   1  11    7.10    0.82
   1  -1 -11    7.59    0.98
   1  -1 -11    6.30    1.05
   1  -1 -11    8.81    1.14
   1  -1 -10   56.05    2.43
  -1   1  10   59.68    2.55
   1  -1 -10   54.81    2.42
  -1   1  10   52.24    2.28
   1  -1 -10   53.84    2.39
  -1   1  10   48.26    2.41
   1  -1 -10   57.52    2.36
  -1   1  10   55.75    2.30
   1  -1  -9   15.63    1.06
   1  -1  -9   15.17    1.09
  -1   1   9   17.81    1.25
   1  -1  -9   18.45    1.16
  -1   1   9   13.90    1.12
  -1   1   9   17.26    0.95
  -1   1   9   17.87    0.96
  -1   1   8   21.95    1.06
  -1   1   8   20.23    1.06
  -1   1   8   21.54    1.29
   1  -1  -8   22.86    1.14
   1  -1  -8   19.34    1.18
   1  -1  -8   21.78    1.45
   1  -1  -7   35.79    1.61
  -1   1   7   34.55    1.68
  -1   1   7   36.84    1.53
  -1   1   7   37.07    1.54
   1  -1  -7   38.68    1.59
  -1   1   6    2.03    0.59
  -1   1   6    2.61    0.44
  -1   1   6    3.02    0.45
   1  -1  -6    1.78    0.51
   1  -1  -6    1.69    0.52
   1  -1  -6    3.43    0.58
  -1   1   5  857.50   32.08
  -1   1   5  878.29   32.13
   1  -1  -5  842.39   32.10
   1  -1  -5  871.62   32.10
   1  -1  -5  830.21   32.09
  -1   1   5  860.94   32.08
  -1   1   4   43.24    1.91
  -1   1   4   49.80    1.90
   1  -1  -4   47.87    1.90
  -1   1   4   51.36    1.89
  -1   1   4   51.10    1.94
  -1   1   4   41.65    1.91
   1  -1  -4   48.20    1.92
   1  -1  -4   48.75    1.91
   1  -1  -3  215.87    8.28
  -1   1   3  222.42    8.28
   1  -1  -3  208.73    8.29
  -1   1   3  214.96    8.30
  -1   1   3  222.73    8.29
  -1   1   3  222.11    8.29
  -1   1   3  225.52    8.29
   1  -1  -3  221.39    8.29
   1  -1  -3  224.60    8.30
   1  -1  -2 1263.64   46.37
   1  -1  -2 1261.51   46.38
  -1   1   2 1196.62   46.38
  -1   1   2 1236.90   46.37
   1  -1  -2 1217.40   46.36
   1  -1  -2 1255.55   46.37
  -1   1   2 1252.08   46.36
  -1   1   2 1249.32   46.37
  -1   1   2 1232.56   46.37
   1  -1  -2 1223.35   46.37
  -1   1  -1  398.13   14.72
   1  -1   1  383.63   14.72
   1  -1   1  390.62   14.69
   1  -1   1  398.53   14.69
  -1   1  -1  402.58   14.74
   1  -1   1  377.49   14.74
   1  -1   1  391.45   14.71
   1  -1   2 1679.85   65.69
  -1   1  -2 1872.82   65.70
  -1   1  -2 1878.87   65.73
   1  -1   2 1887.69   65.68
   1  -1   2 1899.02   65.72
  -1   1  -3  363.89   13.89
   1  -1   3  387.92   13.96
  -1   1  -3  346.10   13.90
  -1   1  -3  370.04   13.92
   1  -1   3  382.97   13.89
   1  -1   3  367.57   13.89
  -1   1  -3  380.78   13.89
  -1   1  -4   44.11    1.75
   1  -1   4   39.65    1.76
   1  -1   4   45.79    1.75
   1  -1   4   46.98    1.75
  -1   1  -4   47.53    1.76
  -1   1  -4   45.57    1.78
  -1   1  -4   42.27    1.81
   1  -1   5 1059.15   39.52
  -1   1  -5 1092.27   39.58
  -1   1  -5 1113.01   39.53
   1  -1   5 1055.98   39.52
  -1   1  -5 1012.74   39.56
  -1   1  -5 1115.68   39.53
   1  -1   5  951.97   39.52
   1  -1   6    1.13    0.45
  -1   1  -6    0.47    0.38
  -1   1  -6    1.48    0.42
   1  -1   6    0.05    0.73
  -1   1  -6    2.00    0.56
  -1   1  -6    1.90    0.64
   1  -1   6    1.16    0.42
   1  -1   6    1.49    0.36
   1  -1   7   37.54    1.74
  -1   1  -7   34.17    1.81
   1  -1   7   44.42    1.73
   1  -1   7   45.95    1.73
  -1   1  -7   45.75    1.76
  -1   1  -7   42.44    1.91
  -1   1  -7   43.70    1.76
   1  -1   7   47.09    1.99
   1  -1   7   39.60    1.81
  -1   1  -7   30.00    2.07
  -1   1  -8    8.42    0.71
   1  -1   8    6.43    0.74
  -1   1  -8    5.49    1.21
  -1   1  -8    9.03    1.00
  -1   1  -8    6.29    0.83
  -1   1  -8    9.19    0.74
   1  -1   8    7.77    0.64
   1  -1   8    8.01    0.64
   1  -1   8    7.80    0.96
   1  -1   8    5.90    0.81
   1  -1   9   17.30    0.96
  -1   1  -9   19.19    1.03
  -1   1  -9   14.33    1.11
  -1   1  -9   14.61    1.63
   1  -1   9   14.22    1.05
  -1   1  -9   17.78    1.05
   1  -1   9   16.76    1.01
  -1   1  -9   19.09    1.30
   1  -1   9   19.40    1.29
   1  -1   9   16.26    1.13
  -1   1 -10   27.79    1.61
   1  -1  10   22.11    1.51
  -1   1 -10   26.92    1.32
  -1   1 -10   19.77    1.33
   1  -1  10   26.73    1.27
   1  -1  10   24.96    1.24
  -1   1 -10   17.56    1.82
  -1   1 -10   23.68    1.29
   1  -1  10   22.96    1.40
   1  -1  11   17.02    1.44
  -1   1 -11   14.87    1.84
  -1   1 -11   14.52    1.26
   1  -1  11   15.18    1.23
  -1   1 -11   16.81    1.16
   1  -1  11   17.24    1.10
  -1   1 -11   20.79    1.56
   1  -1  11   16.05    1.09
  -1   1 -11   15.91    1.13
  -1   1 -12    0.82    1.03
   1  -1  12    1.42    0.76
  -1   1 -12   -0.26    0.95
   1  -1  12    0.34    0.77
  -1   1 -12    0.03    0.99
   1  -1  12    0.69    1.06
   1  -1  12   -1.81    1.26
  -1   1 -13    5.18    1.16
   1  -1  13    3.88    1.13
   1  -1  13    3.71    1.43
   1  -1  13    3.41    0.85
  -1   1 -13    4.33    1.02
  -1   1 -13    4.39    1.15
   1  -1  14   -0.03    1.28
  -1   1 -14    0.24    1.12
   1  -1  14    2.21    1.48
   1  -1  14    0.60    0.93
   1  -1  15    2.58    1.47
   1  -1  15    2.17    1.33
  -1   1 -15    1.63    1.28
  -1   1 -16    5.05    1.54
  -1   0  16   -0.64    1.53
   1   0 -16   -0.36    1.41
   1   0 -15   -0.75    1.39
  -1   0  15   -0.11    1.26
  -1   0  15    0.45    1.01
  -1   0  15   -2.49    1.44
  -1   0  14    4.31    1.31
   1   0 -14    4.13    1.27
  -1   0  14    2.86    0.94
  -1   0  14    3.89    1.29
  -1   0  13    2.41    0.87
   1   0 -13   -0.14    1.14
  -1   0  13    0.88    1.32
  -1   0  13    4.52    1.17
   1   0 -13    2.83    1.21
  -1   0  12   -0.43    0.85
  -1   0  12    1.54    1.04
  -1   0  12    0.55    0.75
  -1   0  12   -0.29    1.23
   1   0 -12    0.70    1.05
   1   0 -12   -0.06    1.09
  -1   0  11    2.67    0.77
  -1   0  11    0.85    0.75
   1   0 -11    3.11    1.08
  -1   0  11    3.01    1.02
   1   0 -11    2.79    0.96
   1   0 -11    1.52    1.00
   1   0 -11    1.85    0.90
  -1   0  11    2.75    1.17
   1   0 -10   57.68    2.56
   1   0 -10   64.40    2.56
  -1   0  10   56.16    2.43
  -1   0  10   57.42    2.42
  -1   0  10   61.88    2.63
   1   0 -10   57.20    2.57
   1   0 -10   62.31    2.60
   1   0  -9  232.04    9.13
  -1   0   9  257.36    9.20
  -1   0   9  235.81    9.06
  -1   0   9  228.45    9.05
   1   0  -9  258.44    9.13
   1   0  -9  240.08    9.15
   1   0  -9  226.88    9.13
   1   0  -8    6.34    0.76
   1   0  -8    5.81    0.76
   1   0  -8    5.87    0.79
  -1   0   8    6.74    0.58
   1   0  -8    6.55    0.86
  -1   0   8    5.97    0.60
  -1   0   8    7.56    0.83
  -1   0   7  102.69    3.85
   1   0  -7  103.37    3.81
  -1   0   7   93.38    3.74
   1   0  -7   97.10    3.80
   1   0  -7   89.01    3.92
  -1   0   7   91.22    3.74
   1   0  -7  102.33    3.82
   1   0  -6 1390.83   48.97
   1   0  -6 1139.44   49.01
  -1   0   6 1432.69   49.01
   1   0  -6 1352.36   48.98
  -1   0   6 1288.27   48.93
  -1   0   6 1309.04   48.94
  -1   0   6 1232.34   48.98
   1   0  -5    3.63    0.55
  -1   0   5    3.32    0.50
  -1   0   5    3.57    0.40
  -1   0   5    4.27    0.41
   1   0  -5    2.99    0.52
   1   0  -4  139.76    5.58
  -1   0   4  145.52    5.57
  -1   0   4  144.87    5.56
   1   0  -4  154.87    5.60
   1   0  -4  150.56    5.60
  -1   0   4  155.57    5.60
  -1   0   4  140.47    5.60
   1   0  -3 1510.95   56.59
   1   0  -3 1506.23   56.59
  -1   0   3 1470.18   56.57
  -1   0   3 1513.45   56.59
  -1   0   3 1543.93   56.58
   1   0  -3 1567.91   56.59
  -1   0   3 1486.35   56.58
  -1   0   2  438.98   16.29
  -1   0   2  427.43   16.29
  -1   0   2  428.38   16.28
   1   0  -2  457.73   16.29
   1   0  -2  413.85   16.29
   1   0  -2  442.40   16.29
  -1   0  -1  249.65    9.40
   1   0   1  260.77    9.42
  -1   0  -1  231.24    9.41
  -1   0  -1  237.88    9.41
  -1   0  -1  258.93    9.44
   1   0   1  258.99    9.41
   1   0   1  259.78    9.41
  -1   0  -1  250.45    9.42
   1   0   1  262.90    9.44
   1   0   2   69.46    2.70
  -1   0  -2   74.13    2.79
   1   0   2   75.56    2.72
  -1   0  -2   68.27    2.71
  -1   0  -3   46.67    1.84
   1   0   3   45.63    1.65
  -1   0  -3   44.26    1.67
   1   0   3   43.77    1.65
  -1   0  -4   54.96    2.25
   1   0   4   61.77    2.20
   1   0   4   52.47    2.17
   1   0   4   50.11    2.21
   1   0   4   60.56    2.20
  -1   0  -4   59.16    2.24
  -1   0  -5   55.92    2.12
  -1   0  -5   56.21    2.19
  -1   0  -5   53.45    2.12
   1   0   5   52.90    2.16
   1   0   5   56.92    2.12
  -1   0  -5   47.92    2.19
   1   0   5   57.23    2.12
   1   0   5   45.74    2.09
   1   0   5   62.36    2.33
   1   0   6    3.41    0.49
  -1   0  -6    3.44    0.44
  -1   0  -6    3.68    0.49
   1   0   6    3.62    0.48
   1   0   6    2.43    0.63
   1   0   6    3.45    0.75
   1   0   6    2.48    0.46
  -1   0  -6    3.27    0.66
  -1   0  -6    2.51    0.66
   1   0   7    2.43    0.57
   1   0   7    2.19    0.80
  -1   0  -7    3.01    0.53
   1   0   7    2.60    0.52
  -1   0  -7    2.55    0.72
  -1   0  -7    2.55    0.58
  -1   0  -7    2.18    0.77
   1   0   7    2.84    0.54
   1   0   7    2.64    0.70
   1   0   8   87.87    3.35
   1   0   8   76.81    3.38
  -1   0  -8   91.63    3.46
  -1   0  -8   84.74    3.36
   1   0   8   86.57    3.34
  -1   0  -8   90.17    3.36
   1   0   8   91.62    3.53
  -1   0  -9    2.98    0.95
   1   0   9    4.22    0.71
  -1   0  -9    5.21    1.37
   1   0   9    3.49    0.68
   1   0   9    4.96    0.89
   1   0   9    3.45    0.93
  -1   0  -9    4.93    0.96
  -1   0  -9    4.62    0.73
  -1   0  -9    3.98    0.71
  -1   0 -10   92.61    3.57
   1   0  10   91.44    3.71
   1   0  10   89.10    3.53
   1   0  10   84.22    3.61
  -1   0 -10   91.29    3.57
   1   0  10   88.43    3.53
  -1   0 -10  103.25    3.71
  -1   0 -10   74.44    3.62
  -1   0 -10   72.88    3.86
  -1   0 -11    5.06    0.96
   1   0  11    5.18    1.04
   1   0  11    3.98    0.85
   1   0  11    3.85    0.87
  -1   0 -11    6.15    1.22
   1   0  11    5.33    1.23
  -1   0 -11    4.30    1.13
  -1   0 -11    5.17    0.94
   1   0  12   17.06    1.14
   1   0  12   16.49    1.33
   1   0  12   13.92    1.55
  -1   0 -12   16.38    1.29
  -1   0 -12   15.90    1.23
  -1   0 -12   13.57    1.30
   1   0  13   17.16    1.24
   1   0  13   12.55    1.32
  -1   0 -13   15.29    1.33
   1   0  13   15.01    1.59
   1   0  14    6.07    1.06
   1   0  14    6.16    1.52
   1   0  14    5.63    1.17
  -1   0 -15    3.63    1.41
   1   0  15   -0.05    1.64
   1   0  15    0.51    1.05
   1   0  15    1.57    1.31
  -1  -1  16    1.29    1.02
  -1  -1  16    2.99    1.41
   1   1 -16    4.92    1.59
  -1  -1  15    0.76    0.94
  -1  -1  15   -1.85    1.21
   1   1 -15    0.25    1.40
  -1  -1  15   -0.69    1.45
  -1  -1  14    7.04    0.97
  -1  -1  14    6.57    1.34
   1   1 -14    5.59    1.35
  -1  -1  14    5.66    1.21
  -1  -1  13    6.45    1.19
  -1  -1  13    8.50    0.87
  -1  -1  13    9.70    1.32
   1   1 -13    6.59    1.24
   1   1 -13    7.81    1.19
   1   1 -12   -0.10    1.31
  -1  -1  12    2.30    0.78
  -1  -1  12    1.29    0.75
   1   1 -12    1.92    1.05
  -1  -1  12    0.41    1.11
   1   1 -12    1.98    1.09
  -1  -1  11  207.98    7.94
  -1  -1  11  190.50    7.77
   1   1 -11  224.70    7.96
  -1  -1  11  201.58    7.78
   1   1 -11  207.20    7.91
   1   1 -11  203.53    7.91
  -1  -1  10   10.69    0.79
  -1  -1  10    9.10    0.77
   1   1 -10    9.87    0.96
  -1  -1  10   10.09    1.03
   1   1 -10   11.16    1.11
   1   1 -10    9.04    0.94
   1   1  -9    2.54    0.90
  -1  -1   9    0.62    0.83
   1   1  -9    1.24    0.77
  -1  -1   9    2.41    0.56
   1   1  -9    0.50    0.75
   1   1  -9    1.06    0.90
  -1  -1   9    0.29    0.85
  -1  -1   9    2.13    0.55
  -1  -1   8   18.46    1.20
   1   1  -8   22.81    1.20
   1   1  -8   21.55    1.21
   1   1  -8   23.45    1.27
  -1  -1   8   25.69    1.28
  -1  -1   8   22.30    1.06
   1   1  -8   24.55    1.31
  -1  -1   8   21.58    1.05
   1   1  -7   26.04    1.24
  -1  -1   7   29.87    1.29
  -1  -1   7   22.17    1.26
  -1  -1   7   24.66    1.13
   1   1  -7   29.21    1.33
   1   1  -7   27.33    1.35
   1   1  -7   25.32    1.23
  -1  -1   7   25.48    1.15
  -1  -1   6  193.90    7.50
   1   1  -6  190.29    7.54
  -1  -1   6  214.11    7.57
   1   1  -6  195.52    7.54
  -1  -1   6  193.22    7.56
  -1  -1   6  193.31    7.50
   1   1  -6  201.34    7.59
   1   1  -6  212.78    7.57
   1   1  -5  402.33   15.88
  -1  -1   5  417.53   15.86
  -1  -1   5  399.44   15.90
   1   1  -5  459.45   15.92
   1   1  -5  432.73   15.93
  -1  -1   5  418.70   15.86
  -1  -1   5  440.03   15.90
   1   1  -4    1.60    0.51
  -1  -1   4    1.75    0.32
   1   1  -4    2.67    0.54
   1   1  -4    1.83    0.53
  -1  -1   4    1.27    0.32
  -1  -1   4    1.85    0.36
  -1  -1   4    2.02    0.48
   1   1  -3   34.53    1.65
  -1  -1   3   37.23    1.68
  -1  -1   3   44.31    1.68
  -1  -1   3   41.22    1.63
  -1  -1   3   46.70    1.62
   1   1  -3   44.32    1.70
  -1  -1   3   42.43    1.63
   1   1  -2  425.71   17.53
  -1  -1   2  460.88   17.54
  -1  -1   2  494.05   17.53
  -1  -1   2  478.36   17.53
  -1  -1   2  446.09   17.55
  -1  -1   2  481.31   17.53
   1   1  -2  484.88   17.56
   1   1  -1  733.17   27.72
  -1  -1   1  727.44   27.71
  -1  -1   1  729.07   27.72
  -1  -1   1  768.73   27.70
   1   1  -1  732.34   27.72
  -1  -1   0  167.89    6.34
  -1  -1   0  170.68    6.34
   1   1   0  167.93    6.34
  -1  -1   0  174.11    6.34
  -1  -1   0  169.12    6.34
   1   1   0  168.57    6.34
   1   1   0  160.59    6.34
   1   1   1  233.87    8.37
  -1  -1  -1  218.94    8.36
   1   1   1  224.71    8.36
  -1  -1  -1  223.47    8.37
  -1  -1  -1  212.16    8.37
  -1  -1  -2   80.60    2.81
  -1  -1  -2   74.27    2.79
  -1  -1  -2   73.50    2.77
  -1  -1  -2   71.60    2.76
  -1  -1  -2   73.52    2.77
   1   1   2   70.27    2.88
   1   1   2   66.47    2.76
   1   1   3  601.07   22.46
  -1  -1  -3  561.30   22.49
  -1  -1  -3  602.65   22.45
  -1  -1  -3  551.87   22.47
  -1  -1  -3  556.73   22.45
   1   1   3  631.60   22.47
  -1  -1  -3  629.18   22.46
   1   1   4  109.45    4.22
  -1  -1  -4  112.84    4.23
   1   1   4  110.61    4.22
   1   1   4  100.64    4.22
   1   1   5  415.31   14.45
  -1  -1  -5  388.54   14.33
   1   1   5  370.44   14.32
   1   1   5  381.81   14.32
   1   1   5  362.95   14.33
   1   1   6  235.92    8.82
  -1  -1  -6  262.24    8.85
   1   1   6  258.84    8.96
  -1  -1  -6  224.38    8.80
   1   1   6  238.24    8.82
   1   1   6  232.76    8.84
  -1  -1  -7   89.64    3.57
   1   1   7  103.36    3.78
   1   1   7   91.62    3.58
   1   1   7   90.67    3.58
  -1  -1  -7   88.41    3.57
  -1  -1  -7  103.91    3.64
  -1  -1  -7   74.19    3.65
   1   1   7   91.85    3.62
   1   1   8  140.30    5.41
  -1  -1  -8  138.20    5.41
   1   1   8  140.08    5.42
   1   1   8  139.43    5.46
  -1  -1  -8  152.47    5.49
  -1  -1  -8  140.99    5.41
   1   1   8  159.64    5.59
   1   1   9    7.36    1.13
   1   1   9   10.79    0.83
   1   1   9    8.92    0.87
   1   1   9    8.24    1.00
  -1  -1  -9    7.01    1.02
  -1  -1  -9    9.11    0.89
  -1  -1  -9    9.72    0.84
  -1  -1 -10    3.25    1.06
   1   1  10    0.53    0.78
   1   1  10    0.31    0.89
  -1  -1 -10    0.22    0.88
  -1  -1 -10    1.68    0.99
   1   1  10    0.99    0.76
   1   1  10    3.29    1.11
  -1  -1 -10    0.40    0.84
  -1  -1 -11    8.65    1.19
   1   1  11    9.59    1.12
  -1  -1 -11   10.50    1.06
   1   1  11    9.79    1.43
  -1  -1 -11    9.75    1.08
   1   1  11    9.16    1.00
   1   1  11    7.65    0.99
  -1  -1 -11   12.06    1.23
   1   1  12    2.80    0.98
  -1  -1 -12    1.04    1.04
   1   1  12    4.20    1.44
   1   1  12    3.00    1.06
   1   1  13   -1.23    1.07
  -1  -1 -13    0.69    1.07
   1   1  13    0.17    1.01
   1   1  13   -2.25    1.41
   1   1  14    4.95    1.28
  -1  -1 -14    3.29    1.25
   1   1  14    3.03    1.11
   1   1  14    2.70    1.46
   1   1  15   -0.07    1.26
  -1  -1 -15    1.84    1.41
   1   1  15    0.58    1.35
  -1  -2  16    3.26    1.42
   1   2 -16    2.77    1.54
  -1  -2  15    5.30    1.33
  -1  -2  15    5.89    0.95
   1   2 -15    5.22    1.55
  -1  -2  15    4.60    1.33
  -1  -2  14    9.94    0.99
  -1  -2  14    9.59    1.28
   1   2 -14    9.32    1.38
   1   2 -14    9.90    1.41
   1   2 -13    0.80    1.46
   1   2 -13    4.49    1.34
   1   2 -13    2.75    1.22
  -1  -2  13    1.24    0.82
  -1  -2  13    0.51    1.23
   1   2 -12    1.87    1.43
  -1  -2  12    0.56    0.74
  -1  -2  12    0.66    1.13
  -1  -2  12    0.93    0.76
   1   2 -12    1.03    1.08
   1   2 -12    0.26    1.05
  -1  -2  11   57.18    2.30
   1   2 -11   60.53    2.59
   1   2 -11   55.18    2.46
   1   2 -11   55.57    2.49
  -1  -2  11   62.07    2.53
  -1  -2  11   54.72    2.29
   1   2 -11   47.17    2.62
  -1  -2  11   47.26    2.43
   1   2 -10   69.95    2.79
   1   2 -10   61.02    2.68
  -1  -2  10   64.33    2.52
  -1  -2  10   70.75    2.70
  -1  -2  10   59.44    2.51
   1   2 -10   60.91    2.66
  -1  -2  10   53.64    2.64
   1   2 -10   59.02    2.85
  -1  -2   9  217.46    8.57
   1   2  -9  225.92    8.67
  -1  -2   9  232.06    8.58
  -1  -2   9  206.98    8.65
   1   2  -9  201.27    8.78
   1   2  -9  249.85    8.76
  -1  -2   9  251.30    8.70
   1   2  -9  227.48    8.67
   1   2  -8    1.49    0.84
   1   2  -8    1.07    1.01
  -1  -2   8    1.55    0.48
   1   2  -8    2.39    0.72
  -1  -2   8    2.32    0.71
  -1  -2   8    1.75    0.75
   1   2  -8    2.07    0.64
  -1  -2   8    1.10    0.49
  -1  -2   7  168.28    6.42
  -1  -2   7  189.07    6.49
   1   2  -7  168.36    6.47
   1   2  -7  196.89    6.56
   1   2  -7  162.91    6.55
   1   2  -7  137.93    6.53
  -1  -2   7  158.80    6.48
  -1  -2   7  168.90    6.42
   1   2  -7  169.19    6.47
  -1  -2   6  270.91   10.18
   1   2  -6  274.12   10.22
   1   2  -6  246.15   10.27
  -1  -2   6  304.54   10.24
  -1  -2   6  277.28   10.19
   1   2  -6  300.08   10.31
  -1  -2   6  266.98   10.24
  -1  -2   6  221.18   10.23
   1   2  -6  271.36   10.23
  -1  -2   5  381.58   16.21
  -1  -2   5  424.35   16.16
   1   2  -5  429.56   16.18
   1   2  -5  434.43   16.16
  -1  -2   5  415.91   16.20
  -1  -2   5  477.41   16.19
   1   2  -5  421.32   16.18
   1   2  -5  461.33   16.25
   1   2  -5  435.86   16.22
  -1  -2   5  425.77   16.16
  -1  -2   4  391.00   14.98
   1   2  -4  398.72   14.99
   1   2  -4  406.44   14.98
   1   2  -4  420.45   15.00
  -1  -2   4  388.57   14.98
  -1  -2   4  416.44   14.98
  -1  -2   4  376.79   15.03
  -1  -2   4  398.00   15.01
   1   2  -4  395.63   15.04
   1   2  -4  388.73   15.00
   1   2  -3   42.70    1.71
  -1  -2   3   46.09    1.72
  -1  -2   3   44.58    1.68
  -1  -2   3   44.56    1.67
  -1  -2   3   42.71    1.70
  -1  -2   3   44.86    1.70
  -1  -2   3   42.18    1.76
   1   2  -3   40.51    1.69
   1   2  -3   38.01    1.78
  -1  -2   2 1023.62   38.03
  -1  -2   2 1063.31   38.04
  -1  -2   2 1061.49   38.04
  -1  -2   2  982.98   38.06
   1   2  -2  932.05   38.03
  -1  -2   2 1042.62   38.04
  -1  -2   1 3394.65  127.92
  -1  -2   1 3332.50  127.93
  -1  -2   1 3353.99  127.93
  -1  -2   1 3415.82  127.91
   1   2  -1 3427.39  127.90
  -1  -2   1 3558.32  127.90
  -1  -2   1 3365.74  127.93
  -1  -2   0 1091.30   40.63
  -1  -2   0 1094.74   40.65
  -1  -2   0 1092.07   40.67
  -1  -2   0 1096.62   40.63
  -1  -2   0 1094.41   40.67
   1   2   0 1038.29   40.66
  -1  -2   0 1069.70   40.68
  -1  -2   0 1079.80   40.67
  -1  -2  -1 9999.00  349.26
   1   2   1 8119.33  349.31
  -1  -2  -1 8904.84  349.30
  -1  -2  -1 8944.52  349.29
  -1  -2  -1 8869.47  349.30
  -1  -2  -1 9945.69  349.26
   1   2   1 9122.75  349.30
  -1  -2  -1 8623.12  349.30
  -1  -2  -1 8247.07  349.34
  -1  -2  -2   75.05    2.89
  -1  -2  -2   76.05    2.93
   1   2   2   76.32    2.89
   1   2   2   77.30    2.89
  -1  -2  -2   76.75    2.94
  -1  -2  -2   82.03    2.98
  -1  -2  -2   73.76    2.95
  -1  -2  -2   72.61    2.93
  -1  -2  -2   77.88    3.08
  -1  -2  -3  432.17   16.05
  -1  -2  -3  431.77   16.05
   1   2   3  415.19   16.06
   1   2   3  440.90   16.03
  -1  -2  -3  418.87   16.07
  -1  -2  -3  442.98   16.11
  -1  -2  -3  405.80   16.03
   1   2   3  434.00   16.03
  -1  -2  -4   97.11    3.97
  -1  -2  -4  102.94    3.89
  -1  -2  -4  107.53    3.89
   1   2   4  101.60    3.88
   1   2   4  103.08    3.91
  -1  -2  -4  100.33    3.89
  -1  -2  -4   92.14    3.91
  -1  -2  -5    2.24    0.52
  -1  -2  -5    1.48    0.45
   1   2   5    0.89    0.77
   1   2   5    1.58    0.48
   1   2   5    0.95    0.50
  -1  -2  -6    2.23    0.64
   1   2   6    2.59    0.93
   1   2   6    2.07    0.57
   1   2   6    2.24    0.57
   1   2   7    5.73    1.01
   1   2   7    3.69    0.70
   1   2   7    4.02    0.65
  -1  -2  -7    4.06    0.78
   1   2   7    4.48    0.64
  -1  -2  -7    3.62    0.83
   1   2   8    6.32    0.80
  -1  -2  -8    7.71    0.79
  -1  -2  -8    5.93    1.01
   1   2   8    6.77    0.76
  -1  -2  -8    7.87    0.85
   1   2   8    7.08    1.12
   1   2   8    5.91    0.75
   1   2   9    0.88    0.81
  -1  -2  -9    2.96    0.98
   1   2   9    0.66    0.74
  -1  -2  -9    0.74    0.80
   1   2   9   -0.02    0.81
  -1  -2  -9    0.02    0.73
   1   2   9    2.50    1.14
  -1  -2  -9    0.11    0.78
   1   2  10   27.47    1.56
  -1  -2 -10   24.64    1.48
   1   2  10   31.96    1.84
  -1  -2 -10   33.46    1.55
  -1  -2 -10   26.56    1.69
  -1  -2 -10   26.36    1.48
   1   2  10   26.88    1.49
  -1  -2 -11   29.77    1.69
   1   2  11   32.32    1.72
  -1  -2 -11   36.01    1.78
   1   2  11   30.23    1.73
  -1  -2 -11   34.22    1.74
   1   2  11   30.80    2.00
   1   2  12   54.06    2.53
   1   2  12   50.92    2.49
  -1  -2 -12   59.73    2.54
   1   2  12   55.48    2.80
   1   2  12   52.83    2.53
   1   2  13   -2.14    1.45
   1   2  13   -0.22    1.13
   1   2  13    0.20    1.23
  -1  -2 -13   -0.78    1.20
   1   2  13   -1.18    1.19
   1   2  14    0.76    1.22
   1   2  14    0.35    1.18
   1   2  14    0.94    1.53
   1   2  14   -0.78    1.24
  -1  -2 -14    1.26    1.26
   1   2  15    2.57    1.26
   1   2  15    3.01    1.38
   1   3 -17   -1.69    1.77
   1   3 -16   -0.78    1.49
   1   3 -15   -1.19    1.50
  -1  -3  15   -0.07    1.15
  -1  -3  14    2.58    0.88
  -1  -3  14    1.08    1.20
   1   3 -14    3.08    1.26
   1   3 -14    0.21    1.35
  -1  -3  14    1.93    1.24
  -1  -3  13   16.34    1.13
  -1  -3  13   20.68    1.48
   1   3 -13   18.85    1.64
  -1  -3  13   19.09    1.08
   1   3 -13   18.21    1.85
   1   3 -13   17.95    1.40
  -1  -3  13   16.87    1.39
   1   3 -12    3.88    1.12
  -1  -3  12    1.38    0.97
   1   3 -12    4.56    1.09
  -1  -3  12    2.96    1.08
  -1  -3  12    3.49    0.72
  -1  -3  12    2.85    0.75
   1   3 -12    2.61    1.45
   1   3 -11   49.51    2.64
   1   3 -11   49.86    2.38
   1   3 -11   51.93    2.39
  -1  -3  11   46.83    2.35
  -1  -3  11   53.95    2.20
  -1  -3  11   55.82    2.40
  -1  -3  11   52.57    2.18
   1   3 -10   29.81    1.60
  -1  -3  10   31.00    1.39
  -1  -3  10   25.02    1.59
  -1  -3  10   28.77    1.55
   1   3 -10   28.53    1.52
   1   3 -10   36.05    1.81
  -1  -3  10   35.66    1.58
   1   3 -10   24.80    1.83
  -1  -3  10   31.38    1.37
   1   3  -9  154.97    6.85
   1   3  -9  173.70    6.73
   1   3  -9  170.05    6.73
  -1  -3   9  177.05    6.64
  -1  -3   9  172.18    6.64
  -1  -3   9  167.23    6.74
  -1  -3   8    2.60    0.53
   1   3  -8    2.24    0.50
   1   3  -8    1.54    0.65
  -1  -3   8    1.41    0.50
  -1  -3   8    1.81    0.75
   1   3  -8    2.49    0.92
   1   3  -8    2.37    0.63
  -1  -3   8    1.92    0.66
  -1  -3   7   21.23    0.97
   1   3  -7   21.59    1.21
   1   3  -7   20.62    0.95
   1   3  -7   19.21    1.05
   1   3  -7   21.59    1.05
  -1  -3   7   20.50    1.05
  -1  -3   7   19.08    1.08
  -1  -3   7   21.02    0.96
  -1  -3   7   21.41    1.16
  -1  -3   6  506.79   19.17
  -1  -3   6  478.81   19.21
   1   3  -6  548.82   19.22
   1   3  -6  521.44   19.20
  -1  -3   6  517.19   19.17
   1   3  -6  498.56   19.16
  -1  -3   6  449.76   19.23
  -1  -3   6  558.30   19.20
   1   3  -6  507.34   19.20
   1   3  -5   14.60    0.70
  -1  -3   5   13.77    0.68
   1   3  -5   14.53    0.72
  -1  -3   5   13.86    0.82
  -1  -3   5   14.19    0.78
  -1  -3   5   15.15    0.71
   1   3  -5   13.47    0.65
   1   3  -5   13.90    0.72
  -1  -3   5   14.20    0.69
  -1  -3   4  103.66    3.88
   1   3  -4  103.75    3.89
  -1  -3   4   99.97    3.88
   1   3  -4  100.75    3.85
  -1  -3   4  100.62    3.90
  -1  -3   4  107.20    3.95
   1   3  -4   99.48    3.93
   1   3  -4   98.30    3.86
   1   3  -4  104.38    3.90
   1   3  -3  224.06    8.35
  -1  -3   3  223.55    8.38
   1   3  -3  227.88    8.35
   1   3  -3  215.30    8.32
   1   3  -3  217.61    8.36
  -1  -3   3  216.95    8.34
  -1  -3   3  223.76    8.32
  -1  -3   3  225.21    8.35
  -1  -3   3  218.61    8.35
  -1  -3   2   47.14    1.87
  -1  -3   2   47.82    1.81
   1   3  -2   47.93    1.87
  -1  -3   2   45.09    1.86
  -1  -3   2   50.77    1.90
  -1  -3   2   48.41    1.87
   1   3  -2   48.45    1.85
  -1  -3   2   47.78    1.81
   1   3  -2   47.72    1.87
  -1  -3   2   45.66    1.86
   1   3  -2   48.51    1.87
  -1  -3   1  206.39    7.22
   1   3  -1  184.48    7.23
  -1  -3   1  182.06    7.21
  -1  -3   1  188.69    7.24
   1   3  -1  182.41    7.22
   1   3  -1  197.40    7.21
   1   3  -1  199.42    7.24
  -1  -3   1  184.48    7.23
  -1  -3   1  190.07    7.24
  -1  -3   1  201.18    7.25
  -1  -3   0  172.85    6.45
  -1  -3   0  164.33    6.45
  -1  -3   0  173.87    6.49
  -1  -3   0  179.69    6.47
   1   3   0  169.53    6.48
  -1  -3   0  173.27    6.49
  -1  -3   0  172.67    6.49
  -1  -3   0  169.72    6.49
   1   3   1  147.66    5.41
  -1  -3  -1  141.80    5.40
  -1  -3  -1  147.22    5.41
  -1  -3  -1  139.60    5.49
  -1  -3  -1  143.30    5.46
  -1  -3  -1  143.30    5.46
   1   3   1  134.52    5.47
  -1  -3  -1  143.02    5.45
  -1  -3  -1  142.83    5.47
  -1  -3  -2    1.38    0.33
  -1  -3  -2    1.72    0.46
  -1  -3  -2    1.92    0.36
   1   3   2    1.70    0.24
  -1  -3  -2    1.16    0.36
  -1  -3  -2    1.63    0.22
  -1  -3  -2    1.58    0.55
  -1  -3  -2    2.64    0.34
   1   3   2    1.17    0.46
  -1  -3  -3   11.69    0.67
   1   3   3   12.57    0.57
  -1  -3  -3   11.60    0.62
  -1  -3  -3   10.70    0.62
  -1  -3  -3   11.77    0.94
  -1  -3  -3   11.51    0.56
   1   3   3   10.08    0.80
  -1  -3  -3   11.86    0.75
  -1  -3  -4    1.29    0.61
  -1  -3  -4    1.06    0.40
   1   3   4    1.28    0.36
  -1  -3  -4    0.54    0.87
   1   3   4    1.33    0.37
  -1  -3  -4    1.01    0.44
  -1  -3  -4    1.63    0.50
  -1  -3  -4    1.10    0.18
   1   3   4    1.51    0.48
  -1  -3  -4    2.01    0.41
  -1  -3  -5   97.05    4.23
   1   3   5  109.14    4.12
  -1  -3  -5  110.53    4.14
   1   3   5  112.99    4.18
   1   3   5  108.85    4.12
  -1  -3  -5  108.33    4.11
  -1  -3  -5  109.85    4.14
  -1  -3  -5   93.35    4.15
  -1  -3  -6   62.73    2.55
   1   3   6   64.64    2.55
  -1  -3  -6   51.91    2.65
  -1  -3  -6   55.04    2.55
  -1  -3  -6   65.64    2.55
   1   3   6   63.76    2.59
   1   3   6   66.89    2.56
  -1  -3  -6   69.71    2.55
   1   3   7    9.15    0.81
   1   3   7    6.91    0.78
  -1  -3  -7    5.63    0.73
   1   3   7    6.21    0.78
  -1  -3  -7    8.38    0.77
  -1  -3  -8  114.48    5.38
   1   3   8  142.14    5.32
   1   3   8  124.52    5.28
   1   3   8  134.01    5.30
   1   3   8  150.77    5.54
  -1  -3  -8  148.69    5.27
  -1  -3  -9   15.87    1.16
  -1  -3  -9   19.01    1.40
   1   3   9   18.31    1.20
   1   3   9   16.44    1.19
   1   3   9   19.01    1.24
  -1  -3  -9   21.46    1.19
   1   3   9   20.61    1.63
  -1  -3 -10   12.66    1.13
   1   3  10   12.98    1.21
   1   3  10   12.71    1.24
   1   3  10   12.71    1.56
   1   3  10   13.33    1.14
  -1  -3 -10   13.49    1.15
   1   3  11    7.67    1.20
   1   3  11    6.68    1.16
   1   3  11    8.56    1.15
  -1  -3 -11    7.26    1.09
   1   3  11    6.63    1.55
  -1  -3 -11    8.07    1.09
  -1  -3 -12    4.26    1.12
   1   3  12    4.35    1.21
   1   3  12    4.95    1.54
   1   3  12    4.79    1.19
   1   3  12    3.59    1.20
  -1  -3 -13   10.83    1.37
   1   3  13   11.16    1.40
   1   3  13   11.25    1.31
   1   3  13   11.84    1.35
   1   3  13   11.20    1.60
   1   3  14    0.52    1.29
  -1  -3 -14    0.27    1.29
   1   3  14    0.08    1.25
   1   3  15   -1.67    1.36
   1   3  15    1.30    1.36
   1   4 -16    0.47    1.63
   1   4 -15    7.33    1.61
  -1  -4  15    5.40    1.33
   1   4 -14    2.30    1.41
   1   4 -14    2.59    1.38
  -1  -4  14    1.06    1.20
  -1  -4  13    5.09    0.80
   1   4 -13    2.90    1.48
   1   4 -13    4.79    1.33
  -1  -4  13    5.29    1.13
   1   4 -13    4.77    1.25
   1   4 -13    5.22    1.04
  -1  -4  13    4.16    1.09
  -1  -4  12    0.11    0.70
  -1  -4  12   -0.09    0.71
   1   4 -12   -0.02    0.85
   1   4 -12    1.29    1.32
   1   4 -12    1.31    1.18
   1   4 -12   -0.69    1.05
  -1  -4  12    0.03    1.05
  -1  -4  12    1.34    1.05
  -1  -4  11    7.39    1.15
  -1  -4  11   11.39    1.08
  -1  -4  11    9.70    0.78
   1   4 -11    9.46    1.12
   1   4 -11    8.28    1.30
  -1  -4  11    9.41    0.78
   1   4 -11    7.26    0.84
   1   4 -11    8.48    1.05
  -1  -4  11    8.15    1.05
  -1  -4  10   16.05    1.24
   1   4 -10   15.45    1.36
   1   4 -10   19.78    1.24
   1   4 -10   18.32    1.19
   1   4 -10   16.71    1.03
  -1  -4  10   19.45    1.00
  -1  -4  10   19.29    0.98
  -1  -4  10   19.37    1.17
  -1  -4   9  147.67    5.45
   1   4  -9  141.69    5.54
   1   4  -9  137.26    5.45
   1   4  -9  145.16    5.61
  -1  -4   9  145.28    5.45
   1   4  -9  148.23    5.54
  -1  -4   9  148.81    5.53
  -1  -4   8  133.89    4.90
   1   4  -8  128.14    4.98
   1   4  -8  121.35    5.12
   1   4  -8  134.30    5.01
   1   4  -8  125.69    4.89
  -1  -4   8  129.60    4.90
  -1  -4   8  120.95    5.02
   1   4  -8  126.28    4.96
  -1  -4   8  135.91    4.96
  -1  -4   8  114.14    4.98
  -1  -4   7  107.37    3.98
  -1  -4   7  112.14    4.02
   1   4  -7  103.55    4.02
  -1  -4   7   96.14    4.05
  -1  -4   7  106.20    3.99
   1   4  -7  103.92    4.16
   1   4  -7  102.14    4.03
  -1  -4   7   96.16    4.09
   1   4  -7  106.70    4.05
   1   4  -7   98.50    3.95
  -1  -4   6    4.19    0.71
  -1  -4   6    5.36    0.53
   1   4  -6    5.42    0.54
  -1  -4   6    4.29    0.44
   1   4  -6    3.79    0.38
   1   4  -6    5.15    0.79
   1   4  -6    5.01    0.47
   1   4  -6    5.20    0.53
  -1  -4   6    4.77    0.49
  -1  -4   6    4.55    0.62
   1   4  -5  125.28    5.17
  -1  -4   5  133.52    5.24
   1   4  -5  138.99    5.22
  -1  -4   5  143.89    5.21
  -1  -4   5  139.01    5.20
   1   4  -5  143.96    5.23
   1   4  -5  139.31    5.29
  -1  -4   5  132.06    5.28
   1   4  -5  137.98    5.17
  -1  -4   4  325.65   12.79
  -1  -4   4  339.41   12.83
   1   4  -4  341.37   12.87
  -1  -4   4  345.51   12.83
   1   4  -4  339.52   12.79
   1   4  -4  347.67   12.84
  -1  -4   4  340.29   12.85
  -1  -4   4  338.17   12.88
   1   4  -4  342.39   12.83
   1   4  -4  352.67   12.80
   1   4  -3   69.11    2.43
  -1  -4   3   62.49    2.50
   1   4  -3   66.95    2.46
  -1  -4   3   62.43    2.45
   1   4  -3   66.02    2.46
  -1  -4   3   63.12    2.46
  -1  -4   3   61.80    2.39
  -1  -4   3   58.89    2.42
  -1  -4   3   63.16    2.45
  -1  -4   3   60.46    2.39
   1   4  -3   64.14    2.48
  -1  -4   2  118.95    4.70
  -1  -4   2  119.61    4.69
  -1  -4   2  120.42    4.65
   1   4  -2  132.07    4.70
   1   4  -2  124.95    4.70
   1   4  -2  125.36    4.70
  -1  -4   2  121.29    4.68
  -1  -4   2  121.58    4.69
  -1  -4   2  122.78    4.65
   1   4  -2  126.22    4.70
  -1  -4   2  127.64    4.73
   1   4  -1  482.11   17.69
  -1  -4   1  458.00   17.64
   1   4  -1  472.47   17.67
   1   4  -1  477.76   17.67
  -1  -4   1  453.80   17.67
  -1  -4   1  454.91   17.65
  -1  -4   1  491.78   17.65
  -1  -4   1  495.40   17.68
  -1  -4   1  458.15   17.67
  -1  -4   1  471.74   17.66
  -1  -4   0  132.66    5.10
  -1  -4   0  132.62    5.10
  -1  -4   0  144.74    5.11
  -1  -4   0  129.64    5.06
   1   4   0  137.95    5.10
  -1  -4   0  134.07    5.06
  -1  -4   0  129.95    5.08
   1   4   0  132.65    5.08
  -1  -4   0  132.80    5.10
  -1  -4  -1  891.13   32.82
  -1  -4  -1  894.53   32.84
   1   4   1  888.49   32.84
  -1  -4  -1  868.45   32.79
  -1  -4  -1  889.77   32.83
  -1  -4  -1  876.86   32.85
  -1  -4  -1  879.82   32.84
  -1  -4  -1  847.30   32.78
  -1  -4  -2    8.20    0.45
  -1  -4  -2    8.52    0.68
  -1  -4  -2    8.33    0.60
   1   4   2    9.14    0.47
  -1  -4  -2    8.13    0.56
  -1  -4  -2    9.45    0.58
   1   4   2    8.02    0.63
  -1  -4  -2    8.23    0.60
  -1  -4  -2    7.78    0.77
  -1  -4  -2    8.25    0.45
  -1  -4  -3 1538.93   56.92
   1   4   3 1461.01   56.93
  -1  -4  -3 1558.79   56.86
  -1  -4  -3 1461.84   56.89
  -1  -4  -3 1530.76   56.86
  -1  -4  -3 1478.58   56.88
  -1  -4  -3 1545.78   56.81
  -1  -4  -3 1447.05   56.95
   1   4   3 1544.99   56.83
  -1  -4  -4   91.60    3.46
   1   4   4   82.60    3.60
  -1  -4  -4   81.16    3.47
   1   4   4   89.55    3.43
  -1  -4  -4   88.14    3.55
  -1  -4  -4   90.46    3.46
  -1  -4  -4   90.81    3.41
  -1  -4  -4   88.25    3.68
  -1  -4  -5   62.13    2.84
   1   4   5   70.85    2.72
  -1  -4  -5   67.90    2.69
   1   4   5   64.72    2.93
  -1  -4  -5   61.50    2.76
  -1  -4  -5   68.54    3.04
  -1  -4  -5   70.25    2.75
  -1  -4  -5   69.55    2.59
  -1  -4  -5   70.29    2.74
  -1  -4  -6   73.09    3.34
   1   4   6   80.43    3.23
   1   4   6   75.50    3.46
   1   4   6   86.30    3.30
  -1  -4  -6   71.85    3.23
  -1  -4  -6   81.20    3.23
   1   4   6   87.35    3.24
  -1  -4  -6   88.61    3.25
  -1  -4  -6   81.47    3.20
  -1  -4  -7    6.50    0.76
   1   4   7    5.68    0.77
  -1  -4  -7    6.31    1.00
  -1  -4  -7    7.40    0.76
   1   4   7    5.78    0.78
  -1  -4  -7    5.13    0.71
   1   4   7    5.11    0.88
   1   4   8   34.54    1.76
   1   4   8   36.17    1.82
  -1  -4  -8   39.17    1.75
   1   4   8   40.70    1.78
  -1  -4  -8   40.60    1.73
  -1  -4  -8   41.53    1.77
  -1  -4  -9    3.87    0.80
  -1  -4  -9    3.32    0.83
   1   4   9    3.00    0.99
   1   4   9    3.43    0.98
   1   4   9    1.37    0.93
   1   4  10    1.49    1.10
  -1  -4 -10    2.61    0.89
   1   4  10    0.88    1.08
   1   4  10    1.04    0.99
   1   4  11    7.41    1.67
   1   4  11    9.42    1.28
   1   4  11   11.33    1.29
   1   4  11    8.77    1.20
   1   4  12    1.63    1.23
   1   4  12    0.59    1.21
  -1  -4 -12   -1.30    1.20
   1   4  12    0.07    1.17
   1   4  12    1.76    1.55
   1   4  13    0.19    1.28
   1   4  13    0.99    1.17
  -1  -4 -13   -0.83    1.33
   1   4  13    2.81    1.67
   1   4  14    4.68    1.40
   1   4  14    4.62    1.33
   1   5 -15    2.43    1.62
   1   5 -14    2.79    1.47
  -1  -5  14    1.61    1.17
   1   5 -13    3.89    1.28
   1   5 -13    5.81    1.36
  -1  -5  13    3.83    1.24
  -1  -5  12    0.55    0.96
  -1  -5  12   -1.48    1.15
   1   5 -12    0.71    1.10
   1   5 -12    1.81    1.17
   1   5 -12    2.06    1.01
   1   5 -12    0.17    0.73
  -1  -5  12   -0.95    0.66
  -1  -5  12   -1.24    1.09
  -1  -5  11    8.89    0.72
   1   5 -11    6.80    0.69
   1   5 -11    8.84    0.72
  -1  -5  11    9.61    0.77
  -1  -5  11   10.27    1.03
   1   5 -11    8.83    1.14
   1   5 -11    9.08    1.19
   1   5 -11    8.28    1.03
  -1  -5  10    2.62    1.00
  -1  -5  10    3.97    0.99
   1   5 -10    1.53    1.38
   1   5 -10    4.77    0.85
   1   5 -10    2.72    0.96
  -1  -5  10    3.82    0.60
  -1  -5  10    3.76    0.86
   1   5 -10    4.00    0.55
  -1  -5  10    3.45    0.60
   1   5 -10    4.85    0.90
   1   5  -9   13.15    1.00
  -1  -5   9   12.39    1.13
   1   5  -9   13.72    0.99
  -1  -5   9   14.15    1.08
  -1  -5   9   14.75    0.82
   1   5  -9   14.23    0.96
  -1  -5   9   13.57    0.94
   1   5  -9   13.70    1.37
  -1  -5   9   13.64    0.80
   1   5  -8  152.26    5.97
  -1  -5   8  137.83    6.03
  -1  -5   8  144.84    6.00
  -1  -5   8  161.22    5.92
   1   5  -8  150.63    5.95
   1   5  -8  154.93    5.95
   1   5  -8  156.97    6.16
  -1  -5   8  161.41    5.95
  -1  -5   8  164.38    5.91
   1   5  -8  153.23    5.86
  -1  -5   7    5.01    0.73
   1   5  -7    4.59    0.37
   1   5  -7    3.85    0.95
   1   5  -7    2.97    0.50
   1   5  -7    4.36    0.61
  -1  -5   7    5.10    0.55
  -1  -5   7    4.31    0.52
   1   5  -7    4.66    0.59
  -1  -5   7    4.78    0.58
  -1  -5   7    4.49    0.83
   1   5  -6  123.13    4.67
   1   5  -6  126.50    4.80
  -1  -5   6  107.85    4.76
   1   5  -6  122.32    4.64
  -1  -5   6  122.57    4.65
  -1  -5   6  121.16    4.66
  -1  -5   6  112.03    4.71
   1   5  -6  118.03    4.68
   1   5  -6  127.27    4.60
   1   5  -5  171.32    6.46
   1   5  -5  175.39    6.50
   1   5  -5  165.66    6.46
  -1  -5   5  169.70    6.58
  -1  -5   5  169.93    6.49
   1   5  -5  175.34    6.59
  -1  -5   5  165.40    6.54
   1   5  -5  174.88    6.52
  -1  -5   5  174.93    6.50
   1   5  -4   19.07    0.75
  -1  -5   4   13.82    0.68
   1   5  -4   16.63    0.78
   1   5  -4   17.16    0.80
  -1  -5   4   15.61    0.82
   1   5  -4   14.99    0.90
  -1  -5   4   14.92    0.77
  -1  -5   4   14.44    0.70
  -1  -5   4   14.26    0.93
  -1  -5   4   15.27    0.79
  -1  -5   3  347.02   12.93
  -1  -5   3  339.41   12.93
  -1  -5   3  309.93   12.88
  -1  -5   3  340.45   12.93
  -1  -5   3  341.88   12.88
   1   5  -3  351.74   12.93
  -1  -5   3  358.96   12.98
   1   5  -3  357.61   12.94
   1   5  -3  376.05   12.94
   1   5  -3  353.59   12.96
  -1  -5   2  102.68    4.03
  -1  -5   2  101.63    4.01
   1   5  -2  111.81    4.03
  -1  -5   2  105.48    4.02
  -1  -5   2  101.54    3.99
   1   5  -2  106.35    4.03
   1   5  -2  105.78    4.04
  -1  -5   2  103.19    3.99
  -1  -5   2  103.51    4.03
  -1  -5   2  111.42    4.07
  -1  -5   1  131.25    4.68
  -1  -5   1  117.67    4.65
  -1  -5   1  117.79    4.65
  -1  -5   1  118.02    4.64
   1   5  -1  124.93    4.66
  -1  -5   1  120.93    4.63
  -1  -5   1  118.26    4.63
  -1  -5   1  130.48    4.64
  -1  -5   1  115.79    4.64
  -1  -5   0    8.38    0.63
  -1  -5   0    8.21    0.61
  -1  -5   0    9.02    0.56
   1   5   0    9.73    0.61
  -1  -5   0    8.31    0.61
   1   5   0    9.39    0.58
  -1  -5   0   10.49    0.54
  -1  -5   0    9.48    0.58
  -1  -5   0    8.87    0.65
  -1  -5  -1   58.91    2.41
  -1  -5  -1   60.14    2.36
   1   5   1   57.93    2.38
  -1  -5  -1   59.27    2.38
  -1  -5  -1   56.26    2.37
  -1  -5  -1   59.85    2.38
  -1  -5  -1   60.86    2.31
  -1  -5  -1   59.14    2.31
  -1  -5  -2    2.42    0.53
  -1  -5  -2    2.58    0.54
  -1  -5  -2    2.86    0.38
  -1  -5  -2    2.16    0.38
  -1  -5  -2    2.68    0.54
   1   5   2    2.27    0.39
   1   5   2    4.07    0.59
  -1  -5  -2    3.14    0.73
  -1  -5  -2    3.40    0.50
  -1  -5  -2    2.90    0.61
   1   5   3   50.65    2.01
  -1  -5  -3   50.24    1.98
   1   5   3   47.36    2.19
  -1  -5  -3   49.87    2.12
  -1  -5  -3   48.31    2.23
  -1  -5  -3   52.94    2.06
  -1  -5  -3   49.64    2.10
  -1  -5  -3   51.23    2.07
  -1  -5  -3   51.02    2.16
  -1  -5  -4   46.39    1.93
   1   5   4   43.17    2.09
  -1  -5  -4   42.66    2.17
  -1  -5  -4   44.39    2.04
  -1  -5  -4   44.11    1.95
  -1  -5  -4   47.10    1.84
  -1  -5  -4   43.08    1.97
  -1  -5  -4   47.65    1.92
   1   5   4   48.08    1.88
  -1  -5  -5    0.51    0.52
  -1  -5  -5    1.06    0.78
  -1  -5  -5    2.71    1.15
  -1  -5  -5    0.05    0.64
  -1  -5  -5    0.25    0.64
   1   5   5    0.06    0.53
  -1  -5  -5    0.69    0.60
   1   5   5   -1.53    0.99
  -1  -5  -5    0.35    0.59
  -1  -5  -6    1.06    0.81
  -1  -5  -6    0.81    0.60
   1   5   6    0.66    0.66
  -1  -5  -6   -0.30    0.68
   1   5   6    1.09    1.00
  -1  -5  -6   -0.12    0.70
  -1  -5  -6    0.78    0.65
   1   5   7    7.68    0.86
  -1  -5  -7    5.75    1.04
   1   5   7    6.21    1.24
  -1  -5  -7    7.54    0.75
  -1  -5  -7    5.17    0.79
  -1  -5  -7    5.56    0.80
  -1  -5  -7    6.61    0.90
   1   5   8   20.03    1.28
   1   5   8   17.58    1.71
  -1  -5  -8   17.31    1.20
  -1  -5  -8   18.37    1.16
  -1  -5  -8   16.92    1.10
   1   5   9    3.58    1.11
   1   5   9    6.17    1.55
  -1  -5  -9    4.37    1.01
   1   5  10    4.47    1.13
   1   5  10    2.89    1.11
   1   5  11    7.97    1.29
  -1  -5 -11    5.88    1.17
   1   5  11    5.41    1.26
   1   5  12   -2.04    1.21
   1   5  12   -0.70    1.24
   1   5  13    4.30    1.33
  -1  -6  14   -0.72    1.26
   1   6 -14   -1.63    1.44
  -1  -6  13   16.79    1.51
   1   6 -13   20.09    1.59
  -1  -6  12    2.29    1.16
   1   6 -12    3.26    0.99
   1   6 -12    2.39    1.09
  -1  -6  11    0.55    1.11
  -1  -6  11   -0.92    1.10
   1   6 -11    0.65    0.94
   1   6 -11    0.82    0.94
   1   6 -11    0.25    0.93
   1   6 -10   23.82    1.27
   1   6 -10   24.89    1.37
  -1  -6  10   24.14    1.28
   1   6 -10   23.75    1.32
  -1  -6  10   21.38    1.49
  -1  -6  10   24.52    1.14
  -1  -6  10   19.16    1.49
  -1  -6   9   29.74    1.61
   1   6  -9   33.19    1.98
   1   6  -9   31.75    1.50
   1   6  -9   30.62    1.44
  -1  -6   9   30.11    1.69
  -1  -6   9   30.36    1.45
  -1  -6   9   31.68    1.38
  -1  -6   9   31.76    1.36
   1   6  -9   30.47    1.47
  -1  -6   8    7.95    0.96
  -1  -6   8    6.15    1.01
   1   6  -8    7.58    1.23
   1   6  -8    7.96    0.68
   1   6  -8    6.76    0.77
  -1  -6   8    9.00    0.66
  -1  -6   8    8.59    0.70
   1   6  -8    7.17    0.72
  -1  -6   8    7.07    0.63
  -1  -6   7    7.19    0.84
   1   6  -7    8.56    0.60
  -1  -6   7    8.34    0.95
  -1  -6   7    9.89    0.70
   1   6  -7    7.74    0.71
  -1  -6   7    8.08    0.65
  -1  -6   7    8.44    0.61
   1   6  -7    7.86    0.68
   1   6  -7    6.59    1.06
  -1  -6   6   14.14    0.99
   1   6  -6   15.74    0.82
  -1  -6   6   14.79    1.07
   1   6  -6   14.71    0.73
   1   6  -6   15.33    0.85
  -1  -6   6   14.76    0.81
   1   6  -6   15.01    1.07
  -1  -6   6   14.55    0.80
  -1  -6   5    1.88    0.74
   1   6  -5    2.81    0.51
  -1  -6   5    2.00    0.49
  -1  -6   5    3.03    0.67
   1   6  -5    2.39    0.70
  -1  -6   5    2.84    0.30
   1   6  -5    2.36    0.52
  -1  -6   5    2.38    0.51
   1   6  -4    6.82    0.57
  -1  -6   4    6.80    0.79
  -1  -6   4    6.34    0.60
   1   6  -4    5.86    0.58
  -1  -6   4    6.49    0.69
  -1  -6   4    7.87    0.58
  -1  -6   4    6.58    0.46
  -1  -6   4    5.79    0.43
   1   6  -4    5.92    0.75
  -1  -6   4    6.20    0.41
   1   6  -3   18.19    0.87
  -1  -6   3   18.25    0.92
  -1  -6   3   17.44    0.92
   1   6  -3   18.24    0.98
  -1  -6   3   16.92    0.83
   1   6  -3   17.46    0.88
  -1  -6   3   17.26    0.79
  -1  -6   3   18.90    1.04
  -1  -6   3   17.83    0.89
  -1  -6   3   17.18    0.78
  -1  -6   2   78.29    3.36
  -1  -6   2   87.94    3.42
  -1  -6   2   82.29    3.35
  -1  -6   2   87.79    3.33
  -1  -6   2   88.47    3.39
   1   6  -2   90.46    3.38
   1   6  -2   90.11    3.37
  -1  -6   2   87.89    3.33
  -1  -6   2   84.72    3.35
  -1  -6   2   85.41    3.37
   1   6  -1   16.08    0.87
  -1  -6   1   16.24    0.92
  -1  -6   1   15.73    0.82
  -1  -6   1   16.48    0.82
  -1  -6   1   16.60    0.85
  -1  -6   1   15.34    0.85
  -1  -6   1   14.03    0.80
  -1  -6   1   16.47    0.89
  -1  -6   1   15.62    0.86
  -1  -6   0   12.51    0.78
  -1  -6   0   13.42    0.77
  -1  -6   0   12.69    0.72
   1   6   0   14.83    0.84
  -1  -6   0   11.79    0.80
  -1  -6   0   13.49    0.74
  -1  -6   0   13.48    0.73
  -1  -6   0   11.73    0.79
  -1  -6   0   14.05    0.85
  -1  -6  -1   71.46    2.93
  -1  -6  -1   75.19    2.90
  -1  -6  -1   73.20    2.85
  -1  -6  -1   71.38    2.92
  -1  -6  -1   74.85    2.89
   1   6   1   71.55    2.93
  -1  -6  -1   74.15    2.86
  -1  -6  -1   72.90    2.93
  -1  -6  -1   73.55    2.96
  -1  -6  -2  106.61    4.17
  -1  -6  -2  107.24    4.07
  -1  -6  -2   97.43    4.20
  -1  -6  -2  106.60    4.13
  -1  -6  -2  116.80    4.14
  -1  -6  -2  107.37    4.07
  -1  -6  -2  105.70    4.08
  -1  -6  -2  103.44    4.15
   1   6   2  103.75    4.19
  -1  -6  -2  101.86    4.16
  -1  -6  -3    1.83    0.67
  -1  -6  -3    1.44    0.72
  -1  -6  -3    1.87    0.58
  -1  -6  -3    2.27    0.44
  -1  -6  -3    2.41    0.62
  -1  -6  -3    1.33    0.79
   1   6   3    2.41    0.49
  -1  -6  -3    1.69    0.64
  -1  -6  -3    2.38    0.44
   1   6   3    3.00    0.81
  -1  -6  -4  144.30    5.33
  -1  -6  -4  129.07    5.44
   1   6   4  142.14    5.55
  -1  -6  -4  145.72    5.41
  -1  -6  -4  146.04    5.42
   1   6   4  138.26    5.36
  -1  -6  -4  135.24    5.58
  -1  -6  -4  137.26    5.44
  -1  -6  -4  131.42    5.47
  -1  -6  -5  102.81    4.39
  -1  -6  -5  113.28    4.31
   1   6   5  108.85    4.51
  -1  -6  -5  115.48    4.59
  -1  -6  -5  104.25    4.33
   1   6   5  110.20    4.26
  -1  -6  -5  101.11    4.33
  -1  -6  -5  109.78    4.22
  -1  -6  -5  117.49    4.31
  -1  -6  -6   29.54    1.38
   1   6   6   31.85    1.89
  -1  -6  -6   27.66    1.50
  -1  -6  -6   33.20    1.53
  -1  -6  -6   28.70    1.66
   1   6   6   35.81    1.50
  -1  -6  -6   25.88    1.50
  -1  -6  -6   28.82    2.00
  -1  -6  -6   32.22    1.53
   1   6   7   15.72    1.15
  -1  -6  -7   16.37    1.12
  -1  -6  -7   11.17    1.05
  -1  -6  -7   14.38    0.98
   1   6   7   13.10    1.65
  -1  -6  -8    1.77    0.88
   1   6   8    3.25    1.00
  -1  -6  -8    3.32    0.98
   1   6   8    4.34    1.54
   1   6   9    1.87    1.10
  -1  -6  -9    2.35    1.02
   1   6   9    1.18    1.70
  -1  -6  -9    3.12    0.99
  -1  -6 -10   -0.56    1.08
  -1  -6 -10    0.86    1.01
   1   6  10   -1.43    1.72
   1   6  10   -0.46    1.21
  -1  -6 -11    4.22    1.27
   1   6  11    2.41    1.30
   1   6  11    1.16    1.90
  -1  -7  13    4.85    1.34
  -1  -7  12    1.87    1.26
   1   7 -12    4.02    1.05
  -1  -7  12    1.04    1.30
   1   7 -11    1.18    0.90
  -1  -7  11    0.40    1.16
  -1  -7  11    0.91    1.14
   1   7 -10    9.07    0.89
   1   7 -10    9.67    0.85
   1   7 -10    8.49    0.97
  -1  -7  10    8.83    1.19
  -1  -7   9   11.57    1.29
  -1  -7   9   11.86    1.15
   1   7  -9   10.52    0.83
   1   7  -9   12.48    0.95
   1   7  -9   12.57    0.87
  -1  -7   9   11.63    0.77
  -1  -7   8   50.81    2.04
   1   7  -8   51.36    2.04
   1   7  -8   51.65    2.45
   1   7  -8   51.48    2.08
  -1  -7   8   51.52    2.05
  -1  -7   8   46.30    2.22
   1   7  -8   47.79    2.12
  -1  -7   8   48.88    2.04
  -1  -7   8   46.53    2.32
  -1  -7   7    7.67    1.05
  -1  -7   7    7.85    0.67
   1   7  -7    7.45    0.70
  -1  -7   7    7.19    0.90
   1   7  -7    8.67    0.59
   1   7  -7    9.25    1.15
  -1  -7   7    7.98    0.64
  -1  -7   7    9.27    0.66
   1   7  -7    7.90    0.75
  -1  -7   6   51.45    2.33
   1   7  -6   56.12    2.14
   1   7  -6   53.14    2.33
   1   7  -6   50.94    2.15
  -1  -7   6   52.61    2.04
  -1  -7   6   51.28    2.10
  -1  -7   6   49.55    2.23
  -1  -7   6   51.11    2.12
  -1  -7   5   37.56    1.52
   1   7  -5   40.15    1.62
  -1  -7   5   38.77    1.50
  -1  -7   5   38.51    1.60
  -1  -7   5   37.28    1.61
   1   7  -5   38.58    1.62
   1   7  -5   38.85    1.78
  -1  -7   5   36.75    1.79
  -1  -7   5   38.65    1.71
  -1  -7   5   34.60    1.49
  -1  -7   4    4.18    0.67
  -1  -7   4    4.21    0.86
   1   7  -4    4.33    0.79
  -1  -7   4    4.07    0.46
  -1  -7   4    4.09    0.41
   1   7  -4    4.59    0.58
  -1  -7   4    4.09    0.42
  -1  -7   4    3.82    0.60
   1   7  -4    5.14    0.61
  -1  -7   4    4.25    0.58
  -1  -7   3  116.68    4.69
  -1  -7   3  128.88    4.64
   1   7  -3  127.40    4.70
  -1  -7   3  129.20    4.78
  -1  -7   3  117.78    4.63
  -1  -7   3  121.11    4.69
  -1  -7   3  116.88    4.69
  -1  -7   3  115.13    4.65
  -1  -7   2    0.63    0.51
  -1  -7   2    1.76    0.64
  -1  -7   2    0.77    0.54
  -1  -7   2    0.67    0.54
  -1  -7   2    1.43    0.46
  -1  -7   2    0.21    0.58
   1   7  -2    1.21    0.58
  -1  -7   2    1.18    0.73
  -1  -7   2    0.92    0.45
  -1  -7   2    1.07    0.52
  -1  -7   1  154.78    5.71
  -1  -7   1  138.56    5.64
  -1  -7   1  145.03    5.67
  -1  -7   1  148.14    5.67
  -1  -7   1  138.96    5.68
   1   7  -1  161.60    5.72
  -1  -7   1  145.44    5.69
  -1  -7   1  153.78    5.68
  -1  -7   1  149.35    5.66
  -1  -7   1  148.97    5.68
  -1  -7   0   57.55    2.27
  -1  -7   0   56.28    2.31
  -1  -7   0   61.56    2.32
  -1  -7   0   53.12    2.31
  -1  -7   0   54.17    2.31
  -1  -7   0   51.63    2.27
  -1  -7   0   56.05    2.26
  -1  -7   0   54.58    2.28
  -1  -7   0   61.14    2.36
  -1  -7   0   59.03    2.32
  -1  -7  -1   12.31    0.73
  -1  -7  -1   12.56    0.71
  -1  -7  -1   12.22    0.86
  -1  -7  -1   11.09    0.84
  -1  -7  -1   10.51    0.81
  -1  -7  -1   10.93    0.84
  -1  -7  -1   11.56    0.95
  -1  -7  -1   12.58    0.79
  -1  -7  -1    9.72    0.77
  -1  -7  -1   10.42    0.76
  -1  -7  -2   51.91    2.29
  -1  -7  -2   55.76    2.32
  -1  -7  -2   55.97    2.19
  -1  -7  -2   53.77    2.25
  -1  -7  -2   53.56    2.38
  -1  -7  -2   55.63    2.30
  -1  -7  -2   55.07    2.21
   1   7   2   54.06    2.33
  -1  -7  -2   53.73    2.26
  -1  -7  -2   55.04    2.19
  -1  -7  -3    0.34    0.46
   1   7   3   -0.31    0.80
  -1  -7  -3    0.27    0.47
  -1  -7  -3    1.07    0.69
  -1  -7  -3    1.34    0.75
  -1  -7  -3    0.63    0.77
  -1  -7  -3    1.77    0.68
  -1  -7  -3    0.10    0.57
  -1  -7  -3    0.56    0.94
  -1  -7  -3    1.17    0.74
  -1  -7  -4    7.31    0.83
   1   7   4    6.61    1.14
  -1  -7  -4    6.71    0.60
  -1  -7  -4    6.29    0.90
  -1  -7  -4    6.53    0.90
  -1  -7  -4    7.01    0.84
   1   7   4    5.70    0.65
  -1  -7  -4    7.29    0.49
  -1  -7  -4    4.38    0.77
  -1  -7  -4    6.45    1.10
  -1  -7  -5    0.37    0.79
  -1  -7  -5   -1.14    0.90
  -1  -7  -5    0.83    0.82
  -1  -7  -5   -0.58    0.86
  -1  -7  -5    0.96    0.61
  -1  -7  -5    1.26    0.84
   1   7   5    0.42    0.64
   1   7   5    1.15    1.15
  -1  -7  -5    1.89    1.28
  -1  -7  -6   -0.41    0.83
  -1  -7  -6    1.22    0.83
   1   7   6    0.80    0.73
  -1  -7  -6    0.53    0.84
   1   7   6    0.42    1.29
  -1  -7  -6   -1.45    1.45
  -1  -7  -7    3.73    0.97
  -1  -7  -7    2.57    0.93
   1   7   7    1.86    1.43
   1   7   7    4.31    0.88
   1   7   8    1.04    1.08
  -1  -7  -8    0.90    1.05
   1   7   8   -1.01    1.57
  -1  -7  -8    0.60    0.92
  -1  -7  -9    0.90    1.04
  -1  -7  -9    0.32    1.02
   1   7   9    1.17    1.05
   1   7   9   -0.45    1.69
  -1  -7 -10    0.60    1.16
   1   7  10    3.16    1.85
   1   7  11   -0.07    1.98
  -1  -8  13    1.56    1.36
  -1  -8  12    4.94    1.36
  -1  -8  12    6.13    1.43
  -1  -8  11    0.39    1.20
  -1  -8  11   -1.76    1.23
   1   8 -11    0.31    0.83
  -1  -8  10    9.01    1.38
  -1  -8  10    9.59    1.32
   1   8 -10   13.45    1.04
  -1  -8   9    4.21    1.09
   1   8  -9    3.91    0.76
   1   8  -9    4.66    0.83
  -1  -8   9    3.21    1.23
  -1  -8   8    7.49    1.05
  -1  -8   8    6.14    1.21
   1   8  -8    9.52    0.81
   1   8  -8    6.94    0.82
   1   8  -8    8.03    1.34
   1   8  -7   43.42    1.71
  -1  -8   7   40.09    2.03
   1   8  -7   39.81    1.73
  -1  -8   7   36.80    1.84
   1   8  -7   38.89    2.01
  -1  -8   7   34.01    1.63
   1   8  -6    6.21    0.68
  -1  -8   6    5.72    1.13
   1   8  -6    5.50    0.71
  -1  -8   6    4.70    0.63
  -1  -8   6    4.82    0.63
  -1  -8   6    5.13    0.90
   1   8  -6    6.10    1.04
  -1  -8   5   37.64    1.66
  -1  -8   5   39.02    1.68
  -1  -8   5   39.69    1.91
   1   8  -5   41.27    1.85
  -1  -8   5   35.92    1.57
   1   8  -5   42.17    1.70
  -1  -8   5   40.89    1.79
   1   8  -5   40.08    1.72
  -1  -8   4    0.05    0.85
  -1  -8   4    0.32    0.46
  -1  -8   4    0.42    0.43
   1   8  -4    1.00    0.65
  -1  -8   4    0.87    0.59
  -1  -8   4    0.36    0.62
  -1  -8   4    1.20    0.46
  -1  -8   4    0.69    0.68
  -1  -8   4    1.40    0.47
  -1  -8   3    0.38    0.61
  -1  -8   3    0.10    0.53
  -1  -8   3    0.39    0.46
   1   8  -3    1.71    0.64
  -1  -8   3    0.18    0.51
  -1  -8   3   -0.58    0.70
  -1  -8   3   -0.53    0.69
  -1  -8   3    0.30    0.48
  -1  -8   3   -0.72    0.86
  -1  -8   3    0.11    0.68
  -1  -8   2   19.87    1.20
  -1  -8   2   21.02    1.03
  -1  -8   2   20.93    1.07
  -1  -8   2   19.87    1.05
  -1  -8   2   19.04    1.01
   1   8  -2   21.50    1.11
  -1  -8   2   17.56    1.07
  -1  -8   2   19.27    1.10
  -1  -8   2   17.49    0.95
  -1  -8   2   18.62    1.02
  -1  -8   1   43.14    1.90
  -1  -8   1   49.90    1.96
  -1  -8   1   48.34    1.93
  -1  -8   1   47.81    1.99
  -1  -8   1   42.04    1.87
  -1  -8   1   42.92    1.88
  -1  -8   1   46.09    1.94
  -1  -8   1   43.62    1.93
  -1  -8   1   43.02    1.92
  -1  -8   1   46.20    1.93
  -1  -8   0    2.40    0.69
  -1  -8   0    0.54    0.65
  -1  -8   0    1.54    0.71
  -1  -8   0    2.07    0.78
  -1  -8   0    0.81    0.62
  -1  -8   0    1.07    0.69
  -1  -8   0    1.38    0.64
  -1  -8   0    1.23    0.69
  -1  -8   0    0.96    0.59
  -1  -8   0    1.62    0.57
  -1  -8  -1    0.94    0.65
  -1  -8  -1    0.31    0.74
  -1  -8  -1    2.10    0.73
  -1  -8  -1    2.43    0.61
  -1  -8  -1    1.53    0.66
  -1  -8  -1    1.54    0.74
  -1  -8  -1    0.68    0.56
  -1  -8  -1    1.39    0.58
  -1  -8  -1    1.58    0.73
  -1  -8  -1    0.70    0.83
  -1  -8  -2    6.19    0.78
  -1  -8  -2    6.50    0.87
  -1  -8  -2    7.04    0.90
  -1  -8  -2    7.70    0.66
  -1  -8  -2    7.77    0.68
  -1  -8  -2    7.75    0.98
  -1  -8  -2    7.14    0.77
  -1  -8  -2    5.97    0.71
  -1  -8  -2    7.03    0.87
  -1  -8  -2    7.79    0.72
  -1  -8  -2    6.72    0.86
  -1  -8  -3   -0.29    0.54
  -1  -8  -3    0.10    0.61
  -1  -8  -3    0.43    0.72
  -1  -8  -3    0.81    0.78
  -1  -8  -3    0.40    0.94
  -1  -8  -3   -0.41    0.74
   1   8   3    1.71    0.94
  -1  -8  -3    0.13    0.86
  -1  -8  -3    0.49    0.87
   1   8   4   10.51    1.24
  -1  -8  -4    7.15    0.93
  -1  -8  -4    7.89    1.06
  -1  -8  -4   10.99    1.40
  -1  -8  -4    8.45    0.99
  -1  -8  -4   12.05    0.82
  -1  -8  -4    7.74    0.90
  -1  -8  -4    8.51    1.04
  -1  -8  -5   -0.05    0.91
  -1  -8  -5    0.18    1.46
  -1  -8  -5    0.59    0.87
   1   8   5   -0.58    1.29
  -1  -8  -5   -1.22    0.94
  -1  -8  -6   11.22    1.13
  -1  -8  -6   10.97    1.17
   1   8   6   10.00    0.89
   1   8   6   10.69    1.57
  -1  -8  -7   20.49    1.39
   1   8   7   15.97    1.15
   1   8   7   19.01    1.97
  -1  -8  -7   15.66    1.33
  -1  -8  -8   -0.13    1.10
   1   8   8   -1.73    0.99
  -1  -8  -8    0.28    1.03
   1   8   8    0.63    1.70
  -1  -8  -9   13.09    1.36
   1   8   9   10.52    1.99
   1   8  10    1.50    1.98
  -1  -9  12    1.91    1.41
  -1  -9  11   -0.14    1.33
  -1  -9  11    0.62    1.39
  -1  -9  10    0.68    1.39
  -1  -9  10    2.06    1.25
  -1  -9   9    4.95    1.18
   1   9  -9    6.07    0.88
  -1  -9   9    6.15    1.42
  -1  -9   8    9.53    1.19
   1   9  -8   10.12    0.93
  -1  -9   8    6.85    1.38
  -1  -9   7   14.62    1.36
   1   9  -7   13.63    0.97
  -1  -9   6    1.75    1.08
   1   9  -6    2.25    0.80
   1   9  -6    0.25    0.97
  -1  -9   6    1.58    0.98
  -1  -9   5    2.36    1.04
  -1  -9   5    1.50    0.69
   1   9  -5    3.32    0.75
  -1  -9   5    1.82    0.85
  -1  -9   5    2.26    0.88
  -1  -9   4    4.09    1.08
   1   9  -4    5.38    0.79
  -1  -9   4    3.26    0.85
  -1  -9   4    3.76    0.72
  -1  -9   4    2.66    0.81
  -1  -9   3   32.28    1.67
  -1  -9   3   27.70    1.36
  -1  -9   3   32.51    1.54
  -1  -9   3   32.22    1.56
  -1  -9   3   32.52    1.51
  -1  -9   3   34.14    1.51
  -1  -9   2   -0.68    0.52
  -1  -9   2    0.71    0.79
  -1  -9   2    0.56    0.58
  -1  -9   2    0.26    0.76
  -1  -9   2   -0.16    0.70
  -1  -9   2    0.88    0.95
  -1  -9   2    0.39    0.74
  -1  -9   2   -0.74    0.63
  -1  -9   1    5.65    0.65
  -1  -9   1    7.96    0.95
  -1  -9   1    7.38    0.83
  -1  -9   1    6.68    0.63
  -1  -9   1    5.77    0.80
  -1  -9   1    6.19    0.81
  -1  -9   1    7.01    0.76
  -1  -9   1    6.47    0.84
  -1  -9   0    3.05    0.60
  -1  -9   0    3.10    0.82
  -1  -9   0    3.20    0.78
  -1  -9   0    2.42    0.70
  -1  -9   0    4.18    0.70
  -1  -9   0    3.20    0.79
  -1  -9   0    3.44    0.84
  -1  -9   0    2.73    0.77
  -1  -9  -1   11.98    1.03
  -1  -9  -1   13.19    0.98
  -1  -9  -1   12.18    1.03
  -1  -9  -1   12.15    0.97
  -1  -9  -1   12.54    1.03
  -1  -9  -1   11.69    0.85
  -1  -9  -1   11.83    0.91
  -1  -9  -1   13.35    0.88
  -1  -9  -2   16.75    1.17
  -1  -9  -2   18.15    1.07
  -1  -9  -2   17.97    1.23
  -1  -9  -2   17.02    1.20
  -1  -9  -2   18.28    1.22
  -1  -9  -2   15.81    1.08
  -1  -9  -3    1.29    0.78
  -1  -9  -3    0.50    0.80
  -1  -9  -3   -0.84    1.01
  -1  -9  -3   -0.33    0.79
  -1  -9  -4    5.55    1.02
  -1  -9  -4    6.04    0.97
   1   9   5    2.67    1.39
  -1  -9  -5    2.46    1.12
  -1  -9  -5    3.10    1.00
  -1  -9  -6    0.84    0.97
  -1  -9  -6    1.56    1.06
   1   9   6    0.60    1.45
   1   9   7    1.15    1.77
  -1  -9  -7    1.11    1.11
  -1  -9  -7    1.26    1.09
  -1  -9  -8    1.43    1.21
   1   9   8    2.56    1.94
   1   9   9    1.46    2.13
  -1 -10  11    1.07    1.45
  -1 -10  10    5.64    1.27
  -1 -10  10    6.73    1.45
  -1 -10   9    0.88    1.38
  -1 -10   9    0.53    1.27
  -1 -10   8    1.41    1.06
  -1 -10   8    4.01    1.40
  -1 -10   7    4.54    1.23
   1  10  -7    3.82    0.86
  -1 -10   7    3.83    1.06
  -1 -10   6    2.94    1.03
  -1 -10   6    1.86    1.27
   1  10  -6    0.76    0.83
  -1 -10   5   12.96    1.13
  -1 -10   5   13.09    1.36
   1  10  -5   14.73    1.11
  -1 -10   4   -0.37    0.92
  -1 -10   4   -0.62    1.04
  -1 -10   3    5.50    1.06
  -1 -10   3    2.63    0.60
  -1 -10   3    4.73    0.87
  -1 -10   2    3.34    0.86
  -1 -10   2    4.12    0.66
  -1 -10   2    6.57    0.86
  -1 -10   2    5.74    1.02
  -1 -10   1    0.84    0.63
  -1 -10   1    1.60    0.79
  -1 -10   0    8.03    0.81
  -1 -10   0    9.55    1.01
  -1 -10  -1    2.43    0.75
  -1 -10  -1    2.14    0.74
  -1 -10  -1    3.61    0.96
  -1 -10  -2    1.28    0.78
  -1 -10  -2   -0.35    0.98
  -1 -10  -2    0.49    0.79
  -1 -10  -3    1.07    0.86
  -1 -10  -3    0.49    0.84
  -1 -10  -3    0.89    0.99
  -1 -10  -4    1.05    1.10
  -1 -10  -4   -0.39    0.99
  -1 -10  -4   -0.24    0.85
  -1 -10  -5   -1.12    0.76
  -1 -10  -5   -0.19    1.13
  -1 -10  -5   -0.84    1.02
  -1 -10  -6    0.34    1.10
  -1 -10  -6   -0.78    1.22
   1  10   7   -1.70    1.80
  -1 -10  -7    1.22    1.20
   1  10   8   -0.53    1.93
  -1 -11   8    0.44    1.35
  -1 -11   7   -0.55    1.41
  -1 -11   6    3.39    1.23
  -1 -11   5    1.24    1.25
  -1 -11   4    2.88    1.16
  -1 -11   3    0.62    1.10
  -1 -11  -1    0.81    0.77
  -1 -11  -2    1.42    0.78
  -1 -11  -3    0.66    1.22
  -1 -11  -3    0.02    0.88
  -1 -11  -4    0.53    1.16
  -1 -11  -4    0.38    1.03
  -1 -11  -5    1.22    1.03
  -1 -12   6   -1.06    1.29
   2 -13   4    0.03    1.23
   2 -12  -6   -0.85    1.25
   2 -12  -5   -1.86    1.30
   2 -12  -4    3.78    1.35
   2 -12  -1   15.55    1.34
   2 -12   0    3.32    1.12
   2 -12   1   14.58    1.29
   2 -12   2    0.55    1.12
   2 -12   3    2.37    1.16
   2 -12   4    5.08    1.20
   2 -12   5   -0.75    1.29
   2 -12   5   -0.37    1.23
   2 -12   6    6.23    1.30
   2 -11  -8    3.21    1.26
   2 -11  -7   -1.17    1.25
   2 -11  -7    1.54    1.15
   2 -11  -6    5.46    1.27
   2 -11  -5   -0.40    1.37
   2 -11  -4   -0.61    1.26
   2 -11  -4    1.21    0.99
   2 -11  -3    7.36    1.29
   2 -11  -3    8.68    1.14
   2 -11  -2    4.15    1.20
   2 -11  -2    3.93    1.03
   2 -11  -1    8.29    1.34
   2 -11  -1    9.26    1.19
   2 -11   0    3.84    1.18
   2 -11   0    2.63    1.10
   2 -11   1   -0.20    1.04
   2 -11   1   -0.27    1.07
   2 -11   2    6.66    1.16
   2 -11   2    5.61    1.11
   2 -11   3    9.62    1.20
   2 -11   4    1.08    1.06
   2 -11   5    8.92    1.34
   2 -11   6    4.07    1.19
   2 -11   6    0.83    1.30
   2 -11   7    1.82    1.30
   2 -11   7    5.03    1.20
   2 -11   8    5.09    1.32
  -2  10  10   -0.75    1.53
  -2  10   9    1.75    1.59
   2 -10  -9    2.40    1.25
   2 -10  -9    4.84    1.33
   2 -10  -8    4.56    1.20
   2 -10  -8    5.63    1.23
  -2  10   8    5.25    1.31
   2 -10  -7    7.18    1.21
  -2  10   7    8.79    1.39
   2 -10  -7    5.06    1.08
   2 -10  -7    6.87    1.14
   2 -10  -6    1.57    1.30
   2 -10  -6    2.84    1.05
  -2  10   6    1.92    1.20
   2 -10  -6    1.78    1.09
   2 -10  -5    1.45    1.10
   2 -10  -5   -0.93    0.96
   2 -10  -5   -0.28    0.80
   2 -10  -5   -0.55    0.88
   2 -10  -4    5.52    0.89
   2 -10  -4    5.02    0.88
   2 -10  -4    6.75    1.22
   2 -10  -4    8.12    0.89
   2 -10  -4    5.90    0.98
   2 -10  -3    0.69    0.74
   2 -10  -3   -0.55    0.94
   2 -10  -3    0.55    0.91
   2 -10  -3    1.71    1.19
   2 -10  -3    1.18    0.82
   2 -10  -3    0.91    0.92
   2 -10  -3    0.46    1.11
   2 -10  -2   20.60    1.19
   2 -10  -2   22.39    1.20
   2 -10  -2   23.64    1.39
   2 -10  -2   23.08    1.46
   2 -10  -2   21.74    1.37
   2 -10  -2   22.99    1.58
   2 -10  -1    0.41    1.10
   2 -10  -1    2.30    0.65
   2 -10  -1    1.91    1.13
   2 -10  -1    1.69    0.62
   2 -10  -1    1.65    0.87
   2 -10  -1    2.74    0.95
   2 -10   0   38.13    1.99
   2 -10   0   38.28    1.93
   2 -10   0   40.00    1.95
   2 -10   0   37.21    1.82
   2 -10   1   49.86    2.27
   2 -10   1   45.71    2.24
   2 -10   1   46.54    2.10
   2 -10   1   45.64    2.21
   2 -10   2   -0.80    0.86
   2 -10   2    0.70    1.01
   2 -10   3   35.03    1.84
   2 -10   3   39.34    1.91
   2 -10   4   12.80    1.13
   2 -10   4   11.37    1.16
  -2  10  -5    3.94    0.97
   2 -10   5    2.45    0.97
   2 -10   5    4.22    1.14
  -2  10  -6   26.63    1.52
   2 -10   6   25.92    1.61
   2 -10   7    1.46    1.17
   2 -10   7    0.50    1.14
   2 -10   8    9.58    1.39
   2 -10   8    8.60    1.33
   2 -10   9    1.72    1.24
   2 -10   9    3.63    1.34
  -2   9  11    0.74    1.56
   2  -9 -10   -2.33    1.21
  -2   9  10    1.71    1.47
   2  -9 -10    1.86    1.32
   2  -9  -9   -0.53    1.13
   2  -9  -9    2.66    1.34
  -2   9   9   -0.53    1.33
  -2   9   9    1.49    1.19
   2  -9  -8    6.27    1.27
  -2   9   8    7.43    1.30
   2  -9  -8    3.93    1.17
  -2   9   8    6.44    1.19
   2  -9  -7   -0.48    1.10
   2  -9  -7   -0.43    1.09
  -2   9   7    1.06    1.02
  -2   9   7   -1.29    1.23
   2  -9  -6   32.35    1.68
   2  -9  -6   32.52    1.63
   2  -9  -6   25.78    1.73
  -2   9   6   29.98    1.81
   2  -9  -6   34.14    1.71
   2  -9  -6   31.11    1.61
  -2   9   6   26.25    1.59
   2  -9  -6   31.59    1.61
   2  -9  -5   12.91    1.02
   2  -9  -5   12.66    1.30
   2  -9  -5   13.41    1.09
   2  -9  -5   12.14    1.14
  -2   9   5   14.14    1.20
   2  -9  -5   14.12    1.07
   2  -9  -5   14.05    1.15
   2  -9  -4   12.50    1.06
   2  -9  -4    9.85    1.14
   2  -9  -4   12.82    1.06
   2  -9  -4   11.62    1.01
   2  -9  -4   12.90    0.94
   2  -9  -4   10.80    0.93
   2  -9  -4   12.23    1.05
   2  -9  -4   10.47    1.14
   2  -9  -3   32.55    1.81
   2  -9  -3   34.27    1.51
   2  -9  -3   30.57    1.63
   2  -9  -3   35.59    1.61
   2  -9  -3   33.15    1.59
   2  -9  -3   33.24    1.73
   2  -9  -3   32.76    1.69
   2  -9  -3   33.31    1.64
   2  -9  -3   32.83    1.60
   2  -9  -2    9.60    1.16
   2  -9  -2    9.51    0.96
   2  -9  -2    7.62    0.79
   2  -9  -2    9.01    1.06
   2  -9  -2    9.40    0.82
   2  -9  -2   10.58    0.83
   2  -9  -2   10.36    1.06
   2  -9  -2   10.47    0.77
   2  -9  -1   45.23    2.05
   2  -9  -1   47.40    2.02
   2  -9  -1   44.22    1.81
   2  -9  -1   40.56    1.78
   2  -9  -1   38.37    1.84
   2  -9  -1   45.56    2.03
   2  -9  -1   42.15    1.82
   2  -9  -1   43.68    1.80
   2  -9  -1   45.36    2.03
   2  -9   0    1.05    0.89
   2  -9   0    1.54    0.90
   2  -9   0    1.56    0.51
   2  -9   0    1.97    0.92
   2  -9   0    1.47    0.47
   2  -9   0    4.16    0.56
   2  -9   0    2.19    0.84
   2  -9   0    1.59    0.61
   2  -9   0    1.54    0.49
   2  -9   1   12.84    0.72
   2  -9   1   13.58    0.73
   2  -9   1   16.41    1.17
   2  -9   1   14.07    0.71
   2  -9   1   15.39    1.15
   2  -9   1   13.81    0.82
   2  -9   1   15.78    1.03
   2  -9   1   16.25    1.18
   2  -9   2   65.35    2.53
   2  -9   2   70.82    2.84
   2  -9   2   69.64    2.88
   2  -9   2   66.45    2.76
   2  -9   2   64.55    2.59
   2  -9   2   68.07    2.84
   2  -9   3    1.39    0.86
   2  -9   3    2.16    1.00
   2  -9   3    1.11    0.90
   2  -9   4   83.41    3.30
  -2   9  -4   84.83    3.27
   2  -9   4   75.21    3.27
   2  -9   4   71.70    3.33
   2  -9   5   36.01    1.82
  -2   9  -5   36.81    1.78
   2  -9   5   35.36    1.80
  -2   9  -6    1.88    0.93
   2  -9   6    2.11    0.94
   2  -9   6    2.58    1.09
  -2   9  -7    0.46    0.92
   2  -9   7   -1.69    1.07
   2  -9   7   -1.76    1.05
   2  -9   7    0.41    0.98
   2  -9   8   13.34    1.34
   2  -9   8   16.89    1.36
  -2   9  -8   14.25    1.26
   2  -9   9   -0.70    1.23
   2  -9   9    0.16    1.11
   2  -9  10    2.79    1.29
  -2   8  13   -0.64    1.80
  -2   8  12    1.91    1.71
  -2   8  11   -0.35    1.54
   2  -8 -11   -2.07    1.28
  -2   8  11   -1.41    1.82
  -2   8  10    0.60    1.45
  -2   8  10   -1.03    1.63
   2  -8 -10    0.63    1.28
  -2   8  10    1.15    1.22
  -2   8   9    0.77    1.35
  -2   8   9    1.14    1.20
   2  -8  -9    3.08    1.17
   2  -8  -8    5.06    0.99
   2  -8  -8    4.64    1.09
  -2   8   8    5.24    1.04
   2  -8  -7    0.48    0.91
   2  -8  -7    0.51    1.06
   2  -8  -7   -0.86    0.98
   2  -8  -7    0.44    1.01
  -2   8   7    0.61    0.98
   2  -8  -7    1.36    0.86
  -2   8   7   -0.81    1.10
   2  -8  -6   11.27    1.00
   2  -8  -6   11.60    1.12
  -2   8   6   11.92    1.19
   2  -8  -6   10.85    1.25
   2  -8  -6   12.31    0.96
   2  -8  -6   10.93    1.10
   2  -8  -6   11.32    1.05
   2  -8  -6   13.47    1.15
  -2   8   6   10.67    1.01
   2  -8  -5    3.12    0.97
  -2   8   5    2.16    0.95
   2  -8  -5    3.61    0.88
   2  -8  -5    3.91    0.82
   2  -8  -5    4.40    0.80
   2  -8  -5    4.71    0.91
   2  -8  -5    4.95    0.84
  -2   8   5    3.64    0.86
   2  -8  -5    3.67    1.06
   2  -8  -4    2.79    0.93
   2  -8  -4    5.50    0.83
   2  -8  -4    3.90    0.99
   2  -8  -4    5.74    0.86
   2  -8  -4    4.92    0.82
  -2   8   4    3.38    0.90
  -2   8   4    5.60    0.77
   2  -8  -4    4.63    0.82
   2  -8  -4    4.70    0.77
   2  -8  -3    1.83    0.64
   2  -8  -3    1.34    0.69
   2  -8  -3    1.67    0.66
   2  -8  -3    0.15    0.78
  -2   8   3    1.65    0.62
   2  -8  -3    1.86    0.77
   2  -8  -3    1.91    0.94
   2  -8  -2    1.15    0.64
   2  -8  -2   -0.15    0.55
   2  -8  -2   -0.12    0.85
   2  -8  -2    1.02    0.58
   2  -8  -2   -0.10    0.76
   2  -8  -2    0.47    0.56
   2  -8  -2    1.74    0.75
   2  -8  -2   -0.34    0.71
   2  -8  -1   11.65    1.01
   2  -8  -1   10.41    0.73
   2  -8  -1   11.32    0.93
   2  -8  -1   11.06    0.94
   2  -8  -1   10.41    0.97
   2  -8  -1   10.51    0.66
   2  -8  -1   11.44    0.71
   2  -8  -1   10.93    0.70
   2  -8   0    0.11    0.82
   2  -8   0    0.66    0.40
   2  -8   0    0.82    0.79
   2  -8   0    0.49    0.43
   2  -8   0    0.79    0.44
   2  -8   0    0.45    0.39
   2  -8   0    1.49    0.70
   2  -8   0    0.84    0.75
   2  -8   1   87.53    3.50
   2  -8   1   88.87    3.55
   2  -8   1   94.58    3.51
   2  -8   1   93.41    3.51
   2  -8   1   95.99    3.74
   2  -8   1   95.21    3.72
   2  -8   1   94.07    3.67
   2  -8   1   90.60    3.50
   2  -8   1   91.73    3.70
   2  -8   2   26.98    1.06
   2  -8   2   27.99    1.13
  -2   8  -2   28.74    1.42
   2  -8   2   29.27    1.48
   2  -8   2   26.69    1.14
   2  -8   2   26.06    1.40
   2  -8   2   26.75    1.41
   2  -8   2   27.10    1.06
   2  -8   2   25.95    1.07
   2  -8   2   26.36    1.06
   2  -8   3   82.85    3.14
   2  -8   3   82.24    3.19
  -2   8  -3   86.09    3.16
   2  -8   3   82.30    3.13
   2  -8   3   78.79    2.87
   2  -8   3   71.42    2.86
   2  -8   4   34.85    1.67
   2  -8   4   33.80    1.70
   2  -8   4   34.14    1.66
  -2   8  -4   33.17    1.69
   2  -8   5   45.68    2.09
   2  -8   5   46.45    2.10
  -2   8  -5   48.33    2.14
   2  -8   6   14.86    1.16
  -2   8  -6   14.71    1.16
   2  -8   6   16.29    1.18
  -2   8  -7   51.10    2.37
   2  -8   7   51.05    2.35
   2  -8   7   53.60    2.37
   2  -8   8   13.89    1.26
   2  -8   8   12.22    1.29
   2  -8   8   12.82    1.25
  -2   8  -8   13.66    1.22
  -2   8  -9   32.82    1.90
   2  -8   9   34.23    1.82
   2  -8  10    2.29    1.14
   2  -8  11   24.72    1.79
   2  -8  11   24.48    1.71
  -2   7  14    1.38    1.73
  -2   7  13    0.11    1.70
  -2   7  12    0.63    1.64
   2  -7 -12    3.06    1.30
  -2   7  11    2.94    1.56
   2  -7 -11    0.95    1.28
  -2   7  11   -0.22    1.23
  -2   7  10    1.61    1.12
  -2   7  10    1.56    1.35
   2  -7 -10    1.99    1.17
   2  -7  -9   -0.64    1.06
   2  -7  -9   -0.70    0.90
  -2   7   9   -0.08    1.11
  -2   7   9    0.90    1.08
  -2   7   8    8.08    1.00
   2  -7  -8   10.83    1.03
  -2   7   8    8.47    1.16
   2  -7  -8    8.70    1.11
   2  -7  -8    9.63    1.11
  -2   7   8   10.79    1.14
  -2   7   8    9.36    1.44
   2  -7  -7   -0.11    0.89
  -2   7   7   -0.84    0.95
  -2   7   7    0.61    0.87
   2  -7  -7    0.08    0.98
   2  -7  -7   -0.04    0.77
   2  -7  -7   -0.65    1.04
  -2   7   7   -0.11    0.91
   2  -7  -6   18.81    1.20
  -2   7   6   17.50    1.27
   2  -7  -6   16.87    1.32
   2  -7  -6   17.46    1.07
   2  -7  -6   17.45    1.17
  -2   7   6   16.00    1.11
   2  -7  -6   19.22    1.18
  -2   7   6   17.31    1.17
   2  -7  -6   17.43    1.02
   2  -7  -5    9.17    0.95
   2  -7  -5   10.13    0.90
   2  -7  -5    9.94    0.84
   2  -7  -5   11.59    0.94
  -2   7   5   12.65    0.98
   2  -7  -5   10.46    1.06
  -2   7   5   11.66    0.91
   2  -7  -5   10.71    0.83
   2  -7  -4   86.87    3.72
   2  -7  -4   91.13    3.64
   2  -7  -4   91.24    3.66
   2  -7  -4   92.49    3.64
  -2   7   4   93.37    3.62
   2  -7  -4   85.18    3.70
   2  -7  -4   94.10    3.64
  -2   7   4   97.21    3.71
  -2   7   3  132.60    5.17
   2  -7  -3  142.96    5.19
   2  -7  -3  131.63    5.22
   2  -7  -3  135.68    5.28
   2  -7  -3  129.31    5.18
  -2   7   3  141.42    5.27
   2  -7  -3  131.80    5.25
   2  -7  -3  130.92    5.19
   2  -7  -2   38.52    1.73
   2  -7  -2   38.02    1.68
   2  -7  -2   37.83    1.73
  -2   7   2   33.85    1.56
   2  -7  -2   38.84    1.58
   2  -7  -2   37.31    1.57
   2  -7  -2   36.60    1.59
   2  -7  -1  167.37    6.30
   2  -7  -1  158.76    6.16
   2  -7  -1  166.53    6.16
   2  -7  -1  160.44    6.27
   2  -7  -1  167.47    6.27
   2  -7  -1  159.85    6.27
   2  -7  -1  158.28    6.17
   2  -7   0  215.80    8.13
   2  -7   0  217.86    8.14
   2  -7   0  224.67    8.27
   2  -7   0  212.76    8.13
   2  -7   0  223.01    8.27
   2  -7   0  216.64    8.27
   2  -7   0  208.77    8.14
   2  -7   0  217.52    8.26
  -2   7  -1   19.56    1.08
   2  -7   1   19.46    1.08
   2  -7   1   18.63    0.80
   2  -7   1   18.25    0.81
   2  -7   1   22.72    1.13
   2  -7   1   18.72    0.81
   2  -7   1   21.62    1.14
   2  -7   1   18.64    0.79
   2  -7   2  213.89    8.16
   2  -7   2  215.59    8.17
   2  -7   2  212.39    8.16
  -2   7  -2  239.69    8.36
   2  -7   2  231.15    8.37
   2  -7   2  233.35    8.39
   2  -7   2  229.36    8.36
   2  -7   2  222.18    8.17
   2  -7   2  228.09    8.22
   2  -7   3    5.37    0.84
  -2   7  -3    4.57    0.76
   2  -7   3    5.89    0.79
   2  -7   3    6.01    0.73
   2  -7   4  284.96   10.82
  -2   7  -4  289.94   10.83
   2  -7   4  277.15   10.81
   2  -7   5   14.93    1.03
  -2   7  -5   16.91    1.13
  -2   7  -5   17.99    1.24
   2  -7   5   16.32    1.06
   2  -7   6   42.66    1.95
  -2   7  -6   41.71    1.95
   2  -7   6   40.87    1.91
   2  -7   7    8.00    1.04
   2  -7   7    9.08    1.02
  -2   7  -7    8.04    1.07
  -2   7  -8    0.71    1.08
   2  -7   8   -1.69    0.93
   2  -7   9    5.72    1.06
  -2   7  -9    5.95    1.11
  -2   7  -9    3.71    0.38
  -2   7  -9    4.54    0.40
   2  -7  10   -0.82    1.03
   2  -7  10    0.48    1.11
  -2   7 -10    1.43    1.33
   2  -7  11    2.55    1.14
   2  -7  11    2.70    1.18
   2  -7  12    0.95    1.25
   2  -7  12    3.41    1.27
   2  -7  13    6.18    1.44
  -2   6  14   -0.99    1.75
  -2   6  13   -1.77    1.70
   2  -6 -13    0.09    1.31
  -2   6  13   -1.48    1.68
   2  -6 -12   17.95    1.59
  -2   6  12   18.61    1.85
  -2   6  12   14.22    1.97
  -2   6  11    2.94    1.41
   2  -6 -11    2.57    1.16
  -2   6  10   60.42    3.03
  -2   6  10   60.82    2.92
   2  -6 -10   60.61    2.75
  -2   6  10   60.38    2.72
   2  -6 -10   61.47    2.67
   2  -6  -9    0.63    0.90
  -2   6   9    0.81    1.10
   2  -6  -9    0.79    1.04
  -2   6   9    1.12    0.99
   2  -6  -9    0.33    0.97
   2  -6  -8   17.05    1.21
  -2   6   8   15.76    1.26
   2  -6  -8   16.74    1.11
   2  -6  -8   14.41    1.24
  -2   6   8   16.39    1.18
   2  -6  -8   14.25    1.33
  -2   6   7   34.15    1.78
   2  -6  -7   35.59    1.65
  -2   6   7   38.24    1.72
  -2   6   7   34.56    1.68
   2  -6  -7   34.46    1.82
   2  -6  -7   37.44    1.73
   2  -6  -7   35.07    1.75
   2  -6  -6   11.91    0.93
   2  -6  -6   10.68    0.97
   2  -6  -6   10.16    1.00
  -2   6   6   11.44    0.94
  -2   6   6   10.97    0.88
   2  -6  -6   13.36    0.90
   2  -6  -6   10.04    0.86
  -2   6   6   12.91    1.01
  -2   6   5   98.69    3.77
   2  -6  -5   94.43    3.76
   2  -6  -5   82.95    3.80
  -2   6   5   99.87    3.85
   2  -6  -5   94.82    3.79
   2  -6  -5   99.51    3.79
  -2   6   5   99.30    3.79
   2  -6  -5   97.65    3.76
   2  -6  -5   91.20    3.83
   2  -6  -4   19.82    1.06
   2  -6  -4   21.30    1.02
   2  -6  -4   17.31    1.12
  -2   6   4   18.70    1.09
   2  -6  -4   19.50    1.04
  -2   6   4   19.52    1.03
   2  -6  -4   19.49    1.00
   2  -6  -4   15.76    1.06
  -2   6   4   20.69    1.01
   2  -6  -3    0.21    0.67
   2  -6  -3    0.90    0.57
   2  -6  -3    0.39    0.58
  -2   6   3    0.69    0.67
  -2   6   3    1.18    0.55
  -2   6   3    0.69    0.50
   2  -6  -3    1.97    0.65
   2  -6  -2  213.08    8.25
   2  -6  -2  221.60    8.22
   2  -6  -2  212.43    8.16
   2  -6  -2  213.28    8.16
  -2   6   2  218.01    8.24
   2  -6  -2  218.55    8.23
  -2   6   2  214.09    8.15
   2  -6  -1    9.38    0.76
   2  -6  -1    9.98    0.76
   2  -6  -1    9.65    0.54
   2  -6  -1    9.64    0.78
  -2   6   1    9.57    0.55
   2  -6  -1   10.47    0.57
   2  -6  -1    9.97    0.76
   2  -6  -1    8.98    0.57
   2  -6   0  223.65    8.53
   2  -6   0  227.54    8.65
   2  -6   0  225.30    8.64
   2  -6   0  228.28    8.52
   2  -6   0  225.93    8.52
   2  -6   0  229.81    8.65
   2  -6   1  138.74    5.30
   2  -6   1  143.35    5.30
   2  -6   1  141.75    5.46
   2  -6   1  139.66    5.30
   2  -6   1  142.75    5.47
   2  -6   1  139.46    5.30
  -2   6  -1  146.02    5.45
   2  -6   1  143.29    5.46
   2  -6   2   83.94    3.32
  -2   6  -2   84.01    3.30
   2  -6   2   88.06    3.32
   2  -6   2   78.88    3.15
   2  -6   2   85.40    3.29
  -2   6  -3   17.13    1.02
   2  -6   3   15.68    0.97
   2  -6   3   15.99    0.98
  -2   6  -4   86.36    3.25
   2  -6   4   80.35    3.22
   2  -6   5   53.37    2.28
  -2   6  -5   55.89    2.34
   2  -6   5   52.96    2.31
   2  -6   6   21.66    1.23
  -2   6  -6   20.48    1.27
  -2   6  -6   18.33    1.33
   2  -6   6   17.55    1.12
   2  -6   7   41.08    1.85
   2  -6   7   39.12    1.88
  -2   6  -7   41.61    1.96
  -2   6  -7   38.38    1.99
  -2   6  -7   36.91    1.53
  -2   6  -7   41.15    1.53
  -2   6  -8    9.79    1.22
  -2   6  -8   13.12    1.36
  -2   6  -8   11.25    0.61
   2  -6   8   11.94    1.04
  -2   6  -8    8.49    0.61
   2  -6   9   61.84    2.62
  -2   6  -9   69.47    2.87
  -2   6  -9   69.43    2.39
   2  -6   9   63.72    2.60
  -2   6  -9   69.26    2.32
   2  -6  10    2.61    1.04
   2  -6  10    2.03    1.09
  -2   6 -10    1.04    0.50
  -2   6 -10    1.80    1.36
  -2   6 -10    1.55    0.63
  -2   6 -10    2.04    0.70
  -2   6 -10    2.25    0.59
  -2   6 -11   46.48    2.06
   2  -6  11   49.32    2.49
   2  -6  12    0.86    1.42
   2  -6  12   -1.10    1.24
   2  -6  13    6.95    1.45
   2  -6  13    7.20    1.52
  -2   5  15    1.50    1.95
  -2   5  14    0.83    1.62
   2  -5 -14    1.11    1.38
  -2   5  14    1.95    1.60
  -2   5  14   -0.26    1.71
   2  -5 -13    0.04    1.32
  -2   5  13   -1.43    1.68
  -2   5  13    0.03    1.12
  -2   5  13   -2.47    1.63
  -2   5  13    2.60    1.64
  -2   5  12   12.62    1.84
  -2   5  12    8.80    1.53
  -2   5  12   13.30    1.60
  -2   5  12   13.68    1.31
   2  -5 -12   10.76    1.35
  -2   5  11    2.04    1.45
  -2   5  11    1.17    0.96
   2  -5 -11    1.04    1.08
  -2   5  10   13.77    1.38
   2  -5 -10   15.33    1.19
  -2   5  10   17.59    1.69
   2  -5 -10   13.70    1.24
   2  -5 -10   18.19    1.31
  -2   5   9   33.93    1.71
  -2   5   9   34.32    1.86
   2  -5  -9   33.00    1.68
  -2   5   9   42.40    2.04
   2  -5  -9   36.54    1.77
   2  -5  -9   36.17    1.76
   2  -5  -9   28.65    1.86
   2  -5  -8    0.10    0.73
   2  -5  -8   -0.34    0.77
  -2   5   8    0.03    0.91
  -2   5   8    0.27    0.77
  -2   5   8    0.28    1.14
   2  -5  -8    0.24    0.84
   2  -5  -8    1.13    0.96
   2  -5  -7   37.93    1.72
   2  -5  -7   38.08    1.81
   2  -5  -7   41.86    1.81
  -2   5   7   36.23    1.82
  -2   5   7   40.79    1.77
  -2   5   7   41.59    1.95
   2  -5  -7   38.35    1.89
  -2   5   7   39.02    1.77
   2  -5  -6   12.05    0.77
  -2   5   6    7.03    0.78
  -2   5   6    9.36    0.81
  -2   5   6    8.81    0.88
   2  -5  -6    8.30    0.79
   2  -5  -6    8.68    0.85
   2  -5  -6   12.86    0.79
  -2   5   6    9.58    0.96
   2  -5  -6    7.31    0.92
  -2   5   5    5.33    0.64
   2  -5  -5    5.65    0.63
   2  -5  -5    5.77    0.71
   2  -5  -5    5.35    0.65
  -2   5   5    5.32    0.66
  -2   5   5    5.43    0.70
   2  -5  -5    4.99    0.65
   2  -5  -5    4.94    0.74
  -2   5   4    5.31    0.59
   2  -5  -4    6.11    0.68
   2  -5  -4    4.40    0.62
   2  -5  -4    5.90    0.59
  -2   5   4    5.44    0.56
   2  -5  -4    4.84    0.57
  -2   5   4    5.67    0.68
   2  -5  -4    6.11    0.66
   2  -5  -4    5.93    0.62
   2  -5  -3  221.87    8.45
   2  -5  -3  215.96    8.44
   2  -5  -3  225.21    8.48
   2  -5  -3  215.26    8.51
   2  -5  -3  223.45    8.50
  -2   5   3  222.25    8.50
  -2   5   3  229.91    8.45
  -2   5   3  226.71    8.44
   2  -5  -2   88.40    3.49
  -2   5   2   84.81    3.47
   2  -5  -2   89.29    3.46
  -2   5   2   86.98    3.39
   2  -5  -2   87.29    3.40
  -2   5   2   89.27    3.40
   2  -5  -2   89.39    3.41
   2  -5  -2   90.87    3.48
   2  -5  -1  159.95    6.25
   2  -5  -1  169.01    6.33
   2  -5  -1  166.43    6.35
  -2   5   1  170.82    6.25
  -2   5   1  162.69    6.24
   2  -5  -1  161.91    6.25
   2  -5  -1  174.22    6.34
   2  -5   0  455.32   17.31
  -2   5   0  480.62   17.41
   2  -5   0  470.14   17.42
  -2   5   0  456.16   17.31
   2  -5   0  457.99   17.31
   2  -5   0  458.81   17.40
   2  -5   0  467.41   17.31
   2  -5   0  471.12   17.42
   2  -5   1  197.63    7.54
   2  -5   1  199.21    7.68
   2  -5   1  205.42    7.54
  -2   5  -1  202.62    7.68
   2  -5   1  199.01    7.68
   2  -5   1  198.31    7.68
   2  -5   1  195.14    7.59
   2  -5   1  203.84    7.54
   2  -5   1  200.51    7.55
   2  -5   2  444.50   16.28
  -2   5  -2  454.28   16.29
   2  -5   2  441.13   16.29
   2  -5   2  413.66   16.18
   2  -5   2  441.33   16.29
   2  -5   3   88.47    3.55
  -2   5  -3   92.30    3.58
   2  -5   3   90.33    3.56
  -2   5  -3   80.98    3.57
   2  -5   3   91.46    3.40
   2  -5   4  462.39   17.38
  -2   5  -4  451.86   17.40
   2  -5   4  459.73   17.36
  -2   5  -4  467.03   17.40
   2  -5   5   65.35    2.81
   2  -5   5   66.98    2.76
  -2   5  -5   69.97    2.86
  -2   5  -5   71.43    2.84
  -2   5  -6  133.08    4.88
   2  -5   6  134.04    4.85
  -2   5  -6  122.12    4.64
  -2   5  -6  129.89    4.88
   2  -5   6  126.04    4.79
  -2   5  -6  115.84    4.64
   2  -5   7  287.07   10.55
  -2   5  -7  254.11   10.39
  -2   5  -7  302.41   10.65
  -2   5  -7  279.65   10.42
  -2   5  -7  297.21   10.67
   2  -5   7  290.27   10.61
  -2   5  -7  283.29   10.40
   2  -5   8    1.85    0.82
  -2   5  -8    1.78    1.02
  -2   5  -8    1.82    0.51
  -2   5  -8    3.22    0.38
   2  -5   8    1.21    0.85
  -2   5  -8    2.54    1.09
  -2   5  -8    2.80    0.55
  -2   5  -9   45.44    2.33
  -2   5  -9   42.73    2.26
   2  -5   9   39.19    1.96
  -2   5  -9   40.94    1.81
  -2   5  -9   45.30    1.86
  -2   5 -10   11.58    0.94
  -2   5 -10   13.30    0.87
  -2   5 -10   11.67    1.02
   2  -5  10   10.26    1.10
  -2   5 -10   13.01    1.73
   2  -5  11   -0.03    1.04
  -2   5 -11    0.91    0.89
  -2   5 -11    0.79    0.97
  -2   5 -11    0.02    0.81
   2  -5  11   -0.76    1.37
   2  -5  12    2.74    1.15
   2  -5  12    3.29    1.23
   2  -5  12    3.59    1.39
  -2   5 -12    3.72    1.06
   2  -5  13    2.01    1.23
   2  -5  13   -1.51    1.19
   2  -5  13    1.41    1.44
   2  -5  14    4.90    1.40
   2  -5  14    7.13    1.49
  -2   4  15    0.66    1.75
  -2   4  15    2.64    1.80
  -2   4  14   11.85    1.77
  -2   4  14   10.46    1.89
  -2   4  14   13.21    1.83
  -2   4  14   12.87    1.35
  -2   4  13    1.65    1.07
   2  -4 -13   -0.85    1.23
  -2   4  13    1.31    1.56
  -2   4  13    0.46    1.57
  -2   4  13    3.53    1.68
  -2   4  12    7.46    1.54
  -2   4  12    9.54    1.56
  -2   4  12    9.27    1.09
   2  -4 -12    7.42    1.26
  -2   4  12    8.78    1.54
  -2   4  11    1.25    1.33
  -2   4  11    2.80    0.92
   2  -4 -11    2.25    0.88
  -2   4  11    2.09    1.24
  -2   4  11    2.92    1.21
   2  -4 -11    2.62    1.04
   2  -4 -11    1.58    1.11
   2  -4 -11    3.51    1.10
   2  -4 -10   24.35    1.31
   2  -4 -10   22.90    1.52
  -2   4  10   26.94    1.70
  -2   4  10   23.07    1.73
  -2   4  10   24.47    1.39
   2  -4 -10   23.22    1.42
  -2   4  10   26.85    1.38
  -2   4  10   22.92    1.61
   2  -4 -10   27.55    1.52
   2  -4  -9   24.91    1.43
  -2   4   9   21.95    1.47
  -2   4   9   22.37    1.62
  -2   4   9   22.99    1.53
   2  -4  -9   25.03    1.43
   2  -4  -9   22.83    1.35
   2  -4  -8  104.47    4.00
   2  -4  -8   89.60    4.02
  -2   4   8  101.64    4.12
   2  -4  -8  103.01    3.98
   2  -4  -8   97.95    3.93
  -2   4   8   97.89    4.02
  -2   4   8   99.88    4.04
  -2   4   7  116.31    4.66
   2  -4  -7  116.31    4.57
   2  -4  -7  118.65    4.62
   2  -4  -7  115.17    4.66
   2  -4  -7  118.34    4.63
  -2   4   7  122.11    4.72
  -2   4   6    8.92    0.88
   2  -4  -6    7.31    0.69
  -2   4   6    7.72    0.70
  -2   4   6    7.88    0.78
   2  -4  -6    7.90    0.75
   2  -4  -6    6.11    0.79
   2  -4  -6    9.48    0.74
   2  -4  -5  639.17   24.81
  -2   4   5  653.34   24.85
   2  -4  -5  680.23   24.87
   2  -4  -5  662.90   24.84
   2  -4  -5  665.29   24.84
  -2   4   5  653.11   24.89
  -2   4   5  687.71   24.82
   2  -4  -5  672.52   24.82
  -2   4   5  633.76   24.82
   2  -4  -4   63.08    2.60
   2  -4  -4   65.05    2.60
  -2   4   4   67.78    2.59
   2  -4  -4   65.66    2.60
  -2   4   4   66.74    2.60
   2  -4  -4   66.46    2.65
   2  -4  -4   64.56    2.60
   2  -4  -3  339.03   12.86
   2  -4  -3  345.69   12.87
   2  -4  -3  338.67   12.85
   2  -4  -3  345.04   12.89
   2  -4  -3  335.51   12.84
   2  -4  -3  334.62   12.90
  -2   4   3  341.76   12.84
  -2   4   3  347.11   12.85
   2  -4  -2  204.89    8.05
   2  -4  -2  214.93    8.03
  -2   4   2  210.50    7.98
   2  -4  -2  208.46    7.99
   2  -4  -2  218.83    8.05
  -2   4   2  213.46    7.99
   2  -4  -2  211.25    7.99
   2  -4  -1   31.71    1.29
   2  -4  -1   32.37    1.37
  -2   4   1   31.98    1.27
   2  -4  -1   32.06    1.28
  -2   4   1   33.35    1.28
   2  -4  -1   31.89    1.38
   2  -4   0  784.86   29.17
   2  -4   0  770.84   29.16
   2  -4   0  774.44   29.08
   2  -4   0  797.15   29.08
  -2   4   0  789.86   29.08
  -2   4   0  751.86   29.07
   2  -4   0  776.41   29.17
   2  -4   1  122.91    4.64
   2  -4   1  119.85    4.63
   2  -4   1  121.01    4.56
  -2   4  -1  115.97    4.63
   2  -4   1  120.17    4.63
  -2   4  -2   84.68    3.21
   2  -4   2   76.94    3.19
   2  -4   2   80.23    3.17
  -2   4  -2   82.83    3.19
  -2   4  -3  130.05    4.91
   2  -4   3  126.01    4.89
   2  -4   3  124.18    4.87
  -2   4  -3  128.05    4.90
   2  -4   3  126.07    4.76
  -2   4  -4   43.14    1.88
   2  -4   4   42.74    1.86
  -2   4  -4   44.04    1.69
   2  -4   4   42.87    1.83
  -2   4  -4   45.11    1.90
  -2   4  -5   65.69    2.55
  -2   4  -5   67.41    2.57
  -2   4  -5   66.24    2.56
  -2   4  -5   69.16    2.80
   2  -4   5   67.00    2.77
  -2   4  -5   70.35    2.77
   2  -4   5   68.35    2.70
  -2   4  -5   68.95    2.58
  -2   4  -5   66.30    2.57
  -2   4  -6   42.68    1.75
  -2   4  -6   49.85    2.09
   2  -4   6   49.99    2.01
  -2   4  -6   43.93    1.76
   2  -4   6   40.00    1.88
  -2   4  -6   46.39    2.01
  -2   4  -7   -0.05    0.49
  -2   4  -7   -0.17    0.45
   2  -4   7    0.59    0.66
  -2   4  -7   -1.05    1.06
  -2   4  -7   -0.01    0.46
  -2   4  -7   -0.80    0.91
  -2   4  -8    2.53    0.62
   2  -4   8    3.74    0.82
  -2   4  -8    3.58    0.63
  -2   4  -8    2.94    1.05
  -2   4  -8    3.07    0.57
   2  -4   8    2.56    0.45
  -2   4  -8    4.21    1.20
   2  -4   9    1.47    0.84
  -2   4  -9    3.79    1.48
  -2   4  -9    2.81    0.72
  -2   4  -9    4.34    0.68
  -2   4  -9    4.01    0.77
  -2   4  -9    4.78    1.24
   2  -4   9    2.45    0.53
  -2   4 -10    0.83    0.81
   2  -4  10    0.29    0.90
   2  -4  10    0.69    0.90
  -2   4 -10    1.33    0.83
   2  -4  10    1.67    1.38
  -2   4 -10   -0.73    1.57
   2  -4  10    1.29    0.56
  -2   4 -10    0.21    0.82
  -2   4 -11   21.79    1.34
   2  -4  11   17.57    1.39
   2  -4  11   18.88    1.39
  -2   4 -11   22.55    1.28
   2  -4  11   23.64    1.76
  -2   4 -11   14.63    1.23
   2  -4  12    7.22    1.29
   2  -4  12    9.17    1.24
  -2   4 -12   10.38    1.18
   2  -4  12    8.48    1.45
  -2   4 -12   12.25    1.12
  -2   4 -13    1.54    1.28
   2  -4  13   -0.41    1.32
   2  -4  13    1.18    1.20
   2  -4  13   -0.12    1.40
   2  -4  14   11.51    1.41
   2  -4  14    7.68    1.38
   2  -4  14   12.71    1.56
  -2   3  15    4.96    1.57
  -2   3  15    5.24    1.56
  -2   3  15    7.27    1.65
   2  -3 -15    5.18    1.55
  -2   3  14   21.26    1.93
  -2   3  14   22.10    1.95
  -2   3  14   19.27    1.42
  -2   3  14   19.71    1.91
  -2   3  13    4.29    1.06
  -2   3  13    4.40    1.52
  -2   3  13    8.65    1.66
  -2   3  13    4.79    1.48
  -2   3  12   30.99    2.07
  -2   3  12   33.05    1.68
  -2   3  12   35.54    2.13
   2  -3 -12   35.75    1.75
  -2   3  12   32.81    2.07
  -2   3  11    0.82    1.12
   2  -3 -11    1.54    1.01
   2  -3 -11    1.29    0.87
  -2   3  11    1.18    1.20
   2  -3 -11    1.86    1.07
   2  -3 -11    3.33    1.31
  -2   3  11    1.30    0.85
  -2   3  11    0.14    1.26
  -2   3  10   21.18    1.50
   2  -3 -10   18.12    1.61
  -2   3  10   27.02    1.30
   2  -3 -10   25.56    1.43
   2  -3 -10   25.51    1.51
  -2   3  10   25.05    1.32
  -2   3  10   26.01    1.53
  -2   3  10   28.12    1.67
   2  -3 -10   26.42    1.35
   2  -3 -10   23.14    1.46
  -2   3   9  103.00    4.30
  -2   3   9  108.67    4.19
  -2   3   9  115.71    4.41
   2  -3  -9  105.78    4.27
  -2   3   9  105.94    4.32
  -2   3   9  108.92    4.20
   2  -3  -9   97.45    4.20
   2  -3  -9  105.79    4.19
  -2   3   8   11.81    0.83
   2  -3  -8   10.11    0.87
  -2   3   8    8.16    0.93
   2  -3  -8   10.36    0.94
   2  -3  -8   10.86    0.91
  -2   3   8    9.54    0.82
  -2   3   8    9.03    0.92
  -2   3   8    9.68    1.07
   2  -3  -7  157.25    5.77
  -2   3   7  130.44    5.76
  -2   3   7  157.57    5.84
  -2   3   7  156.07    5.74
   2  -3  -7  157.63    5.78
  -2   3   7  133.22    5.77
   2  -3  -7  150.18    5.72
   2  -3  -6  185.00    7.10
  -2   3   6  188.58    7.15
   2  -3  -6  192.24    7.10
   2  -3  -6  175.38    7.11
   2  -3  -6  183.96    7.05
   2  -3  -5  105.43    4.06
   2  -3  -5  105.49    4.08
   2  -3  -5  103.94    4.06
   2  -3  -5  104.06    4.02
   2  -3  -5  103.37    4.02
  -2   3   5  103.39    4.09
   2  -3  -4   41.97    1.60
   2  -3  -4   38.03    1.61
   2  -3  -4   36.63    1.55
   2  -3  -4   37.92    1.56
   2  -3  -4   37.05    1.57
  -2   3   4   36.88    1.62
   2  -3  -3    4.72    0.46
  -2   3   3    4.74    0.40
   2  -3  -3    5.21    0.45
   2  -3  -3    5.15    0.48
   2  -3  -3    5.69    0.46
   2  -3  -3    5.72    0.43
   2  -3  -3    4.90    0.42
   2  -3  -2   69.82    2.72
   2  -3  -2   71.85    2.77
   2  -3  -2   69.16    2.75
  -2   3   2   69.96    2.77
  -2   3   2   69.52    2.71
   2  -3  -2   72.06    2.71
  -2   3   2   71.32    2.71
   2  -3  -2   69.24    2.76
   2  -3  -1    4.72    0.33
  -2   3   1    4.64    0.46
   2  -3  -1    4.44    0.44
  -2   3   1    4.86    0.45
  -2   3   1    5.11    0.33
   2  -3  -1    4.45    0.45
  -2   3   1    5.24    0.31
   2  -3  -1    5.14    0.32
   2  -3   0  270.66    9.95
  -2   3   0  242.12    9.87
   2  -3   0  270.90    9.86
   2  -3   0  264.56    9.87
   2  -3   0  276.73    9.94
   2  -3   0  265.82    9.90
   2  -3   1  107.37    3.95
   2  -3   1  103.05    4.05
   2  -3   1  103.77    4.06
   2  -3   1  105.70    4.05
   2  -3   1  100.05    4.00
   2  -3   2  394.48   14.62
   2  -3   2  385.47   14.64
  -2   3  -2  390.33   14.63
  -2   3  -2  394.69   14.57
   2  -3   2  379.79   14.57
   2  -3   3  132.17    5.19
  -2   3  -3  144.70    5.30
   2  -3   3  139.36    5.31
   2  -3   3  133.58    5.26
  -2   3  -3  144.47    5.21
  -2   3  -4  264.13    9.82
  -2   3  -4  259.96    9.82
  -2   3  -4  267.28    9.96
   2  -3   4  262.42    9.95
  -2   3  -4  263.17    9.82
  -2   3  -4  265.98    9.93
   2  -3   4  270.20    9.84
  -2   3  -4  257.01    9.82
  -2   3  -4  249.09    9.85
  -2   3  -5  425.61   15.40
  -2   3  -5  392.19   15.23
  -2   3  -5  386.45   15.24
  -2   3  -5  414.99   15.24
  -2   3  -5  409.78   15.34
   2  -3   5  405.14   15.36
  -2   3  -5  427.19   15.26
  -2   3  -6   47.26    1.87
   2  -3   6   44.95    1.85
  -2   3  -6   51.05    2.21
  -2   3  -6   47.70    1.90
  -2   3  -6   46.06    1.88
  -2   3  -6   48.81    2.08
  -2   3  -7  211.44    8.38
  -2   3  -7  245.46    8.65
  -2   3  -7  227.48    8.36
  -2   3  -7  225.47    8.36
   2  -3   7  216.83    8.34
  -2   3  -7  230.96    8.52
   2  -3   7  205.29    8.40
  -2   3  -8   80.85    2.97
   2  -3   8   72.21    3.02
  -2   3  -8   81.64    3.40
   2  -3   8   75.16    2.94
   2  -3   8   71.51    3.04
  -2   3  -8   80.32    3.23
  -2   3  -8   78.38    2.98
  -2   3  -8   63.72    2.99
  -2   3  -9   68.29    2.51
  -2   3  -9   65.43    2.82
   2  -3   9   58.40    2.59
  -2   3  -9   63.70    3.05
  -2   3  -9   68.37    2.53
   2  -3   9   57.51    2.54
   2  -3   9   61.40    2.44
  -2   3 -10   78.87    2.76
  -2   3 -10   72.25    2.78
  -2   3 -10   64.52    3.32
  -2   3 -10   80.58    3.18
   2  -3  10   69.55    2.69
   2  -3  10   63.63    2.78
   2  -3  10   76.95    3.11
   2  -3  10   64.69    2.82
   2  -3  11    4.10    1.06
   2  -3  11    3.58    1.10
  -2   3 -11    2.77    0.88
  -2   3 -11    5.01    0.99
  -2   3 -11    5.00    0.84
   2  -3  11    3.75    0.74
   2  -3  11    3.31    1.30
   2  -3  12    6.11    1.10
   2  -3  12    6.39    1.22
  -2   3 -12    6.56    1.02
  -2   3 -12    2.85    0.96
   2  -3  12    6.90    1.34
  -2   3 -12    5.96    1.03
  -2   3 -12    5.98    0.96
   2  -3  13   -0.46    1.29
   2  -3  13   -0.15    1.07
  -2   3 -13    1.51    1.08
   2  -3  13    0.08    1.34
   2  -3  14    4.25    1.45
  -2   3 -14    6.13    1.24
   2  -3  14    7.31    1.63
  -2   2  16    0.05    1.57
  -2   2  15    8.18    1.19
   2  -2 -15    6.70    1.51
  -2   2  15    5.70    1.59
  -2   2  15    8.04    1.60
  -2   2  15    5.98    1.66
   2  -2 -14    4.91    1.44
  -2   2  14    3.72    1.41
  -2   2  14    3.70    1.60
  -2   2  14    4.64    1.01
  -2   2  14    3.35    1.44
   2  -2 -13    0.15    1.00
  -2   2  13   -0.08    0.90
  -2   2  13    0.38    1.34
   2  -2 -13   -0.63    1.22
  -2   2  13   -0.42    1.41
  -2   2  13    1.23    1.35
   2  -2 -12   13.18    1.30
   2  -2 -12   12.00    1.11
  -2   2  12   11.36    1.52
  -2   2  12    8.90    1.00
  -2   2  12   12.36    1.42
  -2   2  12    9.43    1.38
   2  -2 -11    2.40    1.02
   2  -2 -11    3.39    0.93
  -2   2  11    2.67    1.05
  -2   2  11    4.30    0.79
   2  -2 -11    2.79    1.34
  -2   2  11    1.96    1.23
   2  -2 -11    3.22    1.05
  -2   2  11    4.77    1.12
  -2   2  11    3.40    0.80
   2  -2 -10    1.23    0.93
   2  -2 -10    1.77    0.89
  -2   2  10    2.02    0.97
  -2   2  10    1.78    0.71
  -2   2  10    2.74    0.73
  -2   2  10    1.16    0.99
   2  -2 -10    2.05    1.09
  -2   2  10    3.60    1.09
   2  -2  -9   22.31    1.31
   2  -2  -9   21.64    1.23
  -2   2   9   22.95    1.11
   2  -2  -9   19.94    1.27
   2  -2  -9   19.39    1.31
  -2   2   9   18.62    1.15
  -2   2   9   23.86    1.41
   2  -2  -8   33.17    1.56
  -2   2   8   30.55    1.44
   2  -2  -8   27.07    1.56
  -2   2   8   33.83    1.65
  -2   2   8   32.85    1.44
   2  -2  -8   30.16    1.48
   2  -2  -8   32.83    1.57
   2  -2  -7  758.74   28.73
  -2   2   7  770.03   28.68
   2  -2  -7  745.17   28.68
   2  -2  -7  755.62   28.73
  -2   2   7  795.85   28.77
  -2   2   7  765.19   28.69
  -2   2   6    6.31    0.56
  -2   2   6    6.39    0.59
   2  -2  -6    6.24    0.60
   2  -2  -6    6.28    0.69
  -2   2   6    6.10    0.67
   2  -2  -6    6.45    0.65
   2  -2  -5  558.31   20.55
  -2   2   5  497.98   20.54
  -2   2   5  535.42   20.57
   2  -2  -5  565.29   20.58
   2  -2  -5  571.37   20.58
  -2   2   5  554.52   20.60
  -2   2   5  531.52   20.58
  -2   2   5  575.56   20.56
   2  -2  -4   26.30    1.14
  -2   2   4   25.31    1.16
   2  -2  -4   27.53    1.16
   2  -2  -4   27.13    1.15
  -2   2   4   26.95    1.16
  -2   2   4   27.44    1.19
   2  -2  -4   28.23    1.19
   2  -2  -3 1123.49   41.43
   2  -2  -3 1113.20   41.44
   2  -2  -3 1073.94   41.46
   2  -2  -3 1114.25   41.44
   2  -2  -3 1114.46   41.45
   2  -2  -3 1094.83   41.43
  -2   2   3 1103.60   41.45
   2  -2  -2  546.75   20.42
   2  -2  -2  554.96   20.39
  -2   2   2  534.53   20.40
   2  -2  -2  527.98   20.38
   2  -2  -2  540.06   20.38
  -2   2   2  561.98   20.41
  -2   2   1  201.72    7.71
   2  -2  -1  206.98    7.72
  -2   2   1  210.97    7.77
   2  -2  -1  208.69    7.77
   2  -2  -1  199.32    7.72
   2  -2  -1  210.37    7.75
  -2   2   1  202.93    7.75
   2  -2  -1  207.93    7.75
  -2   2   0 1565.29   57.28
   2  -2   0 1534.07   57.28
   2  -2   0 1521.81   57.22
  -2   2   0 1542.47   57.26
   2  -2   0 1540.64   57.26
  -2   2   0 1523.90   57.22
   2  -2   0 1516.60   57.25
  -2   2   0 1523.18   57.22
   2  -2   0 1530.08   57.22
   2  -2   1  193.57    7.17
  -2   2  -1  200.91    7.26
   2  -2   1  201.80    7.25
  -2   2  -1  181.22    7.21
   2  -2   1  196.23    7.20
   2  -2   1  197.21    7.17
  -2   2  -1  186.21    7.18
  -2   2  -2  173.27    6.89
  -2   2  -2  180.27    6.79
  -2   2  -2  181.82    6.86
   2  -2   2  178.67    6.88
  -2   2  -2  176.59    6.79
  -2   2  -2  184.93    6.80
  -2   2  -2  186.36    6.80
   2  -2   2  179.50    6.82
   2  -2   3 1812.99   67.50
  -2   2  -3 1847.78   67.48
  -2   2  -3 1771.04   67.48
  -2   2  -3 1894.33   67.52
   2  -2   3 1903.84   67.59
  -2   2  -3 1644.51   67.48
  -2   2  -3 1894.01   67.55
  -2   2  -3 1831.87   67.49
  -2   2  -4   51.09    1.99
   2  -2   4   48.67    2.13
   2  -2   4   53.01    2.02
  -2   2  -4   50.46    2.00
  -2   2  -4   50.92    2.00
  -2   2  -4   51.66    1.98
  -2   2  -4   52.08    2.03
  -2   2  -4   50.88    2.09
  -2   2  -5  559.82   20.13
  -2   2  -5  522.43   20.07
  -2   2  -5  527.61   20.05
  -2   2  -5  543.52   20.04
  -2   2  -5  526.18   20.08
   2  -2   6  186.97    7.43
  -2   2  -6  203.65    7.66
  -2   2  -6  205.75    7.41
  -2   2  -6  206.80    7.52
   2  -2   6  193.86    7.40
  -2   2  -6  182.96    7.43
   2  -2   6  188.86    7.44
  -2   2  -6  199.81    7.40
   2  -2   7   11.77    0.88
   2  -2   7   11.46    0.80
  -2   2  -7   11.23    0.85
   2  -2   7   12.51    0.74
  -2   2  -7   13.75    1.35
  -2   2  -7   14.93    1.10
  -2   2  -7   12.51    0.77
   2  -2   8   18.47    1.09
   2  -2   8   19.86    1.02
  -2   2  -8   18.84    1.60
   2  -2   8   18.20    1.11
  -2   2  -8   23.44    1.04
  -2   2  -8   22.73    1.38
  -2   2  -8   22.92    1.07
  -2   2  -8   14.92    1.10
  -2   2  -9   -0.12    0.71
  -2   2  -9   -0.49    1.08
  -2   2  -9    0.07    0.62
  -2   2  -9    1.12    0.63
  -2   2  -9   -1.53    1.50
   2  -2   9    0.64    0.77
   2  -2   9    0.28    1.14
   2  -2   9    1.30    0.59
   2  -2   9    1.00    0.74
  -2   2 -10   22.63    1.18
   2  -2  10   18.79    1.24
  -2   2 -10   19.39    1.97
   2  -2  10   18.17    1.30
   2  -2  10   21.13    1.13
  -2   2 -10   22.85    1.16
  -2   2 -10   25.33    1.70
   2  -2  10   19.99    1.56
   2  -2  11   -0.39    1.04
  -2   2 -11    0.92    0.83
   2  -2  11   -0.26    0.95
  -2   2 -11    0.89    0.81
  -2   2 -11    0.62    0.92
   2  -2  11   -0.41    0.73
   2  -2  11    0.59    1.27
   2  -2  12   -0.76    1.14
  -2   2 -12    0.28    0.86
   2  -2  12   -0.86    1.07
   2  -2  12    0.72    0.85
  -2   2 -12   -0.08    0.99
  -2   2 -12    0.86    1.07
   2  -2  12   -1.89    1.32
  -2   2 -12    0.23    0.96
  -2   2 -13    0.84    1.04
   2  -2  13    3.67    1.21
  -2   2 -13    1.35    1.03
   2  -2  13    1.07    1.38
   2  -2  14    3.21    1.23
  -2   2 -14    4.18    1.19
   2  -2  14    1.81    1.51
  -2   2 -15    0.86    1.26
  -2   1  16    0.18    1.42
  -2   1  16    1.89    1.37
  -2   1  16   -0.98    1.56
   2  -1 -16    3.23    1.51
  -2   1  15   -0.16    1.03
  -2   1  15    2.23    1.36
  -2   1  15    1.57    1.34
   2  -1 -15    0.41    1.41
  -2   1  15    1.84    1.44
  -2   1  14    5.50    1.05
  -2   1  14    7.45    1.43
   2  -1 -14    5.97    1.43
  -2   1  14    4.34    1.49
  -2   1  14    6.26    1.41
   2  -1 -13   12.01    1.24
  -2   1  13   12.02    1.40
  -2   1  13   12.98    1.07
  -2   1  13   12.79    1.41
   2  -1 -13   15.21    1.44
  -2   1  13   12.16    1.53
   2  -1 -12   88.22    3.69
   2  -1 -12   92.31    3.61
   2  -1 -12   91.57    3.72
  -2   1  12   82.43    3.70
  -2   1  12   80.75    3.70
  -2   1  12   82.07    3.51
  -2   1  12   91.83    3.76
   2  -1 -11   71.90    3.07
  -2   1  11   68.98    2.91
   2  -1 -11   73.24    3.03
   2  -1 -11   72.73    2.98
  -2   1  11   69.58    2.91
  -2   1  11   75.45    3.15
   2  -1 -11   66.37    3.06
   2  -1 -10    1.52    0.83
   2  -1 -10    2.62    0.94
  -2   1  10    2.39    0.67
  -2   1  10    1.65    0.65
   2  -1 -10    2.48    1.18
   2  -1 -10    1.56    0.96
  -2   1  10    2.46    1.02
   2  -1  -9  230.54    8.52
  -2   1   9  220.60    8.47
  -2   1   9  247.51    8.62
  -2   1   9  217.48    8.48
   2  -1  -9  200.42    8.58
   2  -1  -9  221.98    8.53
  -2   1   8   70.99    2.68
  -2   1   8   54.26    2.76
  -2   1   8   78.14    2.83
  -2   1   8   54.81    2.77
   2  -1  -8   67.95    2.74
   2  -1  -8   73.94    2.73
   2  -1  -8   60.59    2.78
  -2   1   8   69.20    2.68
   2  -1  -7  325.26   11.85
  -2   1   7  285.47   11.88
   2  -1  -7  321.89   11.85
   2  -1  -7  314.21   11.88
  -2   1   7  321.03   11.82
  -2   1   7  295.46   11.88
  -2   1   7  340.48   11.90
  -2   1   7  322.96   11.83
   2  -1  -7  283.40   11.85
   2  -1  -6   64.84    2.62
  -2   1   6   62.99    2.65
   2  -1  -6   69.25    2.65
   2  -1  -6   68.48    2.65
  -2   1   6   60.07    2.64
  -2   1   6   65.82    2.59
   2  -1  -6   68.96    2.66
  -2   1   6   65.28    2.65
  -2   1   6   65.41    2.60
  -2   1   5  405.24   14.97
  -2   1   5  381.27   14.99
   2  -1  -5  396.13   15.00
  -2   1   5  388.36   14.99
   2  -1  -5  399.56   14.97
  -2   1   5  412.73   14.97
   2  -1  -5  402.90   15.00
  -2   1   5  389.88   14.99
   2  -1  -4 1720.90   63.76
  -2   1   4 1687.15   63.75
  -2   1   4 1691.77   63.75
   2  -1  -4 1739.20   63.73
  -2   1   4 1700.15   63.73
   2  -1  -4 1707.14   63.76
  -2   1   4 1690.42   63.75
  -2   1   4 1681.51   63.74
   2  -1  -3  148.42    5.59
  -2   1   3  145.89    5.60
  -2   1   3  151.04    5.59
   2  -1  -3  150.02    5.60
   2  -1  -3  156.69    5.61
  -2   1   3  134.36    5.58
   2  -1  -3  147.74    5.59
  -2   1   3  149.75    5.60
   2  -1  -2   60.71    2.29
   2  -1  -2   58.31    2.28
  -2   1   2   60.45    2.29
   2  -1  -2   58.21    2.31
  -2   1   2   61.21    2.29
   2  -1  -2   57.96    2.28
   2  -1  -2   56.87    2.28
  -2   1   1  420.26   16.14
  -2   1   1  428.07   16.15
   2  -1  -1  406.34   16.15
   2  -1  -1  436.48   16.14
   2  -1  -1  440.72   16.16
  -2   1   1  437.22   16.15
   2  -1  -1  439.76   16.14
  -2   1   0   72.17    2.77
   2  -1   0   73.90    2.76
  -2   1   0   75.47    2.80
   2  -1   0   74.92    2.80
   2  -1   0   68.53    2.75
  -2   1  -1  347.09   12.10
  -2   1  -1  311.27   12.04
   2  -1   1  322.40   12.09
   2  -1   1  302.39   12.03
   2  -1   1  327.74   12.04
  -2   1  -1  323.28   12.06
   2  -1   1  336.81   12.06
   2  -1   2  134.08    4.87
  -2   1  -2  131.22    4.95
   2  -1   2  128.47    4.94
  -2   1  -2  128.20    4.87
  -2   1  -2  126.57    4.87
  -2   1  -2  128.24    4.90
  -2   1  -2  122.76    4.90
   2  -1   2  129.33    4.88
   2  -1   3   28.57    1.14
  -2   1  -3   28.17    1.13
  -2   1  -3   28.67    1.29
   2  -1   3   25.76    1.26
  -2   1  -3   30.29    1.15
  -2   1  -3   27.52    1.11
  -2   1  -3   27.77    1.18
  -2   1  -3   27.90    1.12
   2  -1   3   24.96    1.14
  -2   1  -3   28.37    1.17
   2  -1   4    6.72    0.45
  -2   1  -4    6.93    0.49
   2  -1   4    5.32    0.44
  -2   1  -4    5.60    0.46
  -2   1  -4    7.18    0.77
  -2   1  -4    6.20    0.41
  -2   1  -4    6.56    0.46
  -2   1  -4    5.58    0.39
  -2   1  -4    6.55    0.55
   2  -1   5  208.80    8.28
  -2   1  -5  208.47    8.30
  -2   1  -5  231.77    8.33
  -2   1  -5  220.30    8.26
  -2   1  -5  216.61    8.29
  -2   1  -5  225.98    8.26
  -2   1  -6    0.09    0.54
   2  -1   6    1.11    0.47
  -2   1  -6    0.79    0.44
  -2   1  -6    0.31    0.66
  -2   1  -6    1.61    0.46
  -2   1  -6    1.08    0.57
   2  -1   6    0.65    0.45
   2  -1   6    0.25    0.53
  -2   1  -7  225.67   10.45
   2  -1   7  263.49   10.41
  -2   1  -7  282.66   10.42
   2  -1   7  271.32   10.45
   2  -1   7  285.06   10.43
  -2   1  -7  319.91   10.55
  -2   1  -7  292.96   10.42
   2  -1   8   18.26    1.05
  -2   1  -8   13.98    1.65
  -2   1  -8   14.35    1.12
   2  -1   8   20.64    1.04
  -2   1  -8   23.53    1.08
   2  -1   8   23.48    1.47
  -2   1  -8   20.58    1.04
  -2   1  -8   24.51    1.35
   2  -1   8   19.63    1.17
  -2   1  -9    0.14    0.75
   2  -1   9    0.60    0.84
  -2   1  -9    1.68    1.37
  -2   1  -9    0.68    0.66
   2  -1   9   -0.10    0.64
  -2   1  -9    0.12    0.70
   2  -1   9    1.95    0.68
   2  -1   9    1.04    1.07
  -2   1  -9    1.06    1.02
  -2   1 -10  102.08    5.12
  -2   1 -10  137.02    4.75
   2  -1  10  126.91    4.72
   2  -1  10  111.57    4.70
  -2   1 -10  159.18    4.99
  -2   1 -10  105.91    4.78
   2  -1  10  128.61    4.93
   2  -1  10  121.16    4.76
  -2   1 -10  134.22    4.73
  -2   1 -11    6.40    1.30
   2  -1  11    4.52    0.86
   2  -1  11    3.83    1.08
  -2   1 -11    3.31    0.98
  -2   1 -11    5.19    0.87
  -2   1 -11    4.54    1.04
   2  -1  11    4.23    1.20
  -2   1 -11    4.12    0.89
  -2   1 -12   29.78    1.60
  -2   1 -12   28.14    1.52
   2  -1  12   27.77    1.49
  -2   1 -12   23.04    1.55
   2  -1  12   26.05    1.81
   2  -1  12   24.07    1.62
   2  -1  13    1.45    1.45
   2  -1  13   -0.09    1.24
  -2   1 -13    2.92    1.01
   2  -1  14    0.56    1.60
  -2   1 -14    1.23    1.13
   2  -1  14    2.12    1.28
  -2   1 -15    4.45    1.34
   2  -1  15    3.86    1.40
  -2   1 -15    4.46    1.31
  -2   0  16   14.09    1.61
   2   0 -16   15.85    1.75
  -2   0  16   18.84    1.67
  -2   0  16   17.16    1.75
  -2   0  15    4.47    1.40
  -2   0  15    4.29    1.34
  -2   0  15    3.29    1.00
   2   0 -15    3.23    1.44
  -2   0  15    4.10    1.52
  -2   0  14    2.44    0.90
  -2   0  14    2.16    1.24
   2   0 -14    1.54    1.36
  -2   0  14    2.31    1.27
   2   0 -13    3.31    1.24
  -2   0  13    4.29    0.91
   2   0 -13    1.89    1.18
   2   0 -13    3.67    1.25
  -2   0  13    3.67    1.29
   2   0 -12    0.87    1.02
  -2   0  12   -0.33    0.76
   2   0 -12    2.32    1.16
   2   0 -12   -0.85    1.23
  -2   0  12   -0.29    0.81
  -2   0  12    1.83    1.22
   2   0 -11    9.78    1.10
   2   0 -11    6.98    1.12
  -2   0  11    6.15    0.80
  -2   0  11    7.58    0.81
   2   0 -11    7.59    1.13
   2   0 -11    6.62    1.12
  -2   0  11    8.73    1.22
  -2   0  10   37.01    1.98
   2   0 -10   44.35    2.01
   2   0 -10   42.05    2.03
  -2   0  10   42.88    1.84
   2   0 -10   43.35    2.01
  -2   0  10   45.56    2.06
  -2   0  10   40.81    1.83
   2   0 -10   42.96    2.00
   2   0  -9   38.18    1.92
  -2   0   9   36.72    1.89
   2   0  -9   41.60    1.94
  -2   0   9   40.53    1.75
   2   0  -9   43.82    1.90
   2   0  -9   41.96    1.94
   2   0  -9   39.89    2.05
  -2   0   9   46.06    1.92
  -2   0   9   41.23    1.77
  -2   0   8   33.28    1.48
   2   0  -8   34.87    1.60
  -2   0   8   33.86    1.49
   2   0  -8   29.25    1.64
   2   0  -8   36.48    1.65
   2   0  -8   36.12    1.64
  -2   0   8   32.79    1.61
  -2   0   8   35.94    1.62
   2   0  -7   46.29    1.88
   2   0  -7   38.39    1.84
  -2   0   7   46.79    1.80
  -2   0   7   44.18    1.78
  -2   0   7   47.57    1.87
  -2   0   7   37.57    1.87
   2   0  -7   39.89    1.87
   2   0  -6  148.01    5.47
  -2   0   6  143.33    5.41
   2   0  -6  134.87    5.44
  -2   0   6  142.30    5.42
  -2   0   6  136.84    5.46
  -2   0   6  148.44    5.45
   2   0  -6  138.83    5.46
  -2   0   5  664.92   25.80
  -2   0   5  676.89   25.77
   2   0  -5  686.41   25.80
  -2   0   5  703.05   25.77
   2   0  -5  678.01   25.78
  -2   0   5  703.17   25.78
   2   0  -5  691.32   25.79
   2   0  -4    1.21    0.38
   2   0  -4    1.03    0.38
  -2   0   4   -0.05    0.29
  -2   0   4    0.74    0.37
  -2   0   4    0.47    0.34
   2   0  -4    0.34    0.34
  -2   0   3  137.91    5.19
  -2   0   3  139.25    5.19
  -2   0   3  139.96    5.20
   2   0  -3  140.06    5.20
  -2   0   3  147.02    5.20
   2   0  -3  124.48    5.18
   2   0  -3  139.58    5.21
   2   0  -3  131.82    5.18
  -2   0   2 1463.79   55.38
  -2   0   2 1486.56   55.37
  -2   0   2 1483.69   55.40
  -2   0   2 1492.53   55.37
  -2   0   2 1483.67   55.37
   2   0  -2 1479.41   55.39
   2   0  -2 1504.10   55.40
  -2   0   2 1462.54   55.39
   2   0  -2 1459.32   55.39
  -2   0   1  221.24    8.29
  -2   0   1  223.17    8.27
  -2   0   1  214.47    8.29
   2   0  -1  220.09    8.31
   2   0  -1  217.95    8.29
   2   0  -1  225.59    8.29
  -2   0   1  217.35    8.31
  -2   0   1  219.41    8.29
   2   0   0 2031.37   74.41
   2   0   0 1997.31   74.39
   2   0   0 1967.28   74.39
  -2   0   0 2011.23   74.41
   2   0   0 1936.97   74.38
  -2   0   0 2015.50   74.38
  -2   0   0 1989.02   74.41
   2   0   1  435.06   15.99
  -2   0  -1  437.85   16.03
   2   0   1  442.22   15.99
  -2   0  -1  427.75   15.98
   2   0   1  422.25   15.97
  -2   0  -1  379.99   16.01
   2   0   1  437.05   16.01
   2   0   2  373.14   13.69
  -2   0  -2  378.61   13.75
   2   0   2  377.15   13.68
   2   0   2  371.80   13.74
   2   0   2  354.21   13.66
  -2   0  -2  349.45   13.67
   2   0   3  368.73   12.72
  -2   0  -3  319.47   12.68
  -2   0  -3  348.94   12.69
  -2   0  -3  340.38   12.79
   2   0   3  333.74   12.68
  -2   0  -3  327.24   12.70
  -2   0  -4  223.94    8.41
  -2   0  -4  221.20    8.25
   2   0   4  206.17    8.25
  -2   0  -4  213.76    8.28
  -2   0  -4  219.83    8.27
  -2   0  -4  212.93    8.29
  -2   0  -4  220.91    8.25
  -2   0  -4  231.61    8.27
  -2   0  -5  341.33   13.38
  -2   0  -5  351.44   13.36
   2   0   5  332.58   13.30
  -2   0  -5  309.27   13.48
  -2   0  -5  404.79   13.38
  -2   0  -5  374.76   13.33
   2   0   5  342.68   13.34
  -2   0  -5  367.84   13.33
  -2   0  -6   26.40    1.32
  -2   0  -6   22.83    1.62
   2   0   6   26.91    1.22
   2   0   6   29.46    1.29
  -2   0  -6   32.65    1.40
  -2   0  -6   24.22    1.36
  -2   0  -6   30.14    1.24
  -2   0  -6   30.44    1.25
   2   0   6   35.88    1.64
   2   0   6   26.36    1.31
  -2   0  -7  174.33    7.93
   2   0   7  213.80    7.90
   2   0   7  193.38    7.85
  -2   0  -7  189.76    7.92
   2   0   7  235.86    8.11
  -2   0  -7  244.19    7.99
  -2   0  -7  229.55    7.89
   2   0   7  205.07    7.90
  -2   0  -7  230.28    7.89
  -2   0  -8   93.97    3.35
  -2   0  -8  109.48    3.52
   2   0   8   97.51    3.59
  -2   0  -8   61.81    3.38
  -2   0  -8   92.03    3.35
   2   0   8   82.39    3.35
  -2   0  -8   74.23    3.38
   2   0   8   78.08    3.31
   2   0   8   82.35    3.38
  -2   0  -9    1.19    0.86
  -2   0  -9    4.05    0.77
   2   0   9    2.27    0.87
  -2   0  -9    2.03    0.73
  -2   0  -9    2.01    0.82
  -2   0  -9    3.25    1.03
   2   0   9    1.00    1.09
   2   0   9    4.64    0.79
   2   0  10  131.47    5.07
  -2   0 -10   98.53    5.11
  -2   0 -10  105.68    5.43
  -2   0 -10  142.61    5.08
   2   0  10  125.28    5.10
  -2   0 -10  112.29    5.11
   2   0  10  135.66    5.27
  -2   0 -10  169.11    5.28
  -2   0 -10  139.36    5.07
  -2   0 -11    1.06    1.03
  -2   0 -11    0.81    1.05
   2   0  11    0.52    1.01
   2   0  11    1.51    0.89
  -2   0 -11    1.66    0.90
  -2   0 -11    2.92    0.97
   2   0  11    4.31    1.27
  -2   0 -11    2.14    1.32
   2   0  12    1.26    0.88
   2   0  12    1.32    1.08
  -2   0 -12    2.66    1.00
  -2   0 -12    3.46    1.03
   2   0  12    3.30    1.48
   2   0  13    8.22    1.21
   2   0  13    7.13    1.55
  -2   0 -13    8.13    1.26
   2   0  14    2.29    1.55
  -2   0 -14    0.65    1.21
   2   0  14    1.77    1.33
   2   0  15   -0.27    1.21
  -2   0 -15    1.99    1.29
  -2  -1  16    0.40    1.11
   2   1 -16    0.68    1.56
  -2  -1  16   -2.20    1.33
  -2  -1  16   -0.56    1.48
  -2  -1  15    0.28    0.93
  -2  -1  15    2.75    1.39
   2   1 -15    0.14    1.52
   2   1 -14   -0.74    1.39
  -2  -1  14    0.80    0.90
  -2  -1  14   -0.83    1.29
  -2  -1  13    3.54    1.25
   2   1 -13    3.09    1.27
   2   1 -13    2.98    1.24
  -2  -1  13    2.98    0.86
   2   1 -12    2.49    1.11
  -2  -1  12    0.95    0.77
  -2  -1  12    2.30    1.15
   2   1 -12    2.93    1.22
  -2  -1  12    1.83    1.01
  -2  -1  12    2.25    0.76
   2   1 -12    1.52    1.18
  -2  -1  11  103.31    4.34
   2   1 -11  118.20    4.37
   2   1 -11  102.54    4.37
  -2  -1  11  105.72    4.21
   2   1 -11  102.27    4.38
   2   1 -11  109.48    4.38
  -2  -1  11  114.43    4.37
  -2  -1  11  104.44    4.22
   2   1 -10   21.39    1.31
   2   1 -10   18.95    1.29
  -2  -1  10   19.11    1.23
  -2  -1  10   17.42    1.01
   2   1 -10   19.27    1.29
   2   1 -10   16.10    1.28
  -2  -1  10   17.06    1.04
  -2  -1  10   18.96    1.26
  -2  -1   9  232.82    9.03
   2   1  -9  256.13    9.14
   2   1  -9  241.53    9.14
  -2  -1   9  223.18    9.13
  -2  -1   9  228.54    9.03
   2   1  -9  231.03    9.13
   2   1  -9  255.30    9.15
  -2  -1   9  244.83    9.12
  -2  -1   8    1.46    0.52
  -2  -1   8    2.06    0.66
  -2  -1   8    2.10    0.52
  -2  -1   8    2.45    0.79
   2   1  -8    1.47    0.71
   2   1  -8    0.32    0.82
   2   1  -8    1.90    0.75
  -2  -1   7  422.98   16.02
   2   1  -7  470.97   16.10
   2   1  -7  439.36   16.08
  -2  -1   7  470.79   16.06
  -2  -1   7  418.04   16.01
   2   1  -7  388.67   16.06
  -2  -1   7  412.07   16.08
   2   1  -7  386.38   16.08
   2   1  -6  394.16   13.11
  -2  -1   6  340.41   13.04
  -2  -1   6  328.76   13.08
  -2  -1   6  352.02   13.03
   2   1  -6  292.55   13.05
   2   1  -6  336.52   13.07
  -2  -1   6  388.99   13.05
  -2  -1   5    5.10    0.43
   2   1  -5    4.23    0.57
  -2  -1   5    4.18    0.42
  -2  -1   5    3.48    0.51
   2   1  -5    4.66    0.45
  -2  -1   5    4.27    0.36
   2   1  -5    3.63    0.43
   2   1  -4 1175.65   40.91
  -2  -1   4 1090.46   40.87
   2   1  -4 1045.27   40.88
   2   1  -4 1096.29   40.84
  -2  -1   4 1111.44   40.88
  -2  -1   4 1100.71   40.87
  -2  -1   4 1059.59   40.83
  -2  -1   3  416.96   15.61
  -2  -1   3  415.12   15.62
   2   1  -3  418.03   15.62
   2   1  -3  417.41   15.57
  -2  -1   3  412.99   15.61
  -2  -1   3  411.40   15.61
   2   1  -3  415.05   15.57
  -2  -1   2 1073.12   39.51
  -2  -1   2 1053.83   39.50
   2   1  -2 1058.66   39.54
  -2  -1   2 1047.40   39.54
   2   1  -2 1041.77   39.54
   2   1  -2 1069.17   39.52
  -2  -1   2 1050.17   39.54
  -2  -1   2 1034.68   39.54
   2   1  -1  553.45   21.45
  -2  -1   1  567.65   21.47
  -2  -1   1  573.04   21.47
  -2  -1   1  576.74   21.43
  -2  -1   1  580.36   21.45
   2   1  -1  575.71   21.47
   2   1  -1  577.39   21.47
   2   1  -1  555.35   21.48
  -2  -1   1  578.19   21.43
   2   1   0   95.65    3.63
   2   1   0   94.96    3.64
  -2  -1   0   89.72    3.62
  -2  -1   0   96.10    3.63
  -2  -1   0   96.63    3.65
  -2  -1   0   96.52    3.63
   2   1   0   94.83    3.62
   2   1   1  254.02    9.30
  -2  -1  -1  246.65    9.32
   2   1   1  250.71    9.29
  -2  -1  -1  244.25    9.23
  -2  -1  -1  242.96    9.29
  -2  -1  -1  242.00    9.30
  -2  -1  -1  242.86    9.29
   2   1   1  251.84    9.29
   2   1   2  234.65    8.32
   2   1   2  228.14    8.31
  -2  -1  -2  227.49    8.37
  -2  -1  -2  216.43    8.32
   2   1   2  208.43    8.26
  -2  -1  -2  220.37    8.25
   2   1   3  344.13   12.10
  -2  -1  -3  307.12   12.16
  -2  -1  -3  335.13   12.03
   2   1   3  296.95   12.03
   2   1   4    2.06    0.43
  -2  -1  -4    1.25    0.74
  -2  -1  -4    1.84    0.42
   2   1   4    1.70    0.26
  -2  -1  -5    5.45    0.51
   2   1   5    5.31    0.57
   2   1   5    4.75    0.40
  -2  -1  -5    5.07    0.67
  -2  -1  -5    3.48    0.98
  -2  -1  -5    4.67    0.58
   2   1   5    5.48    0.88
  -2  -1  -5    5.40    0.59
  -2  -1  -6  197.22    8.56
  -2  -1  -6  239.39    8.50
  -2  -1  -6  211.14    8.53
   2   1   6  224.47    8.51
  -2  -1  -6  234.38    8.49
   2   1   6  208.28    8.45
  -2  -1  -6  181.87    8.69
  -2  -1  -6  262.19    8.55
   2   1   6  261.23    8.71
  -2  -1  -7  103.31    3.86
  -2  -1  -7  119.59    3.94
   2   1   7   99.47    3.87
  -2  -1  -7   76.41    3.91
  -2  -1  -7   84.93    3.89
   2   1   7   99.82    3.89
  -2  -1  -7   80.25    4.11
  -2  -1  -7  105.36    3.86
   2   1   7  109.82    4.09
   2   1   8    7.25    0.84
  -2  -1  -8    5.53    0.91
  -2  -1  -8    6.78    0.76
  -2  -1  -8    7.77    0.91
  -2  -1  -8    4.69    1.39
  -2  -1  -8    6.96    0.72
  -2  -1  -8    4.52    0.82
   2   1   8    7.49    1.08
   2   1   8    5.18    0.77
  -2  -1  -9    0.74    0.74
  -2  -1  -9    1.33    1.35
  -2  -1  -9    0.21    0.76
  -2  -1  -9    0.49    0.91
   2   1   9    0.60    0.81
   2   1   9    1.29    1.11
  -2  -1  -9    1.47    0.89
   2   1   9    0.02    0.75
  -2  -1  -9    1.19    0.88
  -2  -1 -10   10.42    1.17
  -2  -1 -10   10.53    1.22
   2   1  10   11.97    1.09
   2   1  10   12.84    1.13
  -2  -1 -10   13.66    1.06
  -2  -1 -10   13.61    1.05
   2   1  10   15.81    1.46
  -2  -1 -10   16.21    1.28
   2   1  11    0.42    1.03
  -2  -1 -11   -0.60    0.93
  -2  -1 -11    1.27    0.91
   2   1  11   -0.21    1.35
  -2  -1 -11   -0.06    1.22
  -2  -1 -12   27.58    1.61
   2   1  12   23.02    1.56
   2   1  12   29.10    1.96
   2   1  13    0.03    1.10
  -2  -1 -13    0.46    1.18
   2   1  13   -0.48    1.45
  -2  -1 -14    2.46    1.26
  -2  -1 -14    0.73    1.35
   2   1  14    2.55    1.24
   2   1  15   -0.21    1.42
   2   1  15    0.90    1.25
   2   2 -16    5.15    1.68
  -2  -2  15    0.34    0.92
  -2  -2  15    1.60    1.29
   2   2 -15   -0.66    1.51
  -2  -2  15    1.30    1.28
  -2  -2  14    2.73    0.91
  -2  -2  14    0.62    1.18
   2   2 -14    2.50    1.31
  -2  -2  14    4.18    1.20
   2   2 -13    5.03    1.32
  -2  -2  13    4.35    0.80
  -2  -2  13    2.60    1.11
   2   2 -13    5.81    1.24
   2   2 -13    3.22    1.37
  -2  -2  13    5.34    1.12
  -2  -2  12    3.56    0.76
  -2  -2  12    3.49    1.01
  -2  -2  12    3.46    0.81
   2   2 -12    2.96    1.37
   2   2 -12    4.72    1.24
   2   2 -12    3.91    1.13
  -2  -2  12    3.25    1.07
  -2  -2  11   15.46    1.24
   2   2 -11   21.15    1.47
   2   2 -11   16.65    1.30
  -2  -2  11   16.98    1.03
   2   2 -11   21.40    1.43
   2   2 -11   16.44    1.33
  -2  -2  11   19.32    1.28
  -2  -2  11   18.19    1.04
   2   2 -10    3.57    0.89
   2   2 -10    5.23    1.06
  -2  -2  10    5.22    0.72
   2   2 -10    4.46    0.96
  -2  -2  10    4.14    0.96
  -2  -2  10    4.33    0.70
  -2  -2  10    5.33    0.86
   2   2  -9   18.23    1.23
   2   2  -9   18.08    1.26
  -2  -2   9   20.32    1.06
  -2  -2   9   21.31    1.25
  -2  -2   9   23.24    1.19
  -2  -2   9   21.07    1.06
  -2  -2   8  260.44   10.21
  -2  -2   8  265.52   10.22
   2   2  -8  301.85   10.35
   2   2  -8  260.79   10.26
   2   2  -8  258.89   10.29
   2   2  -8  255.21   10.28
  -2  -2   8  307.59   10.26
  -2  -2   8  260.64   10.29
  -2  -2   7   47.23    2.04
  -2  -2   7   49.86    2.04
   2   2  -7   49.15    2.11
  -2  -2   7   50.03    2.15
   2   2  -7   49.21    2.08
   2   2  -7   45.93    2.10
  -2  -2   7   55.03    2.05
   2   2  -6    1.85    0.70
   2   2  -6    1.01    0.45
  -2  -2   6    1.16    0.57
   2   2  -6    2.00    0.72
   2   2  -6    1.06    0.54
  -2  -2   6    1.03    0.37
  -2  -2   6    1.10    0.44
   2   2  -6    1.92    0.52
  -2  -2   6    1.11    0.44
  -2  -2   5  313.10   11.60
   2   2  -5  341.39   11.68
  -2  -2   5  307.50   11.60
   2   2  -5  307.22   11.61
   2   2  -5  324.40   11.66
  -2  -2   5  306.27   11.63
   2   2  -5  318.55   11.63
   2   2  -5  285.25   11.62
  -2  -2   5  294.84   11.55
   2   2  -4    1.11    0.39
   2   2  -4    1.08    0.51
   2   2  -4    1.54    0.35
  -2  -2   4    1.14    0.41
  -2  -2   4    1.48    0.34
  -2  -2   4    1.51    0.36
  -2  -2   4    1.78    0.34
  -2  -2   3   11.47    0.61
  -2  -2   3   11.28    0.60
   2   2  -3   12.89    0.66
  -2  -2   3   11.74    0.63
  -2  -2   3   11.91    0.62
   2   2  -3   10.98    0.61
  -2  -2   2   26.28    1.14
   2   2  -2   25.62    1.19
  -2  -2   2   26.12    1.09
   2   2  -2   27.43    1.09
  -2  -2   2   27.76    1.14
  -2  -2   2   27.58    1.14
   2   2  -1  130.17    5.56
  -2  -2   1  147.18    5.57
  -2  -2   1  145.89    5.53
  -2  -2   1  147.55    5.58
  -2  -2   1  146.70    5.57
   2   2  -1  145.87    5.57
  -2  -2   1  152.10    5.51
   2   2   0    7.80    0.49
  -2  -2   0    7.57    0.52
   2   2   0    7.21    0.42
   2   2   0    8.42    0.47
  -2  -2   0    7.94    0.49
  -2  -2   0    8.44    0.52
  -2  -2   0    7.71    0.49
   2   2   0    9.51    0.66
  -2  -2  -1    5.99    0.47
   2   2   1    5.22    0.44
  -2  -2  -1    5.43    0.45
  -2  -2  -1    6.05    0.57
   2   2   1    4.37    0.46
   2   2   1    6.25    0.44
  -2  -2  -1    5.70    0.46
   2   2   1    7.30    0.68
  -2  -2  -2   97.36    3.89
  -2  -2  -2   96.19    3.87
   2   2   2  106.41    3.91
  -2  -2  -2   99.84    3.89
  -2  -2  -2  101.28    3.80
  -2  -2  -2   96.58    3.90
   2   2   2  110.80    4.01
   2   2   2  103.18    3.89
  -2  -2  -3  510.27   19.76
  -2  -2  -3  516.10   19.72
  -2  -2  -3  539.32   19.72
  -2  -2  -3  509.98   19.75
   2   2   3  519.27   19.68
  -2  -2  -3  508.86   19.74
  -2  -2  -3  547.64   19.68
  -2  -2  -4   14.09    0.88
   2   2   4   14.55    0.72
  -2  -2  -4   15.48    0.74
   2   2   5   30.59    1.43
  -2  -2  -5   36.14    1.45
   2   2   6   84.96    3.60
  -2  -2  -6   99.99    3.63
   2   2   7   68.14    2.71
  -2  -2  -7   55.02    2.77
  -2  -2  -7   71.11    2.70
  -2  -2  -7   59.16    2.72
  -2  -2  -7   62.55    2.68
  -2  -2  -7   79.70    2.75
  -2  -2  -8   10.27    0.84
  -2  -2  -8   10.98    0.86
   2   2   8   10.27    0.89
  -2  -2  -8   12.12    0.95
  -2  -2  -8    9.40    1.35
   2   2   8   11.04    1.27
  -2  -2  -8    7.56    0.93
  -2  -2  -8    7.47    1.03
   2   2   9   19.64    1.23
  -2  -2  -9   15.66    1.33
  -2  -2  -9   14.78    1.22
  -2  -2  -9   25.54    1.28
  -2  -2  -9   20.48    1.20
   2   2   9   19.89    1.57
  -2  -2  -9   15.63    1.70
  -2  -2  -9   20.43    1.18
   2   2  10    8.16    1.03
  -2  -2 -10    7.77    1.02
  -2  -2 -10    8.62    1.01
   2   2  10    8.55    1.41
  -2  -2 -10    9.54    1.11
  -2  -2 -11   18.74    1.37
   2   2  11   17.23    1.38
   2   2  11   21.59    1.71
   2   2  12    2.68    0.99
   2   2  12    2.50    1.07
  -2  -2 -12    3.12    1.19
   2   2  12    1.63    1.54
  -2  -2 -13   -1.07    1.21
  -2  -2 -13    2.31    1.37
   2   2  13    0.16    1.12
   2   2  13    1.48    1.14
   2   2  13   -0.56    1.62
  -2  -2 -14   -1.54    1.37
   2   2  14    1.16    1.13
   2   2  14    0.89    1.09
   2   3 -17   -1.54    1.68
   2   3 -16   -1.82    1.67
  -2  -3  15    3.44    0.94
  -2  -3  15    3.87    1.29
   2   3 -15    3.17    1.61
   2   3 -15    3.76    1.23
   2   3 -14    1.86    1.46
   2   3 -14    2.10    1.11
   2   3 -14    2.50    1.48
  -2  -3  14    2.26    1.14
   2   3 -14    3.86    1.44
  -2  -3  14    1.33    0.83
  -2  -3  14    4.59    1.18
  -2  -3  13    6.13    1.12
  -2  -3  13    7.08    0.91
   2   3 -13    5.50    1.36
   2   3 -13    7.14    1.44
   2   3 -13    5.63    1.10
   2   3 -13    6.32    1.26
  -2  -3  13    5.82    1.12
  -2  -3  12    8.23    1.09
   2   3 -12    9.00    1.13
  -2  -3  12    9.45    0.87
   2   3 -12    6.98    1.05
   2   3 -12    6.37    1.18
   2   3 -12    8.16    1.33
  -2  -3  12    9.56    0.88
  -2  -3  12    8.64    1.05
   2   3 -11   13.58    1.12
   2   3 -11   15.20    1.29
   2   3 -11   16.22    1.42
   2   3 -11   17.85    1.36
  -2  -3  11   17.07    1.04
  -2  -3  11   18.50    1.19
  -2  -3  11   15.93    1.03
  -2  -3  11   14.51    1.21
   2   3 -10   57.75    2.71
  -2  -3  10   57.23    2.62
  -2  -3  10   62.65    2.47
   2   3 -10   57.25    2.62
   2   3 -10   58.44    2.61
   2   3 -10   56.74    2.55
  -2  -3  10   61.52    2.48
  -2  -3   9  128.05    5.06
   2   3  -9  126.89    5.10
   2   3  -9  130.12    5.16
   2   3  -9  117.45    5.17
   2   3  -9  143.48    5.28
  -2  -3   9  130.65    5.05
   2   3  -9  134.03    5.16
  -2  -3   9  145.97    5.10
  -2  -3   9  124.36    5.15
   2   3  -8   22.33    1.36
   2   3  -8   19.56    1.32
   2   3  -8   17.79    1.12
   2   3  -8   17.30    1.16
   2   3  -8   18.92    1.01
  -2  -3   8   19.57    0.97
   2   3  -8   18.62    1.11
  -2  -3   8   18.24    0.99
  -2  -3   8   20.47    1.00
  -2  -3   8   18.52    1.14
   2   3  -7   24.70    1.35
  -2  -3   7   20.67    1.03
   2   3  -7   22.57    1.11
  -2  -3   7   21.97    0.97
   2   3  -7   21.49    1.03
   2   3  -7   20.98    1.12
  -2  -3   7   19.83    1.03
   2   3  -7   20.55    1.11
   2   3  -7   20.13    1.29
  -2  -3   7   19.74    1.16
  -2  -3   6  150.07    6.15
  -2  -3   6  154.50    6.06
   2   3  -6  153.01    6.05
   2   3  -6  154.07    6.03
   2   3  -6  163.57    6.10
   2   3  -6  163.91    6.09
  -2  -3   6  158.31    6.11
   2   3  -6  155.81    6.15
  -2  -3   6  168.74    6.00
  -2  -3   6  155.73    6.06
  -2  -3   5   11.70    0.77
  -2  -3   5   11.36    0.87
  -2  -3   5   12.28    0.70
  -2  -3   5   12.26    0.70
   2   3  -5   13.42    0.75
   2   3  -5   12.90    0.82
  -2  -3   5   12.37    0.52
   2   3  -5   13.83    0.74
  -2  -3   4  330.42   12.52
   2   3  -4  338.52   12.53
  -2  -3   4  334.67   12.50
   2   3  -4  332.38   12.53
   2   3  -4  337.94   12.53
  -2  -3   4  333.28   12.52
   2   3  -4  327.65   12.51
  -2  -3   4  316.72   12.56
  -2  -3   4  332.96   12.52
   2   3  -3   18.92    1.00
  -2  -3   3   19.92    0.99
   2   3  -3   20.90    0.91
   2   3  -3   19.61    0.88
  -2  -3   3   19.20    0.90
  -2  -3   3   19.73    0.90
   2   3  -3   18.61    0.89
  -2  -3   3   18.37    0.88
  -2  -3   3   20.41    0.91
   2   3  -3   20.49    0.87
  -2  -3   2  306.78   11.56
   2   3  -2  291.40   11.57
  -2  -3   2  303.93   11.58
  -2  -3   2  311.58   11.56
   2   3  -2  284.72   11.56
   2   3  -2  297.44   11.52
  -2  -3   2  327.26   11.53
  -2  -3   2  310.25   11.56
   2   3  -2  325.11   11.56
   2   3  -1  424.30   15.28
  -2  -3   1  408.79   15.29
  -2  -3   1  414.65   15.25
   2   3  -1  401.22   15.22
  -2  -3   1  402.93   15.28
  -2  -3   1  426.13   15.23
   2   3  -1  362.38   15.24
  -2  -3   1  423.75   15.29
  -2  -3   0  206.63    7.79
  -2  -3   0  212.22    7.79
   2   3   0  194.19    7.79
  -2  -3   0  209.46    7.80
  -2  -3  -1  260.34    9.48
   2   3   1  234.88    9.51
   2   3   1  247.21    9.48
  -2  -3  -1  253.43    9.49
  -2  -3  -1  253.99    9.49
  -2  -3  -2   24.96    1.15
  -2  -3  -2   25.06    1.12
   2   3   2   24.85    1.12
   2   3   2   20.77    1.27
  -2  -3  -2   21.96    1.09
  -2  -3  -2   25.85    0.97
  -2  -3  -2   23.49    1.15
  -2  -3  -3  135.49    5.49
   2   3   3  138.69    5.38
  -2  -3  -3  139.51    5.48
  -2  -3  -3  147.64    5.38
  -2  -3  -3  139.76    5.45
  -2  -3  -3  150.20    5.45
   2   3   3  144.44    5.58
  -2  -3  -3  139.85    5.47
   2   3   4   84.75    3.22
  -2  -3  -4   79.49    3.35
  -2  -3  -4   77.18    3.33
  -2  -3  -4   83.41    3.28
   2   3   4   80.40    3.21
  -2  -3  -4   76.35    3.31
  -2  -3  -4   83.52    3.28
   2   3   4   90.90    3.49
  -2  -3  -4   93.49    3.23
   2   3   5    9.24    0.62
  -2  -3  -5    8.18    0.71
  -2  -3  -5    9.28    0.80
  -2  -3  -5    9.89    0.88
  -2  -3  -5    8.52    0.68
  -2  -3  -5    6.81    0.74
   2   3   5    9.02    0.61
  -2  -3  -5   11.20    0.66
   2   3   5   10.70    1.07
   2   3   6   69.52    2.94
   2   3   6   70.32    2.94
   2   3   7   18.71    1.10
   2   3   7   19.05    1.11
  -2  -3  -8    0.35    1.02
   2   3   8   -0.45    0.79
  -2  -3  -8   -0.19    0.80
   2   3   8   -0.02    0.78
  -2  -3  -8    0.31    0.77
  -2  -3  -8    0.48    0.76
  -2  -3  -9   -0.39    0.85
   2   3   9    0.70    0.89
  -2  -3  -9    0.39    0.84
  -2  -3  -9   -0.44    0.95
  -2  -3  -9    0.66    0.85
   2   3   9    0.54    0.87
   2   3  10   -0.34    0.96
  -2  -3 -10   -1.19    1.08
   2   3  10    0.92    1.01
  -2  -3 -10    0.92    1.00
  -2  -3 -11    1.84    1.07
   2   3  11    3.36    1.03
  -2  -3 -11    1.95    1.17
   2   3  11    2.32    1.04
   2   3  11    2.66    1.51
  -2  -3 -12    0.84    1.21
   2   3  12    1.16    1.05
   2   3  12    0.41    1.06
  -2  -3 -12    0.10    1.11
   2   3  12   -2.25    1.53
   2   3  13    0.82    1.12
  -2  -3 -13    0.63    1.22
   2   3  13    0.30    1.13
   2   3  13   -2.01    1.68
   2   4 -16    0.78    1.74
   2   4 -15   -0.98    1.56
  -2  -4  15   -0.15    1.27
   2   4 -14    0.94    1.21
  -2  -4  14   -1.62    1.19
   2   4 -14    1.63    1.37
   2   4 -14   -0.94    1.50
   2   4 -13   24.41    1.78
   2   4 -13   26.33    1.79
   2   4 -13   21.84    1.69
   2   4 -13   20.47    1.49
  -2  -4  13   23.84    1.30
  -2  -4  13   21.75    1.59
  -2  -4  12   -0.03    1.08
  -2  -4  12    0.44    0.90
   2   4 -12   -0.95    1.16
  -2  -4  12    0.60    0.77
  -2  -4  12    0.35    0.76
   2   4 -12   -0.91    0.92
   2   4 -12    1.40    1.21
   2   4 -12   -0.53    1.27
  -2  -4  11    0.56    0.98
  -2  -4  11    0.71    0.70
   2   4 -11   -0.16    1.06
  -2  -4  11    1.80    0.79
  -2  -4  11    0.81    0.72
   2   4 -11   -0.79    1.12
   2   4 -11   -0.47    1.01
   2   4 -11    0.17    0.78
  -2  -4  10   95.27    3.70
  -2  -4  10   81.61    3.79
  -2  -4  10   96.79    3.69
   2   4 -10   89.13    3.81
   2   4 -10   97.21    3.84
   2   4 -10   88.73    3.72
   2   4 -10   98.96    4.02
  -2  -4  10   98.43    3.71
   2   4 -10   94.96    3.82
   2   4  -9   35.36    1.95
   2   4  -9   34.71    1.61
  -2  -4   9   33.39    1.75
   2   4  -9   37.70    1.70
  -2  -4   9   37.72    1.61
  -2  -4   9   35.51    1.59
   2   4  -9   35.07    1.72
   2   4  -9   36.55    1.74
  -2  -4   9   39.39    1.59
   2   4  -8   53.36    2.17
  -2  -4   8   43.83    2.34
  -2  -4   8   51.71    2.17
  -2  -4   8   52.85    2.17
   2   4  -8   54.13    2.18
   2   4  -8   53.33    2.27
   2   4  -8   53.64    2.43
   2   4  -8   53.24    2.25
  -2  -4   8   57.20    2.13
  -2  -4   8   53.30    2.31
  -2  -4   7    4.47    0.60
   2   4  -7    4.31    0.71
  -2  -4   7    4.79    0.78
  -2  -4   7    6.72    0.87
   2   4  -7    4.22    0.43
   2   4  -7    5.85    0.72
   2   4  -7    4.78    0.93
  -2  -4   7    4.03    0.59
  -2  -4   7    5.18    0.42
  -2  -4   6  268.51   10.67
   2   4  -6  276.29   10.57
   2   4  -6  281.52   10.67
  -2  -4   6  278.48   10.59
   2   4  -6  279.47   10.62
  -2  -4   6  281.84   10.59
  -2  -4   6  286.00   10.50
  -2  -4   6  265.44   10.62
   2   4  -6  277.72   10.61
   2   4  -5   55.09    2.15
  -2  -4   5   51.49    2.12
  -2  -4   5   53.96    2.17
  -2  -4   5   50.78    2.11
   2   4  -5   50.72    2.19
   2   4  -5   54.51    2.10
   2   4  -5   52.61    2.15
  -2  -4   5   51.06    2.22
  -2  -4   5   52.46    2.09
  -2  -4   4   15.49    0.94
   2   4  -4   16.63    0.86
   2   4  -4   16.14    0.87
  -2  -4   4   16.37    0.86
  -2  -4   4   17.59    0.85
  -2  -4   4   16.78    0.81
   2   4  -4   17.99    0.87
  -2  -4   4   15.87    0.85
   2   4  -4   15.93    0.81
  -2  -4   3  277.24   10.40
   2   4  -3  265.69   10.33
   2   4  -3  284.30   10.36
   2   4  -3  280.81   10.37
  -2  -4   3  263.31   10.35
  -2  -4   3  271.52   10.36
  -2  -4   3  283.39   10.34
  -2  -4   3  265.85   10.36
   2   4  -3  277.01   10.34
  -2  -4   2   18.90    0.94
  -2  -4   2   22.46    0.99
  -2  -4   2   20.33    0.80
   2   4  -2   19.70    0.93
  -2  -4   2   19.40    0.88
  -2  -4   2   19.69    0.96
  -2  -4   2   20.41    0.82
   2   4  -2   21.17    0.95
   2   4  -2   20.40    0.88
  -2  -4   2   18.21    0.94
   2   4  -2   21.11    0.95
   2   4  -1    1.90    0.44
  -2  -4   1    0.67    0.45
  -2  -4   1    1.17    0.28
  -2  -4   1    0.96    0.43
  -2  -4   1    1.03    0.25
  -2  -4   1    1.57    0.45
   2   4  -1    1.30    0.43
  -2  -4   1    1.37    0.41
   2   4  -1    1.23    0.45
   2   4  -1    1.66    0.31
  -2  -4   0  389.50   14.07
  -2  -4   0  383.83   14.02
   2   4   0  353.05   14.09
  -2  -4   0  368.78   14.11
  -2  -4   0  362.45   14.12
   2   4   0  361.09   14.11
  -2  -4   0  376.56   14.12
   2   4   0  410.72   14.15
  -2  -4   0  365.56   14.02
  -2  -4  -1  541.73   20.63
   2   4   1  554.41   20.77
  -2  -4  -1  545.60   20.75
  -2  -4  -1  549.74   20.72
  -2  -4  -1  570.16   20.64
  -2  -4  -1  548.89   20.75
   2   4   1  520.67   20.75
  -2  -4  -1  548.69   20.74
  -2  -4  -2 1045.55   39.71
  -2  -4  -2 1056.37   39.70
  -2  -4  -2 1050.74   39.72
  -2  -4  -2 1077.34   39.68
   2   4   2 1035.85   39.75
  -2  -4  -2 1061.64   39.59
  -2  -4  -3  100.89    4.13
  -2  -4  -3  100.22    4.11
   2   4   3  105.03    3.98
  -2  -4  -3  110.31    4.08
  -2  -4  -3  100.53    4.10
  -2  -4  -3  107.64    4.08
   2   4   3  100.68    4.23
  -2  -4  -3  105.95    3.98
  -2  -4  -4    4.39    0.70
   2   4   4    4.91    0.43
  -2  -4  -4    4.74    0.47
  -2  -4  -4    4.19    0.60
   2   4   4    3.49    0.97
  -2  -4  -4    4.03    0.64
  -2  -4  -4    4.96    0.67
  -2  -4  -4    6.39    0.61
  -2  -4  -5    5.04    0.71
  -2  -4  -5    8.03    0.60
  -2  -4  -5    6.73    0.70
  -2  -4  -5    5.95    0.84
  -2  -4  -5    8.53    0.71
   2   4   5    7.09    0.58
  -2  -4  -5    7.22    0.80
   2   4   5    8.86    1.15
  -2  -4  -6    1.04    0.61
  -2  -4  -6    0.26    0.71
  -2  -4  -6    1.18    0.78
  -2  -4  -6    0.33    0.66
   2   4   6    0.39    0.58
  -2  -4  -6    0.38    0.64
  -2  -4  -6    1.62    0.68
   2   4   6    0.39    0.57
   2   4   6    0.45    1.16
  -2  -4  -7    4.29    1.04
  -2  -4  -7    5.79    0.85
  -2  -4  -7    5.15    0.79
  -2  -4  -7    6.21    0.81
   2   4   7    6.85    0.78
  -2  -4  -7    5.01    0.89
   2   4   7    6.69    0.79
   2   4   7    6.66    1.41
  -2  -4  -7    7.28    0.76
   2   4   8   13.81    1.06
  -2  -4  -8   16.09    1.07
   2   4   8   13.06    1.65
   2   4   8   13.44    1.05
   2   4   9    1.40    0.92
   2   4   9    0.21    0.89
   2   4   9   -0.84    1.45
   2   4  10    1.24    1.00
  -2  -4 -10   -0.81    1.10
   2   4  10   -0.20    1.02
  -2  -4 -11   14.10    1.40
   2   4  11   13.19    1.28
  -2  -4 -11   13.78    1.32
   2   4  11   13.56    1.28
   2   4  12    2.40    1.19
  -2  -4 -12    1.54    1.24
   2   4  12    4.52    1.20
   2   5 -15    2.26    1.65
   2   5 -14    2.61    1.37
  -2  -5  14   -0.56    1.31
  -2  -5  13    0.52    1.21
   2   5 -13    0.04    1.38
   2   5 -13   -0.70    1.32
  -2  -5  12    9.92    1.25
   2   5 -12   11.65    1.44
   2   5 -12   12.42    0.97
  -2  -5  12   10.42    0.89
   2   5 -12   11.15    1.20
   2   5 -12   12.64    1.24
  -2  -5  11    2.21    1.08
   2   5 -11    1.06    0.89
   2   5 -11    1.24    0.70
  -2  -5  11    0.39    0.71
   2   5 -11    0.49    1.03
  -2  -5  11    1.31    0.72
   2   5 -11    0.56    0.97
  -2  -5  11   -0.02    0.75
  -2  -5  10   41.66    2.18
  -2  -5  10   46.77    1.94
  -2  -5  10   47.06    1.95
   2   5 -10   43.09    1.97
   2   5 -10   46.41    2.15
   2   5 -10   46.29    2.40
  -2  -5  10   47.49    1.93
   2   5 -10   46.35    2.06
  -2  -5  10   41.08    2.13
   2   5  -9    4.59    0.62
  -2  -5   9    3.26    0.96
  -2  -5   9    3.42    1.05
   2   5  -9    3.36    1.29
   2   5  -9    3.25    0.56
  -2  -5   9    4.79    0.68
  -2  -5   9    4.42    0.65
   2   5  -9    5.17    0.83
  -2  -5   9    4.79    0.57
   2   5  -9    4.60    0.84
  -2  -5   8   53.98    2.21
  -2  -5   8   56.72    2.23
  -2  -5   8   47.49    2.40
   2   5  -8   52.33    2.12
   2   5  -8   54.16    2.18
   2   5  -8   52.47    2.30
   2   5  -8   52.11    2.47
  -2  -5   8   57.09    2.12
  -2  -5   8   50.93    2.34
   2   5  -8   54.26    2.29
   2   5  -7    4.52    0.51
  -2  -5   7    4.16    0.77
  -2  -5   7    3.14    0.89
  -2  -5   7    3.67    0.29
   2   5  -7    3.30    0.30
   2   5  -7    3.97    0.69
  -2  -5   7    3.67    0.61
   2   5  -7    3.28    0.64
  -2  -5   7    4.33    0.61
   2   5  -7    3.04    0.88
  -2  -5   6   23.78    1.37
   2   5  -6   22.78    1.16
  -2  -5   6   26.04    1.18
  -2  -5   6   24.68    1.16
  -2  -5   6   23.97    1.27
   2   5  -6   22.03    1.19
   2   5  -6   26.22    1.09
   2   5  -6   23.55    1.31
   2   5  -5   11.51    0.83
  -2  -5   5   12.27    0.96
   2   5  -5   12.76    0.80
   2   5  -5   12.03    0.78
  -2  -5   5   11.66    0.68
  -2  -5   5   12.29    0.82
  -2  -5   5   11.48    0.80
  -2  -5   5   11.87    0.78
   2   5  -5   12.09    0.68
   2   5  -4   66.16    2.51
  -2  -5   4   64.04    2.54
  -2  -5   4   61.52    2.50
  -2  -5   4   61.24    2.53
   2   5  -4   66.21    2.55
   2   5  -4   61.62    2.54
  -2  -5   4   62.40    2.54
  -2  -5   4   63.07    2.64
   2   5  -4   63.07    2.53
  -2  -5   3    0.26    0.45
   2   5  -3    0.62    0.48
  -2  -5   3    1.31    0.68
   2   5  -3   -0.20    0.51
  -2  -5   3    0.34    0.49
  -2  -5   3   -0.17    0.55
   2   5  -3    0.45    0.47
   2   5  -3    0.01    0.53
  -2  -5   2    3.99    0.58
  -2  -5   2    3.43    0.57
   2   5  -2    4.94    0.59
   2   5  -2    3.73    0.55
  -2  -5   2    2.57    0.53
   2   5  -2    5.19    0.56
  -2  -5   2    3.89    0.64
   2   5  -2    3.64    0.45
  -2  -5   2    6.69    0.46
  -2  -5   2    3.15    0.31
   2   5  -1  232.03    8.03
  -2  -5   1  216.29    7.98
  -2  -5   1  201.35    7.99
  -2  -5   1  199.72    7.99
  -2  -5   1  207.35    7.92
  -2  -5   1  204.32    7.98
   2   5  -1  210.61    7.99
   2   5  -1  214.69    7.99
  -2  -5   1  215.52    7.91
   2   5  -1  203.03    7.92
  -2  -5   0   -0.36    0.51
  -2  -5   0    0.38    0.47
  -2  -5   0    0.54    0.27
  -2  -5   0    1.48    0.56
   2   5   0    0.42    0.51
  -2  -5   0    1.09    0.59
  -2  -5   0    0.35    0.27
   2   5   0    1.43    0.45
  -2  -5  -1   78.57    2.95
  -2  -5  -1   83.84    2.99
   2   5   1   78.57    3.09
  -2  -5  -1   75.34    3.10
  -2  -5  -1   78.71    2.95
  -2  -5  -1   80.96    3.10
  -2  -5  -1   81.18    3.07
  -2  -5  -1   68.51    2.95
   2   5   1   86.63    3.13
  -2  -5  -1   79.76    3.11
  -2  -5  -2   46.55    1.84
  -2  -5  -2   43.01    1.84
  -2  -5  -2   42.99    1.70
  -2  -5  -2   43.35    1.69
  -2  -5  -2   45.80    1.88
   2   5   2   40.84    1.92
  -2  -5  -2   45.90    1.88
  -2  -5  -2   43.43    1.91
  -2  -5  -3   46.12    2.04
  -2  -5  -3   47.80    2.03
  -2  -5  -3   51.00    1.98
   2   5   3   47.55    1.83
  -2  -5  -3   45.21    2.00
  -2  -5  -3   51.57    1.99
   2   5   3   43.68    2.12
  -2  -5  -3   44.40    1.83
  -2  -5  -4   11.51    0.82
  -2  -5  -4   10.87    0.81
   2   5   4    9.79    0.60
  -2  -5  -4   10.31    0.93
  -2  -5  -4   10.62    0.85
  -2  -5  -4   11.65    0.63
   2   5   4   11.60    1.18
  -2  -5  -4   10.91    0.88
  -2  -5  -5    0.93    0.54
  -2  -5  -5    0.90    0.80
  -2  -5  -5    0.29    0.65
  -2  -5  -5    0.63    0.68
   2   5   5    0.62    0.49
  -2  -5  -5    0.95    0.66
  -2  -5  -5    0.73    0.74
   2   5   5    0.16    1.12
   2   5   6   13.33    0.86
  -2  -5  -6   14.09    0.96
  -2  -5  -6   11.56    1.14
  -2  -5  -6   10.73    1.01
  -2  -5  -6   13.44    0.99
  -2  -5  -6   13.58    0.81
  -2  -5  -6   15.02    0.99
   2   5   6   11.36    1.46
  -2  -5  -7   18.20    1.17
  -2  -5  -7   16.39    1.21
  -2  -5  -7   19.96    1.19
   2   5   7   19.12    1.13
   2   5   7   20.75    1.75
  -2  -5  -8    0.54    0.90
   2   5   8    0.62    0.91
  -2  -5  -8    0.23    0.87
   2   5   9    8.31    1.13
  -2  -5  -9    8.74    1.11
  -2  -5  -9    7.59    1.08
   2   5   9    7.42    1.70
   2   5  10    1.68    1.72
   2   5  10    1.68    1.11
   2   5  11   -1.05    1.22
   2   5  11    0.81    1.76
  -2  -6  14    2.40    1.30
   2   6 -14   -0.28    1.42
  -2  -6  13    1.51    1.26
   2   6 -13    2.18    1.25
  -2  -6  12    3.74    1.17
   2   6 -12    3.98    1.14
   2   6 -12    3.60    0.99
   2   6 -11    5.98    0.64
  -2  -6  11    4.05    1.15
   2   6 -11    4.38    0.74
   2   6 -11    7.02    1.05
   2   6 -11    6.55    0.99
  -2  -6  11    6.12    0.75
   2   6 -10    0.66    0.55
  -2  -6  10    0.03    1.09
  -2  -6  10    1.41    1.18
   2   6 -10   -0.02    0.83
   2   6 -10    0.67    0.95
   2   6 -10    1.44    0.55
  -2  -6  10    1.94    0.69
  -2  -6  10    1.22    0.64
   2   6  -9    6.55    0.58
  -2  -6   9    3.30    1.05
   2   6  -9    4.81    0.79
  -2  -6   9    5.77    0.71
   2   6  -9    4.69    0.50
  -2  -6   9    5.38    0.64
   2   6  -9    5.02    0.88
  -2  -6   9    4.29    1.11
   2   6  -9    5.27    1.28
   2   6  -8  123.53    4.54
   2   6  -8  114.34    4.33
  -2  -6   8  120.31    4.30
   2   6  -8  117.80    4.37
  -2  -6   8  117.88    4.30
  -2  -6   8  116.91    4.49
   2   6  -8  132.66    4.26
  -2  -6   8  100.88    4.14
  -2  -6   8  113.19    4.40
   2   6  -7  108.44    3.91
  -2  -6   7  101.74    4.11
   2   6  -7   99.41    3.99
   2   6  -7   99.10    3.97
  -2  -6   7   99.79    3.94
  -2  -6   7   98.77    3.94
   2   6  -7  102.06    4.10
  -2  -6   7   94.50    4.02
   2   6  -6   90.14    3.31
  -2  -6   6   82.89    3.49
  -2  -6   6   82.20    3.34
   2   6  -6   82.34    3.44
  -2  -6   6   84.28    3.34
   2   6  -6   85.22    3.38
   2   6  -6   83.28    3.36
  -2  -6   6   83.34    3.41
   2   6  -5   11.47    0.74
  -2  -6   5    9.83    0.79
  -2  -6   5   11.02    1.01
   2   6  -5    9.68    0.87
   2   6  -5    9.78    0.78
  -2  -6   5    9.91    0.75
  -2  -6   5   10.34    0.79
   2   6  -5   10.76    0.81
  -2  -6   5    8.94    0.65
   2   6  -4   40.85    1.66
  -2  -6   4   36.84    1.57
  -2  -6   4   37.40    1.64
   2   6  -4   36.39    1.64
   2   6  -4   36.70    1.65
  -2  -6   4   36.38    1.74
  -2  -6   4   36.72    1.61
  -2  -6   4   37.66    1.63
   2   6  -4   38.04    1.64
   2   6  -3   81.78    3.09
  -2  -6   3   84.11    3.17
  -2  -6   3   72.62    3.05
  -2  -6   3   79.14    3.04
  -2  -6   3   73.69    2.92
   2   6  -3   75.66    3.05
  -2  -6   3   78.52    3.09
   2   6  -3   80.91    3.09
  -2  -6   3   75.96    3.09
  -2  -6   2   16.85    0.97
  -2  -6   2   17.00    0.87
  -2  -6   2   17.34    0.99
  -2  -6   2   16.66    0.99
  -2  -6   2   17.67    1.05
  -2  -6   2   17.55    0.78
   2   6  -2   17.07    0.95
   2   6  -2   17.43    0.96
  -2  -6   2   17.52    0.87
  -2  -6   1   59.34    2.27
  -2  -6   1   53.81    2.36
  -2  -6   1   55.78    2.26
  -2  -6   1   55.64    2.35
  -2  -6   1   59.84    2.35
   2   6  -1   56.42    2.35
  -2  -6   1   58.46    2.25
  -2  -6   1   56.37    2.36
  -2  -6   0   52.65    2.08
  -2  -6   0   52.55    2.22
  -2  -6   0   49.18    2.22
  -2  -6   0   57.98    2.18
  -2  -6   0   54.06    2.08
   2   6   0   56.72    2.23
   2   6   0   50.81    2.16
  -2  -6   0   52.70    2.19
  -2  -6   0   50.70    2.24
  -2  -6  -1    4.04    0.71
  -2  -6  -1    4.72    0.52
  -2  -6  -1    2.92    0.66
  -2  -6  -1    3.67    0.36
  -2  -6  -1    4.22    0.68
  -2  -6  -1    4.05    0.38
  -2  -6  -1    4.22    0.37
  -2  -6  -1    3.72    0.60
   2   6   1    4.43    0.67
  -2  -6  -2  155.10    5.71
  -2  -6  -2  144.97    5.70
   2   6   2  139.45    5.88
  -2  -6  -2  153.97    5.83
  -2  -6  -2  147.15    5.88
  -2  -6  -2  150.69    5.87
  -2  -6  -2  157.61    5.83
  -2  -6  -2  156.23    5.72
  -2  -6  -2  150.15    5.87
  -2  -6  -3   22.25    1.32
  -2  -6  -3   23.24    1.27
  -2  -6  -3   24.90    1.21
  -2  -6  -3   24.14    1.28
  -2  -6  -3   24.35    1.00
  -2  -6  -3   23.61    1.22
   2   6   3   22.34    1.40
  -2  -6  -3   22.37    1.00
  -2  -6  -4  152.98    5.95
  -2  -6  -4  144.89    5.91
  -2  -6  -4  146.62    5.93
  -2  -6  -4  168.26    5.89
   2   6   4  146.24    5.76
   2   6   4  149.73    6.05
  -2  -6  -4  161.46    5.89
  -2  -6  -4  150.82    5.75
  -2  -6  -5    1.39    0.52
  -2  -6  -5    0.40    0.87
  -2  -6  -5   -0.38    0.75
  -2  -6  -5    0.40    0.79
  -2  -6  -5    0.71    0.82
  -2  -6  -5    1.17    0.79
   2   6   5    1.01    0.50
   2   6   5    3.28    1.27
  -2  -6  -6    0.72    0.79
  -2  -6  -6    0.99    0.79
   2   6   6    1.20    0.60
  -2  -6  -6   -0.39    0.87
   2   6   6    0.66    1.28
  -2  -6  -7    5.02    0.94
   2   6   7    5.72    0.79
   2   6   7    3.04    1.55
  -2  -6  -7    4.56    0.96
  -2  -6  -8    6.86    1.02
   2   6   8    6.29    0.97
  -2  -6  -8    5.16    0.99
   2   6   8    6.44    1.63
   2   6   9    0.41    1.01
   2   6   9    1.01    1.67
  -2  -6  -9    1.53    1.06
  -2  -6  -9    0.67    1.02
  -2  -6 -10   -0.72    1.13
  -2  -6 -10   -0.82    1.10
   2   6  10    1.43    1.89
   2   6  11    2.70    1.83
  -2  -7  13   -1.15    1.26
   2   7 -13    0.45    1.19
  -2  -7  12   -0.69    1.19
   2   7 -12    2.30    1.10
  -2  -7  11   -1.78    1.18
   2   7 -11    0.52    1.00
   2   7 -11    0.77    0.90
  -2  -7  11    0.62    1.31
  -2  -7  10   16.61    1.38
   2   7 -10   19.90    1.27
  -2  -7  10   17.93    1.55
   2   7 -10   18.20    1.16
  -2  -7   9   -0.03    1.08
  -2  -7   9    0.27    1.15
  -2  -7   9    0.68    0.68
   2   7  -9    0.29    0.86
   2   7  -9    0.86    1.23
   2   7  -9    0.08    0.75
  -2  -7   8    1.49    0.60
  -2  -7   8    1.66    1.20
  -2  -7   8    2.41    1.00
   2   7  -8    1.38    0.51
   2   7  -8    1.37    0.72
   2   7  -8    2.45    0.82
  -2  -7   8    1.92    0.68
   2   7  -8    3.09    1.17
   2   7  -7   42.86    1.83
  -2  -7   7   42.60    2.16
   2   7  -7   45.71    1.94
  -2  -7   7   43.01    1.87
   2   7  -7   44.25    1.88
  -2  -7   7   41.66    1.86
   2   7  -7   44.21    2.09
  -2  -7   7   42.27    2.00
  -2  -7   6    0.50    0.60
  -2  -7   6    0.17    1.05
  -2  -7   6    0.68    0.65
  -2  -7   6    0.40    0.79
   2   7  -6    0.65    0.71
   2   7  -6   -0.36    0.65
  -2  -7   6    0.16    0.44
   2   7  -6    0.43    0.87
   2   7  -5    7.75    0.77
   2   7  -5    9.29    0.80
  -2  -7   5    9.06    1.01
  -2  -7   5    9.94    0.77
   2   7  -5    6.95    0.80
  -2  -7   5    7.84    0.73
  -2  -7   5    8.03    0.63
  -2  -7   5    7.84    0.82
  -2  -7   4    1.51    0.62
  -2  -7   4    1.75    0.67
   2   7  -4    1.07    0.71
  -2  -7   4    1.34    0.83
  -2  -7   4    1.87    0.71
  -2  -7   4    1.51    0.54
   2   7  -4    1.42    0.62
   2   7  -4    2.62    0.72
  -2  -7   3    3.69    0.88
   2   7  -3    2.91    0.65
  -2  -7   3    3.22    0.64
  -2  -7   3    4.48    0.70
   2   7  -3    3.12    0.66
  -2  -7   3    3.19    0.69
  -2  -7   3    3.21    0.32
  -2  -7   3    3.08    0.64
  -2  -7   3    3.59    0.64
  -2  -7   2   19.20    1.10
  -2  -7   2   17.78    1.12
  -2  -7   2   20.09    1.17
  -2  -7   2   20.32    0.91
   2   7  -2   20.02    1.13
  -2  -7   2   18.51    1.06
  -2  -7   2   20.45    1.01
  -2  -7   2   21.41    1.03
  -2  -7   1    0.47    0.64
  -2  -7   1    0.96    0.73
  -2  -7   1    0.08    0.68
  -2  -7   1    0.48    0.50
  -2  -7   1   -0.35    0.47
  -2  -7   1    0.79    0.47
  -2  -7   1    0.72    0.72
   2   7  -1    1.60    0.67
  -2  -7   1    0.22    0.56
  -2  -7   0    3.27    0.74
  -2  -7   0    4.66    0.68
   2   7   0    4.95    0.82
  -2  -7   0    3.83    0.47
  -2  -7   0    4.61    0.76
  -2  -7   0    3.66    0.77
  -2  -7   0    4.19    0.47
  -2  -7  -1   19.67    0.86
  -2  -7  -1   20.98    0.99
  -2  -7  -1   18.30    1.07
  -2  -7  -1   19.19    1.15
  -2  -7  -1   19.29    0.88
  -2  -7  -1   18.36    1.07
  -2  -7  -1   18.02    1.15
  -2  -7  -1   18.77    1.17
  -2  -7  -1   19.28    0.86
   2   7   1   17.94    1.12
  -2  -7  -2    3.18    0.83
  -2  -7  -2    3.05    0.40
  -2  -7  -2    4.13    0.84
  -2  -7  -2    4.20    0.43
  -2  -7  -2    4.57    0.82
  -2  -7  -2    4.64    0.71
  -2  -7  -2    3.88    0.45
   2   7   2    4.07    0.84
  -2  -7  -2    3.85    0.72
  -2  -7  -3    3.06    0.91
  -2  -7  -3    2.57    0.83
  -2  -7  -3    3.26    0.85
  -2  -7  -3    2.97    0.76
  -2  -7  -3    2.61    0.44
  -2  -7  -3    2.64    0.77
   2   7   3    3.14    0.99
  -2  -7  -4   31.45    1.70
  -2  -7  -4   31.84    1.67
  -2  -7  -4   33.87    1.64
  -2  -7  -4   33.61    1.39
  -2  -7  -4   33.79    1.60
   2   7   4   34.50    1.87
  -2  -7  -4   30.41    1.67
  -2  -7  -5    2.92    0.89
  -2  -7  -5    0.37    0.96
  -2  -7  -5    0.86    0.84
   2   7   5    1.18    1.31
  -2  -7  -6    1.72    0.96
   2   7   6    1.85    0.60
  -2  -7  -6    0.11    0.89
   2   7   6    0.96    1.50
   2   7   7   -0.03    0.65
  -2  -7  -7    0.52    0.98
  -2  -7  -7    1.16    1.01
   2   7   7    0.06    1.66
  -2  -7  -8    0.06    1.06
  -2  -7  -8    1.21    1.02
   2   7   8    0.25    1.80
  -2  -7  -9    2.83    1.17
   2   7   9    5.83    1.92
   2   7  10    1.32    2.09
  -2  -8  13    2.06    1.32
  -2  -8  12    6.18    1.44
  -2  -8  11    0.55    1.26
  -2  -8  11   -0.08    1.43
   2   8 -11    0.17    0.99
  -2  -8  10   -0.69    1.12
  -2  -8  10   -0.31    1.33
   2   8 -10   -0.70    0.90
  -2  -8   9   -0.31    1.00
   2   8  -9    1.90    0.83
  -2  -8   9    0.51    1.36
   2   8  -9   -0.14    0.87
  -2  -8   8    0.93    0.95
  -2  -8   8    1.53    1.16
   2   8  -8    0.72    0.84
   2   8  -8    1.13    0.84
   2   8  -8    1.53    1.23
  -2  -8   7    0.48    0.69
   2   8  -7    1.34    0.75
  -2  -8   7    1.06    0.97
   2   8  -7    0.65    0.82
  -2  -8   7    1.29    1.17
   2   8  -7    2.06    1.09
  -2  -8   6    2.67    0.74
   2   8  -6    2.91    0.74
  -2  -8   6    2.74    0.75
  -2  -8   6    3.46    1.25
   2   8  -6    3.65    0.82
   2   8  -6    3.32    0.97
  -2  -8   6    2.84    0.92
  -2  -8   5    6.86    0.90
  -2  -8   5    7.20    0.84
  -2  -8   5    8.12    1.15
   2   8  -5    6.60    0.93
   2   8  -5    7.49    0.83
   2   8  -5    7.29    0.89
  -2  -8   5    7.29    0.84
  -2  -8   4    5.63    0.81
  -2  -8   4    6.13    0.79
  -2  -8   4    6.22    1.10
  -2  -8   4    7.49    0.73
   2   8  -4    8.23    0.87
  -2  -8   4    6.20    0.79
  -2  -8   4    7.09    0.82
   2   8  -4    6.89    0.82
  -2  -8   3    5.04    0.73
   2   8  -3    7.67    0.87
  -2  -8   3    5.54    0.43
  -2  -8   3    4.93    0.77
  -2  -8   3    5.69    0.83
  -2  -8   3    7.50    1.00
  -2  -8   3    5.11    0.61
  -2  -8   3    6.11    0.75
  -2  -8   3    6.12    0.83
  -2  -8   2    2.24    0.76
  -2  -8   2    0.97    0.89
  -2  -8   2    1.50    0.65
  -2  -8   2    2.01    0.74
  -2  -8   2    1.03    0.49
  -2  -8   2    0.27    0.54
   2   8  -2    1.61    0.85
  -2  -8   2    3.17    0.71
  -2  -8   2    1.09    0.61
  -2  -8   1   25.97    1.43
   2   8  -1   30.12    1.50
  -2  -8   1   30.90    1.43
  -2  -8   1   27.31    1.26
  -2  -8   1   27.79    1.29
  -2  -8   1   25.85    1.38
  -2  -8   1   25.82    1.40
  -2  -8   1   26.81    1.27
  -2  -8   1   27.42    1.25
  -2  -8   0    8.05    0.85
  -2  -8   0    7.57    0.87
  -2  -8   0    8.90    0.89
  -2  -8   0    7.70    0.76
  -2  -8   0    8.02    0.95
  -2  -8   0    7.66    0.83
  -2  -8   0    7.17    0.76
  -2  -8   0    8.48    0.62
  -2  -8  -1    2.72    0.86
  -2  -8  -1    2.79    0.83
  -2  -8  -1    2.17    0.65
  -2  -8  -1    1.12    0.73
  -2  -8  -1    1.47    0.87
  -2  -8  -1    1.67    0.48
  -2  -8  -1    2.59    0.78
   2   8   2    4.20    0.96
  -2  -8  -2    4.00    0.93
  -2  -8  -2    4.56    0.97
  -2  -8  -2    3.21    0.87
  -2  -8  -2    5.72    0.80
  -2  -8  -2    4.97    0.92
  -2  -8  -3    7.93    0.94
  -2  -8  -3    8.16    0.91
  -2  -8  -3    7.64    1.05
   2   8   3    8.03    1.16
  -2  -8  -3    7.55    1.03
  -2  -8  -4    1.42    0.93
  -2  -8  -4    0.81    0.86
   2   8   4    0.08    1.18
   2   8   5    3.59    1.42
  -2  -8  -5    3.23    1.06
  -2  -8  -5    2.71    0.95
  -2  -8  -6   11.77    1.22
   2   8   6   10.53    1.71
  -2  -8  -6   11.18    1.26
  -2  -8  -7    2.59    1.11
  -2  -8  -7    0.65    1.07
   2   8   7    0.65    1.78
   2   8   8   -0.59    1.82
  -2  -8  -8    0.17    1.14
   2   8   9    0.93    2.07
  -2  -9  12    3.77    1.41
  -2  -9  11    2.07    1.26
  -2  -9  11    0.09    1.54
  -2  -9  10   -0.20    1.38
  -2  -9  10    0.56    1.28
  -2  -9   9    5.66    1.26
  -2  -9   9    5.39    1.41
   2   9  -9    7.60    1.05
  -2  -9   8    0.59    1.27
   2   9  -8    1.58    0.91
  -2  -9   8    2.08    1.14
  -2  -9   7   14.13    1.23
  -2  -9   7   15.21    1.45
   2   9  -7   13.08    1.31
   2   9  -7   15.61    1.08
   2   9  -7   16.68    1.13
  -2  -9   6    2.22    1.25
  -2  -9   6    2.58    0.98
   2   9  -6    1.76    1.01
   2   9  -6    2.97    0.87
   2   9  -6    3.51    0.85
  -2  -9   5   20.39    1.53
   2   9  -5   19.48    1.24
  -2  -9   5   17.67    1.25
  -2  -9   5   20.24    1.18
  -2  -9   4    5.83    0.86
  -2  -9   4    5.06    1.16
  -2  -9   4    4.97    0.87
   2   9  -4    4.51    0.91
  -2  -9   3    0.33    0.78
  -2  -9   3   -0.13    1.05
   2   9  -3    0.20    0.90
  -2  -9   3    1.05    0.62
  -2  -9   3    0.14    0.82
  -2  -9   3    0.79    0.84
  -2  -9   2    8.36    1.08
  -2  -9   2    9.01    1.00
  -2  -9   2   11.39    1.00
  -2  -9   2    8.88    0.74
  -2  -9   2   10.19    0.84
  -2  -9   1    2.42    0.89
  -2  -9   1    0.58    0.66
  -2  -9   1    2.02    0.87
  -2  -9   1    1.66    0.64
  -2  -9   1    0.90    0.89
  -2  -9   0   10.38    1.06
  -2  -9   0   11.41    0.95
  -2  -9   0   12.34    1.05
  -2  -9   0   11.11    0.90
  -2  -9   0   10.88    1.11
  -2  -9  -1    0.77    0.73
  -2  -9  -1    1.25    0.89
  -2  -9  -1    1.37    0.76
  -2  -9  -1    1.16    0.89
  -2  -9  -1    0.98    0.77
  -2  -9  -2    0.19    0.77
  -2  -9  -2   -0.73    1.02
  -2  -9  -2    0.84    0.76
  -2  -9  -2   -0.70    0.79
  -2  -9  -3    3.23    1.05
  -2  -9  -3    2.96    0.93
   2   9   3    2.10    1.03
  -2  -9  -4    0.59    1.11
  -2  -9  -4    1.55    0.92
  -2  -9  -5   -0.08    1.08
  -2  -9  -5   -0.73    1.12
   2   9   5    1.00    1.40
  -2  -9  -6    2.18    1.13
  -2  -9  -6    1.00    1.13
   2   9   6    2.50    1.57
   2   9   7   -1.84    1.87
  -2  -9  -7   -0.17    1.13
   2   9   8   -1.44    1.86
  -2 -10  11   -1.61    1.35
  -2 -10  10    0.13    1.49
  -2 -10  10   -0.03    1.31
  -2 -10   9    0.52    1.20
  -2 -10   9    2.35    1.38
  -2 -10   8    1.47    1.18
  -2 -10   8    0.58    1.46
  -2 -10   7    0.15    1.32
   2  10  -7    0.91    1.01
  -2 -10   6    5.80    1.29
   2  10  -6    8.15    1.04
  -2 -10   5    3.68    1.22
   2  10  -5    3.49    0.96
  -2 -10   4    3.13    1.19
   2  10  -4    3.77    1.02
  -2 -10   3    2.22    1.14
  -2 -10   2   -0.03    0.83
  -2 -10   2    0.39    0.67
  -2 -10   1    0.55    0.74
  -2 -10   1    1.90    0.90
  -2 -10   0    5.60    0.99
  -2 -10   0    4.95    0.78
  -2 -10  -1    1.74    0.79
  -2 -10  -1    1.55    1.08
  -2 -10  -2   -0.77    1.09
  -2 -10  -2    0.24    0.91
  -2 -10  -3    0.83    1.16
  -2 -10  -3    1.38    0.98
  -2 -10  -4    0.69    1.04
  -2 -10  -4    0.92    1.31
  -2 -10  -5    1.59    1.02
   2  10   6   -0.11    1.44
   2  10   7   -1.47    1.90
  -2 -11   8    2.20    1.52
  -2 -11   7    4.63    1.44
  -2 -11   6    2.44    1.36
  -2 -11   5    0.54    1.24
  -2 -11   0    0.40    0.77
  -2 -11  -1   -0.85    0.92
  -2 -11  -2   -0.15    0.98
  -2 -11  -2    1.46    1.15
  -2 -11  -3    3.89    1.08
  -2 -11  -3    1.90    1.32
   3 -13   0    2.11    1.29
   3 -13   1    3.77    1.31
   3 -13   2    2.14    1.34
   3 -12  -5   -1.27    1.37
   3 -12  -4    5.36    1.57
   3 -12  -4    6.82    1.21
   3 -12  -3   -0.67    1.24
   3 -12  -3    0.58    1.37
   3 -12  -2   15.74    1.58
   3 -12  -2   13.39    1.41
   3 -12  -1    2.31    1.38
   3 -12  -1    1.35    1.27
   3 -12   0    1.98    1.24
   3 -12   1    0.95    1.25
   3 -12   2    1.97    1.30
   3 -12   3    3.71    1.26
   3 -12   4    1.88    1.21
   3 -12   5    0.82    1.24
  -3  11   9   -0.72    1.61
  -3  11   8    0.96    1.52
   3 -11  -7   -0.10    1.38
   3 -11  -6    0.20    1.41
   3 -11  -6    0.03    0.86
   3 -11  -5    1.34    1.41
   3 -11  -5    1.91    0.90
   3 -11  -4    2.33    1.33
   3 -11  -4    1.45    0.99
   3 -11  -3    0.79    1.07
   3 -11  -3   -0.09    1.26
   3 -11  -2   10.94    1.47
   3 -11  -2    9.63    1.21
   3 -11  -1    7.05    1.32
   3 -11  -1    7.15    1.21
   3 -11   0    0.63    1.13
   3 -11   0    0.10    1.17
   3 -11   1    6.48    1.30
   3 -11   1    5.75    1.18
   3 -11   2    2.26    1.15
   3 -11   2    3.30    1.07
   3 -11   3   12.96    1.29
   3 -11   3   11.86    1.29
   3 -11   4    9.93    1.28
   3 -11   5    3.67    1.27
   3 -11   6    8.06    1.31
   3 -11   7   -0.74    1.31
   3 -11   7   -0.67    1.25
  -3  10  11    1.89    1.79
  -3  10  10    8.94    1.85
   3 -10  -9   -0.05    1.21
   3 -10  -9    2.18    1.29
  -3  10   9    2.85    1.54
  -3  10   9    0.83    1.25
  -3  10   8   17.83    1.73
   3 -10  -8   17.06    1.43
  -3  10   8   14.40    1.46
   3 -10  -7    1.69    1.23
   3 -10  -7    4.39    1.21
  -3  10   7    2.07    1.13
  -3  10   7    1.53    1.21
   3 -10  -6   13.75    1.22
   3 -10  -6   12.05    1.41
  -3  10   6   14.74    1.42
  -3  10   6   12.13    1.12
   3 -10  -5   -1.01    1.18
   3 -10  -5    0.05    0.92
   3 -10  -4    4.85    1.17
   3 -10  -4    5.48    0.84
   3 -10  -4    4.73    0.84
   3 -10  -4    4.35    0.95
   3 -10  -3   31.28    1.48
   3 -10  -3   32.32    1.88
   3 -10  -3   29.63    1.48
   3 -10  -3   29.21    1.69
   3 -10  -2    6.14    1.24
   3 -10  -2    5.26    1.01
   3 -10  -2    3.65    1.08
   3 -10  -1   34.69    1.84
   3 -10  -1   34.70    1.95
   3 -10  -1   35.23    1.81
   3 -10   0   57.89    2.72
   3 -10   0   61.41    2.77
   3 -10   0   64.28    2.71
   3 -10   1    5.75    1.08
   3 -10   1    4.21    0.97
   3 -10   1    4.85    1.15
   3 -10   2   27.33    1.61
   3 -10   2   25.83    1.44
   3 -10   2   24.59    1.62
   3 -10   3    0.34    1.02
   3 -10   3    0.72    1.06
  -3  10  -4    0.94    1.15
   3 -10   4    1.97    1.09
   3 -10   4    1.79    1.12
  -3  10  -5    2.22    1.23
   3 -10   5    2.75    1.12
   3 -10   5    2.07    1.11
  -3  10  -6   -0.88    1.09
   3 -10   6    0.07    1.10
   3 -10   6   -0.75    1.12
   3 -10   7    4.57    1.25
   3 -10   8    2.41    1.21
   3 -10   8    6.61    1.22
   3 -10   9   -0.69    1.35
  -3   9  12    0.78    1.71
   3  -9 -11    3.54    1.45
  -3   9  11    0.72    1.60
  -3   9  10    0.40    1.59
   3  -9 -10    0.95    1.13
   3  -9 -10    3.06    1.40
  -3   9  10    0.15    1.29
   3  -9  -9   -0.18    1.10
  -3   9   9    2.24    1.37
  -3   9   9    0.03    1.21
   3  -9  -9   -2.21    1.30
   3  -9  -8    3.66    1.16
   3  -9  -8    2.89    1.13
  -3   9   8    2.54    1.23
  -3   9   8    2.77    1.16
   3  -9  -7   16.02    1.47
   3  -9  -7   16.43    1.36
  -3   9   7   15.69    1.59
   3  -9  -7   17.74    1.44
  -3   9   7   17.16    1.25
   3  -9  -6    1.83    1.05
   3  -9  -6    0.16    1.10
   3  -9  -6    1.28    0.95
  -3   9   6    1.41    1.11
   3  -9  -6   -0.49    0.85
  -3   9   6    1.69    0.97
   3  -9  -5   26.44    1.49
   3  -9  -5   27.61    1.52
   3  -9  -5   28.18    1.72
   3  -9  -5   31.61    1.46
  -3   9   5   27.87    1.71
   3  -9  -5   26.84    1.51
   3  -9  -5   30.79    1.54
  -3   9   5   24.74    1.49
   3  -9  -4    1.35    0.75
   3  -9  -4    0.46    1.13
   3  -9  -4    0.69    0.77
  -3   9   4    0.10    0.79
  -3   9   4    1.30    1.00
   3  -9  -4    0.29    0.92
   3  -9  -4    0.28    0.65
   3  -9  -4   -0.29    0.92
   3  -9  -4   -0.70    0.99
   3  -9  -3    0.31    0.62
   3  -9  -3    0.73    1.05
   3  -9  -3    1.55    0.96
   3  -9  -3    0.67    0.96
   3  -9  -3    1.28    0.93
  -3   9   3    0.79    0.66
   3  -9  -3   -0.05    0.68
   3  -9  -3    0.45    0.70
   3  -9  -2   12.77    0.89
   3  -9  -2   12.61    1.21
   3  -9  -2   15.32    0.87
   3  -9  -2   12.49    0.81
   3  -9  -2   12.59    0.85
   3  -9  -2   13.28    1.15
   3  -9  -2   15.00    1.18
   3  -9  -2   13.51    1.16
   3  -9  -1   31.88    1.37
   3  -9  -1   30.54    1.35
   3  -9  -1   29.63    1.69
   3  -9  -1   31.31    1.67
   3  -9  -1   30.60    1.34
   3  -9  -1   30.32    1.64
   3  -9  -1   34.15    1.67
   3  -9   0    3.22    0.41
   3  -9   0    3.54    0.41
   3  -9   0    1.78    0.96
   3  -9   0    2.38    0.97
   3  -9   0    1.86    0.96
   3  -9   0    2.39    0.89
   3  -9   1    4.13    1.04
   3  -9   1    3.54    0.90
   3  -9   1    4.01    0.97
   3  -9   1    2.42    0.59
   3  -9   1    3.83    1.00
  -3   9  -2    4.77    0.91
   3  -9   2    2.71    1.03
   3  -9   2    4.56    1.03
   3  -9   2    3.59    0.48
   3  -9   2    3.32    0.95
  -3   9  -3    1.75    0.93
   3  -9   3    0.85    0.96
   3  -9   3   -0.09    1.00
  -3   9  -4   44.42    2.05
   3  -9   4   39.96    2.02
   3  -9   4   42.16    2.06
  -3   9  -5    4.02    1.13
   3  -9   5    4.87    1.12
   3  -9   5    4.79    1.05
  -3   9  -6   43.32    2.15
   3  -9   6   46.86    2.26
   3  -9   6   45.37    2.19
  -3   9  -7   10.74    1.17
   3  -9   7   10.05    1.26
   3  -9   7    8.50    1.22
   3  -9   8   11.94    1.40
   3  -9   8   16.77    1.43
   3  -9   8   13.98    1.36
   3  -9   9   13.20    1.43
   3  -9  10   -0.53    1.23
   3  -9  10    0.44    1.33
  -3   8  13    0.19    1.73
   3  -8 -12    8.98    1.62
  -3   8  12    5.59    1.76
   3  -8 -11    6.86    1.22
  -3   8  11    8.07    1.66
   3  -8 -11    8.57    1.45
  -3   8  11   10.18    1.39
  -3   8  10    0.87    1.33
   3  -8 -10    0.87    1.29
   3  -8 -10   -0.57    1.05
  -3   8  10    0.66    1.25
   3  -8  -9    4.50    1.08
   3  -8  -9    7.15    1.25
  -3   8   9    6.75    1.34
  -3   8   9    4.01    1.15
   3  -8  -8   39.58    2.03
  -3   8   8   43.44    2.01
   3  -8  -8   42.42    1.99
  -3   8   8   37.62    2.09
   3  -8  -7    8.03    1.15
   3  -8  -7    7.70    0.98
   3  -8  -7    6.77    1.11
   3  -8  -7   11.23    1.17
  -3   8   7    8.88    0.99
   3  -8  -7    7.97    1.00
  -3   8   7    8.56    1.15
  -3   8   7    8.80    1.34
   3  -8  -6   60.17    2.62
   3  -8  -6   63.44    2.69
   3  -8  -6   55.72    2.77
  -3   8   6   63.70    2.81
  -3   8   6   59.23    2.61
   3  -8  -6   65.21    2.68
  -3   8   6   60.24    2.65
   3  -8  -6   67.31    2.65
  -3   8   5    1.87    0.75
   3  -8  -5    1.48    0.98
   3  -8  -5    1.60    0.80
   3  -8  -5    0.92    0.76
   3  -8  -5    2.92    0.84
  -3   8   5    2.23    1.02
   3  -8  -5    0.33    0.79
   3  -8  -5    2.46    0.95
  -3   8   5    0.79    0.83
   3  -8  -4    2.40    0.99
   3  -8  -4    2.61    0.77
   3  -8  -4    3.85    0.94
   3  -8  -4    3.09    0.73
   3  -8  -4    2.82    0.81
  -3   8   4    3.77    1.00
   3  -8  -4    2.46    0.80
  -3   8   4    4.36    0.74
   3  -8  -3   93.98    3.78
   3  -8  -3  103.71    3.78
   3  -8  -3   92.10    3.94
   3  -8  -3   95.12    3.90
  -3   8   3   97.01    3.76
  -3   8   3   99.30    3.94
   3  -8  -3   91.51    3.76
   3  -8  -3   93.23    3.86
   3  -8  -2    1.38    0.50
   3  -8  -2    1.22    0.88
   3  -8  -2    1.28    0.52
   3  -8  -2    1.35    0.58
   3  -8  -2    2.69    0.84
  -3   8   2    1.52    0.52
   3  -8  -2    0.95    0.86
   3  -8  -2    1.12    0.88
   3  -8  -1  206.62    7.93
   3  -8  -1  207.44    7.94
   3  -8  -1  213.24    8.12
   3  -8  -1  210.86    8.09
   3  -8  -1  214.15    8.10
   3  -8  -1  207.55    7.92
   3  -8  -1  222.04    8.11
   3  -8   0   32.40    1.36
   3  -8   0   33.67    1.70
   3  -8   0   34.05    1.38
   3  -8   0   34.64    1.71
   3  -8   0   34.69    1.36
   3  -8   0   35.49    1.69
   3  -8   0   33.47    1.35
   3  -8   0   35.04    1.69
  -3   8  -1  167.84    6.17
   3  -8   1  158.79    6.19
   3  -8   1  153.85    5.92
   3  -8   1  157.40    6.18
   3  -8   1  159.03    6.02
   3  -8   1  158.52    5.93
   3  -8   1  165.98    6.18
  -3   8  -2  225.22    8.54
   3  -8   2  225.58    8.55
   3  -8   2  213.29    8.55
   3  -8   2  219.18    8.36
   3  -8   2  226.87    8.54
   3  -8   3    6.62    0.37
  -3   8  -3    6.99    1.00
   3  -8   3    5.11    0.96
   3  -8   3    5.33    0.94
   3  -8   3    7.00    0.39
   3  -8   3    5.63    0.99
  -3   8  -4   69.23    2.90
   3  -8   4   67.25    2.85
   3  -8   4   62.54    2.86
   3  -8   4   68.09    2.86
  -3   8  -5   17.07    1.33
   3  -8   5   19.17    1.23
   3  -8   6    3.71    1.09
  -3   8  -6    3.14    1.03
   3  -8   6    3.68    0.98
  -3   8  -7   37.18    1.96
   3  -8   7   39.89    1.89
  -3   8  -8   -0.44    1.16
   3  -8   8   -0.86    1.08
   3  -8   8    1.19    1.04
   3  -8   9    6.52    1.19
   3  -8   9    9.03    1.20
   3  -8  10    0.17    1.16
   3  -8  10   -0.59    1.24
   3  -8  11   -0.92    1.32
   3  -8  11   -0.14    1.34
  -3   7  14   -0.13    1.92
  -3   7  13    2.30    1.76
   3  -7 -13    1.88    1.47
  -3   7  12   -0.67    1.67
  -3   7  12    1.05    1.67
   3  -7 -12   -1.66    1.34
  -3   7  12   -0.52    1.29
  -3   7  11    0.25    1.48
   3  -7 -11    1.94    1.33
  -3   7  11    2.02    1.19
  -3   7  10   21.09    1.69
   3  -7 -10   18.19    1.59
  -3   7  10   21.76    1.50
   3  -7  -9    1.15    0.95
   3  -7  -9    1.85    1.16
   3  -7  -9    1.35    1.13
  -3   7   9    1.55    1.16
  -3   7   9    0.85    1.05
  -3   7   8    7.80    1.06
   3  -7  -8    7.52    1.06
   3  -7  -8    8.33    0.95
   3  -7  -8    9.79    1.13
  -3   7   8    7.89    1.23
   3  -7  -8    9.15    1.18
  -3   7   8    8.96    1.04
   3  -7  -7   55.90    2.43
  -3   7   7   56.94    2.44
   3  -7  -7   57.59    2.53
  -3   7   7   58.02    2.61
  -3   7   7   59.73    2.48
   3  -7  -7   60.53    2.45
   3  -7  -7   57.63    2.59
   3  -7  -7   58.44    2.53
  -3   7   6    2.30    0.78
  -3   7   6    3.43    0.73
  -3   7   6    3.25    0.97
   3  -7  -6    2.85    0.95
   3  -7  -6    2.66    0.91
   3  -7  -6    2.35    0.79
   3  -7  -6    3.16    0.81
   3  -7  -6    2.14    0.86
   3  -7  -6    3.16    0.78
   3  -7  -5  156.38    6.04
   3  -7  -5  159.87    6.04
   3  -7  -5  147.05    6.12
  -3   7   5  155.65    6.12
   3  -7  -5  154.71    6.03
  -3   7   5  158.00    6.00
  -3   7   5  153.92    6.02
   3  -7  -5  158.22    6.04
   3  -7  -5  154.17    6.10
   3  -7  -4   76.40    3.08
   3  -7  -4   75.94    3.13
   3  -7  -4   76.97    3.20
  -3   7   4   75.39    3.05
   3  -7  -4   76.84    3.07
  -3   7   4   80.13    3.22
  -3   7   4   76.43    3.06
   3  -7  -4   77.42    3.13
   3  -7  -4   77.56    3.19
  -3   7   3   45.54    1.94
   3  -7  -3   45.90    1.96
   3  -7  -3   47.79    2.05
  -3   7   3   45.97    1.92
  -3   7   3   50.38    2.11
   3  -7  -3   49.14    2.10
   3  -7  -3   46.20    1.94
   3  -7  -3   45.60    2.11
  -3   7   2   80.80    3.02
   3  -7  -2   74.25    3.02
   3  -7  -2   76.30    3.14
   3  -7  -2   76.53    3.01
   3  -7  -2   76.17    3.16
   3  -7  -2   78.66    3.19
   3  -7  -1   12.46    0.66
   3  -7  -1   11.45    0.95
   3  -7  -1   13.36    0.70
   3  -7  -1   11.90    0.97
  -3   7   1   13.05    0.65
   3  -7  -1   13.54    0.66
   3  -7  -1   12.16    0.95
   3  -7  -1   13.84    0.97
  -3   7   0   71.84    2.93
   3  -7   0   71.95    2.94
   3  -7   0   68.76    2.73
   3  -7   0   71.01    2.93
   3  -7   0   73.55    2.94
   3  -7   0   73.33    2.83
   3  -7   0   69.31    2.71
   3  -7   0   72.73    2.72
  -3   7  -1   10.95    0.94
   3  -7   1   11.84    0.69
   3  -7   1   13.70    0.97
   3  -7   1   12.27    0.96
   3  -7   1   12.02    0.96
   3  -7   1   11.68    0.50
   3  -7   1   11.26    0.49
  -3   7  -2   25.26    1.32
   3  -7   2   22.10    1.29
   3  -7   2   23.05    1.00
   3  -7   2   22.38    1.27
   3  -7   2   20.72    1.26
  -3   7  -3   92.17    3.53
   3  -7   3   87.99    3.50
   3  -7   3   82.82    3.50
   3  -7   3   86.44    3.48
   3  -7   3   84.59    3.26
   3  -7   4   56.01    2.28
  -3   7  -4   53.26    2.30
   3  -7   4   47.03    2.28
   3  -7   4   50.14    2.30
  -3   7  -5   85.99    3.44
   3  -7   5   85.36    3.40
   3  -7   5   81.98    3.36
  -3   7  -6   82.43    3.43
   3  -7   6   80.15    3.39
   3  -7   6   78.86    3.34
  -3   7  -6   81.90    3.47
   3  -7   7    6.88    1.00
  -3   7  -7    5.10    1.24
   3  -7   7    6.67    1.08
  -3   7  -8   10.66    1.32
   3  -7   8   11.61    1.32
   3  -7   8   11.98    1.14
   3  -7   9   35.95    1.92
   3  -7   9   37.70    1.89
   3  -7  10    5.83    1.22
   3  -7  11    7.76    1.24
   3  -7  12    4.44    1.37
   3  -7  12    1.75    1.66
  -3   6  14    3.53    1.91
   3  -6 -13   -1.11    1.45
  -3   6  13   -1.40    1.72
  -3   6  13   -0.94    1.61
   3  -6 -12    2.97    1.41
  -3   6  12    6.02    1.79
  -3   6  12    5.73    1.51
  -3   6  11    6.66    1.42
  -3   6  11    4.33    1.14
   3  -6 -11    4.42    1.26
  -3   6  11    6.32    1.60
  -3   6  10    0.60    0.99
  -3   6  10    0.78    1.35
   3  -6 -10    1.37    1.17
  -3   6  10    1.86    1.42
  -3   6   9    0.13    0.86
   3  -6  -9    0.79    0.92
  -3   6   9    0.93    1.13
   3  -6  -9    0.67    1.05
  -3   6   9    2.57    1.26
  -3   6   9   -0.55    0.91
   3  -6  -9    0.64    1.02
  -3   6   8    0.07    0.80
  -3   6   8    0.25    0.87
   3  -6  -8    0.49    0.84
   3  -6  -8   -0.48    0.92
   3  -6  -8   -0.20    0.96
  -3   6   8    0.66    1.00
   3  -6  -8   -0.46    1.01
   3  -6  -7   15.31    1.01
   3  -6  -7   10.39    1.02
   3  -6  -7   13.57    1.12
  -3   6   7   15.30    1.01
  -3   6   7   15.10    1.00
   3  -6  -7   13.90    1.00
   3  -6  -7   14.47    1.10
   3  -6  -7   13.43    1.13
  -3   6   7   13.93    1.18
   3  -6  -6   37.67    1.76
   3  -6  -6   37.53    1.82
  -3   6   6   42.01    1.92
  -3   6   6   40.59    1.77
   3  -6  -6   36.60    1.86
   3  -6  -6   41.95    1.78
  -3   6   6   41.54    1.80
   3  -6  -6   38.65    1.79
   3  -6  -6   40.32    1.87
  -3   6   5    3.09    0.64
  -3   6   5    3.44    0.63
   3  -6  -5    2.02    0.75
   3  -6  -5    2.92    0.69
   3  -6  -5    3.15    0.70
   3  -6  -5    2.16    0.69
  -3   6   5    2.80    0.75
   3  -6  -5    2.86    0.72
   3  -6  -5    2.53    0.80
   3  -6  -4   75.16    3.06
   3  -6  -4   77.85    3.09
   3  -6  -4   76.25    3.16
   3  -6  -4   74.55    3.05
  -3   6   4   74.92    3.04
  -3   6   4   76.17    3.03
  -3   6   4   81.83    3.16
   3  -6  -4   75.99    3.14
   3  -6  -4   80.22    3.10
  -3   6   3   15.08    0.83
   3  -6  -3   14.99    0.85
  -3   6   3   15.05    0.81
   3  -6  -3   16.98    0.99
   3  -6  -3   16.10    1.02
  -3   6   3   15.10    1.02
   3  -6  -3   16.22    0.85
   3  -6  -3   17.46    1.01
  -3   6   2    0.58    0.40
   3  -6  -2    0.93    0.67
   3  -6  -2    1.26    0.39
   3  -6  -2    0.47    0.46
  -3   6   2    0.92    0.38
   3  -6  -2    0.80    0.64
   3  -6  -2    2.31    0.71
   3  -6  -1  148.37    5.82
   3  -6  -1  149.42    5.67
   3  -6  -1  154.22    5.80
  -3   6   1  143.70    5.65
  -3   6   1  157.44    5.80
   3  -6  -1  154.58    5.82
   3  -6  -1  149.41    5.66
  -3   6   1  151.00    5.67
   3  -6   0  145.93    5.87
  -3   6   0  159.01    6.04
   3  -6   0  157.13    6.06
   3  -6   0  159.41    6.04
   3  -6   0  156.55    5.96
   3  -6   0  152.40    6.04
   3  -6   0  160.79    5.87
   3  -6   0  155.40    5.89
  -3   6   0  160.04    5.88
   3  -6   1   77.98    2.98
  -3   6  -1   74.85    2.97
   3  -6   1   74.49    2.98
   3  -6   1   70.35    2.73
   3  -6   1   67.81    2.96
   3  -6   1   75.57    2.83
   3  -6   1   74.07    2.74
  -3   6  -2  413.99   15.41
   3  -6   2  414.31   15.41
   3  -6   2  403.22   15.40
   3  -6   2  407.66   15.40
   3  -6   2  401.92   15.27
   3  -6   3  218.90    8.65
  -3   6  -3  228.68    8.68
   3  -6   3  224.93    8.67
   3  -6   3  214.41    8.65
   3  -6   3  230.26    8.50
   3  -6   4  430.29   16.06
  -3   6  -4  432.42   16.27
   3  -6   4  423.29   16.26
  -3   6  -4  423.17   16.27
   3  -6   4  425.89   16.23
  -3   6  -5   75.05    3.25
   3  -6   5   75.09    3.23
  -3   6  -5   80.71    3.24
   3  -6   5   79.69    3.17
  -3   6  -6   84.89    3.53
   3  -6   6   84.16    3.51
   3  -6   6   84.22    3.43
  -3   6  -6   83.75    3.54
   3  -6   7   47.52    2.19
  -3   6  -7   44.04    2.21
   3  -6   7   42.65    2.06
  -3   6  -7   46.78    2.26
  -3   6  -8   62.58    2.42
  -3   6  -8   62.57    2.44
   3  -6   9   13.39    1.24
  -3   6  -9   14.84    0.68
  -3   6  -9   14.64    0.68
  -3   6  -9   13.16    1.59
  -3   6  -9   11.50    0.74
  -3   6  -9   14.48    0.81
   3  -6  10   19.94    1.47
  -3   6 -10   23.04    1.17
   3  -6  11    0.91    1.08
   3  -6  11    0.29    1.13
   3  -6  12   21.04    1.65
   3  -6  12   18.06    1.59
   3  -6  13    3.78    1.38
   3  -6  13    2.78    1.55
  -3   5  15   -1.71    1.78
  -3   5  14    1.21    1.87
   3  -5 -14   -0.98    1.43
  -3   5  14    0.70    1.82
  -3   5  13    1.43    1.03
   3  -5 -13    1.09    1.30
  -3   5  13    1.25    1.61
  -3   5  13    0.67    1.56
  -3   5  12    1.96    1.00
  -3   5  12    1.46    1.59
   3  -5 -12    2.63    1.28
  -3   5  12    1.15    1.59
  -3   5  11    0.98    1.34
   3  -5 -11   -0.15    1.13
  -3   5  11    2.63    1.51
   3  -5 -10    2.81    1.01
  -3   5  10    3.93    1.27
   3  -5 -10    4.05    1.10
   3  -5 -10    3.43    1.11
  -3   5  10    1.86    1.25
   3  -5  -9    1.18    0.91
   3  -5  -9    2.21    0.98
  -3   5   9   -0.09    0.80
  -3   5   9    0.59    1.05
   3  -5  -9    0.46    0.94
  -3   5   9    0.38    1.17
   3  -5  -8   14.90    1.04
  -3   5   8   15.30    1.20
   3  -5  -8   15.51    1.17
  -3   5   8   15.16    1.28
   3  -5  -8   14.66    1.15
  -3   5   8   14.05    1.02
   3  -5  -8   15.55    1.18
  -3   5   8   17.51    1.05
  -3   5   7   90.25    3.50
   3  -5  -7   85.67    3.50
   3  -5  -7   83.76    3.56
  -3   5   7   86.83    3.60
   3  -5  -7   84.62    3.54
  -3   5   7   95.16    3.53
   3  -5  -7   84.69    3.60
   3  -5  -7   89.26    3.50
   3  -5  -6   31.08    1.47
   3  -5  -6   32.77    1.56
   3  -5  -6   28.15    1.56
  -3   5   6   31.63    1.60
  -3   5   6   31.92    1.46
   3  -5  -6   33.08    1.53
   3  -5  -6   32.46    1.50
  -3   5   6   34.21    1.49
   3  -5  -6   34.09    1.57
  -3   5   5  244.19    9.35
   3  -5  -5  237.16    9.37
   3  -5  -5  249.14    9.37
   3  -5  -5  233.21    9.43
   3  -5  -5  245.86    9.37
   3  -5  -5  249.70    9.37
  -3   5   5  257.63    9.37
   3  -5  -5  250.72    9.42
   3  -5  -4   81.62    3.23
   3  -5  -4   81.25    3.21
   3  -5  -4   77.68    3.28
  -3   5   4   81.49    3.19
   3  -5  -4   82.52    3.20
   3  -5  -4   82.56    3.24
  -3   5   4   82.12    3.21
   3  -5  -4   79.66    3.27
  -3   5   3  535.32   20.39
  -3   5   3  552.80   20.40
   3  -5  -3  551.34   20.45
   3  -5  -3  534.81   20.40
   3  -5  -3  544.47   20.49
   3  -5  -3  534.30   20.40
   3  -5  -3  557.13   20.47
  -3   5   2  592.25   22.53
   3  -5  -2  603.05   22.64
   3  -5  -2  586.91   22.54
   3  -5  -2  616.57   22.60
   3  -5  -2  602.36   22.53
  -3   5   2  608.07   22.52
   3  -5  -1  164.03    6.27
   3  -5  -1  168.03    6.41
   3  -5  -1  170.65    6.38
   3  -5  -1  168.74    6.29
  -3   5   1  159.03    6.39
  -3   5   1  166.41    6.27
  -3   5   1  165.53    6.28
   3  -5   0  432.61   16.03
   3  -5   0  437.12   16.16
   3  -5   0  439.20   16.14
  -3   5   0  418.14   16.01
   3  -5   0  444.55   16.09
   3  -5   0  422.51   16.01
  -3   5   0  405.54   16.14
   3  -5   0  447.99   16.16
  -3   5   0  428.97   16.02
   3  -5   1  296.72   11.06
   3  -5   1  291.80   10.91
  -3   5  -1  297.99   11.07
   3  -5   1  285.02   11.06
   3  -5   1  284.84   10.98
   3  -5   1  291.45   11.06
  -3   5  -2   17.23    1.02
   3  -5   2   15.44    0.97
   3  -5   2   14.35    0.94
   3  -5   2   16.70    0.94
  -3   5  -3  293.76   11.02
   3  -5   3  281.28   11.01
   3  -5   3  283.17   10.97
   3  -5   3  291.69   10.86
   3  -5   4    2.12    0.29
   3  -5   4    2.21    0.62
  -3   5  -4    1.96    0.80
   3  -5   4    2.52    0.74
  -3   5  -4    2.39    0.75
  -3   5  -5  199.77    7.62
   3  -5   5  203.79    7.80
  -3   5  -5  208.72    7.83
  -3   5  -5  200.28    7.80
  -3   5  -6    0.84    0.93
   3  -5   6    2.81    0.91
  -3   5  -6    1.65    0.32
  -3   5  -6    1.65    0.42
  -3   5  -6    1.61    0.29
  -3   5  -6    0.52    0.88
  -3   5  -6    1.17    0.26
  -3   5  -7   53.90    2.43
  -3   5  -7   50.69    1.95
  -3   5  -7   49.35    1.98
  -3   5  -7   51.59    2.35
  -3   5  -7   48.33    1.93
  -3   5  -7   52.59    2.00
  -3   5  -7   46.38    1.94
   3  -5   7   48.94    2.32
  -3   5  -8    1.87    1.27
  -3   5  -8    0.34    0.57
  -3   5  -8   -0.23    0.46
  -3   5  -8    0.09    0.49
  -3   5  -8   -0.49    1.15
  -3   5  -8    0.69    0.52
  -3   5  -8    0.71    0.57
  -3   5  -9   21.09    1.19
   3  -5   9   23.95    1.49
  -3   5  -9   28.15    1.30
  -3   5  -9   26.87    1.24
  -3   5  -9   29.36    2.04
  -3   5  -9   28.50    1.28
   3  -5   9   24.48    1.45
  -3   5  -9   22.41    1.17
   3  -5  10    0.49    1.03
  -3   5 -10    0.19    0.67
   3  -5  10   -0.66    1.03
  -3   5 -10    0.49    0.65
  -3   5 -10   -0.30    0.77
  -3   5 -10   -0.60    0.84
  -3   5 -11    7.54    1.04
   3  -5  11    6.09    1.21
   3  -5  11    5.55    1.10
  -3   5 -11    3.72    0.78
   3  -5  12    9.34    1.33
   3  -5  12    9.33    1.28
   3  -5  12   11.04    1.70
   3  -5  13   -0.68    1.27
   3  -5  13   -0.14    1.25
   3  -5  13   -2.38    1.54
   3  -5  14    3.83    1.44
  -3   4  15   -1.38    1.76
  -3   4  15    2.84    1.84
  -3   4  15    1.22    1.71
  -3   4  14   -0.90    1.04
  -3   4  14    1.04    1.66
   3  -4 -14    0.65    1.44
  -3   4  14   -0.17    1.59
  -3   4  14    2.13    1.64
  -3   4  13    5.14    1.06
   3  -4 -13    4.41    1.33
  -3   4  13    3.34    1.56
  -3   4  13    1.97    1.62
  -3   4  13    5.31    1.69
  -3   4  12    1.02    0.94
   3  -4 -12   -0.05    1.01
  -3   4  12    1.36    1.44
   3  -4 -12    0.36    1.20
  -3   4  12   -0.56    1.41
  -3   4  12    0.79    1.40
   3  -4 -11   69.29    3.02
   3  -4 -11   68.25    2.84
  -3   4  11   66.39    3.14
   3  -4 -11   71.19    3.03
  -3   4  11   61.44    3.10
  -3   4  11   63.89    2.85
  -3   4  11   71.33    3.24
  -3   4  10    0.29    0.80
   3  -4 -10    0.74    0.93
  -3   4  10    1.96    1.15
   3  -4 -10    0.07    1.04
   3  -4 -10    1.63    0.96
  -3   4  10    1.32    1.12
   3  -4 -10    0.76    1.11
  -3   4  10   -0.13    1.18
  -3   4   9  143.22    5.74
   3  -4  -9  146.83    5.71
  -3   4   9  151.00    5.81
  -3   4   9  137.34    5.73
   3  -4  -9  144.83    5.70
   3  -4  -9  143.02    5.62
  -3   4   8    1.28    0.71
   3  -4  -8    0.31    0.70
   3  -4  -8    2.11    0.85
   3  -4  -8    0.27    0.84
  -3   4   8   -0.28    0.85
  -3   4   8    1.02    0.94
   3  -4  -7   29.10    1.41
   3  -4  -7   30.09    1.53
  -3   4   7   31.94    1.42
   3  -4  -7   31.46    1.49
  -3   4   7   28.19    1.54
   3  -4  -6   19.08    1.03
   3  -4  -6   19.77    1.13
   3  -4  -6   18.95    1.10
  -3   4   6   22.10    1.02
  -3   4   6   19.27    1.03
   3  -4  -6   19.02    1.03
   3  -4  -6   18.53    1.11
   3  -4  -6   21.92    1.09
   3  -4  -5   10.89    0.73
   3  -4  -5   11.97    0.81
   3  -4  -5   11.24    0.86
   3  -4  -5   12.04    0.82
  -3   4   5   11.48    0.75
   3  -4  -5   11.95    0.77
   3  -4  -5   11.66    0.77
  -3   4   5   13.03    0.75
   3  -4  -4   34.00    1.47
   3  -4  -4   31.50    1.52
   3  -4  -4   33.12    1.45
  -3   4   4   33.44    1.43
   3  -4  -4   33.38    1.44
   3  -4  -4   34.30    1.46
   3  -4  -4   32.07    1.50
  -3   4   4   35.29    1.44
  -3   4   3   15.08    0.75
   3  -4  -3   15.81    0.85
   3  -4  -3   12.95    0.91
   3  -4  -3   16.29    0.79
  -3   4   3   16.40    0.89
   3  -4  -3   16.59    0.77
   3  -4  -3   14.00    0.87
  -3   4   3   15.29    0.76
  -3   4   2   84.45    3.24
   3  -4  -2   82.72    3.26
   3  -4  -2   80.19    3.23
   3  -4  -2   82.31    3.17
  -3   4   2   80.12    3.24
  -3   4   2   79.66    3.15
   3  -4  -2   81.86    3.16
  -3   4   2   85.43    3.17
  -3   4   1  190.67    7.06
   3  -4  -1  185.48    7.05
   3  -4  -1  186.48    7.11
   3  -4  -1  184.01    7.16
   3  -4  -1  183.77    7.14
  -3   4   1  196.20    7.15
   3  -4  -1  184.32    7.06
  -3   4   1  186.99    7.05
  -3   4   0  381.84   14.16
   3  -4   0  402.94   14.27
   3  -4   0  388.63   14.28
   3  -4   0  377.40   14.22
   3  -4   0  378.25   14.25
   3  -4   0  348.71   14.15
   3  -4   0  393.99   14.16
  -3   4   0  379.97   14.15
   3  -4   1   65.12    2.72
   3  -4   1   68.68    2.58
   3  -4   1   65.33    2.75
   3  -4   1   64.91    2.72
   3  -4   1   66.45    2.65
  -3   4  -1   65.41    2.59
   3  -4   1   70.85    2.57
   3  -4   2  508.65   20.75
   3  -4   2  571.77   20.79
  -3   4  -2  548.15   20.70
   3  -4   2  549.63   20.75
   3  -4   2  569.52   20.69
   3  -4   3    2.37    0.63
   3  -4   3    2.03    0.34
  -3   4  -3    2.10    0.62
  -3   4  -3    1.97    0.71
  -3   4  -3    1.68    0.40
  -3   4  -4  394.93   14.53
  -3   4  -4  398.83   14.72
   3  -4   4  379.64   14.70
  -3   4  -4  382.04   14.52
   3  -4   4  392.85   14.55
  -3   4  -4  390.47   14.53
  -3   4  -4  394.94   14.59
  -3   4  -4  384.65   14.68
  -3   4  -4  378.48   14.52
   3  -4   5  374.45   13.73
  -3   4  -5  391.07   13.92
   3  -4   5  363.36   13.88
  -3   4  -5  363.95   13.70
  -3   4  -5  376.17   13.75
  -3   4  -5  366.37   13.86
  -3   4  -5  360.48   13.69
  -3   4  -5  354.39   13.70
  -3   4  -5  363.39   13.70
  -3   4  -6  220.51    8.20
   3  -4   6  224.84    8.42
  -3   4  -6  232.10    8.48
  -3   4  -6  219.23    8.21
  -3   4  -6  223.04    8.41
  -3   4  -6  209.30    8.20
  -3   4  -6  213.51    8.21
  -3   4  -7   73.21    2.70
  -3   4  -7   66.96    2.68
  -3   4  -7   74.58    3.10
  -3   4  -7   64.62    2.69
  -3   4  -7   71.46    2.98
   3  -4   7   65.51    2.81
  -3   4  -7   64.05    2.68
  -3   4  -7   75.61    2.79
  -3   4  -8   84.28    3.70
  -3   4  -8   96.82    3.70
   3  -4   8   90.95    3.81
  -3   4  -8  107.31    4.04
  -3   4  -8  107.38    4.21
  -3   4  -8  104.93    3.73
  -3   4  -8   84.88    3.70
   3  -4   8   95.84    3.82
  -3   4  -8  104.72    3.82
   3  -4   9   29.78    1.54
  -3   4  -9   33.19    1.44
  -3   4  -9   25.11    1.43
  -3   4  -9   32.59    1.48
  -3   4  -9   34.60    2.19
  -3   4  -9   36.93    1.97
  -3   4  -9   25.93    1.43
   3  -4   9   31.54    1.60
  -3   4  -9   34.59    1.63
  -3   4 -10   49.97    2.15
  -3   4 -10   51.13    1.94
   3  -4  10   44.51    2.08
  -3   4 -10   56.81    2.00
  -3   4 -10   34.78    1.91
   3  -4  10   47.18    2.11
   3  -4  11    1.08    1.06
   3  -4  11    0.98    1.03
  -3   4 -11    0.18    0.79
  -3   4 -11    0.41    0.90
   3  -4  11    0.26    1.59
  -3   4 -11    1.07    0.77
  -3   4 -11    0.91    0.84
   3  -4  12   38.62    1.98
  -3   4 -12   28.34    1.87
   3  -4  12   46.36    2.43
  -3   4 -12   52.89    2.06
   3  -4  12   40.64    2.12
   3  -4  13    0.35    1.34
   3  -4  13    0.73    1.23
   3  -4  13    2.64    1.53
   3  -4  14   -0.23    1.24
  -3   3  15    3.96    1.67
  -3   3  15    0.33    1.65
  -3   3  15    4.89    1.69
  -3   3  14    1.73    0.97
  -3   3  14    1.88    1.55
  -3   3  14    2.28    1.58
  -3   3  14    2.71    1.56
   3  -3 -13    0.05    1.02
  -3   3  13    1.74    1.40
   3  -3 -13   -0.30    1.38
  -3   3  13    0.82    1.42
  -3   3  13   -1.29    1.63
  -3   3  13    2.07    0.96
  -3   3  12    2.42    0.86
   3  -3 -12    1.49    1.05
   3  -3 -12    0.73    1.17
  -3   3  12   -0.28    1.31
  -3   3  12    0.43    1.30
  -3   3  12    0.29    1.42
   3  -3 -11   36.36    1.90
  -3   3  11   28.98    1.93
   3  -3 -11   34.15    1.70
   3  -3 -11   34.67    1.86
  -3   3  11   31.92    1.99
  -3   3  11   33.82    1.65
   3  -3 -11   27.01    1.90
  -3   3  11   36.98    2.01
   3  -3 -11   32.55    1.76
   3  -3 -10   29.86    1.59
  -3   3  10   29.38    1.42
  -3   3  10   33.03    1.70
   3  -3 -10   25.74    1.63
  -3   3  10   27.27    1.40
   3  -3 -10   25.64    1.50
   3  -3 -10   21.95    1.60
   3  -3  -9    9.93    0.94
  -3   3   9   11.72    0.91
  -3   3   9   11.68    1.19
   3  -3  -9    8.84    1.05
   3  -3  -9    9.76    1.04
   3  -3  -9   12.72    1.10
   3  -3  -8   19.79    1.16
   3  -3  -8   15.94    1.14
  -3   3   8   18.81    1.21
  -3   3   8   17.66    1.04
   3  -3  -8   16.06    1.18
   3  -3  -8   17.37    1.05
   3  -3  -7   39.84    1.74
   3  -3  -7   42.37    1.84
   3  -3  -7   40.27    1.83
  -3   3   7   40.06    1.86
   3  -3  -6   16.89    1.00
   3  -3  -6   16.71    0.89
  -3   3   6   14.46    0.98
   3  -3  -6   17.86    1.01
   3  -3  -5  199.22    7.84
  -3   3   5  205.02    7.89
   3  -3  -5  207.19    7.88
  -3   3   5  213.96    7.85
   3  -3  -5  210.28    7.87
   3  -3  -5  203.66    7.85
  -3   3   4  365.54   13.82
   3  -3  -4  368.73   13.83
   3  -3  -4  346.22   13.87
  -3   3   4  369.31   13.87
   3  -3  -4  384.38   13.85
   3  -3  -4  368.93   13.83
  -3   3   4  380.91   13.82
   3  -3  -4  371.55   13.84
   3  -3  -4  337.66   13.85
  -3   3   3   90.80    3.52
   3  -3  -3   91.12    3.52
   3  -3  -3   89.72    3.55
  -3   3   3   93.09    3.57
   3  -3  -3   90.37    3.58
   3  -3  -3   91.39    3.53
  -3   3   3   92.94    3.51
   3  -3  -3   90.35    3.55
  -3   3   2  616.21   23.06
  -3   3   2  624.24   23.07
  -3   3   2  626.99   23.12
   3  -3  -2  607.00   23.13
   3  -3  -2  620.54   23.10
  -3   3   2  610.68   23.11
   3  -3  -2  614.45   23.07
   3  -3  -2  610.05   23.11
   3  -3  -2  603.64   23.06
  -3   3   1 1065.22   39.97
  -3   3   1 1072.94   40.04
  -3   3   1 1083.20   39.98
   3  -3  -1 1107.34   40.06
   3  -3  -1 1056.90   40.02
   3  -3  -1 1054.56   40.02
   3  -3  -1 1060.49   39.97
   3  -3  -1 1039.54   39.98
  -3   3   1 1095.36   40.03
  -3   3   0 1345.74   49.71
   3  -3   0 1341.72   49.71
  -3   3   0 1336.62   49.63
  -3   3   0 1315.24   49.62
   3  -3   0 1300.66   49.67
   3  -3   0 1325.81   49.62
   3  -3   0 1328.35   49.62
  -3   3  -1  646.79   23.88
   3  -3   1  639.36   23.88
  -3   3  -1  636.18   23.77
   3  -3   1  654.17   23.77
  -3   3  -1  647.44   23.83
  -3   3  -1  638.40   23.78
   3  -3   1  604.64   23.77
  -3   3  -2  349.74   13.44
   3  -3   2  347.51   13.51
  -3   3  -2  364.92   13.39
   3  -3   2  355.14   13.39
   3  -3   2  359.17   13.39
  -3   3  -2  360.18   13.40
   3  -3   2  348.62   13.43
  -3   3  -3  754.99   27.75
   3  -3   3  757.27   27.87
  -3   3  -3  722.60   27.74
  -3   3  -3  758.34   27.80
  -3   3  -3  730.56   27.84
  -3   3  -3  723.17   27.73
  -3   3  -3  751.99   27.73
   3  -3   3  748.44   27.76
   3  -3   4   89.63    3.30
   3  -3   4   86.67    3.46
  -3   3  -4   85.69    3.26
  -3   3  -4   88.70    3.27
  -3   3  -4   87.39    3.28
  -3   3  -4   89.01    3.42
  -3   3  -4   83.97    3.25
   3  -3   5  354.90   13.00
  -3   3  -5  356.65   13.09
   3  -3   5  353.09   13.14
  -3   3  -5  341.32   12.97
  -3   3  -5  342.66   12.96
   3  -3   5  338.64   13.03
  -3   3  -5  335.32   12.97
  -3   3  -5  341.36   12.96
  -3   3  -5  358.35   13.04
  -3   3  -6   21.61    1.44
  -3   3  -6   19.74    0.96
   3  -3   6   21.80    1.29
  -3   3  -6   19.79    0.96
  -3   3  -6   23.80    1.27
  -3   3  -6   19.67    0.93
   3  -3   6   18.24    1.09
  -3   3  -6   19.67    0.92
  -3   3  -6   22.36    1.09
  -3   3  -7   74.64    3.14
  -3   3  -7   84.89    3.56
  -3   3  -7   80.05    3.11
  -3   3  -7   75.26    3.14
  -3   3  -7   86.72    3.36
   3  -3   7   76.61    3.21
  -3   3  -7   81.10    3.11
  -3   3  -7   85.85    3.24
   3  -3   8  201.10    8.04
  -3   3  -8  187.03    8.02
  -3   3  -8  237.03    8.46
  -3   3  -8  220.92    8.02
  -3   3  -8  190.15    8.03
  -3   3  -8  244.05    8.27
   3  -3   8  210.72    8.08
  -3   3  -8  225.42    8.00
  -3   3  -8  211.86    8.10
  -3   3  -9    0.03    0.64
   3  -3   9    0.68    0.92
  -3   3  -9   -0.37    0.86
   3  -3   9    0.21    0.84
  -3   3  -9   -0.11    0.80
  -3   3  -9   -0.37    1.69
  -3   3  -9   -0.18    0.68
  -3   3  -9   -0.02    0.70
  -3   3  -9    0.64    1.20
  -3   3 -10    0.61    0.99
   3  -3  10    1.38    0.98
   3  -3  10    1.78    0.93
  -3   3 -10    1.88    0.86
  -3   3 -10    0.93    0.70
  -3   3 -10    2.04    0.82
  -3   3 -10    1.78    0.81
   3  -3  10    2.19    1.47
  -3   3 -11    0.78    0.98
   3  -3  11    0.90    1.06
   3  -3  11    0.30    0.97
  -3   3 -11    0.95    0.88
   3  -3  11    1.40    1.50
  -3   3 -11    0.88    0.85
  -3   3 -11   -0.13    0.79
  -3   3 -11    1.09    0.87
  -3   3 -12   -0.23    0.97
   3  -3  12   -0.55    0.98
   3  -3  12   -1.18    1.16
  -3   3 -12   -0.82    0.98
   3  -3  12    2.62    1.51
   3  -3  13   -0.93    1.35
   3  -3  13   -1.17    1.07
  -3   3 -13    0.73    1.06
   3  -3  13    0.33    1.51
   3  -3  14    8.44    1.44
  -3   2  16    1.51    1.77
  -3   2  15    3.50    1.04
  -3   2  15    0.20    1.50
   3  -2 -15    1.19    1.51
  -3   2  15    3.26    1.51
  -3   2  15    2.61    1.63
  -3   2  14    8.12    1.08
   3  -2 -14    6.89    1.53
  -3   2  14    5.80    1.53
  -3   2  14    7.58    1.54
  -3   2  14    8.67    1.66
  -3   2  13   12.84    1.08
  -3   2  13   10.28    1.48
  -3   2  13   13.57    1.54
   3  -2 -12    0.13    1.02
  -3   2  12    0.32    0.81
   3  -2 -12    0.43    1.17
   3  -2 -12    0.88    1.34
  -3   2  12   -0.83    1.32
   3  -2 -11   46.20    2.04
   3  -2 -11   35.50    2.12
  -3   2  11   43.69    1.93
   3  -2 -11   39.24    2.17
  -3   2  11   45.55    1.95
  -3   2  11   47.31    2.26
   3  -2 -11   42.08    2.06
   3  -2 -10   -0.34    0.99
   3  -2 -10    1.65    0.89
   3  -2 -10   -0.09    0.89
  -3   2  10    0.30    0.69
  -3   2  10    1.11    0.68
   3  -2 -10    1.36    0.98
  -3   2  10   -0.07    0.93
   3  -2  -9  160.59    5.93
  -3   2   9  129.26    5.90
   3  -2  -9  153.81    5.92
  -3   2   9  159.26    5.80
   3  -2  -9  147.46    5.84
  -3   2   9  129.37    5.91
   3  -2  -9  140.34    5.87
  -3   2   9  175.02    5.97
  -3   2   9  154.91    5.82
  -3   2   8   44.68    1.89
   3  -2  -8   41.37    1.86
   3  -2  -8   37.29    1.87
  -3   2   8   39.45    1.71
   3  -2  -8   36.63    1.75
  -3   2   8   47.39    1.91
   3  -2  -8   38.16    1.82
  -3   2   8   40.06    1.84
  -3   2   8   36.21    1.72
  -3   2   7  250.28    9.84
   3  -2  -7  247.70    9.78
   3  -2  -7  268.61    9.85
  -3   2   7  249.96    9.77
   3  -2  -7  274.34    9.86
  -3   2   7  257.41    9.84
  -3   2   7  254.81    9.85
   3  -2  -7  260.04    9.82
  -3   2   7  263.09    9.79
   3  -2  -6  196.97    7.49
  -3   2   6  199.83    7.50
  -3   2   6  195.57    7.54
   3  -2  -6  202.48    7.55
   3  -2  -6  198.87    7.54
  -3   2   6  193.66    7.54
   3  -2  -6  195.28    7.52
  -3   2   6  191.04    7.53
   3  -2  -5   25.36    1.09
  -3   2   5   22.44    1.13
   3  -2  -5   25.59    1.14
   3  -2  -5   23.49    1.13
   3  -2  -5   24.86    1.09
  -3   2   5   21.80    1.13
   3  -2  -4 1013.57   37.50
   3  -2  -4  975.54   37.49
   3  -2  -4 1001.53   37.51
   3  -2  -4 1008.31   37.51
  -3   2   4 1005.99   37.52
   3  -2  -3    4.44    0.42
  -3   2   3    4.85    0.48
  -3   2   3    4.85    0.42
  -3   2   3    4.70    0.45
   3  -2  -3    3.45    0.47
   3  -2  -3    4.99    0.39
  -3   2   2   93.35    3.49
   3  -2  -2   91.42    3.50
  -3   2   2   92.49    3.49
   3  -2  -2   90.88    3.45
  -3   2   2   85.53    3.45
   3  -2  -2   89.79    3.46
  -3   2   2   88.37    3.45
  -3   2   1  206.81    7.77
   3  -2  -1  195.37    7.83
  -3   2   1  202.77    7.81
   3  -2  -1  208.29    7.77
  -3   2   1  210.48    7.78
   3  -2  -1  207.69    7.82
   3  -2  -1  206.44    7.78
  -3   2   1  205.69    7.82
   3  -2   0   27.15    1.14
  -3   2   0   29.20    1.24
   3  -2   0   30.27    1.24
  -3   2   0   30.22    1.14
  -3   2   0   26.03    1.21
   3  -2   0   25.98    1.19
   3  -2   0   27.15    1.12
  -3   2   0   29.09    1.15
  -3   2  -1  140.49    5.15
   3  -2   1  125.37    5.13
   3  -2   1  129.00    5.05
  -3   2  -1  135.16    5.11
  -3   2  -1  137.04    5.06
   3  -2   1  131.94    5.04
  -3   2  -1  135.57    5.06
   3  -2   1  135.20    5.09
  -3   2  -2   21.25    1.02
  -3   2  -2   22.80    1.00
  -3   2  -2   21.25    0.90
  -3   2  -2   21.33    0.91
  -3   2  -2   22.86    1.07
   3  -2   2   22.14    1.07
   3  -2   2   19.41    0.89
   3  -2   2   23.34    0.89
   3  -2   2   20.01    0.96
   3  -2   2   22.55    0.94
   3  -2   3   81.39    3.12
  -3   2  -3   80.91    3.18
  -3   2  -3   80.43    3.10
  -3   2  -3   83.57    3.25
  -3   2  -3   81.99    3.08
   3  -2   3   79.60    3.23
  -3   2  -3   78.18    3.10
   3  -2   3   78.06    3.14
  -3   2  -3   81.03    3.08
  -3   2  -3   82.51    3.17
   3  -2   4   19.53    0.88
  -3   2  -4   18.26    0.81
  -3   2  -4   19.41    0.82
  -3   2  -4   16.93    1.15
   3  -2   4   18.66    0.91
  -3   2  -4   17.44    0.85
  -3   2  -4   17.94    0.85
  -3   2  -4   18.94    0.99
   3  -2   4   21.14    1.15
  -3   2  -4   19.25    0.96
  -3   2  -5   93.66    3.70
   3  -2   5   98.52    3.72
  -3   2  -5   97.02    3.67
  -3   2  -5   95.76    3.70
   3  -2   5  102.80    3.90
  -3   2  -5   97.33    3.80
  -3   2  -5   96.47    3.67
   3  -2   5   88.37    3.73
  -3   2  -5   92.90    3.76
  -3   2  -6   15.96    0.90
  -3   2  -6   16.86    0.84
  -3   2  -6   16.09    0.90
  -3   2  -6   18.25    1.11
  -3   2  -6   16.20    0.83
   3  -2   6   17.36    0.93
  -3   2  -6   15.62    0.98
   3  -2   7  146.65    5.75
  -3   2  -7  140.61    5.76
  -3   2  -7  144.21    5.80
  -3   2  -7  150.41    5.72
  -3   2  -7  141.40    5.75
   3  -2   7  144.23    5.76
  -3   2  -7  159.57    5.72
  -3   2  -8   32.39    1.38
  -3   2  -8   27.54    1.46
   3  -2   8   30.34    1.44
  -3   2  -8   25.30    1.53
  -3   2  -8   28.36    2.00
  -3   2  -8   29.37    1.49
  -3   2  -8   36.57    1.75
   3  -2   8   27.92    1.49
  -3   2  -8   34.42    1.41
  -3   2  -9   70.26    2.53
  -3   2  -9   75.91    2.84
  -3   2  -9   56.53    3.10
   3  -2   9   59.84    2.53
  -3   2  -9   49.65    2.56
  -3   2  -9   53.13    2.55
  -3   2  -9   46.08    2.56
   3  -2   9   76.53    3.02
   3  -2   9   60.02    2.59
  -3   2  -9   67.23    2.50
  -3   2 -10   13.44    1.31
   3  -2  10   19.50    1.29
   3  -2  10   17.19    1.20
  -3   2 -10   27.70    1.79
  -3   2 -10   22.95    1.19
  -3   2 -10   18.12    1.26
   3  -2  10   23.46    1.74
  -3   2 -10   15.79    1.25
  -3   2 -10   23.03    1.14
  -3   2 -11    0.93    0.89
   3  -2  11   -1.57    1.11
  -3   2 -11    1.97    0.85
   3  -2  11    0.33    0.89
  -3   2 -11    1.93    0.93
  -3   2 -11   -0.69    0.94
   3  -2  11    1.36    1.40
  -3   2 -11    0.63    1.04
   3  -2  12   11.80    1.33
   3  -2  12   11.59    1.15
  -3   2 -12   11.12    1.23
  -3   2 -12   12.52    1.08
  -3   2 -12   13.01    1.09
   3  -2  12    9.51    1.64
   3  -2  13    7.30    1.33
  -3   2 -13    9.91    1.35
  -3   2 -13   10.51    1.18
   3  -2  13    8.85    1.59
   3  -2  14    2.52    1.26
  -3   2 -14    1.61    1.17
   3  -1 -16    2.84    1.60
  -3   1  16    1.68    1.45
  -3   1  16    1.82    1.59
  -3   1  16    1.40    1.49
  -3   1  15    1.62    1.03
   3  -1 -15    0.05    1.50
  -3   1  15    0.55    1.51
  -3   1  15    0.96    1.49
  -3   1  15   -0.62    1.46
   3  -1 -14   19.64    1.75
  -3   1  14   18.26    1.31
  -3   1  14   22.63    1.81
  -3   1  13   42.19    2.06
   3  -1 -13   48.65    2.42
  -3   1  13   46.44    2.43
   3  -1 -12    2.33    1.09
  -3   1  12    0.87    0.80
   3  -1 -12    1.27    1.33
   3  -1 -12    1.39    1.23
  -3   1  12    1.54    1.29
   3  -1 -11   63.91    2.61
  -3   1  11   71.62    2.73
   3  -1 -11   62.70    2.74
  -3   1  11   50.52    2.66
  -3   1  11   60.63    2.49
   3  -1 -11   57.77    2.61
  -3   1  11   50.43    2.69
   3  -1 -11   54.35    2.70
  -3   1  11   58.23    2.47
   3  -1 -10    0.32    0.88
  -3   1  10    0.64    1.00
   3  -1 -10   -0.80    0.94
  -3   1  10    0.31    0.92
  -3   1  10    0.84    0.65
  -3   1  10    0.41    0.63
  -3   1  10    0.24    0.90
   3  -1 -10    0.24    0.91
  -3   1   9   20.21    1.34
   3  -1  -9   25.10    1.41
   3  -1  -9   23.08    1.32
  -3   1   9   25.63    1.20
  -3   1   9   21.26    1.35
  -3   1   9   22.75    1.18
   3  -1  -9   21.89    1.33
  -3   1   9   28.44    1.40
   3  -1  -9   23.03    1.31
  -3   1   8   73.56    2.88
  -3   1   8   66.78    2.97
  -3   1   8   73.62    2.87
   3  -1  -8   81.34    3.01
  -3   1   8   69.97    2.99
   3  -1  -8   67.43    2.92
  -3   1   8   75.52    2.96
   3  -1  -8   67.05    2.91
   3  -1  -7    9.70    0.84
   3  -1  -7    7.33    0.75
  -3   1   7    9.00    0.83
  -3   1   7    9.90    0.71
  -3   1   7    9.81    0.66
  -3   1   7    9.06    0.73
  -3   1   7    7.13    0.83
   3  -1  -7    7.73    0.75
   3  -1  -7    8.41    0.83
  -3   1   6  156.59    6.01
  -3   1   6  157.59    5.98
   3  -1  -6  164.39    6.02
  -3   1   6  156.50    5.96
  -3   1   6  160.15    6.02
   3  -1  -6  158.07    5.98
  -3   1   6  150.78    5.98
   3  -1  -6  160.32    6.02
   3  -1  -6  145.06    5.97
  -3   1   5   82.15    3.25
  -3   1   5   82.26    3.23
   3  -1  -5   84.33    3.25
   3  -1  -5   85.73    3.27
  -3   1   5   80.11    3.22
   3  -1  -5   81.42    3.27
  -3   1   5   82.74    3.26
   3  -1  -5   85.71    3.24
   3  -1  -4    4.93    0.51
   3  -1  -4    4.12    0.47
   3  -1  -4    5.13    0.53
   3  -1  -4    4.00    0.47
  -3   1   4    4.26    0.44
  -3   1   4    4.37    0.45
  -3   1   4    4.01    0.44
   3  -1  -4    5.00    0.48
  -3   1   3  164.91    6.20
  -3   1   3  161.51    6.20
   3  -1  -3  164.04    6.21
   3  -1  -3  162.31    6.24
   3  -1  -3  163.14    6.21
  -3   1   2  230.66    8.83
  -3   1   2  241.29    8.85
  -3   1   2  232.38    8.82
   3  -1  -2  226.51    8.85
   3  -1  -2  236.51    8.82
   3  -1  -2  234.25    8.83
  -3   1   1    1.66    0.29
   3  -1  -1    1.71    0.35
  -3   1   1    2.19    0.42
   3  -1  -1    1.69    0.34
   3  -1  -1    1.75    0.40
   3  -1  -1    1.69    0.29
  -3   1   0  708.92   25.61
   3  -1   0  688.23   25.58
   3  -1   0  678.66   25.57
  -3   1   0  695.29   25.57
   3  -1   0  682.22   25.57
  -3   1   0  651.06   25.57
   3  -1   0  677.60   25.60
  -3   1  -1 1359.85   50.90
  -3   1  -1 1352.85   50.90
  -3   1  -1 1390.39   50.96
   3  -1   1 1358.23   50.91
   3  -1   1 1331.90   50.90
   3  -1   1 1371.37   50.89
   3  -1   1 1353.88   50.89
   3  -1   1 1372.97   50.92
  -3   1  -2  415.52   15.56
   3  -1   2  397.19   15.56
   3  -1   2  420.40   15.48
  -3   1  -2  411.91   15.49
   3  -1   2  417.57   15.48
  -3   1  -2  410.28   15.48
  -3   1  -2  407.77   15.50
   3  -1   2  401.21   15.48
  -3   1  -2  418.24   15.52
   3  -1   2  415.31   15.50
   3  -1   3  471.29   17.55
  -3   1  -3  478.58   17.65
  -3   1  -3  467.71   17.56
  -3   1  -3  465.25   17.52
  -3   1  -3  458.19   17.54
   3  -1   3  454.30   17.53
  -3   1  -3  469.42   17.54
   3  -1   3  479.54   17.64
  -3   1  -3  472.80   17.58
  -3   1  -4  320.80   12.37
   3  -1   4  353.83   12.35
  -3   1  -4  341.74   12.31
  -3   1  -4  333.36   12.36
  -3   1  -4  322.01   12.46
  -3   1  -4  323.10   12.30
   3  -1   4  333.56   12.45
  -3   1  -4  318.41   12.33
   3  -1   4  311.10   12.32
  -3   1  -4  316.34   12.33
   3  -1   5  422.43   15.50
  -3   1  -5  403.80   15.49
  -3   1  -5  416.99   15.65
  -3   1  -5  410.05   15.45
   3  -1   5  400.25   15.46
  -3   1  -5  410.93   15.44
  -3   1  -5  437.87   15.52
  -3   1  -5  407.03   15.48
  -3   1  -5  396.46   15.51
  -3   1  -6  120.46    4.87
  -3   1  -6  125.05    5.12
  -3   1  -6  124.41    4.86
  -3   1  -6  130.26    4.82
   3  -1   6  120.53    4.84
  -3   1  -6  125.29    4.81
  -3   1  -6  116.76    4.91
  -3   1  -7   13.96    1.05
   3  -1   7   13.03    0.87
  -3   1  -7   16.30    0.90
  -3   1  -7   15.63    1.02
  -3   1  -7   17.94    0.89
  -3   1  -7   15.15    0.97
  -3   1  -7   17.71    1.11
   3  -1   7   15.51    1.00
  -3   1  -8  122.82    4.38
   3  -1   8  104.07    4.35
  -3   1  -8   99.29    4.45
  -3   1  -8  103.45    4.43
  -3   1  -8  140.57    4.58
   3  -1   8  135.81    4.78
  -3   1  -8  125.57    4.38
   3  -1   8  105.81    4.41
  -3   1  -8   92.41    4.45
   3  -1   9   47.78    2.09
   3  -1   9   55.92    2.53
  -3   1  -9   56.76    2.13
  -3   1  -9   39.50    2.19
  -3   1  -9   44.52    2.19
  -3   1  -9   66.66    2.45
  -3   1  -9   54.45    2.11
   3  -1   9   48.37    2.17
  -3   1  -9   35.30    2.19
  -3   1 -10   15.93    1.41
   3  -1  10   20.91    1.28
  -3   1 -10   31.20    1.72
  -3   1 -10   27.59    1.32
  -3   1 -10   19.57    1.42
  -3   1 -10   20.61    1.41
   3  -1  10   24.01    1.74
   3  -1  10   23.45    1.45
  -3   1 -10   25.72    1.30
  -3   1 -11    8.86    1.20
  -3   1 -11    7.15    1.19
   3  -1  11    8.70    1.15
   3  -1  11    7.61    0.99
  -3   1 -11   12.59    0.97
  -3   1 -11    7.00    1.10
  -3   1 -11   10.17    1.10
   3  -1  11    9.90    1.50
   3  -1  12    2.33    1.11
  -3   1 -12    0.16    0.99
   3  -1  12    2.64    1.50
  -3   1 -12    1.88    1.07
  -3   1 -13    1.63    1.25
   3  -1  13    0.88    1.20
  -3   1 -13    1.26    1.13
   3  -1  13    0.48    1.60
  -3   1 -14   -0.39    1.35
   3  -1  14    1.26    1.15
  -3   1 -14    0.96    1.29
   3   0 -16   -1.53    1.67
  -3   0  16    1.99    1.45
   3   0 -15    6.09    1.63
  -3   0  15    7.86    1.12
  -3   0  15   10.24    1.43
  -3   0  14   20.02    1.37
   3   0 -14   23.85    1.87
  -3   0  14   24.65    1.73
   3   0 -13   13.55    1.51
  -3   0  13   13.10    1.08
  -3   0  13   15.62    1.44
  -3   0  13   11.07    1.42
  -3   0  13   13.45    1.50
   3   0 -13   12.86    1.54
   3   0 -12    0.78    1.18
   3   0 -12    0.08    1.08
  -3   0  12    0.25    0.79
  -3   0  12    0.70    1.12
  -3   0  12   -0.09    0.82
  -3   0  12    0.53    1.12
  -3   0  12    1.35    1.11
   3   0 -12    0.04    1.21
   3   0 -11    7.40    1.23
   3   0 -11    8.52    1.10
   3   0 -11    8.13    1.06
  -3   0  11    9.61    1.16
  -3   0  11    8.60    0.89
  -3   0  11    7.66    0.82
  -3   0  11    5.76    1.12
   3   0 -11    5.56    1.16
  -3   0  11    8.35    1.16
   3   0 -11    7.88    1.16
   3   0 -10    2.11    0.95
   3   0 -10    5.31    0.97
  -3   0  10    3.33    0.91
  -3   0  10    3.55    0.73
  -3   0  10    3.79    0.75
  -3   0  10    4.14    0.87
   3   0 -10    3.02    0.99
   3   0 -10    3.29    1.00
   3   0  -9    3.70    0.91
   3   0  -9    6.77    0.97
  -3   0   9    5.57    0.90
   3   0  -9    4.79    0.86
  -3   0   9    4.91    0.69
  -3   0   9    5.83    0.73
  -3   0   9    7.84    0.86
   3   0  -9    5.42    0.97
  -3   0   8  165.61    6.91
  -3   0   8  184.76    6.85
   3   0  -8  184.91    6.91
  -3   0   8  182.41    6.83
   3   0  -8  162.26    6.87
  -3   0   8  173.52    6.93
  -3   0   8  195.52    6.89
  -3   0   7    2.24    0.68
   3   0  -7    1.37    0.68
   3   0  -7    2.01    0.64
  -3   0   7    2.70    0.66
  -3   0   7    2.00    0.53
   3   0  -7    2.20    0.55
  -3   0   7    1.79    0.53
  -3   0   7    1.91    0.50
  -3   0   6  733.12   27.22
  -3   0   6  733.99   27.19
   3   0  -6  748.02   27.24
   3   0  -6  649.56   27.21
  -3   0   6  745.78   27.19
   3   0  -6  708.22   27.24
  -3   0   6  738.69   27.23
   3   0  -6  730.18   27.18
  -3   0   5   27.47    1.22
  -3   0   5   25.66    1.21
  -3   0   5   27.85    1.20
  -3   0   5   26.33    1.21
   3   0  -5   27.56    1.23
   3   0  -5   27.98    1.19
   3   0  -5   30.00    1.19
   3   0  -5   27.13    1.25
   3   0  -4 1197.93   46.36
  -3   0   4 1241.52   46.37
  -3   0   4 1243.54   46.37
   3   0  -4 1227.88   46.37
   3   0  -4 1258.16   46.36
  -3   0   4 1223.69   46.38
   3   0  -4 1243.46   46.39
  -3   0   4 1254.47   46.37
   3   0  -4 1256.90   46.39
   3   0  -3   14.94    0.67
   3   0  -3   12.94    0.75
  -3   0   3   14.36    0.71
  -3   0   3   14.35    0.67
  -3   0   3   14.51    0.67
   3   0  -3   13.55    0.67
  -3   0   3   13.95    0.76
   3   0  -3   15.58    0.74
   3   0  -3   13.14    0.74
  -3   0   3   13.38    0.68
  -3   0   3   14.63    0.71
   3   0  -2  566.50   21.01
  -3   0   2  552.78   21.02
  -3   0   2  553.50   21.03
   3   0  -2  550.65   21.04
  -3   0   2  571.42   21.07
   3   0  -2  569.63   21.05
  -3   0   2  541.94   21.05
   3   0  -2  558.12   21.07
   3   0  -2  579.70   21.02
   3   0  -2  554.25   21.05
   3   0  -1  305.60   11.72
   3   0  -1  315.20   11.76
  -3   0   1  315.66   11.76
   3   0  -1  301.13   11.76
  -3   0   1  316.49   11.73
   3   0  -1  317.10   11.76
  -3   0   1  324.77   11.79
   3   0  -1  303.07   11.72
   3   0  -1  322.05   11.79
   3   0   0  100.40    3.96
  -3   0   0  105.40    4.02
   3   0   0  105.97    3.98
   3   0   0  105.13    3.99
   3   0   0  105.98    4.02
   3   0   1  473.71   17.59
  -3   0  -1  466.41   17.63
   3   0   1  456.35   17.56
   3   0   1  474.54   17.58
   3   0   1  462.76   17.55
   3   0   1  485.62   17.61
   3   0   2    1.33    0.32
   3   0   2    2.03    0.40
  -3   0  -2    1.42    0.39
   3   0   2    2.38    0.37
  -3   0  -2    2.63    0.52
  -3   0  -2    1.60    0.38
  -3   0  -2    2.03    0.33
   3   0   2    1.54    0.27
  -3   0  -3    2.18    0.57
  -3   0  -3    2.31    0.39
   3   0   3    2.50    0.45
  -3   0  -3    1.81    0.44
  -3   0  -3    1.43    0.68
   3   0   3    1.58    0.39
  -3   0  -3    1.70    0.36
  -3   0  -3    1.95    0.42
   3   0   3    2.32    0.34
  -3   0  -4  755.07   26.85
   3   0   4  774.96   26.89
  -3   0  -4  694.58   26.87
  -3   0  -4  687.45   26.89
  -3   0  -4  693.66   26.98
  -3   0  -4  719.63   26.83
  -3   0  -4  713.06   26.86
  -3   0  -4  733.25   26.84
   3   0   4  673.75   26.82
  -3   0  -5   38.34    1.73
  -3   0  -5   39.02    2.00
  -3   0  -5   41.14    1.65
   3   0   5   38.34    1.66
  -3   0  -5   40.12    1.72
  -3   0  -5   43.58    1.72
  -3   0  -5   38.48    1.64
  -3   0  -5   37.45    1.76
  -3   0  -6    7.91    0.78
  -3   0  -6    8.65    0.85
  -3   0  -6   11.75    1.27
   3   0   6    8.57    0.76
  -3   0  -6    8.85    0.69
   3   0   6    8.78    0.61
  -3   0  -6    9.41    0.69
  -3   0  -6   10.27    0.81
  -3   0  -6    9.96    0.81
  -3   0  -7    0.70    0.62
   3   0   7    0.42    0.70
  -3   0  -7    2.13    0.56
   3   0   7    1.19    0.50
  -3   0  -7    1.72    0.80
  -3   0  -7    0.25    1.23
  -3   0  -7    0.44    0.70
   3   0   7    0.50    1.10
  -3   0  -8    0.13    0.88
   3   0   8    0.49    0.78
   3   0   8   -0.38    0.59
  -3   0  -8   -0.11    0.63
  -3   0  -8    1.85    1.36
  -3   0  -8    0.36    0.69
  -3   0  -8   -0.39    0.80
   3   0   8   -0.33    1.13
  -3   0  -8   -0.87    0.96
  -3   0  -8    0.45    0.86
  -3   0  -9    8.62    1.12
  -3   0  -9    6.44    1.10
  -3   0  -9    9.32    0.92
   3   0   9   10.55    1.02
   3   0   9    9.21    0.78
  -3   0  -9    9.21    1.04
  -3   0  -9   10.46    0.89
  -3   0  -9   13.27    1.21
   3   0   9   11.60    1.39
  -3   0 -10   18.79    1.61
  -3   0 -10   30.52    1.50
  -3   0 -10   21.38    1.60
  -3   0 -10   39.87    1.84
   3   0  10   27.01    1.85
  -3   0 -10   23.22    1.55
  -3   0 -10   30.93    1.48
   3   0  10   26.07    1.52
   3   0  11    0.18    1.03
  -3   0 -11   -0.13    0.93
  -3   0 -11   -0.61    0.96
  -3   0 -11    0.46    1.49
   3   0  11   -0.26    1.29
  -3   0 -11   -0.04    1.08
   3   0  12    0.47    1.04
  -3   0 -12   -0.12    1.27
  -3   0 -12    0.82    1.09
   3   0  12   -0.05    1.38
   3   0  13    2.07    1.18
  -3   0 -13    1.00    1.24
  -3   0 -13    0.38    1.19
   3   0  13    2.12    1.59
   3   0  14    1.23    1.26
  -3   0 -14   -0.14    1.35
   3   1 -16   -1.43    1.69
  -3  -1  16   -0.54    1.00
  -3  -1  16    1.40    1.44
  -3  -1  16   -0.17    1.33
   3   1 -16    1.12    1.39
  -3  -1  15    0.73    0.98
  -3  -1  15    0.36    1.28
   3   1 -15    1.31    1.56
  -3  -1  15    0.08    1.29
  -3  -1  15    2.24    1.35
  -3  -1  14    1.27    0.93
  -3  -1  14    0.72    1.25
   3   1 -14    2.78    1.41
  -3  -1  14   -0.04    1.24
  -3  -1  13   24.92    1.70
   3   1 -13   26.30    1.79
  -3  -1  13   27.30    1.49
   3   1 -13   26.13    1.85
  -3  -1  13   30.90    1.75
  -3  -1  12   23.47    1.56
   3   1 -12   23.87    1.69
   3   1 -12   28.57    1.64
   3   1 -12   25.20    1.68
  -3  -1  12   24.99    1.37
  -3  -1  12   29.53    1.64
  -3  -1  12   22.78    1.35
  -3  -1  11  134.11    5.48
   3   1 -11  148.62    5.50
   3   1 -11  131.61    5.53
   3   1 -11  140.44    5.55
  -3  -1  11  134.51    5.36
  -3  -1  11  151.11    5.47
  -3  -1  11  130.47    5.36
  -3  -1  10   67.26    3.12
   3   1 -10   82.11    3.16
  -3  -1  10   72.74    3.01
   3   1 -10   72.75    3.17
   3   1 -10   72.41    3.17
   3   1 -10   73.00    3.16
  -3  -1  10   84.31    3.10
  -3  -1  10   72.13    3.01
   3   1  -9    8.52    1.02
   3   1  -9    8.89    1.03
  -3  -1   9    7.11    0.91
  -3  -1   9    6.85    0.74
  -3  -1   9    8.62    0.77
   3   1  -9    9.95    0.99
   3   1  -9   11.36    0.98
   3   1  -9    7.38    1.00
  -3  -1   9    8.04    0.81
  -3  -1   8  256.56   10.37
   3   1  -8  294.34   10.40
  -3  -1   8  275.83   10.32
   3   1  -8  271.77   10.40
  -3  -1   8  275.05   10.32
   3   1  -8  277.30   10.40
   3   1  -8  231.00   10.32
  -3  -1   8  301.02   10.33
   3   1  -7    1.45    0.71
  -3  -1   7    1.26    0.51
   3   1  -7    1.89    0.76
  -3  -1   7    0.52    0.66
   3   1  -7    1.98    0.69
   3   1  -7    1.83    0.61
  -3  -1   7    1.05    0.53
   3   1  -7    1.02    0.53
  -3  -1   7    0.85    0.47
  -3  -1   6  198.69    7.69
   3   1  -6  217.98    7.72
  -3  -1   6  201.91    7.67
   3   1  -6  207.31    7.71
  -3  -1   6  201.52    7.66
   3   1  -6  190.13    7.63
   3   1  -6  202.67    7.69
  -3  -1   5   60.30    2.36
   3   1  -5   57.06    2.31
   3   1  -5   60.18    2.39
  -3  -1   5   58.20    2.36
  -3  -1   5   58.91    2.35
   3   1  -5   59.21    2.40
   3   1  -5   58.10    2.30
   3   1  -5   63.51    2.39
  -3  -1   4  275.43   10.46
   3   1  -4  276.24   10.43
  -3  -1   4  279.98   10.49
  -3  -1   4  275.56   10.49
  -3  -1   4  282.02   10.48
   3   1  -4  285.56   10.50
  -3  -1   4  279.95   10.46
   3   1  -4  270.19   10.43
   3   1  -4  292.30   10.47
   3   1  -4  260.90   10.49
  -3  -1   3  392.15   14.52
  -3  -1   3  362.83   14.51
   3   1  -3  388.24   14.52
  -3  -1   3  378.94   14.57
  -3  -1   3  390.08   14.56
   3   1  -3  385.41   14.57
  -3  -1   3  382.51   14.57
  -3  -1   3  391.76   14.53
   3   1  -3  398.43   14.57
   3   1  -3  403.73   14.53
   3   1  -2    1.60    0.27
  -3  -1   2    0.96    0.28
  -3  -1   2    1.43    0.24
   3   1  -2    1.28    0.30
   3   1  -2    1.30    0.37
  -3  -1   2    1.12    0.38
  -3  -1   2    1.09    0.40
  -3  -1   2    1.87    0.41
  -3  -1   2    1.34    0.25
  -3  -1   1   21.19    1.02
   3   1  -1   23.35    0.91
  -3  -1   1   21.98    0.99
   3   1  -1   22.64    1.05
  -3  -1   1   23.21    0.92
   3   1  -1   23.95    1.00
   3   1  -1   21.41    0.99
   3   1  -1   22.55    1.02
  -3  -1   1   22.03    1.01
   3   1  -1   23.52    0.91
   3   1   0   18.84    0.74
   3   1   0   19.07    0.74
  -3  -1   0   17.72    0.87
  -3  -1   0   14.83    0.84
  -3  -1   0   17.17    0.87
   3   1   0   18.38    0.88
   3   1   0   18.57    0.84
   3   1   0   18.87    0.74
   3   1   0   19.27    0.86
  -3  -1   0   18.96    0.92
   3   1   0   18.94    0.87
   3   1   1  168.92    6.13
   3   1   1  155.13    6.06
  -3  -1  -1  157.69    6.16
   3   1   1  161.98    6.13
   3   1   1  161.38    6.05
  -3  -1  -1  166.52    6.17
   3   1   1  167.06    6.14
   3   1   2   33.54    1.35
  -3  -1  -2   30.57    1.44
  -3  -1  -2   32.77    1.24
   3   1   2   32.15    1.32
   3   1   2   28.02    1.22
   3   1   2   34.79    1.33
  -3  -1  -2   28.07    1.37
   3   1   3  227.51    8.09
  -3  -1  -3  210.89    8.17
   3   1   3  223.72    8.07
  -3  -1  -3  212.14    8.01
   3   1   3  200.68    7.99
  -3  -1  -4   95.53    3.88
  -3  -1  -4   97.21    4.05
  -3  -1  -4   94.06    3.83
   3   1   4  106.32    3.91
  -3  -1  -4  101.57    3.88
  -3  -1  -4  101.02    3.84
  -3  -1  -4  107.47    3.83
   3   1   4   91.85    3.80
  -3  -1  -5  110.58    4.02
   3   1   5   95.33    3.93
  -3  -1  -5  100.67    4.08
  -3  -1  -5   97.71    4.28
  -3  -1  -5  103.96    4.07
  -3  -1  -5  109.43    4.03
   3   1   5   98.51    4.00
  -3  -1  -5  101.21    4.12
   3   1   6  228.78    8.64
   3   1   6  203.45    8.56
  -3  -1  -6  197.66    8.89
  -3  -1  -6  246.58    8.65
  -3  -1  -6  226.77    8.69
  -3  -1  -6  280.43    8.69
  -3  -1  -6  241.14    8.65
  -3  -1  -6  222.57    8.71
  -3  -1  -6  211.75    8.73
  -3  -1  -7    1.64    0.94
  -3  -1  -7    2.88    1.26
  -3  -1  -7    1.14    0.65
   3   1   7    2.22    0.69
   3   1   7    1.76    0.49
  -3  -1  -7    1.06    0.74
  -3  -1  -7    1.11    0.66
  -3  -1  -7    1.73    0.77
  -3  -1  -7    1.36    0.81
   3   1   7    0.58    1.11
  -3  -1  -8   75.67    2.63
  -3  -1  -8   51.56    2.95
  -3  -1  -8   55.80    2.63
  -3  -1  -8   64.12    2.55
  -3  -1  -8   57.73    2.60
  -3  -1  -8   66.45    2.53
   3   1   8   60.82    2.82
   3   1   8   57.17    2.52
  -3  -1  -8   48.38    2.66
  -3  -1  -9   20.54    1.63
  -3  -1  -9   24.15    1.58
  -3  -1  -9   30.82    1.48
  -3  -1  -9   22.87    1.52
  -3  -1  -9   35.13    1.66
  -3  -1  -9   30.57    1.48
   3   1   9   28.04    1.77
   3   1   9   26.63    1.48
   3   1  10    2.62    0.93
  -3  -1 -10    0.28    0.86
  -3  -1 -10    1.79    1.10
  -3  -1 -10    2.58    1.11
   3   1  10    1.54    1.41
  -3  -1 -10    2.97    0.91
  -3  -1 -11   25.24    1.48
  -3  -1 -11   21.71    1.66
   3   1  11   24.76    1.90
   3   1  11   24.31    1.50
  -3  -1 -12    1.08    1.21
  -3  -1 -12    1.25    1.09
   3   1  12    1.77    1.04
   3   1  12    1.35    1.52
  -3  -1 -13    7.26    1.61
   3   1  13    6.73    1.20
   3   1  13    6.76    1.69
  -3  -1 -13   11.76    1.38
   3   1  14    0.27    1.20
  -3  -2  16    2.32    0.98
   3   2 -16    2.92    1.40
   3   2 -16    4.04    1.75
   3   2 -15   26.14    1.84
   3   2 -15   27.61    2.07
  -3  -2  15   24.51    1.71
  -3  -2  15   26.70    1.51
   3   2 -14    3.04    1.32
  -3  -2  14    2.95    0.96
  -3  -2  14    1.69    1.20
   3   2 -14    2.80    1.33
   3   2 -14    1.37    1.39
  -3  -2  14    3.94    1.16
   3   2 -13    4.75    1.31
  -3  -2  13    4.03    1.15
   3   2 -13    5.84    1.26
  -3  -2  13    5.43    0.91
   3   2 -13    5.40    1.30
   3   2 -13    5.25    1.24
  -3  -2  13    6.11    1.13
   3   2 -12    0.26    1.17
  -3  -2  12    0.03    1.03
  -3  -2  12    0.37    0.80
  -3  -2  12    0.29    0.78
   3   2 -12   -0.32    1.15
   3   2 -12    1.02    1.14
  -3  -2  12   -0.39    1.00
  -3  -2  11    0.24    0.76
   3   2 -11   -1.03    1.13
   3   2 -11    1.64    1.09
  -3  -2  11    0.18    0.96
   3   2 -11    0.50    1.09
  -3  -2  11    0.33    0.78
   3   2 -11    0.72    0.97
   3   2 -11    0.74    1.13
  -3  -2  11    0.78    0.87
   3   2 -10    8.55    1.19
   3   2 -10    7.04    0.92
   3   2 -10    7.87    1.14
  -3  -2  10    9.14    1.01
   3   2 -10    6.34    1.02
  -3  -2  10    7.64    0.78
  -3  -2  10    8.59    0.82
   3   2 -10    7.95    0.99
  -3  -2  10    8.00    0.83
   3   2  -9   40.31    1.88
  -3  -2   9   36.68    1.67
  -3  -2   9   36.36    1.65
   3   2  -9   34.06    1.73
   3   2  -9   35.59    1.80
   3   2  -9   36.09    1.78
   3   2  -9   38.32    1.88
  -3  -2   9   41.70    1.66
  -3  -2   9   35.61    1.76
   3   2  -8   21.77    1.34
  -3  -2   8   21.87    1.12
   3   2  -8   21.73    1.20
   3   2  -8   22.93    1.23
   3   2  -8   23.93    1.37
  -3  -2   8   21.94    1.05
  -3  -2   8   21.61    1.11
   3   2  -8   22.50    1.26
  -3  -2   8   22.57    1.26
   3   2  -7   10.15    0.88
   3   2  -7    6.22    0.77
   3   2  -7    7.81    0.93
  -3  -2   7    4.10    0.74
  -3  -2   7    5.83    0.66
   3   2  -7    7.70    0.77
  -3  -2   7    5.97    0.63
   3   2  -7    6.70    0.68
   3   2  -7    5.73    0.70
  -3  -2   7    6.67    0.48
   3   2  -6  200.16    7.59
  -3  -2   6  203.13    7.66
   3   2  -6  208.77    7.70
  -3  -2   6  207.75    7.66
   3   2  -6  214.21    7.71
   3   2  -6  230.08    7.73
  -3  -2   6  206.43    7.69
  -3  -2   5  193.13    6.97
   3   2  -5  187.70    6.99
   3   2  -5  180.40    6.88
  -3  -2   5  187.13    6.96
  -3  -2   5  189.75    6.96
  -3  -2   5  183.70    6.97
   3   2  -5  167.71    6.88
   3   2  -5  204.79    7.01
  -3  -2   4  938.66   34.72
   3   2  -4 1001.77   34.76
   3   2  -4  985.20   34.79
   3   2  -4  924.11   34.67
  -3  -2   4  922.99   34.75
  -3  -2   4  904.37   34.75
  -3  -2   4  929.28   34.75
   3   2  -4  897.18   34.66
  -3  -2   3  240.09    9.01
   3   2  -3  258.78    9.09
  -3  -2   3  235.50    8.98
   3   2  -3  234.53    8.98
  -3  -2   3  235.66    9.06
  -3  -2   3  239.52    9.07
  -3  -2   3  236.23    9.06
   3   2  -3  247.64    9.04
   3   2  -3  239.51    9.07
  -3  -2   2   65.62    2.46
   3   2  -2   65.20    2.44
  -3  -2   2   53.84    2.34
  -3  -2   2   66.65    2.45
   3   2  -2   68.75    2.47
  -3  -2   2   61.34    2.36
   3   2  -2   58.28    2.44
   3   2  -2   68.58    2.39
  -3  -2   2   56.54    2.34
   3   2  -2   66.80    2.38
  -3  -2   2   62.25    2.44
  -3  -2   1  339.51   13.10
   3   2  -1  352.99   13.09
  -3  -2   1  345.98   13.01
  -3  -2   1  342.56   13.06
   3   2  -1  346.14   13.10
   3   2  -1  365.78   13.10
  -3  -2   1  343.90   13.10
  -3  -2   1  347.22   13.12
  -3  -2   0    3.52    0.51
   3   2   0    2.98    0.43
  -3  -2   0    2.97    0.47
  -3  -2   0    3.24    0.48
   3   2   0    3.24    0.43
  -3  -2   0    3.36    0.45
   3   2   1  884.87   32.51
   3   2   1  896.52   32.49
  -3  -2  -1  836.71   32.51
  -3  -2  -1  852.24   32.50
  -3  -2  -1  851.50   32.50
   3   2   1  882.59   32.49
  -3  -2  -1  852.20   32.51
   3   2   2   60.05    2.30
  -3  -2  -2   57.07    2.35
   3   2   2   62.41    2.26
  -3  -2  -2   53.46    2.27
  -3  -2  -2   55.08    2.29
   3   2   3   19.98    1.01
  -3  -2  -3   17.94    0.76
   3   2   3   20.51    1.30
  -3  -2  -3   14.80    1.20
   3   2   3   16.44    0.77
  -3  -2  -3   18.70    1.01
   3   2   4   85.89    3.59
  -3  -2  -4  100.32    3.60
  -3  -2  -4   89.34    3.89
   3   2   4  105.20    3.92
  -3  -2  -5   37.36    1.72
  -3  -2  -5   36.35    2.06
  -3  -2  -5   42.03    1.81
  -3  -2  -5   44.34    1.69
   3   2   5   42.99    2.05
   3   2   5   37.88    1.67
  -3  -2  -6  104.10    4.50
  -3  -2  -6  113.34    4.44
  -3  -2  -6  106.43    4.49
  -3  -2  -6  100.16    4.71
  -3  -2  -6  112.36    4.43
   3   2   6  115.70    4.41
  -3  -2  -6  101.70    4.54
  -3  -2  -7    6.28    0.92
  -3  -2  -7    6.04    1.01
  -3  -2  -7    7.20    0.81
   3   2   7    6.25    0.75
  -3  -2  -7    6.72    0.75
  -3  -2  -7    5.96    1.36
  -3  -2  -7    5.79    0.89
  -3  -2  -7    8.63    0.87
   3   2   8   17.71    1.11
  -3  -2  -8   15.56    1.33
  -3  -2  -8   17.11    1.75
  -3  -2  -8   15.87    1.24
  -3  -2  -8   17.90    1.12
  -3  -2  -8   16.22    1.23
  -3  -2  -8   18.97    1.14
   3   2   9   25.26    1.42
  -3  -2  -9   27.96    1.46
  -3  -2  -9   27.94    1.45
   3   2  10   14.02    1.12
  -3  -2 -10   12.90    1.28
  -3  -2 -10   15.97    1.24
  -3  -2 -11    2.53    1.25
   3   2  11    7.80    1.02
  -3  -2 -11    4.61    1.06
   3   2  11    5.34    1.61
  -3  -2 -12    4.00    1.38
   3   2  12    5.17    1.08
  -3  -2 -12    7.06    1.29
   3   2  12    6.97    1.09
   3   2  12    7.13    1.67
   3   2  13   -0.44    1.04
  -3  -2 -13   -1.09    1.31
   3   2  13   -0.12    1.03
   3   3 -16    0.23    1.63
  -3  -3  15    3.41    1.02
  -3  -3  15    1.29    1.26
   3   3 -15    3.26    1.29
   3   3 -15    2.59    1.68
   3   3 -14    1.72    1.19
  -3  -3  14    0.03    1.17
  -3  -3  14   -0.12    0.86
   3   3 -14    1.17    1.51
   3   3 -13    4.80    1.24
  -3  -3  13    6.86    1.22
  -3  -3  13    6.17    0.88
   3   3 -13    7.85    1.39
   3   3 -13    6.75    1.20
  -3  -3  13    5.50    1.07
   3   3 -13    5.39    1.37
   3   3 -12    0.98    1.04
   3   3 -12    1.89    1.32
  -3  -3  12    1.00    1.14
   3   3 -12    2.34    1.20
  -3  -3  12    1.17    0.85
  -3  -3  12    1.47    0.80
   3   3 -12    1.49    1.14
  -3  -3  12    0.83    0.88
  -3  -3  11   31.86    1.60
   3   3 -11   37.79    1.97
   3   3 -11   30.73    1.72
   3   3 -11   30.10    1.80
  -3  -3  11   33.45    1.58
   3   3 -11   34.75    1.87
   3   3 -11   40.50    1.99
  -3  -3  11   35.03    1.61
   3   3 -11   31.75    1.86
  -3  -3  11   30.62    1.76
  -3  -3  10  104.12    4.17
   3   3 -10   96.87    4.26
  -3  -3  10  100.75    4.16
   3   3 -10   99.34    4.23
   3   3 -10  104.98    4.33
   3   3 -10  101.53    4.28
   3   3 -10  114.24    4.42
  -3  -3  10  113.52    4.15
  -3  -3  10  104.09    4.27
   3   3  -9   30.54    1.66
  -3  -3   9   27.30    1.37
   3   3  -9   30.32    1.46
   3   3  -9   25.89    1.43
  -3  -3   9   27.05    1.36
   3   3  -9   30.22    1.55
   3   3  -9   28.75    1.54
   3   3  -9   31.97    1.69
  -3  -3   9   29.46    1.28
  -3  -3   9   25.40    1.49
   3   3  -8  361.67   15.52
   3   3  -8  438.56   15.66
  -3  -3   8  408.49   15.53
   3   3  -8  409.41   15.56
   3   3  -8  417.44   15.60
  -3  -3   8  397.99   15.52
   3   3  -8  416.79   15.60
   3   3  -8  449.70   15.66
  -3  -3   8  423.89   15.46
  -3  -3   8  419.56   15.59
  -3  -3   7    4.34    0.76
   3   3  -7    3.60    0.36
   3   3  -7    4.55    0.55
   3   3  -7    4.53    0.73
   3   3  -7    4.08    0.65
  -3  -3   7    3.87    0.61
  -3  -3   7    3.71    0.61
   3   3  -7    3.33    0.73
   3   3  -7    3.76    0.86
  -3  -3   6  142.90    5.68
  -3  -3   6  145.34    5.68
   3   3  -6  152.94    5.73
   3   3  -6  150.62    5.75
   3   3  -6  150.66    5.72
  -3  -3   6  146.65    5.71
  -3  -3   5  128.88    5.08
   3   3  -5  130.15    5.11
  -3  -3   5  129.36    5.10
   3   3  -5  146.06    5.22
  -3  -3   5  132.23    5.10
   3   3  -5  129.92    5.12
  -3  -3   5  126.18    5.10
   3   3  -5  144.69    5.14
   3   3  -5  131.57    5.10
   3   3  -4   38.35    1.64
   3   3  -4   41.15    1.78
   3   3  -4   38.32    1.65
  -3  -3   4   35.18    1.62
  -3  -3   4   38.16    1.65
   3   3  -4   40.06    1.62
  -3  -3   4   36.08    1.64
  -3  -3   4   41.75    1.61
  -3  -3   3  491.59   18.49
   3   3  -3  472.15   18.51
  -3  -3   3  476.52   18.49
  -3  -3   3  479.73   18.48
   3   3  -3  491.57   18.43
   3   3  -3  488.76   18.49
  -3  -3   3  515.25   18.43
  -3  -3   2   10.29    0.49
   3   3  -2   10.26    0.74
  -3  -3   2   10.52    0.50
  -3  -3   2    9.96    0.70
   3   3  -2   10.81    0.49
   3   3  -2    9.37    0.57
   3   3  -2   11.37    0.69
  -3  -3   2   10.88    0.69
   3   3  -1  238.40    9.24
  -3  -3   1  250.34    9.29
  -3  -3   1  238.64    9.23
  -3  -3   1  253.97    9.28
   3   3  -1  237.49    9.27
  -3  -3   1  249.33    9.30
   3   3  -1  250.94    9.28
  -3  -3   0  163.07    5.97
   3   3   0  143.23    5.88
   3   3   0  147.52    5.96
  -3  -3   0  157.57    5.98
  -3  -3   0  155.39    5.95
   3   3   0  163.12    5.96
   3   3   0  169.65    6.04
  -3  -3   0  167.74    6.00
  -3  -3  -1   11.59    0.79
   3   3   1   14.42    0.82
  -3  -3  -1   13.60    0.90
  -3  -3  -1   13.81    0.79
   3   3   1   12.91    0.77
   3   3   1   15.09    1.00
  -3  -3  -1   14.30    0.89
  -3  -3  -2    1.87    0.62
   3   3   2    0.43    0.65
  -3  -3  -2    1.50    0.57
  -3  -3  -2    1.06    0.79
  -3  -3  -2    1.12    0.52
   3   3   2    1.74    0.53
  -3  -3  -2    2.33    0.53
   3   3   2    0.71    0.83
  -3  -3  -3    6.50    0.78
   3   3   3    9.18    0.81
  -3  -3  -3    8.34    1.04
  -3  -3  -3    7.81    0.38
  -3  -3  -3    7.81    0.73
  -3  -3  -3    7.05    0.71
   3   3   3    9.17    0.99
  -3  -3  -3    8.07    0.64
  -3  -3  -4   25.80    1.37
   3   3   4   28.25    1.12
  -3  -3  -4   26.63    1.27
  -3  -3  -4   24.65    1.69
   3   3   4   27.74    1.13
  -3  -3  -4   24.79    1.29
  -3  -3  -4   27.74    1.13
   3   3   4   28.65    1.61
  -3  -3  -4   26.30    1.40
  -3  -3  -5   10.87    1.05
   3   3   5   11.89    0.71
  -3  -3  -5   13.00    1.38
  -3  -3  -5   14.64    0.74
   3   3   5   14.26    0.74
   3   3   5   14.40    1.34
   3   3   6   72.31    3.10
  -3  -3  -6   69.40    3.50
   3   3   6   75.01    3.10
  -3  -3  -7    3.13    1.07
  -3  -3  -7    2.42    0.74
   3   3   7    2.27    0.68
  -3  -3  -7    1.73    0.83
   3   3   7    2.15    0.69
  -3  -3  -7    2.15    0.94
  -3  -3  -7    0.62    1.49
   3   3   7    1.44    1.31
  -3  -3  -7    3.56    0.75
   3   3   8   32.98    1.65
  -3  -3  -8   30.78    1.80
  -3  -3  -8   37.54    1.72
   3   3   8   34.60    1.67
   3   3   8   39.49    2.12
  -3  -3  -8   37.46    1.71
   3   3   9    0.20    0.87
   3   3   9   -0.32    1.47
  -3  -3  -9    1.12    0.94
   3   3   9    0.73    0.88
  -3  -3  -9    0.26    1.08
   3   3  10    3.31    1.01
   3   3  10    4.57    0.95
  -3  -3 -10    3.60    1.06
  -3  -3 -10    4.20    1.16
   3   3  11    6.99    1.01
  -3  -3 -11    8.53    1.23
   3   3  11    6.65    1.04
  -3  -3 -11    4.95    1.28
  -3  -3 -12    1.22    1.22
   3   4 -16    0.06    1.88
  -3  -4  15   11.58    1.48
   3   4 -15   11.36    1.76
  -3  -4  14   -0.77    1.20
  -3  -4  14    0.40    0.87
   3   4 -14   -2.89    1.53
   3   4 -14   -0.96    1.17
  -3  -4  13   10.14    1.31
  -3  -4  13   10.61    1.01
   3   4 -13    7.27    1.40
   3   4 -13    8.98    1.41
   3   4 -13    7.63    1.24
  -3  -4  12   12.23    1.30
   3   4 -12   12.54    1.32
   3   4 -12   11.09    1.22
   3   4 -12   12.58    1.48
   3   4 -12   11.71    1.28
  -3  -4  12   15.13    1.07
  -3  -4  12   14.32    1.06
  -3  -4  11   -0.03    1.01
  -3  -4  11   -0.12    0.75
  -3  -4  11    0.63    0.71
   3   4 -11    0.73    1.01
   3   4 -11    0.47    0.89
   3   4 -11   -0.43    1.14
   3   4 -11   -0.66    0.91
   3   4 -11   -0.20    1.36
  -3  -4  11    0.02    0.67
  -3  -4  10    9.23    0.68
   3   4 -10    9.16    1.06
  -3  -4  10    8.40    1.11
  -3  -4  10    9.66    0.86
   3   4 -10    7.37    0.83
  -3  -4  10    9.06    0.87
   3   4 -10    8.45    0.92
   3   4 -10    9.46    1.36
   3   4 -10    9.28    1.13
  -3  -4   9    1.24    0.63
  -3  -4   9    0.48    0.91
   3   4  -9    0.71    0.52
   3   4  -9    0.46    0.88
  -3  -4   9    0.91    0.68
   3   4  -9    2.53    0.83
   3   4  -9    1.26    0.71
   3   4  -9   -0.58    1.10
  -3  -4   9    0.64    0.41
   3   4  -8   30.36    1.32
  -3  -4   8   34.04    1.53
   3   4  -8   33.26    1.33
  -3  -4   8   35.15    1.53
   3   4  -8   37.40    1.64
   3   4  -8   35.61    1.78
   3   4  -8   36.05    1.64
  -3  -4   8   33.92    1.68
   3   4  -7   72.37    2.91
  -3  -4   7   64.95    2.63
  -3  -4   7   62.27    2.63
   3   4  -7   63.88    2.69
   3   4  -7   67.60    2.78
  -3  -4   7   67.61    2.71
   3   4  -7   62.55    2.63
   3   4  -7   62.72    2.67
   3   4  -6    3.54    0.60
  -3  -4   6    3.63    0.55
   3   4  -6    2.88    1.07
  -3  -4   6    3.54    0.64
  -3  -4   6    4.75    0.80
  -3  -4   6    3.77    0.65
   3   4  -6    3.27    0.68
   3   4  -6    4.07    0.69
   3   4  -6    4.58    0.75
   3   4  -5    0.44    0.55
  -3  -4   5    0.10    0.57
  -3  -4   5    0.80    0.62
   3   4  -5    2.58    0.91
  -3  -4   5    0.50    0.57
  -3  -4   5    0.02    0.56
   3   4  -5    0.53    0.61
   3   4  -5    0.51    0.58
   3   4  -5   -0.41    0.57
   3   4  -4   20.05    1.23
   3   4  -4   22.08    1.12
   3   4  -4   20.50    1.01
  -3  -4   4   20.35    1.09
   3   4  -4   23.05    1.10
  -3  -4   4   21.90    1.09
  -3  -4   4   22.39    1.09
  -3  -4   4   22.94    1.06
   3   4  -4   20.54    1.05
   3   4  -3   12.22    0.77
  -3  -4   3   12.43    0.80
   3   4  -3   11.11    0.91
   3   4  -3   12.00    0.65
   3   4  -3   12.23    0.80
  -3  -4   3   12.64    0.79
  -3  -4   3   11.54    0.80
  -3  -4   3   12.16    0.65
   3   4  -3   12.07    0.78
   3   4  -2  160.10    5.74
  -3  -4   2  151.22    5.74
   3   4  -2  137.82    5.63
  -3  -4   2  148.73    5.63
  -3  -4   2  154.94    5.74
   3   4  -2  140.71    5.73
   3   4  -2  146.11    5.64
   3   4  -2  155.32    5.74
  -3  -4   2  150.15    5.75
  -3  -4   2  160.17    5.64
   3   4  -1   15.21    0.84
  -3  -4   1   12.43    0.52
   3   4  -1   14.35    0.82
  -3  -4   1   13.25    0.80
  -3  -4   1   12.35    0.52
  -3  -4   1   13.83    0.68
  -3  -4   1   14.66    0.80
   3   4  -1   13.09    0.70
  -3  -4   1   14.94    0.87
   3   4   0   14.98    0.91
  -3  -4   0   12.24    0.86
  -3  -4   0   13.55    0.86
  -3  -4   0   14.10    0.84
   3   4   0   12.84    0.85
  -3  -4   0   14.87    0.93
  -3  -4  -1   89.96    3.41
  -3  -4  -1   84.40    3.36
  -3  -4  -1   82.07    3.35
   3   4   1   82.78    3.42
  -3  -4  -1   83.00    3.38
  -3  -4  -2   17.13    1.22
   3   4   2   15.45    0.94
  -3  -4  -2   17.02    0.96
  -3  -4  -2   14.99    0.94
  -3  -4  -2   15.76    0.91
   3   4   2   15.90    1.23
  -3  -4  -2   14.84    1.03
  -3  -4  -3   29.34    1.44
  -3  -4  -3   32.72    1.49
  -3  -4  -3   30.48    1.43
  -3  -4  -3   31.93    1.79
  -3  -4  -3   28.22    1.51
   3   4   3   36.33    1.79
  -3  -4  -3   34.43    1.54
   3   4   4   52.24    2.23
  -3  -4  -4   59.67    2.41
  -3  -4  -4   57.16    2.70
  -3  -4  -4   56.27    2.45
  -3  -4  -4   62.20    2.23
  -3  -4  -4   62.02    2.44
   3   4   4   68.48    2.76
  -3  -4  -4   60.45    2.49
  -3  -4  -4   57.26    2.52
  -3  -4  -5    4.40    0.73
  -3  -4  -5    4.21    0.91
  -3  -4  -5    3.25    0.81
  -3  -4  -5    4.03    0.70
  -3  -4  -5    3.94    1.34
   3   4   5    3.40    0.47
  -3  -4  -5    3.33    0.79
  -3  -4  -5    5.23    0.49
   3   4   5    5.63    1.37
  -3  -4  -6   16.61    1.32
   3   4   6   22.41    1.08
  -3  -4  -6   20.35    1.21
  -3  -4  -6   19.63    1.76
  -3  -4  -6   25.33    1.07
   3   4   6   21.91    1.08
   3   4   6   25.17    1.75
  -3  -4  -6   20.31    1.46
   3   4   7    6.56    0.78
  -3  -4  -7    5.22    1.53
   3   4   7    6.16    0.78
   3   4   7    7.75    1.53
   3   4   8    8.70    0.95
   3   4   8    7.75    0.92
   3   4   8    9.48    1.63
   3   4   9    0.05    0.93
  -3  -4  -9   -0.32    1.03
  -3  -4  -9    0.62    1.06
   3   4   9    1.02    0.94
   3   4   9   -0.71    1.63
  -3  -4 -10    3.12    1.21
   3   4  10    3.61    0.95
  -3  -4 -10    2.60    1.07
   3   4  10    4.21    1.00
   3   4  10    4.09    1.72
  -3  -4 -11    0.30    1.15
   3   4  11    2.79    1.61
   3   5 -16    1.03    1.78
  -3  -5  15    1.46    1.38
   3   5 -15    1.54    1.55
  -3  -5  14    4.47    1.30
   3   5 -14    0.94    1.58
  -3  -5  13    1.51    1.21
  -3  -5  13    2.98    0.87
   3   5 -13    3.72    1.32
   3   5 -13    2.61    1.30
  -3  -5  12    3.92    1.25
  -3  -5  12    3.84    0.89
  -3  -5  12    2.04    0.83
   3   5 -12    5.73    1.27
   3   5 -12    5.64    1.17
   3   5 -11    1.04    0.65
  -3  -5  11   -0.38    1.09
  -3  -5  11    0.38    0.76
  -3  -5  11    0.86    0.80
   3   5 -11   -0.21    1.14
   3   5 -11    0.96    1.00
  -3  -5  10   36.89    1.70
   3   5 -10   40.52    1.95
   3   5 -10   37.18    1.55
   3   5 -10   41.73    2.20
   3   5 -10   37.06    1.75
  -3  -5  10   37.00    1.71
   3   5 -10   40.35    1.89
  -3  -5  10   36.69    1.95
  -3  -5   9   23.23    1.22
   3   5  -9   20.59    1.17
  -3  -5   9   20.81    1.18
  -3  -5   9   23.87    1.41
   3   5  -9   22.60    1.33
   3   5  -9   21.56    1.37
   3   5  -9   23.25    1.59
   3   5  -8  153.23    6.07
  -3  -5   8  155.19    6.03
  -3  -5   8  159.11    6.03
   3   5  -8  158.29    6.17
   3   5  -8  152.21    6.08
  -3  -5   8  154.56    6.10
   3   5  -8  159.18    6.03
   3   5  -7   73.04    3.05
   3   5  -7   77.27    3.11
  -3  -5   7   75.69    3.05
  -3  -5   7   75.95    3.04
   3   5  -7   79.20    3.16
  -3  -5   7   73.19    3.11
   3   5  -7   75.00    3.02
   3   5  -6   54.88    2.29
  -3  -5   6   51.52    2.29
  -3  -5   6   53.87    2.23
  -3  -5   6   50.83    2.28
   3   5  -6   56.69    2.32
   3   5  -6   58.21    2.34
  -3  -5   6   55.85    2.32
   3   5  -6   56.32    2.25
  -3  -5   5   61.23    2.39
  -3  -5   5   56.63    2.34
  -3  -5   5   55.56    2.37
   3   5  -5   60.19    2.40
   3   5  -5   55.62    2.37
   3   5  -5   52.77    2.34
  -3  -5   5   59.22    2.38
   3   5  -5   58.96    2.35
   3   5  -4   11.36    0.87
   3   5  -4   11.88    0.79
  -3  -5   4   11.72    0.81
  -3  -5   4   11.06    0.81
  -3  -5   4   11.26    0.86
   3   5  -4   11.18    0.84
   3   5  -4   10.65    0.72
  -3  -5   4   12.25    0.80
   3   5  -3  183.25    7.00
  -3  -5   3  172.81    7.00
   3   5  -3  186.93    7.02
   3   5  -3  181.49    6.93
   3   5  -3  184.16    7.01
  -3  -5   3  177.32    7.01
  -3  -5   3  190.25    6.94
  -3  -5   2    7.58    0.78
   3   5  -2    8.42    0.77
  -3  -5   2    7.37    0.72
  -3  -5   2    7.66    0.45
   3   5  -2    8.91    0.75
  -3  -5   2    8.03    0.75
   3   5  -2    9.35    0.73
   3   5  -2    5.86    0.42
  -3  -5   2    7.97    0.51
   3   5  -1   86.56    3.12
  -3  -5   1   75.33    3.07
  -3  -5   1   75.77    2.88
   3   5  -1   81.96    3.07
  -3  -5   1   75.76    2.99
  -3  -5   1   76.85    3.07
  -3  -5   1   74.67    3.07
   3   5  -1   81.11    3.07
   3   5  -1   71.53    2.96
  -3  -5   1   74.88    2.88
  -3  -5   0   49.85    1.97
   3   5   0   50.43    2.05
  -3  -5   0   44.77    1.97
  -3  -5   0   43.84    1.96
   3   5   0   44.93    1.95
   3   5   0   46.43    1.98
   3   5   0   40.93    1.90
  -3  -5   0   46.28    2.00
   3   5   1   67.89    2.67
  -3  -5  -1   65.04    2.68
  -3  -5  -1   62.92    2.61
  -3  -5  -1   60.31    2.60
  -3  -5  -1   62.81    2.58
   3   5   1   59.16    2.63
  -3  -5  -1   64.42    2.64
  -3  -5  -2   80.07    3.30
  -3  -5  -2   82.37    3.31
   3   5   2   78.53    3.39
  -3  -5  -2   83.89    3.27
  -3  -5  -2   81.42    3.34
  -3  -5  -3    3.49    0.89
  -3  -5  -3    1.29    0.74
  -3  -5  -3    2.94    0.75
  -3  -5  -3    3.49    0.72
   3   5   3    2.56    1.08
  -3  -5  -3    3.93    0.71
  -3  -5  -4    6.44    0.81
  -3  -5  -4    5.09    1.01
  -3  -5  -4    6.59    0.81
  -3  -5  -4    6.71    0.85
   3   5   4    5.68    1.31
  -3  -5  -4    8.02    0.82
  -3  -5  -5    8.49    0.89
  -3  -5  -5    7.37    0.85
  -3  -5  -5    9.51    1.11
   3   5   5    7.66    0.49
  -3  -5  -5    8.65    0.94
   3   5   5    7.67    1.44
  -3  -5  -5    8.05    0.95
  -3  -5  -6    0.07    0.77
  -3  -5  -6    1.87    0.94
  -3  -5  -6   -0.15    0.84
  -3  -5  -6    1.77    1.43
   3   5   6    0.16    0.51
   3   5   6    0.53    1.49
  -3  -5  -7    0.10    0.98
   3   5   7    0.35    0.65
  -3  -5  -7   -0.73    0.85
   3   5   7   -2.20    1.55
  -3  -5  -8    1.02    0.97
   3   5   8    1.29    0.79
   3   5   8    0.16    1.59
   3   5   9   -0.19    0.91
   3   5   9   -1.43    1.70
   3   5  10    3.96    1.80
   3   5  11    0.23    1.82
   3   6 -15    3.79    1.58
  -3  -6  14    1.09    1.40
   3   6 -14    2.88    1.55
  -3  -6  13   -0.68    1.33
   3   6 -13    0.04    1.20
   3   6 -12   24.52    1.58
   3   6 -12   23.97    1.67
  -3  -6  12   21.91    1.60
   3   6 -11    1.31    0.80
  -3  -6  11    1.20    1.14
   3   6 -11    2.21    1.04
  -3  -6  11    1.86    0.74
   3   6 -11    2.18    1.14
   3   6 -10   -0.15    0.71
  -3  -6  10   -0.25    1.06
   3   6 -10    0.82    0.91
  -3  -6  10   -1.16    0.69
  -3  -6  10   -0.14    0.77
   3   6 -10    0.09    0.98
   3   6 -10    1.35    1.34
   3   6  -9   27.07    1.44
   3   6  -9   27.52    1.45
  -3  -6   9   25.89    1.34
  -3  -6   9   24.74    1.32
  -3  -6   9   22.73    1.50
   3   6  -9   25.06    1.70
   3   6  -9   25.19    1.29
   3   6  -8    3.16    0.70
  -3  -6   8    2.56    0.95
   3   6  -8    2.80    0.88
  -3  -6   8    1.85    0.70
   3   6  -8    2.21    0.76
   3   6  -8    2.54    0.97
  -3  -6   8    3.17    0.70
  -3  -6   7   23.92    1.26
   3   6  -7   22.53    1.29
   3   6  -7   21.48    1.26
   3   6  -7   22.01    1.34
  -3  -6   7   21.65    1.21
  -3  -6   7   21.98    1.34
   3   6  -7   24.23    1.18
   3   6  -6    0.48    0.64
  -3  -6   6    1.14    0.76
   3   6  -6    0.43    0.74
  -3  -6   6    0.62    0.64
  -3  -6   6    0.30    0.57
  -3  -6   6    0.42    0.70
   3   6  -6    0.48    0.74
   3   6  -6    0.74    0.76
   3   6  -5   79.44    2.96
  -3  -6   5   73.67    3.08
  -3  -6   5   69.64    2.96
   3   6  -5   73.37    2.98
  -3  -6   5   70.52    2.93
   3   6  -5   69.99    2.94
   3   6  -5   74.06    2.97
  -3  -6   5   74.36    2.95
  -3  -6   5   71.24    2.96
   3   6  -4   15.49    1.00
  -3  -6   4   14.58    0.93
  -3  -6   4   13.78    0.89
   3   6  -4   16.37    1.01
  -3  -6   4   14.70    0.98
   3   6  -4   14.81    0.87
  -3  -6   4   15.06    1.02
   3   6  -4   15.34    0.96
  -3  -6   3    1.14    0.70
   3   6  -3    1.73    0.75
  -3  -6   3    1.78    0.58
   3   6  -3    1.34    0.65
   3   6  -3    1.70    0.70
   3   6  -3    1.85    0.50
  -3  -6   3    1.82    0.71
   3   6  -2   25.85    1.32
  -3  -6   2   22.29    1.24
  -3  -6   2   22.88    0.98
   3   6  -2   23.72    1.22
   3   6  -2   22.66    1.20
  -3  -6   2   20.92    0.99
  -3  -6   2   23.75    1.01
  -3  -6   2   21.61    1.25
  -3  -6   2   24.72    1.03
  -3  -6   2   22.89    1.25
  -3  -6   1    3.58    0.76
   3   6  -1    3.99    0.87
  -3  -6   1    3.48    0.39
   3   6  -1    3.54    0.77
  -3  -6   1    4.70    0.33
   3   6  -1    3.53    0.69
  -3  -6   1    2.79    0.59
  -3  -6   1    2.96    0.72
  -3  -6   1    3.71    0.74
   3   6  -1    3.99    0.52
  -3  -6   0   22.35    1.21
  -3  -6   0   22.47    1.29
  -3  -6   0   26.12    1.26
  -3  -6   0   21.54    1.27
   3   6   0   26.72    1.27
   3   6   0   24.02    1.18
  -3  -6   0   24.11    1.32
  -3  -6  -1   53.96    2.34
  -3  -6  -1   51.63    2.34
  -3  -6  -1   56.28    2.30
   3   6   1   59.19    2.39
   3   6   1   53.02    2.33
  -3  -6  -1   53.81    2.40
  -3  -6  -2  132.35    5.41
  -3  -6  -2  140.04    5.40
  -3  -6  -2  142.02    5.36
  -3  -6  -2  140.77    5.36
   3   6   2  132.40    5.42
  -3  -6  -2  135.36    5.43
  -3  -6  -3   48.24    2.05
  -3  -6  -3   43.67    2.10
  -3  -6  -3   48.86    2.05
  -3  -6  -3   43.27    2.09
   3   6   3   44.86    2.24
  -3  -6  -3   45.83    2.16
   3   6   4   21.69    1.57
  -3  -6  -4   15.83    1.33
  -3  -6  -4   18.77    1.20
  -3  -6  -4   18.64    1.25
  -3  -6  -4   20.38    1.18
  -3  -6  -4   19.04    1.24
  -3  -6  -5    0.14    0.78
  -3  -6  -5   -0.27    0.87
  -3  -6  -5    2.30    0.93
   3   6   5    0.78    1.39
  -3  -6  -6    5.69    0.97
   3   6   6    7.83    1.55
   3   6   6    5.08    0.48
  -3  -6  -6    6.40    1.02
  -3  -6  -7    1.27    1.01
  -3  -6  -7   -0.34    0.95
   3   6   7    0.49    0.51
   3   6   7   -0.27    1.67
  -3  -6  -8    0.19    1.02
  -3  -6  -8    1.85    1.05
   3   6   8    0.06    1.83
  -3  -6  -9   -1.14    1.16
   3   6   9    0.48    1.73
   3   6  10    2.72    1.82
  -3  -7  13    2.65    1.34
   3   7 -13    2.02    1.32
  -3  -7  12    0.23    1.26
   3   7 -12    1.74    1.18
  -3  -7  11    4.97    1.29
   3   7 -11    2.38    1.09
   3   7 -11    2.54    0.96
   3   7 -10    4.10    0.78
   3   7 -10    5.25    0.99
  -3  -7  10    3.79    1.07
  -3  -7  10    3.20    0.77
   3   7 -10    4.95    0.99
   3   7  -9   15.64    0.99
   3   7  -9   12.65    1.05
  -3  -7   9   12.83    1.31
  -3  -7   9   15.24    1.07
   3   7  -9   13.22    1.17
   3   7  -9   13.79    1.55
   3   7  -8   18.19    1.07
  -3  -7   8   15.06    1.22
   3   7  -8   13.49    1.09
  -3  -7   8   13.41    1.04
  -3  -7   8   14.71    1.02
   3   7  -8   16.14    1.18
   3   7  -8   16.18    1.34
   3   7  -7   10.38    0.93
  -3  -7   7    8.68    1.06
  -3  -7   7    9.06    0.91
  -3  -7   7    7.88    1.31
   3   7  -7    7.84    0.92
  -3  -7   7    7.66    0.89
   3   7  -7    6.29    0.96
   3   7  -7    7.95    1.01
  -3  -7   6   31.85    1.77
   3   7  -6   28.04    1.46
  -3  -7   6   25.71    1.36
  -3  -7   6   27.24    1.46
   3   7  -6   27.68    1.49
   3   7  -6   27.28    1.44
  -3  -7   6   29.31    1.44
  -3  -7   6   27.59    1.49
   3   7  -5   47.25    2.06
   3   7  -5   53.88    2.17
  -3  -7   5   47.92    2.20
  -3  -7   5   43.77    1.98
  -3  -7   5   46.88    2.05
   3   7  -5   47.53    2.09
   3   7  -5   43.66    2.01
  -3  -7   5   46.68    2.08
  -3  -7   5   43.08    2.03
  -3  -7   4    0.14    0.67
   3   7  -4   -0.05    0.93
  -3  -7   4    0.55    0.98
   3   7  -4   -0.15    0.78
  -3  -7   4   -0.20    0.78
  -3  -7   4   -0.16    0.67
   3   7  -4   -0.14    0.77
   3   7  -4   -1.33    0.67
  -3  -7   4    1.08    0.81
   3   7  -3   35.54    1.67
  -3  -7   3   31.51    1.65
   3   7  -3   32.95    1.54
  -3  -7   3   31.49    1.41
  -3  -7   3   32.07    1.57
   3   7  -3   32.66    1.59
  -3  -7   3   30.89    1.43
  -3  -7   3   29.63    1.56
  -3  -7   2    6.82    0.82
  -3  -7   2    6.33    0.54
  -3  -7   2    7.72    0.62
  -3  -7   2    8.81    0.52
   3   7  -2   10.07    0.94
  -3  -7   2    6.34    0.89
   3   7  -2    7.79    0.91
  -3  -7   2    7.57    0.84
  -3  -7   2    6.93    0.56
  -3  -7   1    1.96    0.78
  -3  -7   1    0.84    0.41
   3   7  -1    0.52    0.80
  -3  -7   1    0.94    0.51
  -3  -7   1    0.29    0.35
  -3  -7   1    0.81    0.62
  -3  -7   1    1.80    0.77
  -3  -7   1    2.17    0.75
  -3  -7   1    0.77    0.69
  -3  -7   0   32.75    1.67
  -3  -7   0   33.74    1.69
  -3  -7   0   36.21    1.63
  -3  -7   0   33.68    1.59
   3   7   0   37.16    1.72
   3   7   0   32.38    1.53
  -3  -7   0   32.83    1.69
  -3  -7  -1    0.33    0.81
  -3  -7  -1    0.14    0.91
  -3  -7  -1   -0.44    0.85
  -3  -7  -1    0.95    0.79
   3   7   1   -0.15    0.76
  -3  -7  -2   27.40    1.41
  -3  -7  -2   24.48    1.51
  -3  -7  -2   26.69    1.49
   3   7   2   24.66    1.47
  -3  -7  -2   25.40    1.37
  -3  -7  -2   25.75    1.54
  -3  -7  -3    9.13    1.05
  -3  -7  -3    8.77    0.93
   3   7   3    7.35    1.18
  -3  -7  -3    6.37    0.90
  -3  -7  -4    5.12    0.91
  -3  -7  -4    5.11    1.02
   3   7   4    5.48    1.34
  -3  -7  -5    0.62    0.99
  -3  -7  -5    0.67    0.95
   3   7   5   -1.99    1.49
  -3  -7  -6    1.14    0.99
  -3  -7  -6    2.07    1.07
   3   7   6   -0.43    1.58
  -3  -7  -7    0.03    1.10
  -3  -7  -7   -0.34    1.06
   3   7   7   -2.29    1.66
  -3  -7  -8    0.93    1.14
   3   7   8   -1.95    1.84
   3   7   9   -2.84    1.97
  -3  -8  13    0.07    1.38
  -3  -8  12    4.89    1.33
   3   8 -12    5.10    1.22
  -3  -8  11    2.06    1.17
   3   8 -11    0.42    1.08
  -3  -8  10    9.88    1.31
   3   8 -10    7.63    1.09
  -3  -8   9    0.84    1.16
   3   8  -9    2.69    0.99
   3   8  -9    2.27    0.98
  -3  -8   8    5.88    1.15
   3   8  -8    7.26    1.04
   3   8  -8    4.79    0.94
   3   8  -8    6.39    1.17
  -3  -8   8    4.36    0.84
  -3  -8   7   58.09    2.67
  -3  -8   7   53.87    2.38
   3   8  -7   55.49    2.44
   3   8  -7   53.50    2.44
  -3  -8   7   52.70    2.42
   3   8  -7   57.11    2.41
   3   8  -6   30.02    1.50
  -3  -8   6   28.10    1.77
  -3  -8   6   29.25    1.49
  -3  -8   6   30.49    1.54
   3   8  -6   30.36    1.61
   3   8  -6   26.14    1.49
  -3  -8   6   28.81    1.54
  -3  -8   5   23.84    1.60
   3   8  -5   22.80    1.29
   3   8  -5   22.66    1.29
   3   8  -5   23.38    1.33
  -3  -8   5   23.83    1.39
  -3  -8   5   23.14    1.33
  -3  -8   5   21.84    1.30
  -3  -8   4    1.48    0.78
   3   8  -4    0.82    0.86
  -3  -8   4   -0.22    1.02
  -3  -8   4    0.84    0.90
   3   8  -4    0.03    0.92
  -3  -8   4    1.12    0.89
  -3  -8   3   10.58    0.82
  -3  -8   3    9.98    1.15
  -3  -8   3   10.83    1.07
  -3  -8   3   10.65    1.02
   3   8  -3   11.12    1.06
  -3  -8   2   20.35    1.28
   3   8  -2   23.09    1.35
  -3  -8   2   18.30    1.23
  -3  -8   2   19.96    1.15
  -3  -8   2   18.08    1.26
  -3  -8   1   -0.75    0.93
  -3  -8   1   -0.62    0.79
  -3  -8   1   -0.60    0.90
   3   8  -1   -0.17    1.03
  -3  -8   1   -0.10    0.75
  -3  -8   0    3.08    0.95
  -3  -8   0    2.31    0.65
  -3  -8   0    1.24    0.91
  -3  -8   0    2.16    0.88
  -3  -8   0    1.47    0.80
  -3  -8  -1    5.01    1.02
  -3  -8  -1    4.66    0.90
  -3  -8  -1    4.98    0.87
  -3  -8  -1    4.26    1.04
   3   8   1    4.95    0.87
  -3  -8  -2    8.93    1.11
  -3  -8  -2    8.62    1.01
   3   8   2    8.45    1.10
  -3  -8  -3   18.85    1.43
  -3  -8  -3   19.35    1.31
   3   8   3   18.67    1.44
  -3  -8  -4   21.04    1.51
  -3  -8  -4   19.87    1.38
   3   8   4   21.12    1.67
  -3  -8  -5   15.54    1.29
  -3  -8  -5   12.34    1.34
   3   8   5   14.81    1.70
  -3  -8  -6    0.54    1.17
  -3  -8  -6    0.09    1.11
   3   8   6    2.37    1.66
  -3  -8  -7    2.63    1.18
   3   8   7    0.80    1.89
   3   8   8    2.76    1.79
  -3  -9  12    0.45    1.33
  -3  -9  11   -1.11    1.35
  -3  -9  10    1.29    1.16
   3   9 -10    0.40    1.07
  -3  -9   9    5.80    1.24
   3   9  -9    5.45    1.09
   3   9  -8   -0.36    0.95
  -3  -9   7    0.04    1.32
   3   9  -7    0.72    1.02
   3   9  -7   -0.08    0.89
  -3  -9   6    3.09    1.26
  -3  -9   6    3.81    0.90
   3   9  -6    4.31    1.07
   3   9  -6    3.53    0.99
  -3  -9   5    0.87    1.24
   3   9  -5    2.42    0.99
  -3  -9   5    0.70    0.88
   3   9  -5    1.48    0.97
  -3  -9   4    0.41    1.07
   3   9  -4   -0.03    1.02
  -3  -9   4    0.36    0.87
  -3  -9   3    0.79    0.97
   3   9  -3    1.36    1.02
  -3  -9   3    0.29    0.66
  -3  -9   3    1.36    0.88
  -3  -9   2    1.68    0.96
   3   9  -2    3.24    1.12
  -3  -9   2    3.51    0.79
  -3  -9   1    0.06    0.90
  -3  -9   0    2.53    1.01
  -3  -9   0    2.93    0.90
  -3  -9  -1    1.00    0.93
  -3  -9  -1    2.37    1.15
  -3  -9  -2    6.53    1.03
   3   9   2    5.02    1.03
  -3  -9  -2    4.88    1.15
  -3  -9  -3    1.26    1.03
  -3  -9  -3   -0.77    1.17
   3   9   3   -0.58    1.14
  -3  -9  -4   -0.23    1.18
  -3  -9  -4    0.20    1.06
   3   9   4    2.90    1.33
  -3  -9  -5    3.07    1.20
   3   9   5    2.51    1.42
   3   9   6    1.00    1.67
   3   9   7    2.59    1.94
   3  10  -8   -0.03    1.09
   3  10  -7   -0.06    1.06
   3  10  -6   -1.81    1.03
   3  10  -5    7.38    1.17
   3  10  -4    4.28    1.18
   3  10  -3    1.97    1.16
  -3 -10   3    0.33    1.04
  -3 -10   2    0.46    1.07
  -3 -10   1    0.86    1.11
  -3 -10   1    1.93    0.83
  -3 -10   0    4.59    1.01
  -3 -10   0    2.42    1.09
  -3 -10  -1    1.41    0.96
  -3 -10  -1    0.78    1.14
  -3 -10  -2    2.86    0.99
  -3 -10  -2    1.33    1.27
  -3 -10  -3    1.30    1.06
  -3 -10  -3   -0.24    1.21
  -3 -10  -4   -1.68    1.22
   3  11  -5    2.15    1.30
  -3 -11   0    1.34    0.97
  -3 -11  -1   -0.93    1.06
  -3 -11  -2   -0.78    1.04
   4 -12  -6    0.57    0.92
   4 -12  -5    2.70    1.46
   4 -12  -5    2.21    1.14
   4 -12  -4    0.58    1.53
   4 -12  -4    1.45    1.02
   4 -12  -3   -1.46    1.48
   4 -12  -3    0.43    1.16
   4 -12  -2    2.29    1.49
   4 -12  -2    1.67    1.19
   4 -12  -1   14.99    1.78
   4 -12  -1   13.92    1.48
   4 -12   0   -0.05    1.29
   4 -12   0    0.90    1.29
   4 -12   1    8.85    1.40
   4 -12   1   10.12    1.44
   4 -12   2    1.69    1.27
   4 -12   3    5.58    1.32
   4 -12   4    2.92    1.38
  -4  11   9   -0.05    1.69
  -4  11   8    0.76    1.62
  -4  11   8    1.38    1.27
   4 -11  -7    2.45    1.38
  -4  11   7    0.62    1.53
  -4  11   7    0.46    1.13
   4 -11  -6    4.46    1.48
  -4  11   6    2.38    0.92
   4 -11  -5   10.63    1.55
   4 -11  -5    6.75    1.05
   4 -11  -4    2.15    1.35
   4 -11  -4    0.71    1.04
   4 -11  -3   37.59    2.14
   4 -11  -3   32.93    1.86
   4 -11  -2    3.33    1.33
   4 -11  -2    3.96    1.18
   4 -11  -1    7.28    1.44
   4 -11  -1    9.01    1.23
   4 -11   0    2.12    1.27
   4 -11   0    2.22    1.22
   4 -11   1    4.21    1.19
   4 -11   1    3.67    1.18
   4 -11   2   14.24    1.40
   4 -11   2   12.95    1.37
   4 -11   3    7.13    1.35
   4 -11   3    3.37    1.20
   4 -11   4   21.38    1.68
   4 -11   4   19.40    1.62
   4 -11   5    1.32    1.28
   4 -11   6    3.79    1.31
  -4  10  10    3.08    1.75
   4 -10 -10    4.70    1.43
   4 -10  -9    2.38    1.26
   4 -10  -9    3.76    1.43
  -4  10   9    5.60    1.67
  -4  10   9    2.77    1.22
   4 -10  -8    1.57    1.25
   4 -10  -8    0.78    1.08
  -4  10   8   -0.19    1.39
  -4  10   8    0.13    1.19
   4 -10  -7    4.33    1.34
   4 -10  -7    4.14    1.08
  -4  10   7    1.77    1.34
  -4  10   7    2.19    1.03
   4 -10  -6    1.65    1.29
   4 -10  -6    0.08    1.03
  -4  10   6    1.87    1.31
  -4  10   6    1.04    0.99
   4 -10  -5    3.25    1.29
   4 -10  -5    1.89    0.89
  -4  10   5    2.06    0.87
   4 -10  -4    0.53    1.23
   4 -10  -4    1.04    0.97
  -4  10   4    1.31    0.77
   4 -10  -3   24.83    1.72
   4 -10  -3   21.33    1.44
   4 -10  -2    7.68    1.29
   4 -10  -2    7.56    1.16
   4 -10  -1   11.74    1.27
   4 -10  -1    8.86    0.95
   4 -10  -1    8.16    1.22
   4 -10   0    7.96    1.31
   4 -10   0    9.40    1.29
   4 -10   1   24.39    1.72
   4 -10   1   23.58    1.58
   4 -10   2   12.55    1.31
   4 -10   2   15.70    1.38
   4 -10   3    2.32    1.17
   4 -10   3    2.02    1.13
   4 -10   4   38.92    2.13
   4 -10   4   37.86    2.07
   4 -10   5    4.28    1.35
   4 -10   5    1.31    1.15
   4 -10   6   12.68    1.40
   4 -10   6   14.36    1.38
   4 -10   7    6.13    1.36
   4 -10   7    7.94    1.27
   4 -10   8    9.31    1.43
   4  -9 -11    0.58    1.45
  -4   9  11    2.22    1.75
   4  -9 -10    1.67    1.23
   4  -9 -10    0.70    1.35
  -4   9  10    2.18    1.55
  -4   9  10   -1.68    1.28
   4  -9  -9    0.28    1.16
   4  -9  -9   -0.75    1.26
  -4   9   9   -1.34    1.49
  -4   9   9    0.44    1.19
   4  -9  -8   -0.09    1.20
   4  -9  -8    0.37    1.19
  -4   9   8   -1.97    1.43
  -4   9   8   -1.48    1.12
   4  -9  -7   -0.18    1.21
  -4   9   7   -0.26    1.00
   4  -9  -7    0.06    1.10
  -4   9   7   -0.67    1.23
   4  -9  -7    1.26    1.13
  -4   9   7    0.70    0.94
   4  -9  -6    0.43    1.21
   4  -9  -6   -0.45    0.99
  -4   9   6    0.92    0.78
  -4   9   6   -1.79    1.20
   4  -9  -6    0.61    0.91
  -4   9   6    0.31    0.88
   4  -9  -5   11.97    1.39
  -4   9   5   11.41    1.32
   4  -9  -5   12.56    1.07
   4  -9  -5   11.30    0.98
  -4   9   5   12.48    1.02
   4  -9  -4    2.94    1.15
  -4   9   4    4.48    1.21
   4  -9  -4    2.69    0.81
   4  -9  -4    2.14    0.75
  -4   9   4    2.79    0.79
   4  -9  -3   41.26    2.12
   4  -9  -3   45.16    2.26
   4  -9  -3   46.08    1.95
   4  -9  -3   45.49    1.93
  -4   9   3   44.79    1.92
   4  -9  -3   46.91    2.22
   4  -9  -2    1.13    1.14
   4  -9  -2    1.73    0.99
   4  -9  -2    2.32    0.57
   4  -9  -2    1.50    0.98
  -4   9   2    1.56    0.52
   4  -9  -2    2.67    1.09
   4  -9  -1  104.62    4.21
   4  -9  -1  105.87    4.29
   4  -9  -1  105.48    4.08
   4  -9  -1  104.26    4.22
   4  -9  -1   97.95    3.93
   4  -9  -1  107.10    4.21
   4  -9   0    2.71    1.11
   4  -9   0    2.11    0.68
   4  -9   0    0.13    1.01
  -4   9  -1   14.83    1.26
   4  -9   1   16.15    1.35
   4  -9   1   15.63    0.92
   4  -9   1   15.62    1.28
  -4   9  -2   61.68    2.81
   4  -9   2   65.14    2.91
   4  -9   2   66.41    2.87
  -4   9  -3    6.49    1.22
   4  -9   3    7.26    1.23
   4  -9   3    4.43    1.05
  -4   9  -4   40.36    2.14
   4  -9   4   41.43    2.07
   4  -9   4   43.61    2.16
   4  -9   5   17.81    1.50
   4  -9   5   19.26    1.39
   4  -9   6    7.60    1.34
   4  -9   6    6.01    1.17
   4  -9   7    7.57    1.28
   4  -9   7    8.20    1.25
   4  -9   8    0.67    1.19
   4  -9   8    0.34    1.14
   4  -9   9    2.39    1.34
   4  -9   9    1.87    1.26
  -4   8  12    3.00    1.77
   4  -8 -12    4.26    1.55
   4  -8 -11   -0.63    1.14
  -4   8  11    1.81    1.68
   4  -8 -11    2.40    1.46
  -4   8  11    2.66    1.32
   4  -8 -10    3.51    1.17
   4  -8 -10    2.64    1.25
  -4   8  10    3.80    1.50
  -4   8  10    2.28    1.18
  -4   8   9   39.15    2.25
   4  -8  -9   43.11    2.12
  -4   8   9   44.75    2.08
  -4   8   8    1.34    0.98
   4  -8  -8    0.67    1.07
   4  -8  -8    0.32    1.07
  -4   8   8    0.59    1.34
   4  -8  -8    0.96    1.04
   4  -8  -7   73.19    3.03
   4  -8  -7   61.62    3.08
  -4   8   7   72.90    3.16
  -4   8   7   67.01    2.93
   4  -8  -7   70.14    3.01
  -4   8   7   72.55    2.95
  -4   8   6    1.03    0.84
   4  -8  -6   -0.04    1.10
   4  -8  -6    1.03    0.93
   4  -8  -6    0.81    0.89
   4  -8  -6    0.63    0.92
  -4   8   6   -0.30    0.81
   4  -8  -6    1.38    0.93
  -4   8   6    2.16    1.12
   4  -8  -5   70.19    2.87
   4  -8  -5   68.34    2.86
  -4   8   5   63.83    2.75
   4  -8  -5   65.79    2.82
   4  -8  -5   66.58    2.99
  -4   8   5   71.35    3.01
   4  -8  -5   65.24    2.80
  -4   8   5   68.64    2.79
   4  -8  -5   71.25    2.97
  -4   8   4    0.09    0.71
   4  -8  -4    1.61    1.06
  -4   8   4    1.85    0.99
  -4   8   4    1.78    0.65
   4  -8  -4    2.44    0.75
   4  -8  -4    0.97    0.66
   4  -8  -4    1.16    0.84
   4  -8  -4    0.73    0.84
   4  -8  -4    1.18    1.01
   4  -8  -3   29.07    1.58
   4  -8  -3   29.93    1.66
   4  -8  -3   28.11    1.39
   4  -8  -3   30.78    1.63
   4  -8  -3   29.34    1.36
  -4   8   3   31.11    1.69
  -4   8   3   32.46    1.39
  -4   8   3   29.52    1.34
   4  -8  -2   48.11    2.36
   4  -8  -2   50.19    2.34
   4  -8  -2   52.61    2.15
   4  -8  -2   49.57    2.34
   4  -8  -2   51.60    2.11
  -4   8   2   54.22    2.11
   4  -8  -2   57.38    2.38
   4  -8  -1    1.14    0.47
   4  -8  -1    0.97    0.90
   4  -8  -1    0.34    0.87
   4  -8  -1    0.63    0.70
   4  -8  -1    1.20    0.41
   4  -8  -1    0.86    0.35
   4  -8  -1    0.98    0.83
  -4   8   1    0.83    0.40
   4  -8   0   23.87    1.01
  -4   8   0   25.60    1.48
   4  -8   0   23.55    1.46
   4  -8   0   25.08    1.42
   4  -8   0   24.54    0.96
   4  -8   0   23.46    0.95
   4  -8   0   24.34    1.22
   4  -8   0   25.37    1.47
  -4   8  -1   76.19    3.14
   4  -8   1   77.18    3.17
   4  -8   1   72.73    3.12
   4  -8   1   71.47    2.94
   4  -8   1   75.19    3.14
  -4   8  -2   59.78    2.55
   4  -8   2   58.91    2.52
   4  -8   2   56.84    2.55
   4  -8   2   50.61    2.50
   4  -8   3    1.09    0.38
  -4   8  -3    1.57    1.01
   4  -8   3   -0.13    0.93
   4  -8   3    0.71    1.04
   4  -8   3    1.29    0.87
  -4   8  -4   18.45    1.41
   4  -8   4   18.01    1.39
   4  -8   4   20.72    1.31
   4  -8   5    3.77    0.99
   4  -8   5    5.52    1.27
  -4   8  -6   18.75    1.56
   4  -8   6   20.51    1.55
   4  -8   6   20.71    1.39
   4  -8   7   12.04    1.25
   4  -8   7   12.70    1.23
   4  -8   8    1.57    1.23
   4  -8   8    0.93    1.11
   4  -8   9   21.05    1.65
   4  -8  10    1.05    1.19
  -4   7  13    0.38    1.90
   4  -7 -13    1.26    1.52
  -4   7  12    0.67    1.16
   4  -7 -12    1.91    1.18
   4  -7 -12    1.83    1.53
  -4   7  12    0.76    1.68
  -4   7  11    0.66    1.07
   4  -7 -11    0.68    1.11
  -4   7  11   -1.47    1.55
   4  -7 -11   -1.44    1.36
  -4   7  10    9.66    1.17
   4  -7 -10    8.36    1.21
  -4   7  10    9.09    1.48
   4  -7 -10   12.71    1.46
  -4   7   9   -0.11    0.91
   4  -7  -9    1.90    1.08
   4  -7  -9    0.10    1.20
  -4   7   9    0.04    1.23
   4  -7  -9    1.70    1.10
  -4   7   8    2.58    0.88
   4  -7  -8    2.23    1.02
  -4   7   8    0.26    0.85
   4  -7  -8    1.81    0.96
  -4   7   8    3.19    1.22
   4  -7  -8    0.87    1.02
  -4   7   7    6.07    0.87
   4  -7  -7    6.15    0.92
   4  -7  -7    4.42    1.02
   4  -7  -7    4.06    0.90
   4  -7  -7    3.88    0.98
  -4   7   7    5.82    1.15
  -4   7   7    7.13    0.87
   4  -7  -7    6.02    1.05
   4  -7  -7    4.22    1.03
  -4   7   6    6.75    0.87
   4  -7  -6    6.45    1.05
   4  -7  -6    6.88    0.88
   4  -7  -6    7.38    0.87
  -4   7   6    5.66    0.74
   4  -7  -6    5.84    0.84
   4  -7  -6    4.70    0.86
   4  -7  -6    4.82    0.97
  -4   7   6    5.77    1.04
  -4   7   5   11.38    0.92
   4  -7  -5   12.22    0.98
   4  -7  -5   11.06    1.13
   4  -7  -5   12.61    1.00
  -4   7   5   10.36    0.82
  -4   7   5   13.37    1.19
   4  -7  -5   11.57    0.88
   4  -7  -5   12.57    0.92
   4  -7  -5   12.71    1.10
   4  -7  -4   25.42    1.34
   4  -7  -4   22.38    1.44
   4  -7  -4   25.41    1.26
  -4   7   4   25.16    1.19
  -4   7   4   23.16    1.44
   4  -7  -4   23.87    1.22
   4  -7  -4   23.32    1.33
  -4   7   4   24.56    1.22
   4  -7  -4   26.62    1.41
   4  -7  -3   37.71    1.80
   4  -7  -3   40.82    1.89
   4  -7  -3   38.12    1.67
  -4   7   3   38.76    1.62
   4  -7  -3   37.21    1.64
  -4   7   3   38.29    1.63
   4  -7  -3   39.20    1.85
   4  -7  -2   60.24    2.66
   4  -7  -2   60.51    2.60
   4  -7  -2   62.09    2.44
  -4   7   2   60.57    2.41
   4  -7  -2   64.08    2.46
   4  -7  -2   63.10    2.58
  -4   7   2   59.07    2.44
   4  -7  -2   64.62    2.67
  -4   7   1    1.34    0.33
  -4   7   1    2.00    0.40
   4  -7  -1    1.28    0.44
  -4   7   1    0.90    0.79
   4  -7  -1    1.17    0.85
   4  -7  -1    1.79    0.64
   4  -7  -1    1.14    0.77
   4  -7  -1    1.59    0.39
   4  -7  -1    1.97    0.83
   4  -7   0  138.26    5.10
  -4   7   0  136.91    5.34
   4  -7   0  135.22    5.36
   4  -7   0  141.29    5.35
   4  -7   0  138.49    5.24
   4  -7   0  142.74    5.37
   4  -7   0  132.26    5.09
  -4   7   0  138.31    5.12
   4  -7   0  128.90    5.12
  -4   7  -1   48.67    2.16
   4  -7   1   48.84    2.19
   4  -7   1   42.63    2.12
   4  -7   1   47.07    1.95
   4  -7   1   49.72    2.16
  -4   7  -2   16.54    1.19
   4  -7   2   16.23    1.15
   4  -7   2   16.20    1.13
   4  -7   2   14.70    1.12
   4  -7   3   40.42    1.95
  -4   7  -3   41.64    2.01
   4  -7   3   40.47    1.98
   4  -7   3   40.41    1.93
   4  -7   3   41.38    1.65
   4  -7   4   30.87    1.21
  -4   7  -4   30.27    1.69
   4  -7   4   31.46    1.67
   4  -7   4   28.67    1.56
  -4   7  -5   93.71    3.80
   4  -7   5   92.49    3.79
   4  -7   5   96.70    3.69
  -4   7  -6   28.17    1.77
   4  -7   6   25.13    1.53
   4  -7   6   28.78    1.71
   4  -7   7   82.52    3.56
   4  -7   8    7.24    1.37
   4  -7   9   10.56    1.25
   4  -7  10    9.55    1.27
   4  -7  10   10.33    1.32
   4  -7  11    0.14    1.28
   4  -7  11   -2.93    1.32
  -4   6  14    2.36    1.90
  -4   6  13    0.56    1.19
  -4   6  13    0.50    1.77
   4  -6 -13    2.13    1.44
  -4   6  12   15.90    1.31
  -4   6  12   12.64    1.88
   4  -6 -12   14.81    1.59
  -4   6  11   13.01    1.25
   4  -6 -11   12.86    1.51
  -4   6  11   10.29    1.59
  -4   6  10   47.95    2.43
   4  -6 -10   44.47    2.32
  -4   6  10   45.66    2.14
   4  -6  -9    6.10    1.15
  -4   6   9    5.55    0.94
   4  -6  -9    5.08    1.10
   4  -6  -9    6.70    1.17
  -4   6   9    6.32    0.93
  -4   6   9    3.76    1.22
  -4   6   8   12.02    1.04
   4  -6  -8   11.27    1.15
   4  -6  -8    9.29    0.98
  -4   6   8   11.19    0.95
  -4   6   8   11.03    1.24
   4  -6  -8   14.03    1.19
   4  -6  -8   10.05    1.11
   4  -6  -8   10.20    1.17
   4  -6  -7  209.61    8.15
   4  -6  -7  194.26    8.24
   4  -6  -7  204.93    8.19
  -4   6   7  215.18    8.26
   4  -6  -7  215.17    8.19
   4  -6  -7  215.01    8.16
  -4   6   7  221.17    8.14
  -4   6   7  226.62    8.16
   4  -6  -7  200.08    8.22
  -4   6   6   -0.02    0.72
   4  -6  -6   -0.69    0.85
   4  -6  -6    1.19    0.74
   4  -6  -6    0.73    0.79
  -4   6   6    1.18    0.62
   4  -6  -6    0.40    0.77
   4  -6  -6    0.51    0.74
   4  -6  -6    1.17    0.85
   4  -6  -5  270.08   10.33
   4  -6  -5  248.18   10.39
   4  -6  -5  268.68   10.31
   4  -6  -5  267.44   10.30
  -4   6   5  270.27   10.27
   4  -6  -5  273.71   10.33
  -4   6   5  283.12   10.30
   4  -6  -5  280.01   10.38
   4  -6  -4   23.75    1.24
   4  -6  -4   24.54    1.36
   4  -6  -4   22.89    1.17
  -4   6   4   21.46    1.11
   4  -6  -4   24.79    1.16
   4  -6  -4   22.96    1.24
  -4   6   4   24.83    1.18
   4  -6  -4   24.40    1.31
   4  -6  -3   28.75    1.46
   4  -6  -3   29.46    1.53
   4  -6  -3   30.08    1.37
  -4   6   3   29.36    1.31
   4  -6  -3   32.33    1.33
  -4   6   3   28.28    1.32
   4  -6  -3   32.95    1.52
   4  -6  -2  396.56   14.95
   4  -6  -2  401.94   14.91
   4  -6  -2  407.11   14.82
  -4   6   2  389.72   14.79
  -4   6   2  371.83   14.92
   4  -6  -2  401.05   14.80
   4  -6  -2  399.12   14.90
  -4   6   2  379.35   14.81
   4  -6  -1    2.99    0.81
  -4   6   1    2.03    0.40
   4  -6  -1    2.30    0.42
   4  -6  -1    2.14    0.81
   4  -6  -1    2.22    0.63
  -4   6   1    2.23    0.35
   4  -6  -1    1.69    0.69
   4  -6  -1    2.77    0.37
  -4   6   0  334.06   12.90
  -4   6   0  352.79   13.10
   4  -6   0  347.94   13.11
   4  -6   0  344.46   13.08
   4  -6   0  352.19   13.01
   4  -6   0  354.61   12.90
   4  -6   0  366.96   13.10
   4  -6   0  333.66   12.92
  -4   6   0  343.88   12.92
  -4   6  -1   52.06    2.24
   4  -6   1   51.94    2.22
   4  -6   1   53.15    2.19
   4  -6   1   53.92    1.92
   4  -6   1   53.05    2.06
   4  -6   1   54.84    2.22
  -4   6  -1   45.54    1.92
  -4   6  -2  165.10    6.29
   4  -6   2  157.12    6.26
   4  -6   2  155.36    6.24
   4  -6   2  161.14    6.25
   4  -6   2  161.97    6.12
  -4   6  -3  140.82    5.43
   4  -6   3  134.76    5.40
   4  -6   3  134.55    5.34
   4  -6   3  126.04    5.35
   4  -6   3  140.37    5.20
   4  -6   4   14.89    0.71
  -4   6  -4   13.00    1.17
   4  -6   4   14.99    1.15
   4  -6   5   17.58    0.80
   4  -6   5   15.37    1.30
  -4   6  -5   16.23    1.38
  -4   6  -6   -0.39    1.13
   4  -6   6    0.56    1.02
  -4   6  -6    0.57    1.05
  -4   6  -7   11.50    1.45
  -4   6  -7   11.87    0.74
   4  -6   7   11.14    1.36
  -4   6  -8    1.85    0.59
  -4   6  -8    1.56    0.36
  -4   6  -8    2.08    0.35
   4  -6   8    1.83    0.98
   4  -6   9    8.67    1.13
   4  -6   9    9.03    1.19
   4  -6  10    1.97    1.15
   4  -6  10    3.25    1.17
   4  -6  11    6.03    1.31
   4  -6  11    4.37    1.19
   4  -6  12    3.52    1.38
   4  -6  12    1.02    1.83
  -4   5  14    2.75    1.82
   4  -5 -14    0.95    1.51
  -4   5  14    1.14    1.79
  -4   5  13    1.03    1.65
   4  -5 -13    3.19    1.40
   4  -5 -12   17.31    1.67
  -4   5  12   15.62    1.82
  -4   5  11    2.21    1.46
   4  -5 -11    4.90    1.28
  -4   5  10    0.48    1.23
  -4   5  10    0.75    0.88
   4  -5 -10   -0.04    1.12
   4  -5 -10    0.86    1.15
   4  -5  -9   91.12    3.80
  -4   5   9   90.73    4.00
   4  -5  -9   94.73    3.92
  -4   5   9   94.99    3.80
   4  -5  -9   95.99    3.92
  -4   5   9   98.48    3.82
  -4   5   8    6.06    0.83
   4  -5  -8    4.69    0.82
  -4   5   8    6.69    0.87
   4  -5  -8    5.11    0.91
   4  -5  -8    5.86    1.03
   4  -5  -7   21.04    1.17
   4  -5  -7   20.04    1.28
  -4   5   7   21.65    1.13
   4  -5  -7   20.54    1.22
   4  -5  -7   21.17    1.18
  -4   5   7   21.14    1.14
   4  -5  -6  118.01    4.61
   4  -5  -6  109.71    4.69
   4  -5  -6  116.60    4.64
  -4   5   6  121.26    4.59
   4  -5  -6  119.84    4.63
   4  -5  -6  118.70    4.61
   4  -5  -6  117.03    4.68
  -4   5   6  117.43    4.60
  -4   5   5    9.96    0.77
   4  -5  -5   11.06    0.80
  -4   5   5   10.63    0.76
   4  -5  -5   10.74    0.77
   4  -5  -5   11.24    0.84
   4  -5  -5    9.16    0.84
   4  -5  -5   11.32    0.92
   4  -5  -4  110.25    4.39
   4  -5  -4  116.95    4.44
   4  -5  -4  111.18    4.51
  -4   5   4  112.27    4.48
   4  -5  -4  114.18    4.41
  -4   5   4  112.10    4.37
   4  -5  -4  112.48    4.43
   4  -5  -4  113.03    4.47
  -4   5   4  115.57    4.39
   4  -5  -3   84.28    3.38
   4  -5  -3   88.69    3.45
   4  -5  -3   83.17    3.49
  -4   5   3   89.46    3.48
  -4   5   3   83.42    3.34
   4  -5  -3   89.48    3.46
   4  -5  -3   86.09    3.36
  -4   5   3   87.37    3.37
  -4   5   2   10.17    0.81
   4  -5  -2   10.58    0.87
   4  -5  -2   11.32    0.81
  -4   5   2    9.20    0.60
   4  -5  -2   10.07    0.81
   4  -5  -2   10.84    0.62
  -4   5   2   11.49    0.87
   4  -5  -2   10.72    0.66
  -4   5   2   11.12    0.64
  -4   5   1   20.71    0.92
   4  -5  -1   18.67    1.14
   4  -5  -1   19.20    1.08
  -4   5   1   19.80    0.89
   4  -5  -1   21.67    0.90
   4  -5  -1   20.86    1.07
   4  -5  -1   20.53    0.94
  -4   5   0   23.68    0.99
   4  -5   0   23.53    1.24
   4  -5   0   22.77    1.21
   4  -5   0   23.80    0.95
   4  -5   0   24.32    1.13
   4  -5   0   23.40    1.24
  -4   5   0   21.55    0.95
   4  -5   0   23.18    0.98
  -4   5  -1   51.35    1.98
   4  -5   1   53.72    2.23
   4  -5   1   53.62    1.97
  -4   5  -1   47.42    1.95
   4  -5   1   52.69    1.95
   4  -5   1   50.85    2.08
   4  -5   1   49.89    2.19
  -4   5  -2  268.73   10.13
  -4   5  -2  258.89   10.33
   4  -5   2  272.46   10.33
   4  -5   2  277.11   10.20
  -4   5  -3   45.95    2.08
   4  -5   3   42.68    2.03
  -4   5  -3   44.64    1.86
   4  -5   3   46.17    1.82
   4  -5   4   38.91    1.53
  -4   5  -4   37.22    1.84
   4  -5   4   35.04    1.81
  -4   5  -4   35.91    1.59
   4  -5   5  162.62    5.92
  -4   5  -5  160.11    6.17
  -4   5  -5  154.44    6.11
   4  -5   5  154.54    6.14
  -4   5  -5  159.25    5.86
  -4   5  -5  158.16    5.97
  -4   5  -5  148.31    5.86
  -4   5  -5  159.24    5.86
  -4   5  -5  151.20    5.86
  -4   5  -6    9.41    0.52
  -4   5  -6    8.09    0.52
  -4   5  -6    8.81    1.19
  -4   5  -6    8.90    0.55
   4  -5   6    7.78    1.09
  -4   5  -6    9.41    0.78
  -4   5  -6    9.27    1.12
   4  -5   6    9.82    0.90
  -4   5  -6    9.14    0.54
  -4   5  -7  171.58    6.27
  -4   5  -7  161.94    6.27
  -4   5  -7  174.56    6.70
   4  -5   7  161.91    6.56
  -4   5  -7  169.71    6.29
  -4   5  -7  176.84    6.38
  -4   5  -7  155.28    6.27
  -4   5  -7  165.53    6.57
   4  -5   7  157.01    6.41
  -4   5  -8   30.69    1.30
  -4   5  -8   27.75    1.30
  -4   5  -8   30.02    1.33
  -4   5  -8   30.80    1.50
  -4   5  -8   26.81    1.29
   4  -5   8   27.06    1.58
   4  -5   9   13.88    1.22
  -4   5  -9   14.45    0.98
   4  -5   9   12.71    1.23
  -4   5  -9   16.77    0.93
  -4   5  -9   17.00    1.19
  -4   5  -9   14.57    0.90
  -4   5  -9   11.97    0.90
   4  -5  10   27.75    1.66
   4  -5  10   29.07    1.78
   4  -5  11   10.23    1.26
   4  -5  11    8.82    1.23
   4  -5  12    4.32    1.33
   4  -5  12    3.29    1.21
   4  -5  12    4.69    1.84
   4  -5  13    0.64    1.23
  -4   4  15    0.72    1.74
  -4   4  15    0.26    1.75
  -4   4  15   -0.49    1.79
  -4   4  14    4.97    1.84
  -4   4  14    3.26    1.07
  -4   4  14    3.42    1.76
   4  -4 -14    4.88    1.50
  -4   4  14    5.16    1.78
  -4   4  13    3.95    0.99
  -4   4  13    3.76    1.55
   4  -4 -13    1.97    1.35
  -4   4  13    2.89    1.58
  -4   4  13    3.41    1.55
  -4   4  12    5.07    1.00
   4  -4 -12    5.08    1.11
   4  -4 -12    7.25    1.37
  -4   4  12    7.36    1.54
  -4   4  12    3.69    1.52
  -4   4  12    4.84    1.57
   4  -4 -11   15.41    1.36
  -4   4  11   12.71    1.55
  -4   4  11   13.06    1.56
   4  -4 -11    9.99    1.37
  -4   4  11   12.41    1.51
   4  -4 -10    2.89    1.13
   4  -4 -10    2.16    0.91
  -4   4  10    2.61    0.83
   4  -4 -10    2.73    1.09
   4  -4 -10    2.69    1.15
   4  -4  -9    1.84    0.80
   4  -4  -9    0.99    0.90
  -4   4   9    2.49    0.76
   4  -4  -9    1.69    0.92
   4  -4  -9    1.52    0.97
   4  -4  -9    3.50    1.02
   4  -4  -8   24.51    1.33
  -4   4   8   25.62    1.32
   4  -4  -8   26.20    1.52
   4  -4  -8   27.31    1.44
   4  -4  -8   27.64    1.49
  -4   4   8   25.72    1.32
   4  -4  -7   12.34    0.88
   4  -4  -7   13.25    1.02
  -4   4   7   13.29    0.89
  -4   4   7   11.72    1.06
   4  -4  -7   14.10    0.92
   4  -4  -7   12.64    1.03
  -4   4   7   13.42    0.89
   4  -4  -6    1.00    0.61
  -4   4   6    2.03    0.78
  -4   4   6    2.55    0.62
  -4   4   6    1.91    0.62
   4  -4  -6    2.17    0.71
   4  -4  -6    2.02    0.61
   4  -4  -6    3.35    0.75
   4  -4  -5  442.76   16.75
  -4   4   5  446.47   16.80
   4  -4  -5  454.21   16.75
   4  -4  -5  426.02   16.76
  -4   4   5  446.93   16.72
   4  -4  -5  433.76   16.75
  -4   4   5  454.89   16.74
   4  -4  -4    1.14    0.57
   4  -4  -4    2.09    0.74
   4  -4  -4    1.74    0.56
  -4   4   4    2.34    0.54
  -4   4   4    1.51    0.49
  -4   4   4    1.86    0.64
   4  -4  -4    1.58    0.64
   4  -4  -4    1.27    0.54
   4  -4  -4    1.94    0.54
   4  -4  -4    1.71    0.66
   4  -4  -3  254.29    9.82
  -4   4   3  265.52    9.81
  -4   4   3  262.10    9.88
   4  -4  -3  259.52    9.86
   4  -4  -3  255.57    9.91
  -4   4   3  264.07    9.88
   4  -4  -3  256.61    9.81
   4  -4  -3  257.40    9.88
  -4   4   3  259.01    9.80
  -4   4   2  356.02   13.36
  -4   4   2  357.25   13.44
   4  -4  -2  369.37   13.47
   4  -4  -2  336.41   13.41
   4  -4  -2  359.93   13.36
  -4   4   2  354.21   13.43
  -4   4   2  347.74   13.34
   4  -4  -2  358.42   13.35
   4  -4  -2  356.81   13.42
  -4   4   1   28.37    1.17
  -4   4   1   27.15    1.32
   4  -4  -1   25.65    1.34
   4  -4  -1   29.05    1.18
  -4   4   1   28.72    1.33
   4  -4  -1   28.05    1.28
   4  -4  -1   26.66    1.15
  -4   4   1   27.40    1.15
   4  -4   0  321.93   11.97
  -4   4   0  323.66   12.09
   4  -4   0  313.65   12.09
  -4   4   0  318.37   11.97
  -4   4   0  312.40   11.96
   4  -4   0  310.76   12.03
   4  -4   0  323.46   11.96
  -4   4  -1  155.53    6.38
   4  -4   1  165.81    6.39
  -4   4  -1  167.31    6.24
   4  -4   1  172.40    6.22
  -4   4  -1  155.58    6.22
  -4   4  -1  164.86    6.31
   4  -4   1  166.59    6.23
   4  -4   2  275.27    9.97
   4  -4   2  264.07   10.14
  -4   4  -2  252.43    9.97
   4  -4   2  241.85   10.09
  -4   4  -2  266.43   10.06
  -4   4  -2  260.42    9.98
   4  -4   2  272.91    9.96
   4  -4   2  277.14   10.04
   4  -4   3  427.89   16.45
  -4   4  -3  430.70   16.25
   4  -4   3  428.75   16.40
  -4   4  -3  446.36   16.35
  -4   4  -3  446.76   16.27
  -4   4  -3  421.88   16.26
   4  -4   3  412.16   16.37
  -4   4  -3  445.50   16.28
   4  -4   3  438.13   16.32
   4  -4   4   75.96    2.87
  -4   4  -4   72.42    2.81
   4  -4   4   68.03    3.06
  -4   4  -4   74.63    2.94
  -4   4  -4   71.96    3.04
  -4   4  -4   74.82    2.84
   4  -4   4   73.48    2.96
  -4   4  -4   73.57    2.81
  -4   4  -4   73.70    2.85
   4  -4   5  295.87   10.42
  -4   4  -5  277.49   10.38
  -4   4  -5  281.76   10.47
  -4   4  -5  274.44   10.38
  -4   4  -5  287.02   10.64
   4  -4   5  279.87   10.59
  -4   4  -5  265.95   10.36
  -4   4  -5  276.96   10.55
   4  -4   5  270.89   10.47
  -4   4  -5  268.78   10.35
  -4   4  -6   21.21    1.03
   4  -4   6   23.13    1.42
  -4   4  -6   20.70    1.57
  -4   4  -6   23.05    0.98
  -4   4  -6   24.69    1.22
  -4   4  -6   20.84    1.00
  -4   4  -6   21.84    1.40
   4  -4   6   21.30    1.20
  -4   4  -6   21.31    0.97
  -4   4  -7   18.63    1.61
  -4   4  -7   19.15    0.95
  -4   4  -7   17.64    0.97
  -4   4  -7   17.56    0.98
  -4   4  -7   19.80    1.42
   4  -4   7   18.03    1.18
  -4   4  -7   19.05    0.91
  -4   4  -8    0.52    0.65
  -4   4  -8    0.53    0.59
  -4   4  -8   -0.35    1.53
  -4   4  -8   -0.15    0.65
  -4   4  -8    0.04    1.27
  -4   4  -8   -0.61    0.62
   4  -4   8    0.10    0.86
   4  -4   9    3.32    1.05
   4  -4   9    1.80    0.92
  -4   4  -9    3.32    1.07
  -4   4  -9    2.88    0.67
  -4   4  -9    3.01    0.77
  -4   4  -9    3.44    0.77
  -4   4  -9    2.15    0.71
   4  -4  10    2.31    1.13
   4  -4  10    1.49    1.03
  -4   4 -10    0.75    0.77
  -4   4 -10    2.93    0.72
  -4   4 -10    1.96    0.83
   4  -4  11    2.65    1.18
   4  -4  11    3.18    1.04
  -4   4 -11    2.39    0.95
  -4   4 -11    0.89    0.89
   4  -4  11    2.74    1.80
   4  -4  12    0.90    1.31
   4  -4  12    2.32    1.12
   4  -4  12    4.67    1.80
   4  -4  13    0.98    1.29
   4  -4  13    3.00    1.26
  -4   3  16    1.60    1.79
  -4   3  15    3.15    1.73
  -4   3  15    6.90    1.69
  -4   3  15    5.65    1.75
  -4   3  14    8.68    1.13
  -4   3  14    9.25    1.74
  -4   3  14    8.12    1.74
   4  -3 -14   10.72    1.57
  -4   3  14   10.08    1.78
  -4   3  13    0.72    0.93
  -4   3  13    1.92    1.44
   4  -3 -12    0.26    1.25
   4  -3 -12    0.51    1.11
  -4   3  12    0.58    0.86
  -4   3  12    1.02    1.36
  -4   3  11   11.41    0.97
   4  -3 -11   10.21    1.30
   4  -3 -11   11.15    1.32
   4  -3 -11    9.61    1.27
  -4   3  11   11.16    1.37
   4  -3 -10    7.64    0.98
  -4   3  10    9.65    0.91
  -4   3  10    7.40    1.20
  -4   3  10   10.16    1.25
   4  -3 -10    8.48    1.19
   4  -3 -10   10.94    1.17
   4  -3 -10    7.53    1.15
  -4   3  10   11.10    1.15
  -4   3   9   71.08    2.93
   4  -3  -9   68.45    2.90
   4  -3  -9   72.37    2.91
  -4   3   9   68.25    2.92
   4  -3  -9   68.19    2.87
  -4   3   9   59.74    2.75
   4  -3  -9   63.10    2.76
   4  -3  -8    0.99    0.67
   4  -3  -8    1.34    0.75
  -4   3   8    0.76    0.87
   4  -3  -8    0.32    0.85
  -4   3   8    1.12    0.83
   4  -3  -8    0.09    0.86
   4  -3  -8    0.55    0.77
   4  -3  -7  133.76    5.40
  -4   3   7  143.33    5.48
   4  -3  -7  132.46    5.47
   4  -3  -7  144.76    5.48
  -4   3   7  140.47    5.40
   4  -3  -7  144.35    5.48
   4  -3  -7  140.71    5.45
   4  -3  -6  327.30   12.56
  -4   3   6  327.38   12.62
   4  -3  -6  332.03   12.60
   4  -3  -6  337.46   12.56
   4  -3  -6  330.76   12.60
  -4   3   6  330.83   12.55
   4  -3  -6  337.92   12.60
   4  -3  -5   45.57    1.90
  -4   3   5   46.18    1.90
  -4   3   5   48.29    1.98
   4  -3  -5   43.24    1.98
  -4   3   5   45.33    1.88
   4  -3  -5   45.50    1.92
   4  -3  -5   42.13    1.94
   4  -3  -5   47.71    1.92
  -4   3   4  292.53   10.98
  -4   3   4  286.68   11.02
  -4   3   4  296.23   10.97
   4  -3  -4  285.72   10.99
   4  -3  -4  290.71   11.04
   4  -3  -4  287.51   10.98
  -4   3   3   31.91    1.45
  -4   3   3   31.91    1.37
  -4   3   3   33.23    1.45
  -4   3   3   31.82    1.36
   4  -3  -3   32.81    1.47
   4  -3  -3   31.66    1.40
   4  -3  -3   33.29    1.38
  -4   3   2  744.58   27.39
   4  -3  -2  620.42   27.38
  -4   3   2  735.82   27.33
   4  -3  -2  749.27   27.33
  -4   3   2  732.16   27.37
  -4   3   2  748.47   27.32
   4  -3  -2  723.69   27.38
   4  -3  -2  737.95   27.33
   4  -3  -1  358.45   13.44
  -4   3   1  349.74   13.52
   4  -3  -1  355.17   13.53
  -4   3   1  360.16   13.45
  -4   3   1  357.86   13.44
  -4   3   1  359.30   13.50
  -4   3   1  364.46   13.50
   4  -3  -1  353.47   13.50
   4  -3  -1  354.35   13.45
  -4   3   0    0.86    0.35
  -4   3   0    0.96    0.57
   4  -3   0    0.51    0.53
  -4   3   0    0.35    0.34
   4  -3   0   -0.02    0.50
  -4   3   0    0.50    0.51
   4  -3   0    0.46    0.28
   4  -3   0    0.52    0.33
  -4   3  -1  159.99    6.14
   4  -3   1  155.58    6.14
  -4   3  -1  161.23    6.19
   4  -3   1  158.76    6.18
  -4   3  -1  163.11    6.07
   4  -3   1  158.42    6.05
   4  -3   1  160.81    6.05
  -4   3  -1  162.24    6.07
   4  -3   1  154.51    6.13
   4  -3   1  161.35    6.12
   4  -3   2   89.87    3.46
  -4   3  -2   95.10    3.64
   4  -3   2   86.91    3.62
   4  -3   2   88.21    3.57
  -4   3  -2   94.27    3.56
   4  -3   2   93.73    3.46
   4  -3   2   86.72    3.55
  -4   3  -2   88.88    3.48
  -4   3  -2   91.69    3.47
   4  -3   2   86.46    3.51
  -4   3  -3   28.06    1.17
  -4   3  -3   27.82    1.41
   4  -3   3   24.59    1.42
  -4   3  -3   28.64    1.29
  -4   3  -3   27.27    1.17
  -4   3  -3   27.34    1.13
   4  -3   3   26.92    1.27
   4  -3   3   27.40    1.21
   4  -3   4    0.12    0.42
  -4   3  -4    0.87    0.33
  -4   3  -4    0.14    0.66
   4  -3   4    0.12    0.58
  -4   3  -4    0.36    0.41
  -4   3  -4    0.23    0.43
  -4   3  -4    0.13    0.73
  -4   3  -4    0.40    0.38
   4  -3   5   17.68    0.90
  -4   3  -5   15.73    0.83
  -4   3  -5   15.14    0.77
  -4   3  -5   15.79    0.76
   4  -3   5   16.59    1.18
  -4   3  -5   15.48    0.82
  -4   3  -5   17.27    1.12
   4  -3   5   14.38    0.95
   4  -3   6   92.68    3.84
  -4   3  -6   93.87    3.55
  -4   3  -6   88.99    3.59
  -4   3  -6   93.48    3.76
  -4   3  -6   91.50    3.54
   4  -3   6   90.40    3.65
  -4   3  -6   88.98    3.59
  -4   3  -6   96.62    3.73
  -4   3  -7   40.39    2.21
  -4   3  -7   36.01    1.57
  -4   3  -7   42.02    1.94
  -4   3  -7   35.09    1.64
  -4   3  -7   33.55    1.64
   4  -3   7   37.43    1.73
  -4   3  -7   38.53    1.57
  -4   3  -7   38.60    1.84
   4  -3   8    1.74    0.90
  -4   3  -8    1.32    1.00
   4  -3   8    1.24    0.85
  -4   3  -8    1.27    0.62
  -4   3  -8    0.47    1.56
  -4   3  -8    0.73    0.61
  -4   3  -8    0.45    0.77
  -4   3  -8    0.50    0.72
  -4   3  -8    1.00    1.19
  -4   3  -9    8.71    1.14
   4  -3   9    5.95    0.98
   4  -3   9    6.41    0.93
  -4   3  -9    7.50    0.74
  -4   3  -9    8.51    0.84
  -4   3  -9    4.40    0.89
  -4   3  -9    7.29    1.46
  -4   3  -9    6.39    0.92
  -4   3 -10   22.26    1.66
   4  -3  10   25.42    1.46
  -4   3 -10   25.51    1.32
  -4   3 -10   22.46    1.39
   4  -3  10   24.36    1.53
  -4   3 -10   19.27    1.39
  -4   3 -10   27.66    1.30
   4  -3  11    4.00    1.13
   4  -3  11    3.47    1.01
  -4   3 -11    2.72    0.90
   4  -3  11    4.03    1.66
  -4   3 -11    1.90    0.96
   4  -3  12    9.91    1.40
   4  -3  12    8.22    1.19
  -4   3 -12    9.65    1.09
   4  -3  12    7.33    1.64
   4  -3  13    5.13    1.29
   4  -3  13    4.94    1.14
  -4   2  16    0.65    1.76
  -4   2  15    0.09    1.04
   4  -2 -15    1.53    1.61
  -4   2  15   -0.31    1.73
  -4   2  14   -1.50    1.02
  -4   2  14    0.59    1.52
  -4   2  13    5.59    0.99
  -4   2  13    7.42    1.49
   4  -2 -12    8.25    1.21
  -4   2  12    9.13    1.00
  -4   2  12    5.22    1.35
   4  -2 -12    8.06    1.37
  -4   2  12    6.95    1.38
   4  -2 -12    8.41    1.31
  -4   2  12   10.64    1.38
   4  -2 -11    0.90    1.17
   4  -2 -11   -0.68    0.97
   4  -2 -11    1.30    0.99
  -4   2  11   -0.34    0.81
  -4   2  11   -0.72    1.19
  -4   2  11   -1.14    0.76
  -4   2  11    0.13    1.24
   4  -2 -11    0.28    1.04
  -4   2  11   -1.35    1.16
  -4   2  10   73.60    3.45
   4  -2 -10   86.26    3.48
   4  -2 -10   92.79    3.51
  -4   2  10   83.65    3.26
  -4   2  10   76.08    3.45
   4  -2 -10   74.43    3.37
  -4   2  10   87.75    3.43
   4  -2 -10   72.76    3.30
  -4   2  10   82.45    3.29
   4  -2  -9   22.20    1.33
  -4   2   9   20.22    1.33
  -4   2   9   19.99    1.09
   4  -2  -9   21.14    1.34
  -4   2   9   20.85    1.33
   4  -2  -9   16.67    1.19
   4  -2  -9   17.49    1.20
  -4   2   9   18.46    1.10
  -4   2   8   46.04    1.93
  -4   2   8   42.42    2.04
   4  -2  -8   44.72    1.99
   4  -2  -8   46.94    2.06
   4  -2  -8   42.17    2.06
  -4   2   8   43.12    2.03
   4  -2  -8   44.82    1.99
   4  -2  -8   44.22    1.94
   4  -2  -7   12.51    0.97
  -4   2   7   12.86    0.85
   4  -2  -7   10.88    0.87
  -4   2   7   11.39    0.95
   4  -2  -7   14.14    0.98
  -4   2   7   12.88    0.94
   4  -2  -7   12.60    0.91
   4  -2  -6    6.70    0.77
   4  -2  -6    5.89    0.74
   4  -2  -6    6.98    0.74
  -4   2   6    7.12    0.76
   4  -2  -6    6.33    0.76
  -4   2   6    5.66    0.72
   4  -2  -6    7.10    0.70
   4  -2  -5  126.87    5.05
  -4   2   5  131.03    5.02
   4  -2  -5  135.79    5.04
   4  -2  -5  128.40    5.00
  -4   2   5  115.96    4.96
   4  -2  -5  131.29    5.01
   4  -2  -5  141.07    5.02
   4  -2  -4   10.34    0.72
  -4   2   4   11.26    0.73
   4  -2  -4   11.64    0.71
   4  -2  -4   10.56    0.78
  -4   2   4   10.22    0.67
   4  -2  -4   10.49    0.68
   4  -2  -3    6.62    0.54
  -4   2   3    4.87    0.57
  -4   2   3    6.10    0.53
  -4   2   3    5.32    0.51
   4  -2  -3    5.58    0.60
  -4   2   3    5.24    0.50
   4  -2  -3    6.30    0.52
   4  -2  -2  167.45    6.38
  -4   2   2  163.90    6.40
  -4   2   2  166.87    6.38
  -4   2   2  164.73    6.37
  -4   2   2  168.56    6.36
   4  -2  -2  169.12    6.42
   4  -2  -2  166.62    6.36
   4  -2  -2  170.25    6.37
   4  -2  -1  650.45   24.61
   4  -2  -1  654.85   24.60
  -4   2   1  644.49   24.66
   4  -2  -1  673.87   24.63
  -4   2   1  650.36   24.63
   4  -2  -1  656.07   24.65
  -4   2   1  656.87   24.62
  -4   2   1  657.51   24.61
  -4   2   0   20.30    1.06
  -4   2   0   20.71    0.94
   4  -2   0   22.84    1.00
   4  -2   0   20.93    0.92
   4  -2   0   19.95    0.91
  -4   2   0   21.18    1.04
   4  -2   0   20.97    0.98
  -4   2   0   21.62    0.95
   4  -2   0   19.91    1.00
  -4   2  -1  358.84   13.89
   4  -2   1  329.63   13.88
   4  -2   1  357.31   13.83
  -4   2  -1  372.98   13.86
  -4   2  -1  367.28   13.80
   4  -2   1  368.01   13.79
   4  -2   1  365.84   13.83
   4  -2   1  377.73   13.79
  -4   2  -1  371.64   13.81
   4  -2   1  380.79   13.85
   4  -2   2    2.05    0.46
  -4   2  -2    2.96    0.44
  -4   2  -2    2.74    0.66
   4  -2   2    3.06    0.75
  -4   2  -2    2.04    0.61
   4  -2   2    2.51    0.56
  -4   2  -2    1.80    0.40
   4  -2   2    2.75    0.38
   4  -2   2    2.44    0.46
   4  -2   2    2.89    0.41
  -4   2  -3  746.70   28.88
  -4   2  -3  768.39   29.00
   4  -2   3  765.59   28.99
  -4   2  -3  756.65   28.85
   4  -2   3  822.84   28.87
   4  -2   3  755.12   28.89
  -4   2  -3  764.60   28.87
   4  -2   3  775.41   28.89
  -4   2  -4   24.20    1.19
   4  -2   4   26.65    1.20
  -4   2  -4   25.28    1.17
  -4   2  -4   25.24    1.47
  -4   2  -4   26.62    1.12
   4  -2   4   25.94    1.44
  -4   2  -4   26.19    1.33
  -4   2  -4   27.20    1.14
   4  -2   4   26.27    1.23
  -4   2  -4   28.38    1.36
   4  -2   5  238.17    8.98
  -4   2  -5  233.81    9.15
  -4   2  -5  241.24    8.91
   4  -2   5  254.05    9.13
  -4   2  -5  215.15    8.94
  -4   2  -5  233.44    8.94
  -4   2  -5  236.64    9.02
  -4   2  -5  245.93    8.91
   4  -2   5  225.65    8.95
  -4   2  -5  237.63    9.03
   4  -2   6  148.41    5.82
  -4   2  -6  148.12    6.09
  -4   2  -6  148.00    5.76
  -4   2  -6  148.77    5.81
  -4   2  -6  166.27    5.93
  -4   2  -6  143.38    5.81
  -4   2  -6  154.17    5.77
  -4   2  -6  156.47    5.92
  -4   2  -7  181.85    6.64
  -4   2  -7  159.68    6.67
  -4   2  -7  176.42    6.63
   4  -2   7  160.90    6.68
  -4   2  -7  166.68    6.70
  -4   2  -7  179.07    6.81
  -4   2  -8   17.84    1.38
   4  -2   8   18.64    1.11
  -4   2  -8   20.50    1.08
  -4   2  -8   17.43    1.16
  -4   2  -8   20.50    1.06
   4  -2   8   17.16    1.18
  -4   2  -8   17.72    1.23
  -4   2  -9    5.09    0.97
  -4   2  -9    4.60    1.10
   4  -2   9    7.70    0.99
   4  -2   9    5.84    0.86
  -4   2  -9    5.55    0.76
  -4   2  -9    4.85    0.73
  -4   2  -9    5.63    0.87
  -4   2  -9    5.83    1.33
  -4   2 -10    0.46    1.10
   4  -2  10    1.29    0.97
  -4   2 -10    1.48    0.98
   4  -2  10    0.68    0.84
  -4   2 -10    0.78    0.70
  -4   2 -10   -0.04    0.82
  -4   2 -10    0.77    0.97
   4  -2  10    3.45    1.65
   4  -2  11   16.01    1.36
  -4   2 -11   12.46    1.28
   4  -2  11   15.41    1.15
   4  -2  11   15.49    1.68
  -4   2 -11   14.60    1.09
  -4   2 -11   16.29    1.09
  -4   2 -11   11.38    1.28
  -4   2 -12    1.29    1.06
   4  -2  12    2.38    1.25
   4  -2  12    2.00    0.99
  -4   2 -12    1.65    0.97
   4  -2  12    2.45    1.65
   4  -2  13    5.49    1.36
  -4   2 -13    6.83    1.18
   4  -1 -16    2.81    1.71
  -4   1  16    5.55    1.63
  -4   1  15   11.13    1.21
   4  -1 -15   10.80    1.84
  -4   1  15   13.71    1.59
  -4   1  14    0.85    0.94
  -4   1  14   -1.06    1.35
   4  -1 -14   -1.24    1.61
  -4   1  14   -0.15    1.38
  -4   1  14   -0.36    1.41
  -4   1  13   -0.94    0.92
  -4   1  13    1.15    1.25
  -4   1  13    0.05    1.27
   4  -1 -13    2.39    1.42
  -4   1  13    0.70    1.14
   4  -1 -12    5.85    1.36
  -4   1  12    6.40    0.93
  -4   1  12    5.94    1.21
  -4   1  12    3.85    1.20
   4  -1 -12    5.21    1.24
  -4   1  12    8.76    1.27
   4  -1 -11   14.60    1.23
   4  -1 -11   14.27    1.22
  -4   1  11   13.50    1.37
  -4   1  11   15.11    1.05
  -4   1  11   11.52    1.35
   4  -1 -11   11.74    1.20
  -4   1  11   18.23    1.32
  -4   1  11   15.77    1.03
  -4   1  10   24.90    1.31
  -4   1  10   25.24    1.54
   4  -1 -10   25.15    1.46
   4  -1 -10   27.32    1.62
  -4   1  10   25.22    1.30
  -4   1  10   23.56    1.57
   4  -1 -10   21.52    1.38
  -4   1  10   26.96    1.41
  -4   1   9  217.30    7.87
  -4   1   9  193.99    7.95
   4  -1  -9  184.64    7.95
  -4   1   9  206.92    7.85
  -4   1   9  204.59    7.96
   4  -1  -9  226.54    7.99
   4  -1  -9  199.02    7.89
   4  -1  -8    1.52    0.87
   4  -1  -8    0.80    0.71
  -4   1   8    0.92    0.80
  -4   1   8    0.11    0.58
  -4   1   8    0.20    0.62
   4  -1  -8   -0.65    0.82
   4  -1  -8    0.19    0.85
  -4   1   8    1.56    0.79
   4  -1  -8    0.98    0.74
   4  -1  -7    3.99    0.77
   4  -1  -7    2.49    0.64
  -4   1   7    3.21    0.74
  -4   1   7    4.15    0.62
  -4   1   7    3.06    0.59
  -4   1   7    2.60    0.71
   4  -1  -7    1.78    0.63
   4  -1  -7    2.62    0.75
  -4   1   6  326.59   12.56
   4  -1  -6  328.11   12.56
  -4   1   6  329.41   12.54
   4  -1  -6  337.26   12.58
   4  -1  -6  334.33   12.58
  -4   1   6  329.43   12.57
   4  -1  -6  335.42   12.53
   4  -1  -5   86.53    3.29
  -4   1   5   82.85    3.32
   4  -1  -5   86.25    3.33
  -4   1   5   79.41    3.31
   4  -1  -5   77.21    3.38
   4  -1  -5   85.60    3.34
   4  -1  -5   86.48    3.35
  -4   1   5   84.33    3.32
   4  -1  -5   87.69    3.31
   4  -1  -4  240.45    9.21
  -4   1   4  242.81    9.23
  -4   1   4  245.32    9.24
   4  -1  -4  239.73    9.25
   4  -1  -4  246.86    9.25
   4  -1  -4  247.78    9.29
   4  -1  -4  242.97    9.25
   4  -1  -4  244.02    9.22
   4  -1  -3  342.30   12.72
  -4   1   3  337.24   12.75
   4  -1  -3  333.89   12.76
  -4   1   3  332.57   12.74
  -4   1   3  330.25   12.77
   4  -1  -3  335.46   12.79
   4  -1  -3  338.85   12.75
   4  -1  -3  346.26   12.73
   4  -1  -3  337.18   12.75
   4  -1  -2  438.24   16.11
  -4   1   2  418.76   16.14
   4  -1  -2  418.58   16.15
  -4   1   2  431.92   16.13
  -4   1   2  424.82   16.16
  -4   1   2  433.82   16.13
   4  -1  -2  423.27   16.13
   4  -1  -2  423.71   16.17
   4  -1  -2  436.35   16.11
   4  -1  -2  427.55   16.13
   4  -1  -1  425.59   16.18
  -4   1   1  442.62   16.19
   4  -1  -1  448.45   16.17
  -4   1   1  437.41   16.22
   4  -1  -1  399.06   16.21
  -4   1   1  427.11   16.18
   4  -1  -1  431.21   16.18
  -4   1   1  423.56   16.19
   4  -1  -1  428.36   16.22
  -4   1   0  349.00   13.27
   4  -1   0  355.46   13.22
   4  -1   0  343.97   13.22
   4  -1   0  347.17   13.21
   4  -1   0  343.10   13.22
  -4   1   0  354.06   13.23
  -4   1   0  356.41   13.24
   4  -1   0  362.22   13.27
  -4   1  -1  611.95   22.94
  -4   1  -1  611.14   22.99
   4  -1   1  620.62   22.92
   4  -1   1  603.74   22.92
  -4   1  -1  593.17   22.97
  -4   1  -1  609.12   22.93
   4  -1   1  597.02   22.92
   4  -1   1  621.25   22.92
   4  -1   1  623.36   22.96
  -4   1  -2  210.64    7.97
  -4   1  -2  204.55    7.98
  -4   1  -2  207.55    8.07
   4  -1   2  213.73    7.96
   4  -1   2  210.65    7.97
   4  -1   2  216.27    7.96
   4  -1   2  204.81    7.95
  -4   1  -2  206.55    8.03
   4  -1   2  214.34    8.00
   4  -1   3  119.91    4.56
   4  -1   3  115.88    4.52
  -4   1  -3  121.69    4.68
  -4   1  -3  114.91    4.55
  -4   1  -3  116.27    4.54
  -4   1  -3  114.75    4.56
  -4   1  -3  116.07    4.51
   4  -1   3  125.32    4.54
  -4   1  -3  117.38    4.61
   4  -1   4  132.11    4.81
  -4   1  -4  121.61    4.95
  -4   1  -4  117.61    4.78
  -4   1  -4  126.37    4.74
   4  -1   4  120.40    4.93
  -4   1  -4  117.15    4.77
  -4   1  -4  128.97    4.81
  -4   1  -4  125.57    4.74
   4  -1   4  121.63    4.75
  -4   1  -4  122.79    4.85
  -4   1  -5   10.26    0.98
   4  -1   5   11.33    0.84
  -4   1  -5   13.81    1.19
  -4   1  -5   11.23    0.73
  -4   1  -5   11.30    0.71
  -4   1  -5   11.37    0.83
  -4   1  -5   12.20    0.81
  -4   1  -5   11.12    0.90
   4  -1   5   11.64    0.75
  -4   1  -6   78.43    3.40
  -4   1  -6   76.73    3.02
  -4   1  -6   74.05    3.09
  -4   1  -6   84.59    3.17
  -4   1  -6   78.02    3.03
   4  -1   6   74.76    3.05
  -4   1  -6   73.57    3.10
  -4   1  -6   74.82    3.18
   4  -1   7    2.64    0.78
  -4   1  -7    3.14    0.91
  -4   1  -7    2.97    0.65
   4  -1   7    3.00    0.63
  -4   1  -7    4.36    0.63
  -4   1  -7    2.00    1.32
  -4   1  -7    4.25    0.85
  -4   1  -7    3.86    0.94
  -4   1  -7    2.46    0.81
  -4   1  -8   -0.18    1.04
   4  -1   8    2.50    0.75
  -4   1  -8    1.38    0.92
   4  -1   8    2.22    0.67
  -4   1  -8    0.61    0.72
  -4   1  -8    1.76    0.75
  -4   1  -8    0.72    0.91
  -4   1  -8    1.81    1.06
  -4   1  -9   13.24    1.41
   4  -1   9   16.15    1.23
   4  -1   9   15.55    1.06
  -4   1  -9   16.07    1.37
  -4   1  -9   20.41    1.10
  -4   1  -9   24.78    1.53
  -4   1  -9   16.21    1.29
   4  -1   9   20.17    1.80
  -4   1  -9   19.75    1.11
  -4   1 -10   -0.63    1.03
  -4   1 -10   -1.43    1.15
   4  -1  10   -0.05    1.00
   4  -1  10    0.36    0.80
  -4   1 -10   -0.24    0.81
  -4   1 -10    0.47    1.07
  -4   1 -10    0.21    0.80
  -4   1 -10   -1.06    1.39
   4  -1  10    1.22    1.45
   4  -1  11    0.26    1.04
   4  -1  11   -0.18    0.87
  -4   1 -11    0.12    1.14
  -4   1 -11    0.74    1.03
  -4   1 -11   -0.16    0.99
   4  -1  11   -1.15    1.41
   4  -1  12    4.83    1.18
  -4   1 -12    3.77    1.25
  -4   1 -12    4.11    1.12
   4  -1  12    3.30    1.60
  -4   1 -13    0.99    1.42
   4  -1  13    2.95    1.24
  -4   1 -13    2.94    1.14
  -4   1 -14   -1.75    1.31
   4   0 -17    2.53    1.82
   4   0 -16    2.87    1.76
   4   0 -16    3.80    1.70
  -4   0  15    1.38    1.03
  -4   0  15    2.17    1.32
   4   0 -15    4.10    1.49
  -4   0  15    2.73    1.42
  -4   0  15    1.72    1.38
   4   0 -15    2.68    1.69
   4   0 -14    1.03    1.46
  -4   0  14   -0.19    0.97
  -4   0  14    1.49    1.37
  -4   0  14    0.41    1.32
   4   0 -14   -0.53    1.57
  -4   0  14   -0.68    1.23
  -4   0  13   19.79    1.61
   4   0 -13   20.17    1.70
   4   0 -13   22.55    1.80
  -4   0  13   18.05    1.62
  -4   0  13   25.55    1.65
  -4   0  13   20.70    1.32
   4   0 -12   10.25    1.40
  -4   0  12   10.83    1.31
  -4   0  12   10.67    1.01
   4   0 -12   10.45    1.45
   4   0 -12   12.46    1.50
  -4   0  12   11.64    1.36
   4   0 -12   11.32    1.33
  -4   0  12   10.36    1.25
   4   0 -11    0.58    1.16
   4   0 -11    0.75    1.01
  -4   0  11    0.95    1.07
  -4   0  11    3.07    0.81
  -4   0  11    2.31    0.77
  -4   0  11    1.71    1.09
   4   0 -11    0.89    1.13
   4   0 -11    1.59    1.05
  -4   0  11    0.70    0.95
  -4   0  10  117.79    4.59
  -4   0  10  109.69    4.71
   4   0 -10  118.89    4.68
  -4   0  10  118.52    4.57
   4   0 -10  121.70    4.75
   4   0 -10  118.50    4.77
  -4   0  10  111.86    4.72
   4   0 -10  103.68    4.60
  -4   0  10  130.31    4.65
   4   0  -9    0.60    0.86
   4   0  -9    1.31    0.92
  -4   0   9    1.73    0.87
   4   0  -9    1.15    0.94
  -4   0   9    0.99    0.65
  -4   0   9    1.26    0.85
   4   0  -9    1.28    0.75
  -4   0   9    1.46    0.66
  -4   0   8   97.77    4.09
  -4   0   8  105.08    4.03
   4   0  -8  103.93    4.03
  -4   0   8  103.53    4.01
   4   0  -8  104.97    4.15
   4   0  -8   98.07    4.12
  -4   0   8  100.47    4.10
   4   0  -8  102.22    4.03
   4   0  -8  102.70    4.07
   4   0  -7    0.57    0.67
   4   0  -7    0.29    0.56
   4   0  -7   -0.02    0.71
  -4   0   7    0.74    0.66
   4   0  -7    0.60    0.75
  -4   0   7    1.76    0.58
   4   0  -7    1.14    0.71
  -4   0   7    0.52    0.58
  -4   0   7    0.73    0.67
   4   0  -7    0.72    0.54
  -4   0   6  224.14    8.53
   4   0  -6  225.84    8.51
  -4   0   6  226.01    8.53
  -4   0   6  217.89    8.51
   4   0  -6  237.22    8.57
   4   0  -6  224.01    8.57
  -4   0   6  224.14    8.54
   4   0  -6  220.74    8.49
   4   0  -6  218.93    8.51
  -4   0   5   29.92    1.30
   4   0  -5   29.12    1.29
  -4   0   5   28.81    1.32
  -4   0   5   29.25    1.32
   4   0  -5   28.71    1.40
   4   0  -5   32.25    1.39
  -4   0   5   31.68    1.33
   4   0  -5   29.14    1.27
   4   0  -5   28.74    1.31
   4   0  -4  345.50   12.69
  -4   0   4  336.90   12.71
  -4   0   4  344.34   12.70
   4   0  -4  335.82   12.71
  -4   0   4  329.46   12.73
  -4   0   4  339.33   12.75
  -4   0   4  313.20   12.71
   4   0  -4  345.20   12.75
  -4   0   4  336.34   12.71
   4   0  -4  341.98   12.75
   4   0  -3  268.27   10.02
  -4   0   3  263.86   10.04
  -4   0   3  270.42   10.04
   4   0  -3  264.36   10.05
  -4   0   3  250.79   10.06
  -4   0   3  267.86   10.09
   4   0  -3  265.40   10.10
   4   0  -3  264.72   10.02
   4   0  -3  267.95   10.07
   4   0  -3  272.31   10.07
   4   0  -2    1.70    0.48
  -4   0   2    2.26    0.41
   4   0  -2    1.15    0.33
  -4   0   2    1.00    0.49
   4   0  -2    1.81    0.42
  -4   0   2    1.79    0.36
   4   0  -2    1.92    0.41
   4   0  -2    0.95    0.41
   4   0  -2    1.79    0.35
   4   0  -1    4.45    0.55
  -4   0   1    4.71    0.54
   4   0  -1    4.59    0.40
   4   0  -1    5.45    0.51
  -4   0   1    4.33    0.38
   4   0  -1    4.10    0.45
   4   0  -1    4.93    0.40
  -4   0   1    5.06    0.57
   4   0  -1    5.85    0.50
   4   0   0   30.84    1.28
  -4   0   0   31.75    1.41
   4   0   0   31.75    1.41
  -4   0   0   29.41    1.42
   4   0   0   31.94    1.34
   4   0   0   31.31    1.29
   4   0   0   32.11    1.35
  -4   0   0   31.03    1.36
   4   0   0   34.06    1.40
   4   0   1  146.05    5.34
  -4   0  -1  139.85    5.35
  -4   0  -1  136.20    5.35
  -4   0  -1  139.11    5.40
   4   0   1  134.83    5.29
   4   0   1  139.15    5.41
   4   0   1  144.47    5.33
   4   0   1  136.30    5.29
   4   0   1  142.03    5.36
  -4   0  -2   67.02    2.73
  -4   0  -2   65.97    2.64
   4   0   2   62.99    2.74
   4   0   2   63.22    2.57
   4   0   2   68.04    2.61
  -4   0  -2   65.71    2.63
   4   0   2   68.81    2.61
   4   0   2   65.06    2.55
   4   0   2   66.23    2.64
   4   0   3  150.56    5.72
  -4   0  -3  147.35    5.83
  -4   0  -3  143.62    5.71
  -4   0  -3  149.17    5.71
  -4   0  -3  152.80    5.68
  -4   0  -3  143.44    5.67
   4   0   3  157.05    5.71
   4   0   3  145.50    5.64
  -4   0  -3  149.75    5.78
  -4   0  -4    9.13    0.87
   4   0   4    7.56    0.73
  -4   0  -4    6.63    0.70
  -4   0  -4    6.44    1.03
  -4   0  -4    6.22    0.59
  -4   0  -4    5.98    0.73
  -4   0  -4    7.56    0.65
  -4   0  -4    6.90    0.63
   4   0   4    6.00    0.56
   4   0   5   73.64    2.92
  -4   0  -5   65.03    3.13
  -4   0  -5   73.53    2.83
  -4   0  -5   77.16    2.85
  -4   0  -5   66.86    2.88
  -4   0  -5   74.31    2.88
  -4   0  -5   70.48    2.91
   4   0   5   66.26    2.80
  -4   0  -5   69.21    2.96
   4   0   6   29.26    1.35
  -4   0  -6   29.74    1.93
  -4   0  -6   34.82    1.45
  -4   0  -6   37.05    1.57
  -4   0  -6   34.33    1.55
  -4   0  -6   33.78    1.46
   4   0   6   28.31    1.44
  -4   0  -6   30.21    1.55
  -4   0  -6   29.72    1.64
   4   0   7   22.68    1.15
  -4   0  -7   29.01    1.27
  -4   0  -7   19.95    1.89
  -4   0  -7   24.35    1.39
  -4   0  -7   28.97    1.43
  -4   0  -7   27.31    1.26
   4   0   7   27.83    1.84
   4   0   7   22.36    1.27
  -4   0  -7   23.80    1.45
  -4   0  -7   23.14    1.52
  -4   0  -8  106.33    4.80
   4   0   8  106.30    4.61
  -4   0  -8  113.03    4.79
  -4   0  -8  135.53    4.73
  -4   0  -8  131.40    4.71
   4   0   8  138.30    5.13
   4   0   8  113.66    4.70
  -4   0  -8  104.60    4.87
  -4   0  -9   10.78    1.42
   4   0   9   12.20    0.91
   4   0   9   12.81    1.07
  -4   0  -9   14.97    1.06
  -4   0  -9   11.55    1.28
  -4   0  -9   14.58    1.03
  -4   0  -9    9.74    1.17
  -4   0  -9   18.14    1.32
   4   0   9   17.04    1.61
   4   0  10    8.04    1.04
  -4   0 -10    8.55    0.96
  -4   0 -10    6.18    1.24
  -4   0 -10    7.24    1.03
   4   0  10    8.66    1.44
   4   0  11    2.59    0.97
  -4   0 -11    3.33    0.96
  -4   0 -11    2.16    1.26
   4   0  11    2.01    1.48
   4   0  12    0.85    1.14
  -4   0 -12    0.23    1.38
  -4   0 -12    0.80    1.08
   4   0  12   -1.93    1.57
  -4   0 -13   -0.53    1.50
   4   0  13    0.77    1.04
  -4   0 -13    2.39    1.31
   4   1 -17    1.19    1.52
   4   1 -16    1.21    1.53
   4   1 -16    4.66    1.78
  -4  -1  15    6.82    1.09
  -4  -1  15    5.46    1.42
   4   1 -15    7.04    1.39
   4   1 -15    6.10    1.64
  -4  -1  15    5.41    1.38
   4   1 -14   -0.15    1.46
  -4  -1  14    0.86    1.30
  -4  -1  14    0.66    0.97
   4   1 -14    0.92    1.56
  -4  -1  14   -1.33    1.26
  -4  -1  14    0.60    1.14
   4   1 -13    5.80    1.34
  -4  -1  13    6.95    1.29
  -4  -1  13    6.59    0.96
  -4  -1  13    4.37    1.32
   4   1 -13    6.67    1.50
  -4  -1  13    7.46    1.16
   4   1 -12   13.05    1.48
  -4  -1  12   16.33    1.45
  -4  -1  12   13.00    1.09
   4   1 -12   12.40    1.47
  -4  -1  12   15.01    1.39
   4   1 -12   13.64    1.44
  -4  -1  12   16.33    1.27
   4   1 -11    7.46    1.17
   4   1 -11    6.17    1.19
   4   1 -11    8.52    1.16
   4   1 -11    9.84    1.24
  -4  -1  11    7.60    1.12
  -4  -1  11    7.03    0.92
  -4  -1  11    7.88    0.90
   4   1 -11    8.03    1.20
  -4  -1  11    5.70    1.13
   4   1 -11    5.75    1.11
  -4  -1  11    6.72    0.94
  -4  -1  10   29.40    1.66
   4   1 -10   32.65    1.76
  -4  -1  10   30.50    1.48
   4   1 -10   32.24    1.68
  -4  -1  10   31.17    1.47
   4   1 -10   29.31    1.69
   4   1 -10   33.95    1.74
  -4  -1  10   30.58    1.70
   4   1 -10   28.15    1.61
   4   1 -10   30.40    1.69
  -4  -1   9   56.20    2.57
  -4  -1   9   60.19    2.45
   4   1  -9   64.27    2.62
  -4  -1   9   60.97    2.46
   4   1  -9   57.06    2.44
   4   1  -9   61.98    2.62
   4   1  -9   66.50    2.63
  -4  -1   9   58.75    2.57
   4   1  -9   50.91    2.45
   4   1  -9   59.77    2.57
   4   1  -8    1.70    0.88
   4   1  -8    2.10    0.92
   4   1  -8    1.38    0.58
  -4  -1   8    2.57    0.74
   4   1  -8    3.15    0.87
  -4  -1   8    1.76    0.64
   4   1  -8    2.02    0.82
  -4  -1   8    2.65    0.65
  -4  -1   8    3.03    0.76
   4   1  -8    2.18    0.58
  -4  -1   7   19.46    1.10
   4   1  -7   20.34    1.23
   4   1  -7   19.19    0.97
  -4  -1   7   18.97    1.03
  -4  -1   7   20.18    1.03
   4   1  -7   18.56    1.17
  -4  -1   7   20.01    1.08
   4   1  -7   19.92    0.97
   4   1  -7   18.89    1.15
  -4  -1   6   61.09    2.48
   4   1  -6   58.84    2.42
  -4  -1   6   60.31    2.50
  -4  -1   6   63.56    2.48
   4   1  -6   65.85    2.58
   4   1  -6   62.67    2.55
  -4  -1   6   61.88    2.49
   4   1  -6   58.74    2.40
   4   1  -6   61.82    2.51
  -4  -1   5    0.59    0.54
   4   1  -5    1.15    0.56
  -4  -1   5    1.14    0.47
   4   1  -5    1.07    0.40
   4   1  -5    0.95    0.60
  -4  -1   5   -0.02    0.59
   4   1  -5    1.36    0.60
  -4  -1   5    0.50    0.53
  -4  -1   5    1.01    0.50
   4   1  -5    0.52    0.57
   4   1  -5    0.73    0.37
  -4  -1   4   88.21    3.38
  -4  -1   4   87.07    3.35
   4   1  -4   86.63    3.37
  -4  -1   4   86.03    3.44
  -4  -1   4   85.04    3.42
  -4  -1   4   86.96    3.44
   4   1  -4   91.36    3.44
  -4  -1   4   87.88    3.37
   4   1  -4   85.04    3.38
   4   1  -4   88.08    3.45
   4   1  -3    2.80    0.41
  -4  -1   3    3.51    0.41
  -4  -1   3    2.23    0.51
   4   1  -3    2.20    0.48
   4   1  -3    3.12    0.40
  -4  -1   3    3.32    0.37
  -4  -1   3    2.36    0.56
  -4  -1   3    2.91    0.54
   4   1  -3    3.06    0.50
   4   1  -2  187.31    7.22
   4   1  -2  198.11    7.30
  -4  -1   2  192.34    7.26
  -4  -1   2  195.99    7.23
   4   1  -2  195.46    7.30
   4   1  -2  184.90    7.27
  -4  -1   2  186.84    7.29
  -4  -1   2  188.35    7.31
  -4  -1   2  196.39    7.33
   4   1  -1  505.50   20.31
   4   1  -1  563.71   20.39
  -4  -1   1  547.73   20.38
   4   1  -1  552.11   20.39
   4   1  -1  550.07   20.39
  -4  -1   1  550.05   20.32
  -4  -1   1  550.88   20.43
   4   1  -1  554.86   20.31
   4   1  -1  587.98   20.42
  -4  -1   1  501.42   20.39
   4   1   0   79.34    2.97
  -4  -1   0   82.12    3.10
   4   1   0   83.89    3.11
   4   1   0   83.14    3.08
   4   1   0   81.25    2.97
   4   1   0   83.81    3.08
  -4  -1   0   82.52    3.13
   4   1   0   79.84    3.11
   4   1   1  191.68    6.96
   4   1   1  178.56    6.87
  -4  -1  -1  181.16    6.99
   4   1   1  191.33    7.02
   4   1   1  183.25    6.95
   4   1   1  177.98    6.86
  -4  -1  -1  179.62    7.00
   4   1   1  192.86    6.99
   4   1   2  328.63   11.83
   4   1   2  327.16   11.80
  -4  -1  -2  305.07   11.86
   4   1   2  307.94   11.72
  -4  -1  -2  310.09   11.81
   4   1   2  326.80   11.80
   4   1   2  301.19   11.71
   4   1   3  286.84   10.03
  -4  -1  -3  262.17   10.09
  -4  -1  -3  266.42   10.00
  -4  -1  -3  264.53    9.96
   4   1   3  283.46   10.00
   4   1   3  249.71    9.89
  -4  -1  -3  251.47   10.00
   4   1   4  191.88    6.62
  -4  -1  -4  171.11    6.72
  -4  -1  -4  172.45    6.52
  -4  -1  -4  174.56    6.57
  -4  -1  -4  181.35    6.49
  -4  -1  -4  173.97    6.52
  -4  -1  -4  167.62    6.57
   4   1   4  152.23    6.46
  -4  -1  -4  165.07    6.61
  -4  -1  -5   15.04    1.17
   4   1   5   15.82    1.07
   4   1   5   14.63    0.72
  -4  -1  -5   16.13    0.90
  -4  -1  -5   15.66    1.41
  -4  -1  -5   15.70    1.08
  -4  -1  -5   18.03    0.92
  -4  -1  -5   17.60    0.95
  -4  -1  -5   15.19    1.02
   4   1   5   13.67    0.86
   4   1   6   46.47    1.95
  -4  -1  -6   50.67    2.60
  -4  -1  -6   53.70    2.12
  -4  -1  -6   47.80    2.19
  -4  -1  -6   45.95    2.21
   4   1   6   44.18    2.06
  -4  -1  -6   53.26    2.10
  -4  -1  -6   50.39    2.33
  -4  -1  -7   15.12    1.25
  -4  -1  -7   14.18    1.33
   4   1   7   14.36    0.80
  -4  -1  -7   16.48    1.05
  -4  -1  -7   16.68    1.75
  -4  -1  -7   20.45    1.15
  -4  -1  -7   17.43    1.21
  -4  -1  -7   17.54    1.03
   4   1   7   15.03    0.98
  -4  -1  -8    2.43    1.22
  -4  -1  -8    3.26    0.84
   4   1   8    2.67    0.85
  -4  -1  -8    3.60    1.02
  -4  -1  -8    3.45    0.83
  -4  -1  -8    3.22    1.01
  -4  -1  -8    4.57    0.97
  -4  -1  -9    7.58    0.98
   4   1   9    6.78    0.93
  -4  -1  -9    6.40    1.20
  -4  -1  -9    7.93    1.03
   4   1  10    2.39    0.90
  -4  -1 -10    2.41    1.25
  -4  -1 -10    3.80    1.01
   4   1  10    1.77    1.40
   4   1  11    6.76    1.00
  -4  -1 -11    8.21    1.40
   4   1  11    6.27    1.65
  -4  -1 -11    8.74    1.23
   4   1  12    1.80    1.04
  -4  -1 -12    1.53    1.46
  -4  -1 -12    1.04    1.15
   4   1  12    2.86    1.59
  -4  -2  16    0.48    1.14
   4   2 -16    2.54    1.81
   4   2 -16   -0.11    1.39
  -4  -2  15   -0.19    1.04
  -4  -2  15    1.07    1.33
   4   2 -15    1.00    1.34
  -4  -2  15    1.04    1.38
   4   2 -15   -0.67    1.56
   4   2 -14   14.08    1.77
  -4  -2  14   12.73    1.44
  -4  -2  14   13.11    1.15
   4   2 -14    9.82    1.45
  -4  -2  13   49.67    2.47
   4   2 -13   50.61    2.64
   4   2 -13   53.23    2.70
  -4  -2  13   54.05    2.38
  -4  -2  13   50.77    2.32
  -4  -2  12   11.69    1.30
  -4  -2  12   10.47    1.02
   4   2 -12    9.91    1.41
   4   2 -12   10.91    1.36
   4   2 -12   11.31    1.43
  -4  -2  12   12.71    1.05
   4   2 -11    0.16    1.08
   4   2 -11   -0.10    1.12
  -4  -2  11    0.97    1.07
   4   2 -11    0.82    1.16
  -4  -2  11    0.81    0.75
   4   2 -11   -0.29    1.09
   4   2 -11   -1.21    1.10
  -4  -2  11    0.62    0.79
  -4  -2  11    1.60    0.73
   4   2 -10    2.14    1.06
   4   2 -10    2.17    1.08
  -4  -2  10    0.51    0.97
  -4  -2  10    1.01    0.75
  -4  -2  10    1.14    0.73
   4   2 -10    0.07    1.05
   4   2 -10    0.76    0.99
   4   2 -10   -0.42    0.96
   4   2  -9   17.21    1.24
   4   2  -9   16.42    1.24
   4   2  -9   12.70    0.83
  -4  -2   9   13.46    1.10
   4   2  -9   13.98    1.13
   4   2  -9   16.01    1.11
   4   2  -9   12.53    1.13
  -4  -2   9   12.98    0.97
  -4  -2   9   12.24    0.94
   4   2  -9   12.43    1.01
   4   2  -8    9.92    1.02
   4   2  -8    8.77    0.94
  -4  -2   8    8.72    0.95
   4   2  -8    7.49    0.59
  -4  -2   8    8.42    0.76
   4   2  -8    6.64    0.88
   4   2  -8    6.86    0.87
  -4  -2   8    9.32    0.77
   4   2  -8    6.93    0.69
  -4  -2   7   56.34    2.23
  -4  -2   7   53.83    2.21
   4   2  -7   51.11    2.09
  -4  -2   7   54.99    2.21
   4   2  -7   54.44    2.28
   4   2  -7   58.98    2.33
   4   2  -7   55.54    2.29
  -4  -2   6   14.52    0.85
   4   2  -6   14.30    1.01
   4   2  -6   13.19    1.04
   4   2  -6   13.75    0.66
  -4  -2   6   12.15    0.85
  -4  -2   6   13.02    0.84
   4   2  -6   12.40    0.91
  -4  -2   6   12.87    0.83
   4   2  -6   12.22    0.66
  -4  -2   5  355.23   13.25
   4   2  -5  377.72   13.34
   4   2  -5  356.51   13.21
  -4  -2   5  343.95   13.29
  -4  -2   5  343.69   13.29
  -4  -2   5  347.24   13.28
  -4  -2   5  362.16   13.26
   4   2  -5  333.16   13.19
   4   2  -5  370.52   13.29
   4   2  -4   11.15    0.80
   4   2  -4    9.84    0.73
  -4  -2   4   12.06    0.64
   4   2  -4   10.69    0.90
  -4  -2   4   11.58    0.55
   4   2  -4    9.91    0.58
  -4  -2   4   11.26    0.78
  -4  -2   4   11.18    0.79
  -4  -2   4   11.20    0.77
   4   2  -4   11.83    0.79
  -4  -2   4   11.40    0.65
   4   2  -3  245.68    8.85
  -4  -2   3  237.99    8.75
  -4  -2   3  229.15    8.75
   4   2  -3  228.55    8.83
   4   2  -3  222.12    8.83
   4   2  -3  230.85    8.76
  -4  -2   3  228.39    8.85
  -4  -2   3  238.00    8.83
  -4  -2   3  232.76    8.75
  -4  -2   3  238.21    8.84
   4   2  -3  225.37    8.77
   4   2  -3  228.31    8.85
  -4  -2   2   48.83    1.90
  -4  -2   2   49.01    1.95
   4   2  -2   51.46    1.99
   4   2  -2   48.64    2.03
  -4  -2   2   48.35    2.05
  -4  -2   2   49.24    2.03
   4   2  -2   52.76    2.04
   4   2  -2   46.19    1.92
  -4  -2   2   48.31    2.04
  -4  -2   1  139.07    5.45
  -4  -2   1  141.97    5.43
  -4  -2   1  142.63    5.40
   4   2  -1  145.28    5.43
  -4  -2   1  143.60    5.30
   4   2  -1  144.82    5.43
   4   2  -1  135.19    5.31
   4   2   0   15.89    0.83
  -4  -2   0   13.51    0.83
  -4  -2   0   15.50    0.89
  -4  -2   0   13.64    0.84
   4   2   0   14.16    0.83
  -4  -2   0   13.48    0.91
   4   2   0   15.38    0.90
   4   2   1   18.93    1.01
   4   2   1   18.76    0.97
  -4  -2  -1   16.12    0.99
  -4  -2  -1   17.28    1.06
   4   2   1   18.83    0.97
  -4  -2  -1   17.15    1.06
   4   2   2   30.63    1.50
  -4  -2  -2   32.14    1.58
   4   2   2   33.74    1.47
   4   2   2   31.62    1.47
  -4  -2  -2   31.23    1.55
  -4  -2  -3   -0.23    0.76
   4   2   3    0.58    0.74
   4   2   3    0.09    0.33
   4   2   3    0.25    0.28
   4   2   3    0.65    0.64
   4   2   4   15.87    1.05
  -4  -2  -4   13.02    0.89
  -4  -2  -4   15.37    1.36
  -4  -2  -4   15.19    1.01
  -4  -2  -4   15.83    0.74
  -4  -2  -4   15.51    0.93
  -4  -2  -4   14.46    1.02
   4   2   4   16.04    1.42
   4   2   4   14.30    0.75
  -4  -2  -5   23.28    1.17
  -4  -2  -5   24.37    1.69
  -4  -2  -5   22.35    1.30
  -4  -2  -5   25.15    1.07
  -4  -2  -5   24.96    1.20
  -4  -2  -5   18.92    1.30
   4   2   5   24.84    1.62
   4   2   5   20.67    1.07
  -4  -2  -5   19.23    1.39
  -4  -2  -6   15.19    1.37
  -4  -2  -6   19.77    1.09
  -4  -2  -6   17.28    1.67
  -4  -2  -6   18.26    1.23
  -4  -2  -6   20.61    1.04
   4   2   6   19.84    1.56
  -4  -2  -6   20.23    1.28
   4   2   6   18.30    1.00
  -4  -2  -6   18.55    1.10
  -4  -2  -7    0.03    1.01
  -4  -2  -7   -0.16    1.12
  -4  -2  -7    0.27    0.77
   4   2   7   -0.44    0.64
  -4  -2  -7    0.39    0.74
  -4  -2  -7   -0.90    1.58
  -4  -2  -7    0.18    0.90
   4   2   7    0.80    1.19
  -4  -2  -8    8.11    1.16
  -4  -2  -8    9.21    0.97
   4   2   8    6.31    0.85
  -4  -2  -8    6.29    0.95
   4   2   8    7.74    1.37
  -4  -2  -9    6.51    1.19
   4   2   9    5.42    0.91
  -4  -2  -9    6.78    1.02
  -4  -2 -10    7.24    1.36
   4   2  10    6.18    0.95
  -4  -2 -10    8.83    1.17
  -4  -2 -11    3.45    1.45
   4   2  11    2.76    1.01
  -4  -2 -11    3.10    1.15
  -4  -2 -12   -0.10    1.20
  -4  -3  16    0.83    1.03
   4   3 -16    3.50    1.94
  -4  -3  15   -0.16    1.35
  -4  -3  15    0.57    1.02
   4   3 -15    0.77    1.40
   4   3 -15    1.92    1.82
  -4  -3  14   -1.04    1.27
  -4  -3  14    0.83    0.99
   4   3 -14   -0.62    1.51
   4   3 -14   -0.22    1.24
  -4  -3  13   -0.04    1.25
  -4  -3  13    2.66    0.96
   4   3 -13    1.60    1.16
   4   3 -13    2.95    1.53
  -4  -3  12    5.69    1.20
  -4  -3  12    5.76    0.89
   4   3 -12    1.74    1.07
   4   3 -12    5.41    1.36
   4   3 -12    5.58    1.19
   4   3 -12    3.63    1.35
  -4  -3  11    1.54    1.12
   4   3 -11    0.69    0.66
   4   3 -11    0.98    0.91
  -4  -3  11    0.98    0.82
   4   3 -11    0.91    1.20
   4   3 -11    0.38    1.06
   4   3 -11   -0.78    1.16
  -4  -3  11    0.67    0.83
   4   3 -11   -0.49    1.26
  -4  -3  10   85.08    3.51
   4   3 -10   92.84    3.63
  -4  -3  10   83.50    3.40
   4   3 -10   77.64    3.30
  -4  -3  10   81.01    3.40
   4   3 -10   83.43    3.50
   4   3 -10   85.17    3.57
   4   3 -10   87.02    3.55
   4   3 -10   93.67    3.61
  -4  -3   9    7.81    1.04
   4   3  -9    8.53    0.62
  -4  -3   9   10.32    0.90
  -4  -3   9    9.93    0.90
   4   3  -9    8.14    1.01
   4   3  -9    9.66    1.01
   4   3  -9    9.06    1.06
   4   3  -9    8.31    1.19
  -4  -3   8   32.51    1.58
   4   3  -8   29.86    1.28
  -4  -3   8   30.51    1.49
  -4  -3   8   30.69    1.48
   4   3  -8   32.36    1.61
   4   3  -8   32.01    1.56
   4   3  -8   33.09    1.68
   4   3  -8   31.50    1.62
  -4  -3   7   56.34    2.30
   4   3  -7   53.08    2.08
  -4  -3   7   51.82    2.26
   4   3  -7   52.40    2.34
   4   3  -7   56.69    2.39
  -4  -3   7   51.04    2.26
   4   3  -7   55.48    2.35
   4   3  -6    5.60    0.83
   4   3  -6    5.44    0.74
   4   3  -6    7.24    1.03
  -4  -3   6    5.85    0.70
   4   3  -6    6.37    0.80
  -4  -3   6    6.01    0.69
  -4  -3   6    5.88    0.71
  -4  -3   6    4.96    0.68
   4   3  -6    6.61    0.78
  -4  -3   5   38.50    1.63
   4   3  -5   40.87    1.84
   4   3  -5   39.87    1.72
  -4  -3   5   34.69    1.69
  -4  -3   5   39.49    1.69
  -4  -3   5   37.30    1.70
   4   3  -5   41.35    1.71
   4   3  -5   36.24    1.72
  -4  -3   4   35.83    1.52
   4   3  -4   36.60    1.75
  -4  -3   4   36.73    1.67
  -4  -3   4   36.10    1.65
  -4  -3   4   38.45    1.67
  -4  -3   4   38.27    1.54
   4   3  -4   39.19    1.60
   4   3  -4   37.58    1.69
   4   3  -3    6.30    0.69
  -4  -3   3    6.29    0.45
   4   3  -3    7.27    0.87
  -4  -3   3    7.06    0.42
  -4  -3   3    7.06    0.73
  -4  -3   3    6.72    0.73
  -4  -3   3    7.45    0.71
  -4  -3   3    7.24    0.46
   4   3  -3    8.02    0.52
   4   3  -2   25.10    1.31
  -4  -3   2   27.88    1.10
  -4  -3   2   27.05    1.16
  -4  -3   2   29.36    1.30
   4   3  -2   27.18    1.29
   4   3  -2   27.87    1.09
  -4  -3   2   26.76    1.30
   4   3  -2   27.03    1.32
  -4  -3   1   37.51    1.58
   4   3  -1   32.85    1.51
  -4  -3   1   34.89    1.47
  -4  -3   1   33.67    1.54
   4   3  -1   33.52    1.55
   4   3  -1   34.30    1.55
  -4  -3   1   36.79    1.61
   4   3   0   36.33    1.64
   4   3   0   40.96    1.75
  -4  -3   0   40.16    1.77
  -4  -3   0   37.64    1.72
   4   3   0   43.97    1.76
  -4  -3   0   39.78    1.77
  -4  -3   0   40.60    1.83
   4   3   1   44.39    1.93
  -4  -3  -1   48.07    2.12
  -4  -3  -1   50.84    2.13
   4   3   1   54.46    2.12
  -4  -3  -1   52.04    2.12
   4   3   1   55.81    2.12
   4   3   1   61.71    2.38
  -4  -3  -1   53.36    2.18
  -4  -3  -2   37.34    1.78
   4   3   2   42.05    1.86
  -4  -3  -2   39.69    1.90
  -4  -3  -2   38.03    1.80
   4   3   2   42.19    1.79
   4   3   2   45.99    2.07
  -4  -3  -2   39.70    1.84
   4   3   3   13.25    1.05
  -4  -3  -3   13.13    1.06
  -4  -3  -3   11.20    1.01
  -4  -3  -3   14.27    1.24
   4   3   3   15.03    1.00
   4   3   3   15.87    1.31
   4   3   4  142.61    5.34
  -4  -3  -4  133.90    5.75
   4   3   4  142.16    5.34
   4   3   4  153.12    5.73
  -4  -3  -4  128.26    5.60
   4   3   5   48.67    1.95
  -4  -3  -5   50.46    2.56
  -4  -3  -5   41.28    2.19
  -4  -3  -5   50.12    1.94
   4   3   5   48.53    2.46
   4   3   5   50.23    1.95
  -4  -3  -6    7.99    0.88
   4   3   6    7.88    0.68
  -4  -3  -6    8.88    0.93
  -4  -3  -6    7.81    1.61
  -4  -3  -6    8.16    1.02
   4   3   6    8.70    0.71
  -4  -3  -6    7.62    1.07
   4   3   6    8.36    1.33
   4   3   7   29.33    1.42
  -4  -3  -7   31.27    1.55
   4   3   7   29.59    1.44
  -4  -3  -7   34.47    1.57
   4   3   7   31.79    2.04
  -4  -3  -7   29.42    1.74
  -4  -3  -8    3.92    1.17
   4   3   8    2.90    0.82
  -4  -3  -8    1.39    0.93
   4   3   8    1.71    0.79
   4   3   8    4.40    1.41
  -4  -3  -9    5.36    1.22
   4   3   9    4.20    0.86
   4   3   9    3.63    0.87
  -4  -3  -9    5.06    1.09
   4   3   9    6.23    1.63
  -4  -3 -10    2.10    1.29
  -4  -3 -10    1.31    1.14
   4   3  10    0.76    1.59
  -4  -3 -11    0.57    1.13
   4   3  11   -0.65    1.81
   4   4 -16    1.17    1.95
  -4  -4  15    3.00    1.32
   4   4 -15    4.77    1.72
  -4  -4  14   25.17    1.75
   4   4 -14   24.00    1.75
   4   4 -14   28.07    2.05
  -4  -4  14   25.50    1.56
  -4  -4  13    6.28    1.37
   4   4 -13    5.27    0.85
  -4  -4  13    7.22    1.01
   4   4 -13    7.19    1.52
   4   4 -13    7.41    1.22
  -4  -4  12    3.05    1.20
   4   4 -12    2.72    0.69
   4   4 -12    4.38    1.31
  -4  -4  12    2.76    0.89
   4   4 -12    4.82    1.10
   4   4 -12    3.32    1.21
  -4  -4  11    2.20    1.08
   4   4 -11    0.48    0.55
  -4  -4  11   -0.31    0.81
   4   4 -11   -0.33    0.75
  -4  -4  11   -0.61    0.77
   4   4 -11    1.34    1.16
   4   4 -11   -0.03    1.01
   4   4 -11   -0.29    1.09
  -4  -4  10    2.57    1.09
   4   4 -10    1.62    0.43
   4   4 -10    1.91    0.53
   4   4 -10    1.72    1.12
  -4  -4  10    3.01    0.82
  -4  -4  10    1.88    0.85
   4   4 -10    2.81    1.11
   4   4 -10    3.33    1.22
   4   4  -9    0.38    0.90
   4   4  -9   -0.29    1.30
  -4  -4   9   -0.57    0.98
  -4  -4   9    0.23    0.71
   4   4  -9   -0.72    0.95
  -4  -4   9   -0.43    0.74
   4   4  -9    0.26    1.09
   4   4  -8    1.21    0.78
  -4  -4   8    0.21    0.72
   4   4  -8   -0.28    1.18
   4   4  -8    0.29    0.87
  -4  -4   8    0.02    0.88
   4   4  -8    0.97    0.91
  -4  -4   8   -0.02    0.71
   4   4  -8    1.42    0.87
   4   4  -7    8.03    0.81
  -4  -4   7    7.47    0.86
   4   4  -7    9.77    1.22
  -4  -4   7    9.62    0.84
   4   4  -7    6.98    0.88
  -4  -4   7    9.13    0.85
   4   4  -7    9.00    0.92
   4   4  -7    7.70    0.89
  -4  -4   6    1.50    0.65
   4   4  -6    0.02    0.72
   4   4  -6   -0.87    1.04
  -4  -4   6    0.15    0.65
  -4  -4   6    0.41    0.72
   4   4  -6    0.30    0.72
  -4  -4   6    0.25    0.67
   4   4  -6    1.26    0.70
   4   4  -6    1.16    0.75
  -4  -4   5  188.80    7.18
  -4  -4   5  192.28    7.12
   4   4  -5  188.89    7.26
   4   4  -5  192.91    7.20
   4   4  -5  189.19    7.20
  -4  -4   5  181.31    7.17
  -4  -4   5  185.08    7.19
   4   4  -5  180.65    7.13
   4   4  -5  183.12    7.18
  -4  -4   4   30.61    1.27
   4   4  -4   28.66    1.53
  -4  -4   4   27.28    1.44
   4   4  -4   31.87    1.46
  -4  -4   4   30.49    1.44
   4   4  -4   32.25    1.45
   4   4  -4   29.27    1.29
  -4  -4   4   29.68    1.46
   4   4  -4   30.19    1.45
  -4  -4   3  211.14    7.69
   4   4  -3  211.59    7.83
  -4  -4   3  204.94    7.66
   4   4  -3  220.65    7.82
  -4  -4   3  210.88    7.83
   4   4  -3  202.74    7.69
  -4  -4   3  212.28    7.69
   4   4  -3  182.42    7.67
  -4  -4   3  207.01    7.83
  -4  -4   3  209.66    7.82
   4   4  -3  207.04    7.81
   4   4  -2   10.43    0.83
  -4  -4   2   11.44    0.88
  -4  -4   2   12.55    0.51
  -4  -4   2   11.44    0.63
   4   4  -2   11.74    0.52
   4   4  -2   11.95    0.70
   4   4  -2   10.38    0.87
  -4  -4   2   10.12    0.84
   4   4  -2   11.93    0.86
  -4  -4   1   12.00    0.93
   4   4  -1   10.88    0.83
   4   4  -1   11.11    0.71
  -4  -4   1   10.90    0.70
  -4  -4   1   11.78    0.85
  -4  -4   1    9.66    0.88
   4   4  -1    9.73    0.82
   4   4   0   77.50    2.99
  -4  -4   0   73.96    2.97
  -4  -4   0   71.11    2.92
  -4  -4   0   71.68    2.96
   4   4   0   69.45    3.01
  -4  -4   0   72.55    3.01
  -4  -4  -1    8.71    0.99
   4   4   1    8.70    0.85
  -4  -4  -1    9.80    0.96
  -4  -4  -1   11.01    0.87
   4   4   1    9.94    0.82
   4   4   1   10.49    1.08
  -4  -4  -1    9.78    0.90
  -4  -4  -2   50.38    2.29
  -4  -4  -2   50.23    2.20
  -4  -4  -2   47.93    2.16
  -4  -4  -2   49.34    2.12
   4   4   2   52.08    2.17
   4   4   2   52.67    2.35
  -4  -4  -2   46.85    2.24
  -4  -4  -3    2.38    0.93
  -4  -4  -3    1.69    0.81
  -4  -4  -3    2.56    1.00
  -4  -4  -3    2.16    0.76
  -4  -4  -3    1.82    0.67
   4   4   3    1.22    1.21
  -4  -4  -4    2.17    0.73
  -4  -4  -4    2.87    1.04
  -4  -4  -4    0.30    0.85
  -4  -4  -4    3.77    1.19
  -4  -4  -4    1.32    0.81
   4   4   4    2.32    1.29
  -4  -4  -4    1.41    0.72
  -4  -4  -5    3.53    1.36
   4   4   5    2.90    1.42
   4   4   6    3.93    0.52
  -4  -4  -6    4.27    1.52
   4   4   6    5.06    1.45
   4   4   7   19.46    1.04
   4   4   7   19.88    1.83
   4   4   8    1.54    0.74
  -4  -4  -8   -0.98    0.98
   4   4   8    1.56    0.74
   4   4   8    3.69    1.69
  -4  -4  -8    1.78    1.21
  -4  -4  -9    0.91    1.06
   4   4   9   -2.98    1.71
  -4  -4  -9    0.04    1.30
  -4  -4 -10   -0.86    1.16
   4   4  10    1.14    1.74
   4   5 -16    0.43    1.74
   4   5 -15    0.06    1.62
  -4  -5  14    0.76    1.24
   4   5 -14    1.69    1.59
   4   5 -13    0.96    1.06
  -4  -5  13    0.79    1.27
  -4  -5  13   -0.89    0.95
   4   5 -13   -0.23    1.43
   4   5 -12    2.21    1.12
   4   5 -12    3.30    1.24
  -4  -5  12    3.33    1.20
  -4  -5  12    4.13    0.96
   4   5 -12    3.82    1.34
   4   5 -11    0.63    0.99
   4   5 -11    0.14    1.07
  -4  -5  11    1.14    1.16
  -4  -5  11    0.64    0.86
   4   5 -11    0.75    1.24
   4   5 -10   12.38    1.08
  -4  -5  10   13.41    1.29
   4   5 -10   13.10    1.19
   4   5 -10   11.23    1.31
  -4  -5  10   11.81    1.00
  -4  -5  10   11.95    1.01
   4   5 -10   12.90    1.41
   4   5  -9   38.31    1.92
  -4  -5   9   38.45    1.83
  -4  -5   9   39.06    1.86
   4   5  -9   39.94    1.98
   4   5  -9   38.70    2.14
   4   5  -9   41.09    1.89
  -4  -5   9   44.89    1.99
   4   5  -8    2.33    0.82
   4   5  -8    2.78    0.87
  -4  -5   8    1.87    0.95
  -4  -5   8    1.79    0.77
   4   5  -8    1.67    0.93
   4   5  -8    1.81    1.07
  -4  -5   8    1.66    0.77
  -4  -5   7   84.00    3.45
   4   5  -7   87.01    3.48
  -4  -5   7   82.44    3.39
  -4  -5   7   85.02    3.44
   4   5  -7   83.10    3.49
   4   5  -7   82.12    3.46
  -4  -5   7   89.80    3.45
   4   5  -7   86.67    3.43
   4   5  -6   10.41    0.92
  -4  -5   6   11.23    0.91
  -4  -5   6   12.10    0.98
  -4  -5   6   11.31    0.93
  -4  -5   6   12.27    0.90
   4   5  -6   10.77    0.98
   4   5  -6    9.92    0.86
   4   5  -6   11.01    0.97
   4   5  -5   34.19    1.59
  -4  -5   5   32.54    1.56
  -4  -5   5   34.26    1.59
   4   5  -5   33.38    1.63
  -4  -5   5   33.08    1.61
   4   5  -5   30.80    1.46
  -4  -5   5   34.52    1.49
   4   5  -5   32.37    1.56
  -4  -5   4    9.78    0.63
   4   5  -4    9.75    0.88
   4   5  -4    9.52    0.89
  -4  -5   4    9.00    0.87
  -4  -5   4    9.96    0.88
  -4  -5   4    9.84    0.88
   4   5  -4    9.08    0.86
   4   5  -4    8.80    0.63
   4   5  -3    3.83    0.73
  -4  -5   3    2.92    0.37
  -4  -5   3    4.27    0.76
  -4  -5   3    2.08    0.72
   4   5  -3    2.96    0.72
   4   5  -3    3.04    0.41
   4   5  -3    2.30    0.74
  -4  -5   3    2.73    0.77
   4   5  -2   43.85    1.83
  -4  -5   2   40.34    1.79
   4   5  -2   44.86    1.81
  -4  -5   2   38.05    1.49
  -4  -5   2   38.24    1.58
  -4  -5   2   39.28    1.49
   4   5  -2   43.98    1.79
  -4  -5   2   39.75    1.79
  -4  -5   2   38.94    1.49
   4   5  -2   38.57    1.58
  -4  -5   1    0.46    0.83
   4   5  -1    1.30    0.79
   4   5  -1    1.01    0.72
  -4  -5   1    1.15    0.54
  -4  -5   1    1.48    0.71
  -4  -5   1    1.12    0.78
   4   5  -1    0.75    0.72
   4   5  -1   -0.31    0.56
   4   5   0   26.87    1.43
  -4  -5   0   24.72    1.37
  -4  -5   0   25.22    1.27
  -4  -5   0   24.37    1.37
   4   5   0   24.94    1.35
   4   5   0   25.07    1.33
  -4  -5   0   25.90    1.43
  -4  -5  -1    1.15    0.91
   4   5   1   -0.21    0.87
  -4  -5  -1    0.41    0.83
  -4  -5  -1    1.19    0.76
  -4  -5  -1    1.90    0.71
   4   5   1    0.69    0.94
  -4  -5  -1    0.38    0.78
  -4  -5  -2    5.94    1.02
  -4  -5  -2    7.05    0.90
  -4  -5  -2    6.93    0.97
  -4  -5  -2    4.41    0.84
  -4  -5  -2    4.85    0.81
   4   5   2    5.23    1.16
  -4  -5  -3   -0.67    0.99
  -4  -5  -3    0.77    0.73
  -4  -5  -3   -0.48    0.86
  -4  -5  -3   -0.48    1.13
  -4  -5  -3    0.84    0.86
   4   5   3    0.96    1.20
  -4  -5  -3   -0.83    0.79
  -4  -5  -4    7.43    1.08
  -4  -5  -4   10.62    0.99
  -4  -5  -4    9.99    1.41
   4   5   4   10.49    1.52
  -4  -5  -4   10.75    1.01
  -4  -5  -5    0.15    0.85
  -4  -5  -5    2.10    1.36
  -4  -5  -5    0.34    0.98
   4   5   5    0.65    1.43
  -4  -5  -6    8.09    1.07
  -4  -5  -6   10.34    1.19
   4   5   6    9.92    1.73
   4   5   7   12.27    1.88
   4   5   8    1.15    1.72
   4   5   9   10.72    2.00
   4   6 -15   -1.61    1.69
  -4  -6  14   12.82    1.49
   4   6 -14   15.28    1.75
  -4  -6  13   -1.15    1.31
   4   6 -13    0.31    1.34
  -4  -6  12    4.89    1.38
   4   6 -12    2.40    1.24
  -4  -6  12    4.49    0.92
   4   6 -12    3.80    1.31
   4   6 -11    2.64    0.94
  -4  -6  11    2.29    1.16
  -4  -6  11    2.22    0.90
   4   6 -11    3.60    1.28
   4   6 -11    2.47    1.06
   4   6 -10    0.80    0.83
  -4  -6  10   -0.43    1.05
   4   6 -10   -0.64    1.00
   4   6 -10   -0.47    1.10
  -4  -6  10   -1.54    0.85
  -4  -6  10    0.29    0.84
   4   6 -10   -0.24    1.27
   4   6  -9    6.46    0.92
  -4  -6   9    7.54    1.16
   4   6  -9    6.81    1.13
  -4  -6   9    5.65    0.88
   4   6  -9    4.79    0.96
   4   6  -9    6.74    1.20
  -4  -6   9    7.04    0.97
  -4  -6   8    3.24    0.86
   4   6  -8    3.32    0.83
  -4  -6   8    2.31    0.99
  -4  -6   8    3.42    0.89
   4   6  -8    1.58    1.01
   4   6  -8    3.42    0.98
   4   6  -8    3.54    0.89
   4   6  -7    6.78    0.88
   4   6  -7    5.77    0.92
  -4  -6   7    5.98    0.90
  -4  -6   7    8.55    0.97
  -4  -6   7    6.69    0.81
   4   6  -7    7.69    1.00
  -4  -6   7    6.20    0.88
   4   6  -7    6.83    0.89
   4   6  -6    9.28    0.94
  -4  -6   6    8.47    0.91
   4   6  -6    9.21    0.91
  -4  -6   6    8.22    0.99
  -4  -6   6    7.93    0.94
  -4  -6   6    7.62    0.84
   4   6  -6    9.06    1.02
   4   6  -6    9.02    0.84
   4   6  -5    2.82    0.84
  -4  -6   5    2.08    0.68
  -4  -6   5    2.22    0.76
  -4  -6   5    1.98    0.84
   4   6  -5    1.87    0.85
  -4  -6   5    0.46    0.83
   4   6  -5    2.81    0.88
   4   6  -5    2.56    0.64
   4   6  -4   -0.38    0.77
  -4  -6   4   -0.58    0.51
  -4  -6   4    1.29    0.72
  -4  -6   4   -0.81    0.88
   4   6  -4   -0.73    0.83
  -4  -6   4   -0.36    0.87
   4   6  -4    0.67    0.54
   4   6  -4    0.38    0.83
  -4  -6   3    9.84    0.98
  -4  -6   3   10.79    0.59
   4   6  -3   11.99    1.02
   4   6  -3   12.00    0.98
  -4  -6   3   10.71    0.62
  -4  -6   3   11.08    0.97
   4   6  -3   11.98    0.99
  -4  -6   3    9.18    1.00
  -4  -6   2    0.05    0.79
   4   6  -2   -0.24    0.81
   4   6  -2   -0.14    0.89
  -4  -6   2    0.55    0.77
  -4  -6   2   -0.23    0.39
  -4  -6   2   -0.02    0.78
   4   6  -2   -2.09    0.83
   4   6  -2    0.25    0.37
   4   6  -1   26.89    1.45
  -4  -6   1   22.38    1.34
  -4  -6   1   21.15    1.11
  -4  -6   1   22.05    1.32
   4   6  -1   25.32    1.37
   4   6  -1   24.03    1.35
   4   6  -1   22.28    1.10
  -4  -6   1   22.79    1.41
  -4  -6   0    9.05    1.08
   4   6   0   11.63    1.14
  -4  -6   0    7.86    0.85
  -4  -6   0    8.98    0.96
  -4  -6   0    8.12    1.01
   4   6   0    9.78    1.02
   4   6   0    8.93    0.85
  -4  -6  -1    0.89    1.01
  -4  -6  -1    2.76    0.91
  -4  -6  -1    3.48    0.91
   4   6   1    3.48    0.92
  -4  -6  -1    2.64    0.81
  -4  -6  -1    2.30    0.89
   4   6   1    1.23    0.88
  -4  -6  -2    9.51    1.16
  -4  -6  -2    9.20    1.09
  -4  -6  -2    9.89    1.20
  -4  -6  -2    9.77    0.95
   4   6   2    8.43    1.18
  -4  -6  -3    0.92    0.96
  -4  -6  -3    0.03    0.84
  -4  -6  -3    0.61    1.16
   4   6   3    0.26    1.24
  -4  -6  -3    0.02    0.85
  -4  -6  -4    4.50    0.99
  -4  -6  -4    3.31    0.96
  -4  -6  -4    5.43    1.43
   4   6   4    2.32    1.42
  -4  -6  -5    7.08    1.14
  -4  -6  -5    5.02    0.96
   4   6   5    5.70    1.64
  -4  -6  -6    0.55    0.95
  -4  -6  -6    0.46    1.03
   4   6   6    0.53    1.49
  -4  -6  -7    2.11    1.04
  -4  -6  -7   -1.52    1.21
   4   6   7   -1.17    1.66
  -4  -6  -8    0.23    1.10
   4   6   8    0.52    1.85
   4   6   9    2.28    1.84
   4   7 -14   -0.77    1.59
  -4  -7  13    4.01    1.38
   4   7 -13   -0.22    1.33
  -4  -7  12    5.69    1.41
   4   7 -12    3.96    1.31
  -4  -7  11    1.20    1.24
   4   7 -11    0.47    1.11
   4   7 -11    3.12    1.23
   4   7 -10    0.45    0.88
  -4  -7  10    0.35    1.21
   4   7 -10   -0.24    1.01
  -4  -7  10   -1.10    0.89
   4   7 -10   -0.33    1.11
   4   7  -9   14.92    1.12
   4   7  -9   13.95    1.21
  -4  -7   9   14.95    1.29
   4   7  -9   12.57    1.24
   4   7  -9   11.78    1.24
  -4  -7   9   13.56    1.07
  -4  -7   8    4.66    0.93
   4   7  -8    5.13    0.98
  -4  -7   8    4.14    1.03
   4   7  -8    4.37    0.98
  -4  -7   8    4.60    0.93
   4   7  -8    5.33    1.11
   4   7  -8    3.81    0.98
   4   7  -7   50.85    2.11
  -4  -7   7   43.54    2.06
   4   7  -7   47.16    2.18
  -4  -7   7   44.27    2.13
   4   7  -7   41.18    2.04
   4   7  -7   45.29    2.08
  -4  -7   7   47.52    2.10
   4   7  -6    8.15    1.12
  -4  -7   6    6.38    0.94
  -4  -7   6    6.28    1.01
  -4  -7   6    7.53    1.04
   4   7  -6    7.06    1.06
   4   7  -6    8.06    0.85
   4   7  -6    6.41    1.00
   4   7  -5    8.04    1.12
   4   7  -5    9.88    1.03
  -4  -7   5    6.66    0.81
  -4  -7   5    8.37    0.98
  -4  -7   5    8.81    0.87
  -4  -7   5   10.12    1.00
   4   7  -5    7.88    1.06
   4   7  -5    8.77    0.77
   4   7  -4   10.08    1.16
  -4  -7   4    7.35    0.68
   4   7  -4    7.83    1.00
  -4  -7   4    8.35    0.92
  -4  -7   4    8.70    1.05
   4   7  -4    7.33    1.03
  -4  -7   4    6.51    1.03
   4   7  -3   -0.84    1.14
   4   7  -3   -0.47    0.91
   4   7  -3   -1.02    0.94
  -4  -7   3    0.35    0.92
  -4  -7   3    1.30    0.96
  -4  -7   2   11.70    1.11
   4   7  -2   11.58    1.28
  -4  -7   2    9.58    1.07
  -4  -7   2   11.40    1.12
   4   7  -2   13.55    1.16
   4   7  -2   13.55    1.13
  -4  -7   1    1.10    1.01
  -4  -7   1    1.82    0.96
  -4  -7   1    0.14    0.90
   4   7  -1    0.40    0.97
   4   7  -1    1.21    0.58
  -4  -7   0   15.26    1.30
  -4  -7   0   13.76    1.22
   4   7   0   15.03    1.30
  -4  -7   0   14.63    1.06
   4   7   0   15.42    1.00
  -4  -7  -1    1.03    1.02
  -4  -7  -1   -0.05    0.86
   4   7   1    2.18    0.86
  -4  -7  -2    1.20    0.92
   4   7   2    1.23    1.06
  -4  -7  -2    1.04    1.06
  -4  -7  -3    6.17    1.12
  -4  -7  -3    6.75    1.03
   4   7   3    6.63    1.28
  -4  -7  -4    2.12    1.10
  -4  -7  -4    1.88    0.99
   4   7   4    1.35    1.42
  -4  -7  -5   -0.27    1.10
  -4  -7  -5   -0.24    1.06
   4   7   5   -1.19    1.52
  -4  -7  -6   -1.30    1.18
  -4  -7  -6   -0.84    1.07
   4   7   6   -0.11    1.61
  -4  -7  -7   -1.48    1.13
   4   7   7    0.18    1.79
   4   7   8   -1.31    1.92
  -4  -8  12    0.37    1.33
   4   8 -12   -2.07    1.23
  -4  -8  11    4.07    1.33
   4   8 -11    5.13    1.26
  -4  -8  10    1.33    1.20
   4   8 -10    1.52    1.21
   4   8  -9    1.03    1.00
   4   8  -9   -0.77    1.02
  -4  -8   8    4.18    0.96
   4   8  -8    7.38    1.22
   4   8  -8    4.85    1.07
   4   8  -8    3.59    1.00
   4   8  -8    5.21    1.10
   4   8  -7   -0.22    0.85
   4   8  -7    0.98    1.16
  -4  -8   7    1.30    0.90
   4   8  -7   -1.37    1.01
   4   8  -7    0.32    0.88
   4   8  -6    2.35    1.28
  -4  -8   6    3.00    1.03
   4   8  -6    2.05    0.93
   4   8  -6    1.14    0.98
   4   8  -6    0.82    0.79
   4   8  -5    0.58    1.18
   4   8  -5   -0.64    1.04
   4   8  -5    0.36    0.97
  -4  -8   5   -1.06    1.00
   4   8  -4   16.77    1.42
  -4  -8   4   14.44    1.23
   4   8  -4   15.06    1.24
   4   8  -4   13.52    1.24
   4   8  -3    1.20    0.97
   4   8  -3    0.69    0.96
  -4  -8   3    0.49    0.98
  -4  -8   2   -0.33    0.99
  -4  -8   2   -0.71    1.00
   4   8  -2   -0.80    1.02
  -4  -8   2    0.21    0.87
  -4  -8   1    0.86    1.08
  -4  -8   1    0.19    0.99
   4   8  -1    2.31    1.05
  -4  -8   1    1.19    0.88
   4   8   0    0.14    1.20
   4   8   0    1.02    0.75
  -4  -8   0   -2.15    1.07
  -4  -8  -1   12.74    1.18
  -4  -8  -1   10.82    1.26
   4   8   1   11.29    1.10
  -4  -8  -2    4.68    1.05
  -4  -8  -2    4.72    1.17
   4   8   2    5.13    1.10
  -4  -8  -3   15.81    1.31
   4   8   3   11.36    1.43
  -4  -8  -3   13.58    1.41
  -4  -8  -4    3.99    1.24
  -4  -8  -4    6.67    1.11
   4   8   4    3.27    1.34
  -4  -8  -5    1.54    1.09
   4   8   5    2.39    1.52
   4   8   6    3.38    1.66
   4   8   7    1.95    2.03
   4   9 -10   -0.59    1.15
   4   9  -9   -0.10    1.07
   4   9  -8    3.50    1.15
   4   9  -7    8.41    1.18
  -4  -9   6    1.29    1.00
   4   9  -6    2.22    0.98
   4   9  -6    3.15    1.11
  -4  -9   5    7.55    1.22
   4   9  -5    5.42    1.05
  -4  -9   4    6.95    1.12
   4   9  -4    9.46    1.14
   4   9  -3    0.26    1.09
  -4  -9   3    0.23    1.10
  -4  -9   2    4.22    1.13
   4   9  -2    2.35    1.17
  -4  -9   1    0.41    1.10
   4   9  -1    0.81    1.19
  -4  -9   0    1.40    1.11
  -4  -9   0    0.25    1.02
  -4  -9  -1    4.16    1.13
  -4  -9  -1    3.68    1.21
  -4  -9  -2   -0.63    1.09
  -4  -9  -2   -2.18    1.22
  -4  -9  -3    1.42    1.07
   4   9   3    1.01    1.21
  -4  -9  -4   -1.07    1.14
   4   9   4   -0.39    1.32
   4   9   5    4.19    1.52
   4  10  -8    1.97    1.19
   4  10  -7    3.20    1.35
   4  10  -6    9.88    1.32
   4  10  -5    9.42    1.40
   4  10  -4    5.08    1.34
   4  10  -3    1.88    1.30
  -4 -10   3    1.11    1.21
  -4 -10   2   -0.25    1.29
  -4 -10   1    1.32    1.21
  -4 -10   1    0.95    0.91
  -4 -10   0    0.58    1.26
  -4 -10   0    0.03    1.06
  -4 -10  -1    1.48    1.11
  -4 -10  -2   -0.16    1.09
   4  11  -5   -0.31    1.39
   5 -12  -5   -0.65    1.01
   5 -12  -4    1.35    1.58
   5 -12  -4    3.52    1.15
   5 -12  -3    4.22    1.49
   5 -12  -3    3.32    1.13
   5 -12  -2    3.97    1.67
   5 -12  -2    3.69    1.25
   5 -12  -1    4.21    1.39
   5 -12  -1    4.20    1.29
   5 -12   0    7.20    1.60
   5 -12   0    6.71    1.35
   5 -12   1    1.12    1.44
   5 -12   1   -0.20    1.27
   5 -12   2   16.97    1.71
  -5  11   8    1.07    1.73
  -5  11   8   -1.45    1.31
   5 -11  -7    1.63    1.37
  -5  11   7    2.08    1.49
  -5  11   7    2.20    1.07
   5 -11  -6    2.08    1.52
  -5  11   6    0.88    1.06
   5 -11  -5    7.78    1.59
   5 -11  -5    5.28    1.13
   5 -11  -4    0.26    1.49
   5 -11  -4    0.98    1.09
   5 -11  -3   -1.20    1.38
   5 -11  -3    0.81    1.17
   5 -11  -2   -1.06    1.37
   5 -11  -2   -0.38    1.19
   5 -11  -1    0.84    1.40
   5 -11  -1    1.69    1.28
   5 -11   0    1.39    1.31
   5 -11   0    1.24    1.25
   5 -11   1    0.50    1.45
   5 -11   1    2.23    1.26
   5 -11   2   15.25    1.66
   5 -11   2   15.85    1.54
   5 -11   3   -1.15    1.39
   5 -11   3   -0.67    1.23
   5 -11   4   16.23    1.71
   5 -11   4   17.30    1.55
   5 -11   5    4.36    1.45
   5 -11   5    3.37    1.35
  -5  10  10   -0.40    1.80
   5 -10  -9    3.49    1.35
  -5  10   9    4.61    1.70
  -5  10   9    3.76    1.23
   5 -10  -8    6.69    1.40
  -5  10   8    9.22    1.65
  -5  10   8    7.63    1.27
   5 -10  -7    5.60    1.43
  -5  10   7    4.02    1.45
  -5  10   7    4.48    1.11
  -5  10   6   10.09    1.57
   5 -10  -6    6.99    1.42
  -5  10   6    8.33    1.08
   5 -10  -5    6.81    1.46
  -5  10   5    6.26    0.98
   5 -10  -4    1.68    1.37
   5 -10  -4    1.37    1.11
   5 -10  -4   -1.08    1.02
  -5  10   4   -0.08    0.78
   5 -10  -3   21.61    1.74
   5 -10  -3   22.06    1.46
   5 -10  -3   22.53    1.51
  -5  10   3   21.90    1.15
   5 -10  -2    1.73    0.93
   5 -10  -2    2.65    1.33
   5 -10  -2    4.36    1.21
   5 -10  -1   12.05    1.40
   5 -10  -1   13.90    1.40
   5 -10   0   71.39    3.34
   5 -10   0   77.83    3.33
   5 -10   1    4.45    1.27
   5 -10   1    5.58    1.23
   5 -10   2   36.24    2.16
   5 -10   2   38.99    2.09
   5 -10   3   11.66    1.46
   5 -10   3   12.12    1.36
   5 -10   4   33.11    2.00
   5 -10   4   30.83    1.86
   5 -10   5   11.38    1.56
   5 -10   5    7.17    1.32
   5 -10   6    1.80    1.33
   5 -10   6    0.79    1.28
   5 -10   7   17.25    1.81
   5  -9 -11    1.38    1.45
  -5   9  11    0.29    1.74
   5  -9 -10    4.65    1.25
   5  -9 -10    7.41    1.54
  -5   9  10    7.80    1.74
  -5   9  10    8.02    1.34
   5  -9  -9    1.38    1.23
  -5   9   9   -0.15    1.52
   5  -9  -9   -1.33    1.28
  -5   9   9    1.11    1.08
  -5   9   8    0.92    0.98
   5  -9  -8   -0.72    1.27
  -5   9   8   -0.71    1.37
   5  -9  -8    1.53    1.24
   5  -9  -7   26.06    1.82
   5  -9  -7   24.12    1.64
  -5   9   7   27.50    1.49
   5  -9  -7   25.03    1.59
  -5   9   7   24.25    1.84
  -5   9   7   27.97    1.54
  -5   9   6    0.93    0.94
   5  -9  -6    2.32    1.18
  -5   9   6    0.25    0.83
   5  -9  -6    0.24    0.97
  -5   9   6    1.36    1.34
   5  -9  -5   21.86    1.65
   5  -9  -5   21.65    1.31
  -5   9   5   20.40    1.64
  -5   9   5   22.23    1.23
  -5   9   5   24.23    1.33
   5  -9  -4   52.17    2.63
   5  -9  -4   55.17    2.50
  -5   9   4   56.03    2.30
   5  -9  -4   52.87    2.29
  -5   9   4   52.70    2.25
   5  -9  -3   -0.59    1.20
   5  -9  -3    1.57    0.92
   5  -9  -3    1.45    1.03
  -5   9   3    1.30    0.67
   5  -9  -2   91.37    3.88
   5  -9  -2   96.97    3.73
   5  -9  -2   91.43    3.82
  -5   9   2   87.74    3.53
   5  -9  -1    0.84    0.86
   5  -9  -1    2.78    1.20
   5  -9  -1    2.94    1.08
  -5   9   1    1.83    0.44
   5  -9   0    8.16    1.23
   5  -9   0    8.24    0.87
   5  -9   0    8.38    1.21
   5  -9   1    0.04    1.19
   5  -9   1   -1.39    1.09
   5  -9   2    1.12    1.25
   5  -9   2    2.96    1.11
   5  -9   3   11.46    1.41
   5  -9   3    7.79    1.18
   5  -9   4   54.83    2.61
   5  -9   4   49.20    2.45
   5  -9   5    6.69    1.42
   5  -9   5    5.36    1.15
   5  -9   6   13.64    1.54
   5  -9   6   13.77    1.39
   5  -9   7   27.54    1.94
   5  -9   7   25.73    1.73
   5  -9   8    0.77    1.54
  -5   8  12    7.12    2.01
   5  -8 -12    7.57    1.68
  -5   8  11   -0.49    1.19
   5  -8 -11   -1.33    1.29
  -5   8  11   -0.99    1.67
   5  -8 -11   -0.31    1.43
  -5   8  10    0.86    1.17
   5  -8 -10    2.52    1.23
   5  -8 -10    0.77    1.39
  -5   8  10    1.60    1.57
   5  -8  -9   19.84    1.62
   5  -8  -9   25.86    1.63
  -5   8   9   24.06    1.81
  -5   8   9   23.65    1.48
  -5   8   8    7.35    1.04
   5  -8  -8    5.96    1.30
   5  -8  -8    6.46    1.12
  -5   8   8    6.98    1.41
   5  -8  -8    7.41    1.18
  -5   8   7    1.16    0.95
   5  -8  -7    0.96    1.14
  -5   8   7   -0.58    0.85
   5  -8  -7    0.26    0.93
  -5   8   7    0.79    1.24
   5  -8  -7    0.09    1.01
  -5   8   6    0.97    0.90
   5  -8  -6   -0.21    1.12
  -5   8   6    0.81    0.75
  -5   8   6    0.67    1.13
   5  -8  -6    0.58    0.94
   5  -8  -6    1.28    0.93
  -5   8   5    0.11    0.76
   5  -8  -5   -0.29    1.05
  -5   8   5   -0.02    0.71
   5  -8  -5    0.17    0.81
  -5   8   5    1.43    1.12
   5  -8  -5    0.72    0.84
   5  -8  -4    0.61    0.76
  -5   8   4    0.76    0.78
   5  -8  -4   -0.75    1.08
  -5   8   4   -0.10    0.66
   5  -8  -4    0.26    1.03
   5  -8  -4    0.52    0.70
  -5   8   3   78.67    3.13
   5  -8  -3   79.62    3.33
   5  -8  -3   76.79    3.41
   5  -8  -3   77.94    3.18
   5  -8  -3   84.71    3.35
  -5   8   3   80.20    3.16
   5  -8  -3   77.94    3.15
   5  -8  -3   82.04    3.40
   5  -8  -2   20.36    1.44
  -5   8   2   20.85    0.97
   5  -8  -2   16.08    1.30
   5  -8  -2   21.82    1.33
   5  -8  -2   22.76    1.02
   5  -8  -2   21.49    1.05
   5  -8  -2   21.38    1.43
  -5   8   2   20.18    1.01
   5  -8  -2   21.48    1.41
   5  -8  -1   93.18    3.62
  -5   8   1   90.48    3.73
   5  -8  -1   88.22    3.76
   5  -8  -1   87.60    3.69
   5  -8  -1   88.89    3.41
   5  -8  -1   91.12    3.74
   5  -8  -1   87.94    3.45
  -5   8   1   88.62    3.43
  -5   8   0   13.19    1.24
   5  -8   0   11.02    1.20
   5  -8   0   11.27    1.16
   5  -8   0   13.26    0.93
  -5   8   0   11.60    0.57
   5  -8   0   14.59    1.27
  -5   8  -1   46.80    2.27
   5  -8   1   45.64    2.27
   5  -8   1   46.53    1.99
   5  -8   1   48.43    2.25
  -5   8  -2  120.66    4.91
   5  -8   2  117.60    4.92
   5  -8   2  128.65    4.88
   5  -8   2  117.93    4.65
  -5   8  -3   63.94    2.90
   5  -8   3   65.41    2.91
   5  -8   3   62.08    2.82
   5  -8   4   33.10    1.85
   5  -8   4   30.76    1.79
   5  -8   5   85.30    3.71
   5  -8   6   16.55    1.56
   5  -8   7   38.95    2.21
   5  -8   8    9.96    1.55
   5  -8   8    7.73    1.29
   5  -8   9   16.63    1.54
  -5   7  13    0.87    1.78
   5  -7 -13    1.01    1.74
  -5   7  12    6.76    1.26
  -5   7  12    4.86    1.72
   5  -7 -12    5.41    1.55
  -5   7  11    4.94    1.10
  -5   7  11    5.11    1.74
   5  -7 -11    5.11    1.43
  -5   7  10   13.44    1.28
   5  -7 -10    9.87    1.37
  -5   7  10   14.05    1.60
   5  -7 -10   15.91    1.52
  -5   7   9   14.55    1.18
   5  -7  -9   15.28    1.43
  -5   7   9   12.33    1.48
   5  -7  -9   13.80    1.37
   5  -7  -9   13.48    1.29
   5  -7  -8   11.32    1.33
  -5   7   8   17.26    1.14
  -5   7   8   13.61    1.49
   5  -7  -8   15.07    1.32
  -5   7   8   16.11    1.18
   5  -7  -8   17.74    1.34
  -5   7   7   11.60    1.30
  -5   7   7   15.16    1.11
   5  -7  -7   14.48    1.33
  -5   7   7   13.58    1.04
   5  -7  -7   12.81    1.15
   5  -7  -7   13.89    1.19
  -5   7   6    8.28    0.91
   5  -7  -6    5.33    1.14
   5  -7  -6    6.61    0.96
  -5   7   6    5.67    0.81
   5  -7  -6    7.33    0.96
   5  -7  -6    6.31    0.94
   5  -7  -6    6.07    0.95
   5  -7  -6    7.27    1.10
   5  -7  -5   44.65    2.05
   5  -7  -5   43.48    2.19
   5  -7  -5   44.92    1.97
   5  -7  -5   42.54    1.97
  -5   7   5   42.14    1.88
   5  -7  -5   43.86    2.03
  -5   7   5   45.27    1.96
   5  -7  -5   49.24    2.13
   5  -7  -4   73.86    2.93
   5  -7  -4   73.58    3.03
   5  -7  -4   70.29    3.14
   5  -7  -4   71.93    2.95
   5  -7  -4   70.82    3.09
  -5   7   4   72.92    2.90
  -5   7   4   71.80    2.93
   5  -7  -4   74.92    3.11
  -5   7   3   45.01    1.90
   5  -7  -3   45.41    2.08
   5  -7  -3   46.72    2.21
  -5   7   3   42.92    2.15
   5  -7  -3   46.45    1.96
   5  -7  -3   47.51    2.12
   5  -7  -3   48.17    1.92
  -5   7   3   44.70    1.93
   5  -7  -3   44.71    2.15
   5  -7  -2  161.85    6.38
   5  -7  -2  158.10    6.30
   5  -7  -2  173.11    6.29
   5  -7  -2  164.60    6.15
   5  -7  -2  162.58    6.17
  -5   7   2  155.36    6.15
  -5   7   2  158.49    6.13
   5  -7  -1    8.38    0.52
  -5   7   1    8.21    0.58
  -5   7   1    5.97    0.99
   5  -7  -1    7.83    1.08
  -5   7   1    8.01    0.53
   5  -7  -1    8.75    0.98
   5  -7  -1    9.03    0.88
   5  -7  -1    8.62    0.60
   5  -7  -1    9.05    1.05
   5  -7   0  376.23   14.15
   5  -7   0  384.41   14.13
  -5   7   0  396.20   14.39
   5  -7   0  373.11   14.39
   5  -7   0  383.67   14.35
  -5   7   0  367.45   14.12
   5  -7   0  372.29   14.27
   5  -7   0  386.30   14.39
  -5   7   0  377.93   14.15
   5  -7   1    1.41    0.89
  -5   7  -1    1.17    0.22
  -5   7  -1    0.74    0.96
   5  -7   1    1.15    0.96
   5  -7   1    0.77    0.88
   5  -7   1    1.22    0.22
   5  -7   2    6.30    0.64
  -5   7  -2    8.34    1.12
   5  -7   2    5.87    1.02
   5  -7   2    5.24    0.99
  -5   7  -3  126.13    5.04
   5  -7   3  119.96    5.02
   5  -7   3  123.98    4.75
   5  -7   4    1.69    0.46
  -5   7  -4    0.66    1.13
   5  -7   4    1.81    1.12
   5  -7   5   16.51    1.45
   5  -7   6   -0.83    1.31
   5  -7   6    0.27    1.00
   5  -7   7   -0.52    1.30
   5  -7   7   -2.45    1.10
   5  -7   8   -0.97    1.30
   5  -7   8    0.79    1.11
   5  -7   9   15.66    1.46
   5  -7  10   -0.31    1.29
   5  -7  10    1.14    1.29
   5  -7  11   11.08    1.40
   5  -6 -13    0.49    1.35
  -5   6  13   -1.58    1.77
   5  -6 -13    0.55    1.57
  -5   6  12    1.77    1.07
   5  -6 -12    1.87    1.22
  -5   6  12    1.54    1.69
   5  -6 -12    0.28    1.42
   5  -6 -11    6.35    1.41
  -5   6  11    6.23    1.08
   5  -6 -11    4.09    1.27
  -5   6  11    4.15    1.59
  -5   6  10   15.69    1.23
  -5   6  10   12.18    1.55
   5  -6 -10   15.75    1.48
  -5   6   9    2.47    0.94
  -5   6   9    0.99    0.85
   5  -6  -9    1.89    1.11
   5  -6  -9    3.90    1.15
   5  -6  -8   97.55    4.18
  -5   6   8  104.36    4.08
   5  -6  -8   97.51    4.17
  -5   6   8  106.70    4.11
  -5   6   7    6.98    0.85
   5  -6  -7    5.62    1.12
   5  -6  -7    6.60    0.92
  -5   6   7    7.69    0.86
   5  -6  -7    6.39    0.94
   5  -6  -7    7.26    0.90
   5  -6  -7    5.37    1.00
   5  -6  -6  131.37    5.18
   5  -6  -6  131.74    5.30
   5  -6  -6  129.32    5.18
  -5   6   6  132.70    5.13
   5  -6  -6  131.30    5.18
   5  -6  -6  135.21    5.18
   5  -6  -6  136.00    5.24
  -5   6   6  128.09    5.14
   5  -6  -5    1.19    0.71
   5  -6  -5    1.19    0.68
  -5   6   5    0.52    0.67
   5  -6  -5   -1.32    0.96
   5  -6  -5    0.73    0.78
  -5   6   5    0.79    0.60
   5  -6  -5    0.83    0.90
   5  -6  -5    0.66    0.72
  -5   6   5    1.45    0.87
   5  -6  -5   -0.81    0.85
   5  -6  -4  136.43    5.42
   5  -6  -4  136.39    5.52
  -5   6   4  133.01    5.48
  -5   6   4  138.87    5.33
   5  -6  -4  142.53    5.37
   5  -6  -4  141.74    5.47
   5  -6  -4  130.40    5.35
   5  -6  -4  138.05    5.42
   5  -6  -4  147.01    5.49
  -5   6   4  141.82    5.35
   5  -6  -3   33.66    1.47
   5  -6  -3   30.81    1.60
  -5   6   3   35.69    1.69
   5  -6  -3   32.44    1.72
  -5   6   3   31.86    1.43
   5  -6  -3   32.41    1.64
   5  -6  -3   32.73    1.50
  -5   6   3   34.83    1.47
  -5   6   2    6.45    0.61
   5  -6  -2    5.24    0.92
   5  -6  -2    4.91    0.62
   5  -6  -2    6.86    0.60
  -5   6   2    5.68    0.53
   5  -6  -2    4.73    0.81
   5  -6  -2    7.21    0.85
  -5   6   2    6.43    0.86
   5  -6  -1    7.31    0.87
  -5   6   1    7.50    0.57
   5  -6  -1    6.63    0.95
  -5   6   1    6.14    0.52
   5  -6  -1    7.41    0.79
   5  -6  -1    6.98    0.50
   5  -6  -1    6.91    0.93
   5  -6  -1    7.03    0.57
   5  -6   0   21.95    0.95
   5  -6   0   23.40    1.33
  -5   6   0   19.64    0.93
   5  -6   0   22.57    1.16
   5  -6   0   23.41    0.92
   5  -6   0   19.40    1.32
  -5   6   0   22.20    0.98
  -5   6  -1   36.69    1.51
  -5   6  -1   37.39    1.46
   5  -6   1   38.29    1.87
   5  -6   1   38.01    1.45
   5  -6   1   38.19    1.49
   5  -6   2    1.65    0.59
  -5   6  -2   -0.03    0.92
   5  -6   2    0.70    0.92
  -5   6  -2    2.19    0.29
  -5   6  -3  145.53    5.71
   5  -6   3  138.72    5.69
   5  -6   3  133.71    5.63
   5  -6   3  147.70    5.48
  -5   6  -4   64.68    2.91
   5  -6   4   63.84    2.88
   5  -6   4   64.98    2.81
   5  -6   4   61.92    2.76
   5  -6   4   65.34    2.56
   5  -6   5  109.54    3.98
  -5   6  -5  103.55    4.35
   5  -6   5  102.33    4.28
   5  -6   5   90.72    4.18
  -5   6  -5  100.95    4.04
   5  -6   5  101.48    4.15
   5  -6   6   27.88    1.78
  -5   6  -6   26.61    1.36
   5  -6   6   27.34    1.51
   5  -6   7   62.08    2.86
   5  -6   7   58.36    2.64
  -5   6  -7   59.66    2.52
   5  -6   8   24.64    1.52
   5  -6   9   12.63    1.30
   5  -6  10   20.38    1.56
   5  -6  10   23.65    1.60
   5  -6  11    1.54    1.29
   5  -6  11    2.29    1.20
   5  -6  12    8.80    1.42
   5  -5 -14   -0.17    1.46
  -5   5  14    1.66    1.88
   5  -5 -14   -2.43    1.66
   5  -5 -13    2.91    1.44
  -5   5  13    5.71    1.76
   5  -5 -13    5.46    1.59
  -5   5  12    0.95    1.04
   5  -5 -12    0.93    1.21
  -5   5  12    0.51    1.61
   5  -5 -12    1.25    1.44
  -5   5  11    2.20    0.97
   5  -5 -11    1.81    1.22
   5  -5 -11    0.46    1.23
  -5   5  10    6.44    0.98
   5  -5 -10    3.95    1.16
   5  -5 -10    4.34    1.18
   5  -5 -10    6.45    1.22
   5  -5  -9   14.37    1.41
  -5   5   9   19.37    1.17
   5  -5  -9   22.10    1.43
  -5   5   9   18.62    1.22
   5  -5  -9   17.05    1.36
   5  -5  -9   20.16    1.45
   5  -5  -8   11.99    1.02
  -5   5   8   12.06    1.00
  -5   5   8   12.14    0.94
  -5   5   8   12.27    1.21
   5  -5  -8   10.84    1.11
   5  -5  -8    9.95    0.98
   5  -5  -8   10.89    1.11
   5  -5  -8   13.49    1.15
   5  -5  -7  129.75    4.98
  -5   5   7  124.28    5.11
   5  -5  -7  122.87    5.04
   5  -5  -7  127.07    5.03
  -5   5   7  127.85    4.96
   5  -5  -7  125.43    4.99
  -5   5   7  129.62    4.98
   5  -5  -6    4.00    0.78
   5  -5  -6    4.31    0.79
   5  -5  -6    4.37    0.81
  -5   5   6    4.23    0.75
  -5   5   6    3.49    0.69
  -5   5   6    3.14    0.91
   5  -5  -6    2.62    0.75
   5  -5  -6    3.96    0.94
   5  -5  -5    6.78    0.82
   5  -5  -5    7.09    0.82
  -5   5   5    8.92    0.75
  -5   5   5    8.44    0.75
  -5   5   5    9.76    0.97
   5  -5  -5    8.18    0.91
   5  -5  -5    7.59    0.76
   5  -5  -5    6.68    0.82
  -5   5   4  195.80    7.29
  -5   5   4  199.65    7.31
   5  -5  -4  198.17    7.37
   5  -5  -4  183.42    7.45
  -5   5   4  193.39    7.40
   5  -5  -4  183.17    7.32
   5  -5  -4  187.77    7.40
   5  -5  -4  187.79    7.31
   5  -5  -4  195.39    7.37
   5  -5  -4  182.84    7.39
  -5   5   3   25.50    1.20
  -5   5   3   26.84    1.25
  -5   5   3   25.49    1.38
   5  -5  -3   29.72    1.48
   5  -5  -3   26.42    1.39
  -5   5   3   25.79    1.37
   5  -5  -3   26.81    1.24
   5  -5  -3   27.04    1.27
  -5   5   2  144.66    5.76
  -5   5   2  153.52    5.79
  -5   5   2  149.16    5.90
   5  -5  -2  154.67    5.94
  -5   5   2  142.59    5.89
   5  -5  -2  155.31    5.88
   5  -5  -2  156.54    5.78
   5  -5  -2  153.40    5.79
  -5   5   1  244.49    9.21
  -5   5   1  246.38    9.35
   5  -5  -1  237.46    9.37
  -5   5   1  233.63    9.19
   5  -5  -1  247.41    9.30
   5  -5  -1  245.23    9.19
   5  -5  -1  251.15    9.21
  -5   5   0  107.69    4.13
   5  -5   0  109.32    4.12
  -5   5   0  109.30    4.33
   5  -5   0  105.67    4.34
  -5   5   0  104.29    4.11
   5  -5   0  105.19    4.21
   5  -5   0  110.44    4.11
  -5   5  -1  256.18    9.86
   5  -5   1  255.17   10.05
   5  -5   1  250.18    9.99
  -5   5  -1  252.26    9.84
   5  -5   1  271.57    9.83
   5  -5   1  270.04    9.85
   5  -5   1  259.73    9.94
   5  -5   2  202.71    8.02
  -5   5  -2  193.22    7.81
   5  -5   2  204.39    7.97
   5  -5   2  210.49    7.79
  -5   5  -2  206.91    7.79
  -5   5  -2  206.00    7.91
   5  -5   2  204.49    7.96
   5  -5   2  210.91    7.78
   5  -5   2  218.43    7.89
  -5   5  -3   34.28    1.44
   5  -5   3   33.25    1.85
  -5   5  -3   36.81    1.42
   5  -5   3   35.97    1.76
  -5   5  -3   38.80    1.65
  -5   5  -3   37.66    1.44
   5  -5   3   37.27    1.71
  -5   5  -3   35.03    1.47
   5  -5   3   37.24    1.57
   5  -5   4   49.66    2.07
  -5   5  -4   47.04    2.39
   5  -5   4   56.01    2.39
  -5   5  -4   51.11    1.96
   5  -5   4   47.88    2.28
  -5   5  -4   49.47    2.16
  -5   5  -4   51.28    1.99
  -5   5  -4   50.93    2.02
   5  -5   4   50.93    2.21
  -5   5  -4   51.11    1.97
   5  -5   5   89.56    3.37
  -5   5  -5   91.33    3.72
   5  -5   5   78.51    3.62
  -5   5  -5   84.78    3.28
  -5   5  -5   90.60    3.48
  -5   5  -5   87.61    3.31
  -5   5  -5   85.69    3.32
   5  -5   5   83.01    3.48
   5  -5   5   76.87    3.53
  -5   5  -5   85.24    3.28
   5  -5   6   51.76    2.27
  -5   5  -6   54.40    2.73
   5  -5   6   52.04    2.60
  -5   5  -6   56.47    2.18
  -5   5  -6   58.15    2.39
  -5   5  -6   56.17    2.21
   5  -5   6   53.03    2.42
  -5   5  -6   57.08    2.23
  -5   5  -6   53.90    2.16
  -5   5  -7    4.40    0.67
  -5   5  -7    3.93    0.57
  -5   5  -7    4.13    0.52
   5  -5   7    2.23    1.26
  -5   5  -7    5.50    0.92
  -5   5  -7    3.74    0.61
   5  -5   7    2.75    0.97
  -5   5  -8   38.19    1.62
  -5   5  -8   35.55    1.68
  -5   5  -8   39.48    1.64
  -5   5  -8   38.16    1.95
   5  -5   8   35.99    1.91
   5  -5   9    0.29    1.11
   5  -5   9    0.77    1.07
  -5   5  -9    0.23    0.75
   5  -5  10   -0.40    1.23
   5  -5  10    0.31    1.07
   5  -5  11   -1.65    1.20
   5  -5  11   -0.32    1.21
   5  -5  12    1.73    1.27
   5  -4 -15    5.19    1.63
   5  -4 -14    8.99    1.67
  -5   4  14    8.24    1.16
   5  -4 -14    5.10    1.51
  -5   4  14    3.55    1.76
  -5   4  13    0.18    1.05
   5  -4 -13    2.00    1.39
   5  -4 -13   -0.66    1.53
   5  -4 -12    1.69    1.30
   5  -4 -12    3.92    1.44
   5  -4 -11   78.34    3.26
   5  -4 -11   64.16    3.17
   5  -4 -10   12.19    1.32
  -5   4  10   13.61    1.44
  -5   4  10   15.31    1.08
   5  -4 -10   15.43    1.42
   5  -4 -10   16.82    1.34
   5  -4 -10   15.52    1.40
   5  -4  -9   85.33    3.57
  -5   4   9   88.76    3.55
   5  -4  -9   82.44    3.72
  -5   4   9   90.56    3.76
   5  -4  -9   89.80    3.72
   5  -4  -9   92.22    3.71
   5  -4  -9   89.53    3.66
  -5   4   9   87.33    3.57
   5  -4  -8   70.10    2.91
   5  -4  -8   69.76    3.05
  -5   4   8   65.15    3.04
   5  -4  -8   72.70    3.03
  -5   4   8   69.83    2.89
   5  -4  -8   74.94    3.00
   5  -4  -8   70.09    2.97
  -5   4   8   70.42    2.91
   5  -4  -7    4.12    0.94
   5  -4  -7    6.19    0.94
   5  -4  -7    5.63    0.78
  -5   4   7    6.23    0.76
   5  -4  -7    5.74    0.95
  -5   4   7    4.36    0.90
   5  -4  -7    5.83    0.84
  -5   4   7    6.45    0.78
   5  -4  -7    6.58    0.80
   5  -4  -7    6.79    0.91
  -5   4   6  374.35   13.57
   5  -4  -6  340.88   13.56
  -5   4   6  366.57   13.64
  -5   4   6  368.18   13.54
   5  -4  -6  357.70   13.59
   5  -4  -6  352.74   13.66
   5  -4  -6  356.95   13.58
   5  -4  -6  341.29   13.57
   5  -4  -6  364.46   13.61
   5  -4  -5    1.88    0.68
  -5   4   5    1.80    0.62
  -5   4   5    2.03    0.76
   5  -4  -5    1.40    0.75
   5  -4  -5    1.42    0.66
  -5   4   5    0.88    0.57
  -5   4   4  655.95   24.34
  -5   4   4  660.99   24.40
  -5   4   4  632.33   24.41
  -5   4   4  639.41   24.32
   5  -4  -4  643.36   24.42
   5  -4  -4  650.15   24.35
   5  -4  -4  647.67   24.36
  -5   4   3   41.51    1.83
  -5   4   3   44.29    1.94
  -5   4   3   42.97    1.93
  -5   4   3   44.57    1.82
   5  -4  -3   43.14    1.94
   5  -4  -3   45.63    1.88
   5  -4  -3   44.79    1.85
  -5   4   2    1.74    0.68
   5  -4  -2    3.03    0.74
  -5   4   2    1.13    0.47
   5  -4  -2    0.41    0.64
  -5   4   2    1.36    0.64
   5  -4  -2    1.35    0.48
  -5   4   2    0.93    0.50
   5  -4  -2    1.03    0.53
   5  -4  -1  355.28   13.25
  -5   4   1  355.52   13.37
   5  -4  -1  344.84   13.37
   5  -4  -1  357.87   13.33
  -5   4   1  351.14   13.25
  -5   4   1  353.16   13.24
   5  -4  -1  347.42   13.32
   5  -4  -1  346.33   13.24
   5  -4   0   12.58    0.67
  -5   4   0   10.25    0.92
  -5   4   0   10.17    0.68
   5  -4   0   10.01    0.99
   5  -4   0   12.07    0.64
  -5   4   0   13.34    0.84
   5  -4   0   11.84    0.88
  -5   4   0   11.10    0.65
   5  -4   0   11.46    0.88
  -5   4  -1  116.32    4.64
   5  -4   1  116.38    4.63
   5  -4   1  110.67    4.56
  -5   4  -1  109.95    4.46
  -5   4  -1  115.66    4.55
  -5   4  -1  116.23    4.45
   5  -4   1  121.25    4.44
   5  -4   1  118.53    4.58
   5  -4   1  120.60    4.45
   5  -4   1  112.15    4.53
   5  -4   2   19.25    0.86
  -5   4  -2   17.69    1.21
   5  -4   2   19.32    1.13
   5  -4   2   16.00    1.20
  -5   4  -2   19.53    1.12
  -5   4  -2   18.72    0.89
  -5   4  -2   19.56    0.90
   5  -4   2   18.23    0.84
   5  -4   2   19.32    1.10
   5  -4   2   19.26    1.00
   5  -4   3    2.49    0.56
  -5   4  -3    3.52    0.99
  -5   4  -3    3.96    0.39
   5  -4   3    2.86    0.89
  -5   4  -3    4.77    0.78
  -5   4  -3    3.53    0.51
   5  -4   3    3.62    0.80
  -5   4  -3    3.51    0.49
  -5   4  -3    3.74    0.42
   5  -4   3    3.01    0.68
   5  -4   4   17.32    0.93
   5  -4   4   17.22    1.31
  -5   4  -4   15.83    0.77
  -5   4  -4   16.88    1.09
  -5   4  -4   17.05    0.86
   5  -4   4   15.39    1.10
  -5   4  -4   17.22    0.79
   5  -4   4   16.21    1.04
  -5   4  -4   15.61    0.90
  -5   4  -5  101.52    3.89
   5  -4   5  106.72    3.92
  -5   4  -5   98.64    3.87
   5  -4   5  100.31    4.14
  -5   4  -5   96.93    3.82
  -5   4  -5  100.04    4.01
  -5   4  -5  100.23    3.83
   5  -4   5   95.86    3.96
   5  -4   6   18.65    1.09
  -5   4  -6   20.47    1.07
   5  -4   6   22.38    1.54
  -5   4  -6   20.08    0.94
  -5   4  -6   20.41    1.31
  -5   4  -6   17.79    1.04
  -5   4  -6   20.80    1.45
   5  -4   6   20.62    1.22
  -5   4  -6   19.92    0.94
  -5   4  -7   36.94    1.68
  -5   4  -7   37.11    1.58
  -5   4  -7   42.87    1.95
  -5   4  -7   35.30    1.66
  -5   4  -7   41.20    2.01
   5  -4   7   35.99    1.80
  -5   4  -7   36.27    1.58
  -5   4  -8   27.50    1.63
  -5   4  -8   23.26    1.34
  -5   4  -8   21.58    1.30
  -5   4  -8   25.57    1.20
   5  -4   8   20.42    1.40
  -5   4  -8   24.19    1.15
   5  -4   9    1.00    1.06
   5  -4   9    3.55    0.99
  -5   4  -9    3.14    0.74
  -5   4  -9    2.31    0.90
   5  -4  10   25.86    1.60
  -5   4 -10   29.91    1.48
   5  -4  10   29.68    1.75
   5  -4  11    0.57    1.17
   5  -4  11    0.70    1.02
   5  -4  12    4.38    1.36
   5  -4  12    5.65    1.19
   5  -3 -16    0.38    1.53
   5  -3 -15   -1.52    1.62
   5  -3 -15    1.23    1.72
  -5   3  14   -0.46    1.05
   5  -3 -14    1.71    1.51
   5  -3 -14   -0.11    1.60
  -5   3  13    8.15    1.07
   5  -3 -13    4.78    1.49
  -5   3  13    7.93    1.60
   5  -3 -13    9.05    1.56
  -5   3  13    8.13    1.60
   5  -3 -12    1.64    1.25
  -5   3  12    2.61    0.88
  -5   3  12    3.98    1.45
   5  -3 -12    5.58    1.43
  -5   3  12    5.34    1.47
  -5   3  11   39.79    2.14
   5  -3 -11   32.80    2.01
   5  -3 -11   38.99    2.11
   5  -3 -11   42.95    2.09
  -5   3  11   36.32    2.10
   5  -3 -11   36.89    1.96
  -5   3  11   33.24    1.79
   5  -3 -10    4.41    1.18
   5  -3 -10    2.97    0.96
   5  -3 -10    5.20    1.14
   5  -3 -10    5.07    1.09
  -5   3  10    4.47    1.17
  -5   3  10    5.61    1.27
   5  -3 -10    3.18    1.06
   5  -3  -9    3.61    0.99
  -5   3   9    3.32    1.07
   5  -3  -9    3.09    1.05
   5  -3  -9    3.90    0.87
   5  -3  -9    2.98    0.95
  -5   3   9    3.28    0.78
   5  -3  -9    4.99    0.97
  -5   3   8  149.55    5.96
   5  -3  -8  142.51    5.94
   5  -3  -8  153.42    5.93
  -5   3   8  150.28    5.83
   5  -3  -8  155.26    5.94
   5  -3  -8  157.40    6.00
   5  -3  -8  147.21    5.88
   5  -3  -7    4.90    0.88
   5  -3  -7    4.61    0.91
  -5   3   7    4.34    0.86
  -5   3   7    4.49    0.73
  -5   3   7    5.41    0.73
   5  -3  -7    3.98    0.90
   5  -3  -7    5.59    0.82
   5  -3  -7    5.09    0.84
   5  -3  -6   36.28    1.75
  -5   3   6   36.96    1.70
   5  -3  -6   39.49    1.82
  -5   3   6   37.82    1.79
  -5   3   6   38.09    1.68
   5  -3  -6   40.56    1.85
   5  -3  -6   38.49    1.73
   5  -3  -6   38.62    1.75
  -5   3   5   20.18    1.10
   5  -3  -5   22.54    1.24
  -5   3   5   21.08    1.18
  -5   3   5   22.25    1.09
   5  -3  -5   21.10    1.22
   5  -3  -5   20.73    1.13
   5  -3  -5   19.50    1.13
   5  -3  -5   21.64    1.17
   5  -3  -4   87.02    3.38
  -5   3   4   85.17    3.41
   5  -3  -4   79.50    3.43
  -5   3   4   85.76    3.36
  -5   3   4   86.90    3.43
  -5   3   4   86.64    3.35
   5  -3  -4   85.58    3.46
   5  -3  -4   84.57    3.37
   5  -3  -4   84.39    3.39
   5  -3  -4   84.09    3.38
   5  -3  -3   38.72    1.70
  -5   3   3   42.47    1.75
  -5   3   3   38.18    1.66
  -5   3   3   37.21    1.71
  -5   3   3   37.08    1.63
   5  -3  -3   38.15    1.66
   5  -3  -3   39.46    1.75
   5  -3  -3   39.68    1.69
   5  -3  -3   39.22    1.68
  -5   3   2   54.68    2.28
   5  -3  -2   53.62    2.23
  -5   3   2   53.03    2.18
  -5   3   2   52.84    2.23
  -5   3   2   54.93    2.17
   5  -3  -2   50.18    2.25
   5  -3  -2   54.64    2.17
   5  -3  -2   54.09    2.18
  -5   3   1    5.25    0.57
  -5   3   1    5.27    0.76
   5  -3  -1    5.60    0.56
   5  -3  -1    4.85    0.67
  -5   3   1    4.92    0.72
   5  -3  -1    3.97    0.63
  -5   3   1    6.61    0.68
   5  -3  -1    4.98    0.50
  -5   3   1    4.60    0.52
  -5   3   0  200.94    7.78
   5  -3   0  204.09    7.72
   5  -3   0  204.69    7.65
  -5   3   0  201.20    7.74
  -5   3   0  199.35    7.66
  -5   3   0  209.85    7.68
   5  -3   0  200.05    7.65
   5  -3   0  197.18    7.72
   5  -3   0  195.94    7.72
  -5   3  -1  360.85   13.77
   5  -3   1  347.49   13.76
   5  -3   1  345.87   13.69
  -5   3  -1  356.54   13.72
  -5   3  -1  362.18   13.64
   5  -3   1  371.99   13.63
   5  -3   1  368.57   13.71
  -5   3  -1  359.88   13.66
   5  -3   1  372.56   13.63
   5  -3   1  355.15   13.70
   5  -3   2    4.93    0.67
  -5   3  -2    6.41    0.88
   5  -3   2    5.77    0.89
   5  -3   2    6.06    0.78
  -5   3  -2    4.49    0.80
  -5   3  -2    5.05    0.56
   5  -3   2    6.33    0.50
   5  -3   2    6.29    0.54
  -5   3  -2    6.14    0.60
   5  -3   2    5.36    0.67
  -5   3  -3  338.12   12.95
   5  -3   3  327.99   12.94
   5  -3   3  328.64   12.86
  -5   3  -3  354.59   12.89
  -5   3  -3  337.35   12.78
   5  -3   3  353.66   12.78
   5  -3   3  326.55   12.82
  -5   3  -3  340.80   12.80
   5  -3   3  333.44   12.81
   5  -3   4  142.57    5.34
  -5   3  -4  132.99    5.33
  -5   3  -4  147.24    5.56
   5  -3   4  145.48    5.53
  -5   3  -4  141.04    5.28
   5  -3   4  128.57    5.40
  -5   3  -4  142.34    5.43
  -5   3  -4  134.53    5.31
  -5   3  -4  138.93    5.28
   5  -3   4  136.20    5.36
   5  -3   5    2.21    0.69
  -5   3  -5    0.04    1.10
  -5   3  -5    2.14    0.50
   5  -3   5    1.89    1.07
  -5   3  -5    1.48    0.90
  -5   3  -5    1.76    0.64
  -5   3  -5    1.72    0.61
  -5   3  -5    1.79    0.87
   5  -3   5    1.74    0.72
  -5   3  -5    1.91    0.52
   5  -3   6  196.57    7.17
  -5   3  -6  187.95    7.07
  -5   3  -6  181.72    7.14
   5  -3   6  178.29    7.37
  -5   3  -6  183.85    7.12
  -5   3  -6  199.07    7.28
  -5   3  -6  184.79    7.07
   5  -3   6  177.69    7.15
  -5   3  -7    1.41    0.57
  -5   3  -7    0.69    0.63
  -5   3  -7    0.39    0.71
  -5   3  -7    2.44    1.13
   5  -3   7    0.27    0.84
  -5   3  -7    1.30    0.80
  -5   3  -8   61.10    2.40
  -5   3  -8   54.05    2.50
  -5   3  -8   52.64    2.46
  -5   3  -8   67.50    2.76
   5  -3   8   55.05    2.54
  -5   3  -8   60.83    2.39
  -5   3  -8   56.27    2.74
  -5   3  -9   14.68    1.54
   5  -3   9   12.65    1.18
   5  -3   9   13.79    1.08
  -5   3  -9   12.38    1.16
  -5   3  -9   15.66    1.01
  -5   3  -9   11.59    1.07
  -5   3  -9   14.98    0.95
   5  -3  10    8.89    1.18
   5  -3  10    7.29    1.03
  -5   3 -10    6.31    1.06
   5  -3  11    1.04    1.27
   5  -3  11    2.33    0.99
  -5   3 -11    2.78    0.90
   5  -3  11    2.88    1.92
   5  -3  12    0.06    1.32
   5  -2 -16   -1.10    1.94
  -5   2  15    4.24    1.61
   5  -2 -15    3.42    1.78
  -5   2  15    2.47    1.56
   5  -2 -14    3.88    1.45
  -5   2  14    6.07    1.07
  -5   2  14    4.95    1.65
   5  -2 -14    4.36    1.78
  -5   2  14    4.13    1.57
   5  -2 -13    6.20    1.33
  -5   2  13    4.87    1.05
  -5   2  13    6.97    1.52
   5  -2 -13    3.15    1.60
  -5   2  13    7.13    1.55
   5  -2 -13    4.83    1.56
   5  -2 -12    4.25    1.16
  -5   2  12    1.71    0.91
  -5   2  12    4.81    1.37
   5  -2 -12    2.75    1.37
   5  -2 -12    3.43    1.36
  -5   2  12    2.06    1.29
   5  -2 -12    3.45    1.06
  -5   2  11   73.88    3.43
   5  -2 -11   70.29    3.33
   5  -2 -11   84.60    3.43
   5  -2 -11   77.68    3.52
   5  -2 -11   83.97    3.45
  -5   2  11   71.41    3.42
   5  -2 -11   71.98    3.27
  -5   2  11   83.58    3.21
   5  -2 -10    3.22    1.15
   5  -2 -10    1.84    0.97
  -5   2  10    5.18    1.17
  -5   2  10    4.54    0.83
   5  -2 -10    2.05    1.11
   5  -2 -10    4.63    1.11
  -5   2  10    3.88    1.12
   5  -2 -10    3.65    1.00
  -5   2   9   33.48    1.50
  -5   2   9   29.44    1.64
   5  -2  -9   27.35    1.59
   5  -2  -9   35.52    1.68
   5  -2  -9   24.85    1.63
  -5   2   9   27.38    1.64
   5  -2  -9   27.54    1.53
   5  -2  -8   11.25    1.03
   5  -2  -8   10.61    0.98
   5  -2  -8   10.29    0.99
  -5   2   8   10.66    1.02
  -5   2   8    8.72    1.00
   5  -2  -8    8.59    0.88
   5  -2  -7  173.75    6.91
  -5   2   7  185.17    6.99
   5  -2  -7  181.25    6.99
   5  -2  -7  172.02    7.03
   5  -2  -7  187.44    7.00
   5  -2  -7  182.96    7.00
   5  -2  -7  179.96    6.94
   5  -2  -6   75.09    2.98
  -5   2   6   72.27    3.03
   5  -2  -6   76.50    3.05
  -5   2   6   72.35    2.97
   5  -2  -6   71.93    3.09
   5  -2  -6   72.46    3.02
   5  -2  -6   74.08    3.05
   5  -2  -6   74.91    2.98
   5  -2  -6   76.46    3.00
   5  -2  -5   27.11    1.29
   5  -2  -5   25.76    1.36
  -5   2   5   27.26    1.35
  -5   2   5   26.23    1.31
  -5   2   5   30.25    1.32
   5  -2  -5   31.08    1.46
   5  -2  -5   27.31    1.34
   5  -2  -5   27.78    1.38
   5  -2  -5   27.17    1.30
   5  -2  -5   27.20    1.33
   5  -2  -4  842.31   30.86
  -5   2   4  825.43   30.89
   5  -2  -4  799.23   30.91
  -5   2   4  814.32   30.89
  -5   2   4  823.38   30.87
  -5   2   4  829.98   30.86
   5  -2  -4  825.33   30.94
   5  -2  -4  790.06   30.88
   5  -2  -4  817.15   30.88
   5  -2  -4  840.79   30.86
   5  -2  -3   64.60    2.50
  -5   2   3   58.92    2.52
   5  -2  -3   57.91    2.55
  -5   2   3   62.36    2.51
   5  -2  -3   61.92    2.50
  -5   2   3   60.70    2.50
  -5   2   3   62.47    2.49
   5  -2  -3   64.71    2.59
   5  -2  -3   61.59    2.50
   5  -2  -3   62.37    2.52
   5  -2  -2  251.44    9.57
   5  -2  -2  264.82    9.58
  -5   2   2  251.02    9.62
   5  -2  -2  245.10    9.63
  -5   2   2  246.02    9.58
  -5   2   2  242.20    9.58
  -5   2   2  255.60    9.57
   5  -2  -2  253.74    9.57
   5  -2  -2  260.59    9.64
  -5   2   1  315.83   11.91
   5  -2  -1  315.26   11.84
   5  -2  -1  324.32   11.86
   5  -2  -1  267.48   11.89
  -5   2   1  309.00   11.86
  -5   2   1  323.37   11.91
  -5   2   1  322.73   11.85
   5  -2  -1  314.87   11.84
  -5   2   1  316.47   11.86
   5  -2  -1  318.50   11.90
   5  -2   0    3.28    0.62
   5  -2   0    4.71    0.54
  -5   2   0    4.02    0.76
   5  -2   0    3.62    0.62
  -5   2   0    5.44    0.71
  -5   2   0    3.35    0.59
  -5   2   0    3.35    0.54
   5  -2   0    4.43    0.48
   5  -2   0    3.99    0.58
  -5   2  -1  336.82   12.75
   5  -2   1  327.96   12.67
   5  -2   1  336.57   12.67
  -5   2  -1  339.85   12.73
  -5   2  -1  342.48   12.66
   5  -2   1  339.55   12.64
   5  -2   1  334.15   12.64
  -5   2  -1  327.59   12.67
   5  -2   1  329.82   12.69
  -5   2  -2   27.65    1.34
   5  -2   2   31.16    1.31
  -5   2  -2   30.51    1.52
   5  -2   2   26.89    1.39
  -5   2  -2   31.08    1.47
  -5   2  -2   27.79    1.32
   5  -2   2   29.93    1.30
   5  -2   2   29.02    1.34
   5  -2   2   30.82    1.38
  -5   2  -3   16.89    0.97
  -5   2  -3   18.23    1.22
   5  -2   3   18.04    1.03
  -5   2  -3   19.27    1.16
  -5   2  -3   19.09    0.97
   5  -2   3   19.52    0.93
   5  -2   3   16.77    0.95
   5  -2   3   19.42    1.01
   5  -2   4   70.79    2.78
  -5   2  -4   68.11    2.77
  -5   2  -4   69.40    3.00
  -5   2  -4   68.11    2.70
   5  -2   4   65.85    2.98
  -5   2  -4   67.78    2.75
   5  -2   4   65.75    2.79
  -5   2  -4   69.83    2.71
   5  -2   4   68.24    2.76
  -5   2  -5    2.06    0.93
   5  -2   5    2.91    0.76
  -5   2  -5    3.00    1.09
  -5   2  -5    2.12    0.56
   5  -2   5    3.83    1.08
  -5   2  -5    2.26    0.64
  -5   2  -5    3.86    0.80
  -5   2  -5    1.82    0.64
   5  -2   5    3.18    0.69
  -5   2  -5    2.14    0.60
   5  -2   6   47.54    1.99
  -5   2  -6   42.56    2.40
  -5   2  -6   45.95    1.88
  -5   2  -6   39.49    1.96
  -5   2  -6   41.43    1.96
  -5   2  -6   47.91    2.09
  -5   2  -6   46.21    1.88
   5  -2   6   45.79    1.99
  -5   2  -6   40.99    2.16
  -5   2  -7   24.12    1.22
  -5   2  -7   21.81    1.38
  -5   2  -7   25.20    1.38
  -5   2  -7   25.09    1.22
   5  -2   7   23.39    1.34
  -5   2  -7   25.10    1.65
  -5   2  -8    1.55    1.23
   5  -2   8    2.18    0.88
   5  -2   8    2.08    0.80
  -5   2  -8    2.31    0.65
  -5   2  -8    0.17    0.85
  -5   2  -8    3.14    0.75
  -5   2  -8    1.51    0.86
  -5   2  -8    2.38    1.21
  -5   2  -9    3.11    1.24
   5  -2   9    2.93    1.03
   5  -2   9    3.83    0.84
  -5   2  -9    5.71    0.85
  -5   2  -9    2.76    1.06
  -5   2  -9    4.08    0.84
  -5   2  -9    3.69    0.97
   5  -2  10    2.01    1.10
   5  -2  10    2.39    0.85
  -5   2 -10    3.36    0.90
  -5   2 -10    2.21    1.09
  -5   2 -10    1.41    0.81
   5  -2  10    3.50    1.79
   5  -2  11    2.86    1.27
  -5   2 -11    3.11    1.06
  -5   2 -11    4.06    0.98
   5  -2  11    3.71    1.77
   5  -2  12   -0.57    1.30
  -5   2 -12   -0.06    1.05
   5  -2  13   -0.19    1.30
   5  -1 -17   -0.36    1.54
   5  -1 -16   -1.32    1.73
  -5   1  15    9.43    1.15
  -5   1  15    7.02    1.69
   5  -1 -15    5.40    1.72
   5  -1 -15    8.12    1.80
  -5   1  15    5.19    1.67
   5  -1 -14    4.88    1.61
   5  -1 -14    3.47    1.33
  -5   1  14    6.52    1.09
  -5   1  14    2.81    1.49
  -5   1  14    6.44    1.52
   5  -1 -13    9.23    1.36
  -5   1  13   12.99    1.09
  -5   1  13    9.40    1.48
   5  -1 -13    9.91    1.63
  -5   1  13    9.34    1.55
   5  -1 -13   11.77    1.42
   5  -1 -12    2.36    1.13
  -5   1  12   -0.27    1.25
  -5   1  12    4.51    0.93
   5  -1 -12    0.21    1.40
   5  -1 -12    3.03    1.37
  -5   1  12    3.89    1.28
   5  -1 -12    3.42    0.96
   5  -1 -11   10.15    1.23
   5  -1 -11    9.34    1.12
  -5   1  11   10.47    1.28
  -5   1  11    9.63    1.04
   5  -1 -11    7.56    1.43
  -5   1  11    9.76    1.31
   5  -1 -11   10.81    1.38
   5  -1 -11    9.79    1.14
   5  -1 -10    0.91    0.96
   5  -1 -10    2.63    1.10
   5  -1 -10    1.22    0.95
  -5   1  10    1.35    1.08
  -5   1  10    2.67    0.79
  -5   1  10    1.86    0.70
   5  -1 -10    1.81    1.15
   5  -1 -10    2.18    1.13
  -5   1  10    0.22    1.03
   5  -1 -10    2.49    0.84
   5  -1  -9    6.23    0.92
   5  -1  -9    7.50    1.09
   5  -1  -9    6.88    0.92
  -5   1   9    6.99    1.06
  -5   1   9    5.31    0.82
  -5   1   9    7.21    0.83
   5  -1  -9    8.51    1.07
   5  -1  -9    8.74    1.10
  -5   1   9    8.08    1.01
   5  -1  -9    8.98    0.90
  -5   1   8  209.16    7.86
  -5   1   8  214.15    7.82
   5  -1  -8  204.15    7.84
  -5   1   8  205.46    7.87
  -5   1   8  188.72    7.78
   5  -1  -8  184.57    7.90
   5  -1  -8  210.69    7.90
   5  -1  -8  221.71    7.90
   5  -1  -8  197.27    7.78
   5  -1  -8  204.35    7.80
   5  -1  -7    3.65    0.78
   5  -1  -7    4.85    0.73
   5  -1  -7    4.20    0.81
   5  -1  -7    3.36    0.81
  -5   1   7    4.58    0.70
  -5   1   7    4.07    0.74
  -5   1   7    4.50    0.75
   5  -1  -7    3.96    0.69
   5  -1  -6   69.81    2.87
  -5   1   6   72.59    2.92
   5  -1  -6   69.81    2.90
   5  -1  -6   74.51    2.95
   5  -1  -6   75.35    2.95
   5  -1  -6   68.18    2.87
   5  -1  -5  111.95    4.31
  -5   1   5  108.56    4.34
   5  -1  -5  109.74    4.35
   5  -1  -5  110.91    4.43
   5  -1  -5  111.29    4.36
   5  -1  -5  112.63    4.37
  -5   1   4    0.19    0.59
   5  -1  -4    0.73    0.49
   5  -1  -4    1.28    0.63
  -5   1   4    0.70    0.57
  -5   1   4    0.40    0.62
  -5   1   4    0.69    0.55
   5  -1  -4    0.93    0.70
   5  -1  -4    0.97    0.54
   5  -1  -4    0.40    0.53
   5  -1  -4    1.44    0.61
   5  -1  -3   79.86    3.17
  -5   1   3   76.74    3.21
   5  -1  -3   83.55    3.24
  -5   1   3   82.63    3.20
  -5   1   3   81.02    3.20
   5  -1  -3   84.59    3.28
   5  -1  -3   78.34    3.21
   5  -1  -3   83.54    3.18
  -5   1   3   79.88    3.26
   5  -1  -3   80.61    3.22
   5  -1  -2  131.50    5.15
   5  -1  -2  136.77    5.13
  -5   1   2  128.40    5.17
   5  -1  -2  135.40    5.19
  -5   1   2  132.89    5.14
  -5   1   2  135.48    5.17
   5  -1  -2  135.26    5.15
  -5   1   2  132.03    5.17
   5  -1  -2  133.71    5.12
   5  -1  -1   23.19    1.09
  -5   1   1   23.88    1.23
   5  -1  -1   23.21    1.23
   5  -1  -1   23.66    1.14
  -5   1   1   24.02    1.09
  -5   1   1   24.04    1.16
   5  -1  -1   24.47    1.13
  -5   1   1   22.64    1.15
   5  -1  -1   23.87    1.24
  -5   1   0   21.51    1.18
   5  -1   0   21.53    1.02
   5  -1   0   19.06    1.16
  -5   1   0   21.14    1.08
   5  -1   0   21.81    1.03
   5  -1   0   22.39    1.05
   5  -1   0   21.44    1.01
  -5   1   0   22.56    1.10
   5  -1   0   21.39    1.13
  -5   1  -1   49.38    2.14
  -5   1  -1   53.44    2.25
   5  -1   1   51.82    2.11
   5  -1   1   52.82    2.26
  -5   1  -1   52.47    2.22
  -5   1  -1   48.16    2.13
   5  -1   1   51.93    2.11
   5  -1   1   50.78    2.09
   5  -1   1   54.20    2.12
   5  -1   1   53.90    2.17
  -5   1  -2   21.63    1.12
  -5   1  -2   21.75    1.30
   5  -1   2   22.48    1.08
   5  -1   2   19.98    1.06
  -5   1  -2   22.91    1.10
   5  -1   2   22.50    1.07
   5  -1   2   20.30    1.01
   5  -1   2   23.26    1.14
   5  -1   3   48.66    1.99
  -5   1  -3   44.55    1.97
  -5   1  -3   47.02    2.14
   5  -1   3   46.59    1.94
  -5   1  -3   44.99    1.96
   5  -1   3   48.52    1.94
   5  -1   3   44.40    1.90
   5  -1   4   32.82    1.45
  -5   1  -4   29.67    1.68
  -5   1  -4   28.02    1.41
  -5   1  -4   30.18    1.32
  -5   1  -4   29.06    1.42
  -5   1  -4   29.77    1.35
   5  -1   4   27.80    1.33
  -5   1  -4   29.53    1.56
   5  -1   5   21.97    1.22
  -5   1  -5   21.07    1.07
  -5   1  -5   19.00    1.16
  -5   1  -5   20.89    1.54
  -5   1  -5   20.66    1.13
  -5   1  -5   19.52    1.18
  -5   1  -5   21.32    1.06
   5  -1   5   18.84    1.06
  -5   1  -5   17.58    1.33
   5  -1   6   92.25    3.58
  -5   1  -6   85.45    3.85
  -5   1  -6   90.34    3.46
  -5   1  -6   80.29    3.53
  -5   1  -6   84.59    3.51
  -5   1  -6   92.94    3.56
  -5   1  -6   92.26    3.45
   5  -1   6   80.70    3.45
  -5   1  -6   83.82    3.68
  -5   1  -7    5.85    1.24
   5  -1   7    5.77    0.85
  -5   1  -7    5.38    0.70
   5  -1   7    4.95    0.72
  -5   1  -7    5.97    1.01
  -5   1  -7    6.23    0.76
  -5   1  -7    5.01    0.96
  -5   1  -7    5.51    1.01
  -5   1  -8   24.59    1.80
   5  -1   8   25.17    1.36
  -5   1  -8   30.03    1.44
  -5   1  -8   26.08    1.59
  -5   1  -8   36.17    1.77
  -5   1  -8   25.01    1.67
  -5   1  -8   32.54    1.41
   5  -1   8   29.40    1.52
   5  -1   9    1.95    0.93
   5  -1   9    0.81    0.72
  -5   1  -9   -0.60    0.83
  -5   1  -9   -0.51    1.15
  -5   1  -9    0.67    0.81
  -5   1  -9    0.24    1.03
   5  -1   9    0.29    1.67
   5  -1  10    6.51    1.07
   5  -1  10    6.74    0.91
  -5   1 -10    8.44    1.08
  -5   1 -10    5.81    1.23
   5  -1  10    8.62    1.70
   5  -1  11   11.18    1.19
  -5   1 -11   11.18    1.09
  -5   1 -11   11.41    1.42
   5  -1  12    0.73    1.24
  -5   1 -12    2.29    1.17
   5   0 -17    2.53    1.90
   5   0 -16    2.47    1.38
   5   0 -16    6.43    1.71
   5   0 -15    2.76    1.34
  -5   0  15    3.96    1.09
  -5   0  15    3.57    1.47
   5   0 -15    5.45    1.84
   5   0 -15    6.19    1.85
  -5   0  15    2.60    1.54
   5   0 -14    0.62    1.22
  -5   0  14   -0.78    0.97
  -5   0  14   -2.59    1.39
   5   0 -14   -0.06    1.65
  -5   0  14   -0.24    1.43
   5   0 -14    1.20    1.61
   5   0 -13    1.42    1.16
  -5   0  13    1.49    1.34
  -5   0  13    0.19    0.95
   5   0 -13    2.09    1.34
   5   0 -13   -3.36    1.53
  -5   0  13    2.03    1.34
   5   0 -13    0.48    1.16
   5   0 -12    9.77    1.21
   5   0 -12   12.02    1.53
  -5   0  12   11.90    1.42
  -5   0  12   11.68    1.10
   5   0 -12   11.57    1.51
  -5   0  12   12.06    1.41
   5   0 -12    8.47    1.19
   5   0 -11    4.73    1.10
   5   0 -11    5.38    0.95
   5   0 -11    4.39    1.23
  -5   0  11    5.93    1.19
  -5   0  11    4.02    0.87
   5   0 -11    4.03    1.28
  -5   0  11    4.99    1.21
   5   0 -11    5.61    0.92
   5   0 -10   11.08    1.12
   5   0 -10   10.84    1.15
   5   0 -10    9.26    0.94
  -5   0  10   10.70    1.13
   5   0 -10    8.59    1.20
  -5   0  10   11.67    0.93
  -5   0  10   10.83    0.93
   5   0 -10   10.11    1.24
  -5   0  10    8.53    1.19
   5   0 -10    9.68    1.00
   5   0  -9   10.75    1.04
   5   0  -9   12.88    1.18
   5   0  -9   12.47    0.97
  -5   0   9   14.32    1.16
  -5   0   9   11.30    0.94
   5   0  -9   12.41    1.22
   5   0  -9   14.41    1.18
  -5   0   9   13.10    0.98
  -5   0   9   14.36    1.11
   5   0  -9   12.86    0.97
   5   0  -8   12.49    1.04
   5   0  -8   12.45    0.94
  -5   0   8   13.58    1.08
   5   0  -8   12.11    1.09
  -5   0   8   14.10    0.89
   5   0  -8   14.86    1.12
   5   0  -8   13.16    1.11
  -5   0   8   12.98    0.92
  -5   0   8   14.79    1.06
   5   0  -8   12.17    0.88
   5   0  -7    1.28    0.76
   5   0  -7    2.30    0.67
  -5   0   7    3.21    0.73
   5   0  -7    1.00    0.81
   5   0  -7    3.19    0.83
  -5   0   7    1.83    0.61
   5   0  -7    1.94    0.83
  -5   0   7    2.15    0.71
  -5   0   7    1.57    0.67
   5   0  -7    2.14    0.60
  -5   0   6  132.59    5.11
   5   0  -6  129.18    5.08
  -5   0   6  127.71    5.11
  -5   0   6  129.13    5.09
   5   0  -6  137.44    5.15
  -5   0   6  131.30    5.10
   5   0  -6  133.70    5.15
   5   0  -6  133.18    5.06
   5   0  -6  128.43    5.08
  -5   0   5    0.95    0.60
   5   0  -5    1.61    0.60
   5   0  -5    1.32    0.57
  -5   0   5    2.22    0.57
  -5   0   5    1.29    0.65
   5   0  -5    2.14    0.66
   5   0  -5    0.98    0.66
   5   0  -4  128.64    5.04
  -5   0   4  131.94    5.08
  -5   0   4  132.92    5.08
   5   0  -4  131.64    5.09
  -5   0   4  133.61    5.14
   5   0  -4  133.59    5.12
   5   0  -4  131.24    5.12
   5   0  -3   48.41    2.04
   5   0  -3   52.65    2.14
  -5   0   3   47.59    2.09
  -5   0   3   50.67    2.06
   5   0  -3   52.27    2.12
  -5   0   3   53.34    2.17
   5   0  -3   50.66    2.12
   5   0  -3   52.14    2.04
   5   0  -2   77.99    3.06
  -5   0   2   76.02    3.12
   5   0  -2   80.34    3.14
   5   0  -2   84.22    3.16
  -5   0   2   78.16    3.08
  -5   0   2   78.43    3.19
  -5   0   2   76.32    3.14
   5   0  -2   76.50    3.14
   5   0  -2   79.22    3.06
   5   0  -2   83.26    3.20
   5   0  -1  125.61    4.84
  -5   0   1  125.19    4.92
   5   0  -1  129.37    4.95
   5   0  -1  128.70    4.90
  -5   0   1  127.30    4.85
   5   0  -1  130.69    4.91
  -5   0   1  122.94    4.97
  -5   0   1  130.19    4.92
   5   0  -1  126.77    4.84
  -5   0   1  114.02    4.92
   5   0  -1  133.95    4.97
   5   0   0  271.91   10.27
  -5   0   0  274.83   10.38
   5   0   0  269.37   10.39
  -5   0   0  277.47   10.35
   5   0   0  275.34   10.33
   5   0   0  263.40   10.27
   5   0   0  279.73   10.33
  -5   0   0  270.15   10.36
   5   0   0  274.02   10.38
   5   0   1   10.26    0.84
   5   0   1   12.91    0.80
  -5   0  -1   11.60    0.82
   5   0   1   12.50    0.66
  -5   0  -1   12.51    0.96
   5   0   1   12.06    0.98
  -5   0  -1   11.42    0.82
   5   0   1   11.96    0.77
   5   0   1   11.30    0.65
  -5   0  -2  219.77    8.64
  -5   0  -2  218.52    8.71
   5   0   2  217.90    8.56
   5   0   2  234.05    8.74
   5   0   2  237.12    8.62
  -5   0  -2  224.43    8.63
   5   0   2  238.90    8.62
   5   0   2  225.66    8.54
  -5   0  -2  218.87    8.69
   5   0   2  229.43    8.64
  -5   0  -3    0.34    0.83
   5   0   3    1.26    0.65
  -5   0  -3    0.03    0.96
   5   0   3    1.89    0.52
  -5   0  -3    1.41    0.66
   5   0   3    2.30    0.65
  -5   0  -3    1.17    0.68
   5   0   3    0.77    0.44
   5   0   4  156.29    5.52
  -5   0  -4  145.67    5.66
  -5   0  -4  138.47    5.51
   5   0   4  135.80    5.41
  -5   0  -4  140.51    5.48
  -5   0  -4  144.00    5.43
   5   0   4  137.78    5.38
  -5   0  -4  133.94    5.57
  -5   0  -5    0.54    1.02
   5   0   5    0.80    0.57
   5   0   5    1.24    0.83
  -5   0  -5    0.78    0.84
  -5   0  -5    1.17    0.64
  -5   0  -5    0.92    1.20
  -5   0  -5   -0.22    0.82
  -5   0  -5    0.58    0.72
  -5   0  -5    0.61    0.69
  -5   0  -6   76.09    3.55
  -5   0  -6   81.68    3.12
  -5   0  -6   72.84    3.24
  -5   0  -6   72.06    3.21
  -5   0  -6   85.53    3.17
  -5   0  -6   84.33    3.12
   5   0   6   68.22    3.06
  -5   0  -6   74.03    3.35
  -5   0  -7    4.83    1.30
  -5   0  -7    5.14    0.83
   5   0   7    4.90    0.86
   5   0   7    4.00    0.60
  -5   0  -7    5.34    1.06
  -5   0  -7    6.43    0.81
  -5   0  -7    5.35    1.07
  -5   0  -7    5.82    0.96
  -5   0  -8   11.34    0.94
   5   0   8   10.32    0.99
   5   0   8    9.45    0.76
  -5   0  -8   10.01    0.95
  -5   0  -8   11.02    1.20
  -5   0  -8    9.87    1.15
  -5   0  -9   -0.91    0.93
   5   0   9    0.65    0.86
   5   0   9   -0.01    0.64
  -5   0  -9   -0.08    1.18
   5   0  10    0.20    0.94
  -5   0 -10   -0.05    0.99
  -5   0 -10    0.04    1.30
   5   0  10    1.90    1.54
   5   0  11    1.92    1.00
  -5   0 -11    2.88    1.20
  -5   0 -11    1.26    1.34
   5   0  11   -0.27    1.65
  -5   0 -12    1.03    1.16
   5   1 -17   -0.62    1.75
   5   1 -16    0.12    1.67
   5   1 -16    1.59    1.83
   5   1 -15    8.00    1.32
  -5  -1  15    8.66    1.20
  -5  -1  15    6.43    1.52
   5   1 -15    9.99    1.72
   5   1 -15   11.87    1.86
  -5  -1  15   11.25    1.62
   5   1 -14    1.44    1.10
  -5  -1  14    3.36    1.43
   5   1 -14    3.13    1.65
  -5  -1  14    3.50    1.08
  -5  -1  14    1.77    1.36
   5   1 -14    1.96    1.37
   5   1 -13    1.21    1.02
  -5  -1  13    2.69    1.33
  -5  -1  13    3.08    1.06
   5   1 -13    1.52    1.36
   5   1 -13    2.42    1.46
  -5  -1  13    0.86    1.35
   5   1 -12   -0.09    0.93
  -5  -1  12    2.43    1.21
   5   1 -12    1.21    1.37
  -5  -1  12    1.37    0.93
   5   1 -12    1.03    1.32
   5   1 -12    0.66    1.32
  -5  -1  12    0.16    1.23
   5   1 -12    0.80    1.14
  -5  -1  11   22.92    1.54
  -5  -1  11   20.85    1.33
   5   1 -11   20.41    1.33
   5   1 -11   24.56    1.66
   5   1 -11   22.23    1.63
   5   1 -11   22.44    1.70
  -5  -1  11   24.24    1.62
   5   1 -11   23.15    1.38
   5   1 -11   25.53    1.57
  -5  -1  10   39.77    1.96
   5   1 -10   44.49    2.04
  -5  -1  10   38.10    1.83
   5   1 -10   33.16    1.78
  -5  -1  10   41.12    1.83
   5   1 -10   40.21    2.05
   5   1 -10   42.81    2.10
  -5  -1  10   42.04    2.03
   5   1 -10   36.55    1.78
   5   1 -10   42.16    1.96
  -5  -1   9   56.04    2.36
   5   1  -9   52.33    2.39
  -5  -1   9   53.55    2.26
   5   1  -9   50.10    2.21
  -5  -1   9   53.45    2.25
   5   1  -9   52.74    2.44
   5   1  -9   48.04    2.38
  -5  -1   9   55.55    2.37
   5   1  -9   48.17    2.18
   5   1  -9   53.79    2.34
  -5  -1   8  188.66    6.94
   5   1  -8  171.95    6.86
  -5  -1   8  176.18    6.91
  -5  -1   8  182.01    6.90
   5   1  -8  188.40    7.02
  -5  -1   8  184.41    6.95
   5   1  -8  172.06    6.83
   5   1  -8  178.16    6.92
  -5  -1   7   29.11    1.38
   5   1  -7   27.52    1.30
  -5  -1   7   27.17    1.39
  -5  -1   7   30.31    1.37
   5   1  -7   27.58    1.50
   5   1  -7   29.59    1.51
  -5  -1   7   30.57    1.42
   5   1  -7   26.83    1.25
   5   1  -7   28.80    1.48
  -5  -1   6   11.60    0.93
  -5  -1   6   12.21    0.86
   5   1  -6   11.94    0.88
   5   1  -6   12.40    0.76
   5   1  -6   11.99    0.99
  -5  -1   6   12.49    0.86
   5   1  -6   13.49    0.98
  -5  -1   6   12.41    0.86
   5   1  -6   12.79    0.72
   5   1  -6   13.20    0.98
  -5  -1   5   92.81    3.69
   5   1  -5   96.57    3.68
  -5  -1   5   94.90    3.75
  -5  -1   5   90.88    3.76
  -5  -1   5   92.51    3.72
   5   1  -5  100.05    3.76
  -5  -1   5   90.55    3.69
   5   1  -5   92.05    3.70
   5   1  -5  100.62    3.78
   5   1  -4   52.62    2.19
  -5  -1   4   50.80    2.10
  -5  -1   4   51.82    2.09
   5   1  -4   49.50    2.11
  -5  -1   4   53.78    2.24
  -5  -1   4   48.92    2.17
   5   1  -4   54.75    2.19
  -5  -1   4   50.25    2.19
   5   1  -4   54.02    2.11
   5   1  -3  152.84    5.68
  -5  -1   3  142.73    5.71
   5   1  -3  154.27    5.77
  -5  -1   3  149.57    5.69
   5   1  -3  148.31    5.73
  -5  -1   3  150.66    5.80
   5   1  -3  151.00    5.78
  -5  -1   3  143.65    5.78
   5   1  -2   32.64    1.40
  -5  -1   2   34.04    1.51
  -5  -1   2   34.55    1.42
   5   1  -2   34.56    1.54
   5   1  -2   35.01    1.54
  -5  -1   2   35.69    1.62
   5   1  -2   36.64    1.55
   5   1  -2   33.99    1.62
   5   1  -1   28.48    1.24
  -5  -1   1   27.52    1.40
   5   1  -1   30.33    1.46
  -5  -1   1   31.19    1.49
   5   1  -1   30.81    1.39
   5   1  -1   31.11    1.40
   5   1  -1   32.39    1.25
   5   1  -1   33.55    1.48
   5   1   0    5.04    0.72
   5   1   0    2.96    0.36
  -5  -1   0    3.36    0.70
   5   1   0    2.14    0.77
  -5  -1   0    1.91    0.65
   5   1   0    4.09    0.58
   5   1   0    3.38    0.35
   5   1   0    2.86    0.35
   5   1   0    2.95    0.59
  -5  -1  -1   13.84    1.09
  -5  -1  -1   16.08    1.01
   5   1   1   17.11    0.99
   5   1   1   17.22    0.76
  -5  -1  -1   15.11    1.03
   5   1   1   18.29    1.12
  -5  -1  -1   16.91    1.04
   5   1   1   17.68    0.95
   5   1   1   16.09    0.74
   5   1   1   20.41    1.05
   5   1   2   95.16    3.49
  -5  -1  -2   83.13    3.47
   5   1   2   85.42    3.32
  -5  -1  -2   86.21    3.55
   5   1   2   88.14    3.44
  -5  -1  -2   83.36    3.46
   5   1   2   90.30    3.45
   5   1   2   84.69    3.30
   5   1   3    4.68    0.46
   5   1   3    7.63    0.84
   5   1   3    5.82    0.51
  -5  -1  -3    5.79    0.83
   5   1   3    6.46    0.75
  -5  -1  -3    6.53    1.01
  -5  -1  -3    6.30    0.70
  -5  -1  -3    4.26    0.82
  -5  -1  -4    4.29    1.03
   5   1   4    4.72    0.53
   5   1   4    3.84    0.87
  -5  -1  -4    3.67    0.88
  -5  -1  -4    4.20    1.13
   5   1   4    4.74    0.54
  -5  -1  -4    4.58    0.83
  -5  -1  -4    4.45    0.71
  -5  -1  -5   11.73    1.26
   5   1   5    7.86    0.72
   5   1   5   11.30    1.04
  -5  -1  -5   10.82    1.02
  -5  -1  -5   12.04    0.87
  -5  -1  -5    9.07    1.39
  -5  -1  -5   10.37    1.00
  -5  -1  -5   11.18    0.88
  -5  -1  -6   15.96    1.46
   5   1   6   14.63    0.77
  -5  -1  -6   18.15    1.27
  -5  -1  -6   18.83    1.09
  -5  -1  -6   18.83    1.66
  -5  -1  -6   17.20    1.24
  -5  -1  -6   17.66    1.06
   5   1   6   20.49    1.65
   5   1   6   15.36    0.94
  -5  -1  -7    0.95    0.82
   5   1   7    0.05    0.73
   5   1   7    0.51    0.44
  -5  -1  -7    0.67    1.12
  -5  -1  -7    1.60    0.81
   5   1   7    0.87    1.43
   5   1   8    3.23    0.79
  -5  -1  -8    2.60    0.87
  -5  -1  -8    2.41    1.19
   5   1   8    3.72    1.45
  -5  -1  -9    0.21    1.27
   5   1   9   -0.47    0.83
  -5  -1  -9   -0.61    1.00
   5   1  10    0.44    0.90
  -5  -1 -10    2.72    1.04
  -5  -1 -10   -0.05    1.37
  -5  -1 -11    0.16    1.19
  -5  -1 -11    2.08    1.53
   5   2 -16    1.14    1.51
   5   2 -16    0.45    1.93
  -5  -2  15    8.00    1.50
  -5  -2  15    9.13    1.14
   5   2 -15    8.54    1.81
   5   2 -15    5.90    1.58
  -5  -2  15    7.57    1.48
   5   2 -14    2.82    1.03
  -5  -2  14    2.86    1.40
  -5  -2  14    2.80    1.08
   5   2 -14    3.41    1.42
   5   2 -14    4.66    1.67
  -5  -2  14    6.15    1.47
   5   2 -13    1.25    0.96
  -5  -2  13    0.32    1.37
  -5  -2  13    1.40    0.97
   5   2 -13   -0.76    1.42
   5   2 -13    2.55    1.50
  -5  -2  13   -1.29    1.35
  -5  -2  12   40.18    2.12
  -5  -2  12   40.98    1.90
   5   2 -12   34.57    1.87
   5   2 -12   42.98    2.28
   5   2 -12   37.74    2.16
  -5  -2  12   42.18    2.16
   5   2 -11   -0.47    1.13
   5   2 -11   -0.28    0.74
  -5  -2  11   -1.62    1.11
   5   2 -11    1.32    1.19
  -5  -2  11   -0.38    0.89
   5   2 -11   -0.65    1.20
   5   2 -11   -0.38    1.23
  -5  -2  11    0.03    1.15
   5   2 -10    1.33    1.09
  -5  -2  10    0.78    1.08
   5   2 -10    0.59    0.67
  -5  -2  10    0.48    0.78
   5   2 -10    1.97    1.01
   5   2 -10    0.91    1.08
   5   2 -10   -1.74    1.11
  -5  -2  10   -0.02    0.82
  -5  -2  10    1.23    1.06
   5   2 -10    1.25    0.86
  -5  -2   9   50.52    2.32
   5   2  -9   48.20    2.10
  -5  -2   9   53.45    2.22
  -5  -2   9   54.96    2.23
   5   2  -9   50.51    2.37
   5   2  -9   51.35    2.39
  -5  -2   9   54.46    2.32
   5   2  -9   54.92    2.38
   5   2  -9   42.95    2.12
   5   2  -9   57.88    2.37
   5   2  -8    3.76    0.91
   5   2  -8    5.42    1.09
  -5  -2   8    3.87    0.87
   5   2  -8    4.24    0.57
  -5  -2   8    3.79    0.79
   5   2  -8    4.18    0.94
  -5  -2   8    6.47    0.89
   5   2  -8    4.63    0.96
   5   2  -8    4.36    0.57
  -5  -2   8    4.85    0.83
  -5  -2   7   59.20    2.46
   5   2  -7   61.09    2.61
   5   2  -7   58.22    2.35
  -5  -2   7   59.80    2.48
  -5  -2   7   60.94    2.49
   5   2  -7   60.74    2.57
  -5  -2   7   60.53    2.46
   5   2  -7   56.31    2.32
   5   2  -7   58.06    2.50
  -5  -2   6   45.75    1.99
   5   2  -6   51.33    2.18
   5   2  -6   46.91    1.91
  -5  -2   6   44.45    2.05
  -5  -2   6   47.41    2.05
  -5  -2   6   50.41    2.01
  -5  -2   6   48.18    2.05
   5   2  -6   46.04    1.87
   5   2  -6   48.06    2.07
   5   2  -5    8.32    0.89
   5   2  -5    7.89    0.79
   5   2  -5    8.94    0.99
  -5  -2   5    9.82    0.82
  -5  -2   5    8.24    0.65
   5   2  -5    7.26    0.59
  -5  -2   5    7.39    0.82
  -5  -2   5    9.93    0.80
   5   2  -5    9.35    0.88
  -5  -2   5    8.13    0.64
   5   2  -5    8.17    0.54
   5   2  -4    1.20    0.71
   5   2  -4    0.80    0.56
  -5  -2   4    0.52    0.41
  -5  -2   4    0.02    0.44
   5   2  -4    0.14    0.46
  -5  -2   4    0.59    0.66
  -5  -2   4    0.21    0.74
  -5  -2   4   -0.40    0.65
   5   2  -4    0.55    0.64
   5   2  -4    0.91    0.66
  -5  -2   3   99.87    3.90
  -5  -2   3   99.98    3.88
   5   2  -3   96.48    3.93
   5   2  -3  101.38    4.00
  -5  -2   3  102.22    4.04
  -5  -2   3  101.50    4.00
   5   2  -3  110.95    4.02
  -5  -2   3  104.62    4.02
   5   2  -3   99.73    3.90
   5   2  -2    4.76    0.47
   5   2  -2    5.83    0.68
  -5  -2   2    5.23    0.59
   5   2  -2    6.12    0.69
  -5  -2   2    5.51    0.41
  -5  -2   2    5.71    0.79
  -5  -2   2    5.26    0.69
   5   2  -2    7.73    0.71
  -5  -2   2    6.44    0.75
  -5  -2   1   56.87    2.23
  -5  -2   1   53.59    2.33
   5   2  -1   59.23    2.27
   5   2  -1   53.36    2.06
   5   2  -1   56.47    2.26
   5   2  -1   50.82    2.08
  -5  -2   1   56.47    2.30
   5   2   0   12.61    0.84
  -5  -2   0   11.02    0.84
   5   2   0   11.08    0.85
   5   2   0   12.54    0.88
  -5  -2  -1   10.55    0.97
   5   2   1   10.73    0.91
   5   2   1   10.61    0.87
  -5  -2  -1    9.56    0.95
   5   2   1   12.61    0.86
   5   2   2  136.15    5.06
  -5  -2  -2  127.13    5.10
  -5  -2  -2  122.71    5.04
   5   2   2  130.17    5.02
   5   2   2  131.72    5.02
  -5  -2  -2  120.77    5.09
  -5  -2  -3   -0.33    0.79
   5   2   3   -0.31    0.82
   5   2   3    0.97    0.35
  -5  -2  -3   -0.90    1.04
   5   2   3    0.34    0.28
  -5  -2  -3    0.61    0.76
   5   2   3   -0.34    0.71
  -5  -2  -3    1.01    0.67
   5   2   4   59.32    2.43
  -5  -2  -4   54.62    2.55
   5   2   4   50.34    2.07
  -5  -2  -4   56.33    2.23
  -5  -2  -4   53.95    2.38
  -5  -2  -4   50.63    2.33
  -5  -2  -4   58.35    2.25
   5   2   4   66.72    2.75
   5   2   4   48.59    2.08
  -5  -2  -5    2.55    1.14
   5   2   5    1.43    0.50
  -5  -2  -5    1.05    0.94
  -5  -2  -5    0.95    0.77
  -5  -2  -5    3.77    1.42
   5   2   5    1.04    0.47
  -5  -2  -5    1.02    0.92
   5   2   5    2.76    1.36
  -5  -2  -5    0.70    0.78
  -5  -2  -6   25.23    1.58
  -5  -2  -6   26.82    1.39
  -5  -2  -6   27.77    1.39
   5   2   6   29.68    1.95
   5   2   6   23.21    1.20
   5   2   7    6.94    0.77
  -5  -2  -7    8.28    1.27
   5   2   7    9.51    1.55
  -5  -2  -7    9.68    0.97
  -5  -2  -8    1.65    0.98
   5   2   8    2.61    0.75
  -5  -2  -8    2.67    1.26
   5   2   8    3.48    1.46
  -5  -2  -9    9.68    1.17
  -5  -2  -9    9.75    1.44
   5   2   9   10.80    1.68
  -5  -2 -10   -0.19    1.08
  -5  -2 -10    1.47    1.42
   5   2  10   -0.77    1.55
  -5  -2 -11   -1.03    1.21
  -5  -3  15    5.74    1.54
  -5  -3  15    4.24    1.09
   5   3 -15    5.57    1.45
   5   3 -15    6.05    1.90
  -5  -3  15    4.86    1.43
  -5  -3  14   -0.45    1.42
  -5  -3  14    0.26    1.05
   5   3 -14    1.06    1.35
   5   3 -14    0.05    1.58
  -5  -3  14   -0.62    1.44
   5   3 -13    3.36    0.91
  -5  -3  13    6.96    1.37
  -5  -3  13    5.33    1.03
   5   3 -13    6.54    1.41
   5   3 -13    5.52    1.57
  -5  -3  13    5.00    1.39
  -5  -3  12    3.10    1.24
   5   3 -12    2.07    0.77
  -5  -3  12    1.93    0.97
   5   3 -12    0.86    1.26
   5   3 -12    2.11    1.34
  -5  -3  12    0.84    1.21
  -5  -3  11    2.60    1.14
   5   3 -11    1.05    0.66
   5   3 -11    3.00    1.22
   5   3 -11    5.85    1.29
  -5  -3  11    1.46    0.89
  -5  -3  11    2.51    1.17
   5   3 -11    0.59    1.21
   5   3 -11    0.82    1.27
  -5  -3  10   36.91    1.88
  -5  -3  10   35.50    1.72
   5   3 -10   32.96    1.49
  -5  -3  10   34.33    1.70
   5   3 -10   35.03    1.83
   5   3 -10   34.41    1.93
  -5  -3  10   34.40    1.84
   5   3 -10   33.63    1.88
   5   3 -10   36.81    1.94
   5   3  -9    8.84    1.25
   5   3  -9    8.31    1.25
  -5  -3   9    8.85    1.08
   5   3  -9    8.11    0.59
  -5  -3   9    7.12    0.92
   5   3  -9    8.93    1.16
  -5  -3   9    8.56    1.07
  -5  -3   9    8.34    0.93
   5   3  -9   10.05    1.13
  -5  -3   8   39.46    1.85
   5   3  -8   41.90    2.03
   5   3  -8   37.84    1.57
  -5  -3   8   39.43    1.81
  -5  -3   8   39.98    1.83
  -5  -3   8   41.23    1.84
   5   3  -8   39.98    1.93
   5   3  -8   41.64    1.93
   5   3  -8   38.92    1.93
   5   3  -7    2.50    0.89
   5   3  -7    3.52    0.88
  -5  -3   7    1.81    0.76
   5   3  -7    3.24    1.07
  -5  -3   7    1.07    0.72
   5   3  -7    1.08    0.82
   5   3  -7    1.88    0.33
  -5  -3   7    2.69    0.74
  -5  -3   7    1.41    0.76
   5   3  -7    0.90    0.85
  -5  -3   7    1.86    0.70
   5   3  -7    1.78    0.36
   5   3  -6    3.03    0.82
   5   3  -6    3.30    0.82
   5   3  -6    3.69    1.04
  -5  -3   6    4.49    0.78
  -5  -3   6    3.43    0.62
   5   3  -6    5.54    0.85
  -5  -3   6    3.41    0.75
  -5  -3   6    3.70    0.65
  -5  -3   6    3.84    0.78
   5   3  -6    3.75    0.37
   5   3  -6    3.69    0.33
  -5  -3   5   78.26    3.07
   5   3  -5   84.10    3.28
   5   3  -5   76.60    3.03
  -5  -3   5   78.02    3.20
  -5  -3   5   76.71    3.19
  -5  -3   5   78.41    3.18
  -5  -3   5   80.51    3.07
   5   3  -5   77.86    3.12
   5   3  -5   76.94    2.98
   5   3  -5   81.56    3.23
   5   3  -4    0.96    0.54
   5   3  -4    1.88    0.76
   5   3  -4    0.29    0.96
  -5  -3   4    1.41    0.36
  -5  -3   4    0.76    0.45
  -5  -3   4    1.56    0.71
  -5  -3   4    1.11    0.78
  -5  -3   4    1.19    0.72
  -5  -3   4    0.99    0.41
   5   3  -3   79.57    3.14
  -5  -3   3   74.30    2.95
  -5  -3   3   76.33    2.92
  -5  -3   3   73.91    3.12
  -5  -3   3   76.67    3.11
   5   3  -3   75.84    3.11
   5   3  -3   75.04    2.93
  -5  -3   3   75.87    3.11
   5   3  -3   79.15    3.13
   5   3  -2   23.31    1.27
  -5  -3   2   24.79    1.12
  -5  -3   2   24.79    0.95
  -5  -3   2   23.70    1.35
  -5  -3   2   23.33    1.24
   5   3  -2   24.61    1.28
   5   3  -2   26.28    1.26
   5   3  -2   22.43    0.94
  -5  -3   2   23.11    1.28
   5   3  -2   24.99    1.31
  -5  -3   1   51.68    2.22
   5   3  -1   49.62    2.12
  -5  -3   1   50.20    2.12
  -5  -3   1   53.04    2.19
   5   3  -1   50.88    2.19
   5   3  -1   50.63    2.17
   5   3   0   45.39    2.07
  -5  -3   0   50.46    2.25
   5   3   0   53.08    2.20
  -5  -3   0   50.87    2.19
  -5  -3   0   55.52    2.22
   5   3   0   55.24    2.22
  -5  -3   0   51.79    2.30
  -5  -3  -1    1.60    0.85
   5   3   1    2.23    0.43
   5   3   1    2.53    0.72
  -5  -3  -1    3.19    0.81
  -5  -3  -1    2.67    0.81
   5   3   1    2.42    0.72
   5   3   1    2.86    1.14
   5   3   2   26.12    1.50
  -5  -3  -2   25.28    1.50
   5   3   2   27.53    1.42
  -5  -3  -2   27.26    1.57
   5   3   3   23.13    1.41
  -5  -3  -3   19.92    1.45
   5   3   3   23.09    1.34
   5   3   3   18.35    1.57
  -5  -3  -3   21.94    1.42
  -5  -3  -4   10.06    1.22
   5   3   4   10.89    1.13
  -5  -3  -4   10.08    1.11
   5   3   4   10.19    1.44
  -5  -3  -4   11.56    0.94
  -5  -3  -4   12.37    1.40
  -5  -3  -5    5.22    1.10
   5   3   5    5.10    0.41
  -5  -3  -5    6.98    0.90
   5   3   5    4.27    0.37
  -5  -3  -5    5.79    1.43
   5   3   5    5.90    0.42
   5   3   5    6.30    1.43
  -5  -3  -5    5.66    0.93
  -5  -3  -6    0.45    1.12
   5   3   6   -0.01    0.51
  -5  -3  -6   -0.49    0.86
   5   3   6   -0.04    0.46
   5   3   6    0.28    0.52
   5   3   6   -0.53    1.36
   5   3   7    3.40    0.65
  -5  -3  -7    4.10    1.22
  -5  -3  -7    5.45    0.99
   5   3   7    3.33    0.68
   5   3   7    1.59    1.51
  -5  -3  -8    2.26    1.02
  -5  -3  -8    1.54    1.37
   5   3   8    1.25    1.55
  -5  -3  -9   -0.48    1.14
  -5  -3  -9    0.10    1.33
   5   3   9    1.62    1.60
  -5  -3 -10   -0.36    1.24
   5   3  10   -0.16    1.82
  -5  -4  15    0.87    1.48
  -5  -4  15    1.71    1.13
   5   4 -15    5.67    1.75
  -5  -4  15    2.33    1.43
  -5  -4  14    3.83    1.45
  -5  -4  14    4.17    1.09
   5   4 -14    2.80    1.62
   5   4 -14    1.43    1.48
  -5  -4  13    8.44    1.39
  -5  -4  13    8.39    1.18
   5   4 -13    7.78    1.56
  -5  -4  12   42.31    2.24
  -5  -4  12   41.16    2.03
   5   4 -12   43.86    2.33
   5   4 -11    0.88    1.17
  -5  -4  11   -0.03    1.12
   5   4 -11    0.35    0.32
   5   4 -11   -1.31    1.26
  -5  -4  11    0.98    0.96
   5   4 -10   13.31    1.28
   5   4 -10   14.99    1.35
  -5  -4  10   12.69    1.25
   5   4 -10   11.54    1.37
  -5  -4  10   15.97    1.17
   5   4 -10   14.31    1.44
   5   4  -9    0.99    1.01
   5   4  -9   -1.55    1.39
  -5  -4   9   -0.16    0.86
   5   4  -9   -0.86    1.06
  -5  -4   9    0.22    0.84
   5   4  -9    0.17    1.04
  -5  -4   9    1.05    0.87
   5   4  -9    0.28    1.12
  -5  -4   8    8.28    0.97
   5   4  -8    5.84    1.02
   5   4  -8    8.54    1.31
  -5  -4   8    9.12    0.95
   5   4  -8    9.24    1.11
  -5  -4   8    8.56    0.92
   5   4  -8    6.71    1.09
   5   4  -8    7.84    1.09
   5   4  -7   14.42    1.15
  -5  -4   7   15.36    0.99
  -5  -4   7   13.59    1.08
  -5  -4   7   12.19    1.03
   5   4  -7   15.78    1.36
  -5  -4   7   14.10    1.00
   5   4  -7   15.60    1.16
   5   4  -7   12.75    1.14
  -5  -4   7   15.27    1.01
   5   4  -7   12.04    1.06
   5   4  -6   10.11    1.04
   5   4  -6   13.83    1.31
  -5  -4   6    9.58    0.97
  -5  -4   6    9.16    0.80
  -5  -4   6   11.03    0.97
  -5  -4   6   11.24    0.98
   5   4  -6   11.46    1.00
  -5  -4   6   10.19    0.77
   5   4  -6   10.77    1.02
   5   4  -6   10.75    0.88
   5   4  -5   -0.05    0.80
   5   4  -5    0.82    0.77
   5   4  -5    0.76    1.04
  -5  -4   5    0.16    0.51
  -5  -4   5    1.66    0.78
  -5  -4   5    0.45    0.74
  -5  -4   5    0.44    0.82
   5   4  -5   -0.57    0.81
  -5  -4   5    0.85    0.52
   5   4  -5    0.87    0.59
   5   4  -4   23.51    1.36
  -5  -4   4   21.83    0.95
  -5  -4   4   21.43    1.25
  -5  -4   4   20.47    1.23
   5   4  -4   23.18    1.27
  -5  -4   4   21.10    1.25
   5   4  -4   20.75    0.97
  -5  -4   4   23.08    0.96
   5   4  -4   18.69    0.89
   5   4  -4   23.28    1.23
   5   4  -3   13.83    1.02
   5   4  -3   15.40    1.07
  -5  -4   3   14.45    0.65
  -5  -4   3   14.14    0.70
   5   4  -3   14.06    1.02
  -5  -4   3   15.63    1.07
  -5  -4   3   13.55    1.00
   5   4  -3   13.92    0.65
   5   4  -3   12.88    0.79
  -5  -4   3   14.17    1.05
   5   4  -2   50.71    2.16
  -5  -4   2   50.16    2.05
  -5  -4   2   53.65    2.26
  -5  -4   2   50.92    2.22
   5   4  -2   45.33    2.14
  -5  -4   2   50.87    2.25
   5   4  -2   56.19    2.25
   5   4  -1   48.91    2.10
  -5  -4   1   47.61    2.11
   5   4  -1   44.78    1.93
  -5  -4   1   46.63    1.96
  -5  -4   1   47.70    2.07
   5   4  -1   49.09    2.10
   5   4  -1   43.73    2.11
  -5  -4   0    1.03    0.94
   5   4   0    1.80    0.84
  -5  -4   0    1.46    0.71
  -5  -4   0    0.59    0.82
   5   4   0    0.78    0.79
  -5  -4   0    1.18    0.75
   5   4   0    1.48    0.74
   5   4   0    0.57    0.97
  -5  -4  -1    0.88    0.91
   5   4   1   -0.69    0.77
  -5  -4  -1   -1.13    0.75
  -5  -4  -1    0.22    0.83
   5   4   1   -0.49    0.77
  -5  -4  -1    0.26    0.87
   5   4   1    0.52    1.07
  -5  -4  -2    5.31    1.09
  -5  -4  -2    6.02    1.01
  -5  -4  -2    4.15    0.95
   5   4   2    4.00    0.91
  -5  -4  -2    4.46    0.80
   5   4   2    4.18    1.20
  -5  -4  -2    4.17    0.92
  -5  -4  -3    1.07    0.94
   5   4   3    0.59    0.98
  -5  -4  -3    0.91    1.15
  -5  -4  -3    0.94    0.81
   5   4   3   -0.42    1.26
  -5  -4  -4    7.21    1.37
   5   4   4    8.08    1.48
   5   4   5    6.15    1.54
  -5  -4  -6    1.35    1.18
  -5  -4  -6    1.49    0.95
   5   4   6    0.98    1.42
  -5  -4  -7    3.67    1.28
  -5  -4  -7    3.38    0.99
   5   4   7    2.54    1.67
  -5  -4  -8   -0.51    1.30
  -5  -4  -8   -0.15    1.06
   5   4   8   -0.36    1.61
  -5  -4  -9   -0.81    1.21
   5   4   9   -2.21    1.76
   5   5 -15   -1.40    1.82
   5   5 -14    3.47    1.60
  -5  -5  14    2.67    1.36
   5   5 -13    0.28    1.21
  -5  -5  13    4.08    1.27
  -5  -5  13    1.17    1.00
   5   5 -13    0.05    1.49
   5   5 -12   -0.11    1.16
  -5  -5  12    1.98    1.23
  -5  -5  12    1.12    1.06
   5   5 -12    3.09    1.37
   5   5 -11    0.67    1.06
  -5  -5  11    0.57    1.08
   5   5 -11   -0.12    1.19
  -5  -5  11    1.44    0.99
   5   5 -10    3.63    1.09
  -5  -5  10    2.77    1.14
   5   5 -10    3.06    1.10
   5   5 -10    5.90    1.16
  -5  -5  10    4.36    1.01
   5   5 -10    4.70    1.32
   5   5  -9   10.33    1.18
  -5  -5   9   12.77    1.20
   5   5  -9   11.11    1.20
   5   5  -9   11.42    1.30
   5   5  -9   11.16    1.26
  -5  -5   9   11.09    1.07
   5   5  -8   -0.44    0.96
  -5  -5   8    1.25    0.89
   5   5  -8    0.53    1.42
  -5  -5   8    0.09    0.86
  -5  -5   8    1.64    0.89
   5   5  -8   -0.46    1.00
   5   5  -8    0.21    0.97
   5   5  -8   -0.29    0.95
  -5  -5   7   18.69    1.10
   5   5  -7   19.68    1.55
  -5  -5   7   15.98    1.18
  -5  -5   7   16.49    1.13
  -5  -5   7   15.14    1.16
   5   5  -7   15.44    1.26
   5   5  -7   14.02    1.09
   5   5  -7   16.91    1.26
   5   5  -7   17.69    1.19
   5   5  -6    7.48    0.97
   5   5  -6    7.31    1.02
   5   5  -6    6.53    1.21
  -5  -5   6    6.74    0.71
  -5  -5   6    7.10    0.97
  -5  -5   6    7.34    0.95
  -5  -5   6    7.47    0.88
   5   5  -6    7.96    1.01
  -5  -5   6    7.21    0.75
   5   5  -6    6.87    0.74
  -5  -5   5   24.26    1.12
   5   5  -5   25.56    1.58
  -5  -5   5   24.46    1.32
  -5  -5   5   24.83    1.40
   5   5  -5   25.69    1.45
   5   5  -5   25.14    1.42
  -5  -5   5   24.12    1.42
   5   5  -5   23.96    1.15
  -5  -5   5   24.09    1.12
   5   5  -5   23.60    1.36
   5   5  -4    3.66    0.90
   5   5  -4    3.17    1.00
  -5  -5   4    2.40    0.43
  -5  -5   4    2.69    0.83
  -5  -5   4    2.50    0.84
   5   5  -4    3.53    0.90
  -5  -5   4    2.80    0.88
   5   5  -4    4.06    0.92
  -5  -5   4    2.91    0.43
   5   5  -4    2.85    0.45
   5   5  -3   18.28    1.18
  -5  -5   3   16.47    0.75
  -5  -5   3   16.42    0.69
  -5  -5   3   19.13    1.18
  -5  -5   3   18.58    1.20
   5   5  -3   19.89    1.18
   5   5  -3   15.29    0.76
  -5  -5   3   17.09    1.19
   5   5  -3   19.87    1.18
  -5  -5   2    0.86    0.82
   5   5  -2   -0.13    0.84
  -5  -5   2   -0.19    0.48
   5   5  -2    0.18    0.86
  -5  -5   2    0.38    0.84
   5   5  -2    0.40    0.57
  -5  -5   1    5.63    1.07
   5   5  -1    6.49    0.96
   5   5  -1    6.28    0.89
  -5  -5   1    4.14    0.92
  -5  -5   1    4.84    0.67
  -5  -5   1    4.55    0.88
   5   5  -1    4.44    0.85
  -5  -5   0   16.95    1.33
   5   5   0   19.59    1.30
  -5  -5   0   16.32    1.20
  -5  -5   0   18.43    1.10
  -5  -5   0   16.65    1.21
   5   5   0   15.28    1.25
  -5  -5  -1    2.06    1.08
   5   5   1    2.98    1.06
  -5  -5  -1    2.47    0.87
  -5  -5  -1    1.27    0.89
   5   5   1    0.26    0.87
  -5  -5  -1    0.27    0.78
   5   5   1    0.73    1.14
   5   5   2   14.29    1.32
  -5  -5  -2   14.95    1.28
   5   5   2   15.74    1.21
  -5  -5  -2   14.61    1.08
  -5  -5  -2   10.12    1.16
   5   5   2   13.28    1.50
  -5  -5  -3    9.66    1.29
  -5  -5  -3    7.39    0.98
   5   5   3    7.61    1.44
  -5  -5  -3    6.19    1.07
  -5  -5  -4   -0.37    1.06
  -5  -5  -4    0.36    0.92
  -5  -5  -4   -0.85    1.47
   5   5   4   -0.76    1.56
  -5  -5  -5    7.44    1.26
  -5  -5  -5    6.51    1.08
   5   5   5    8.10    1.65
   5   5   6    1.72    1.70
   5   5   7    0.42    1.70
  -5  -5  -8    0.19    1.13
   5   5   8    2.10    1.85
   5   6 -15   -0.12    1.74
  -5  -6  14    4.25    1.47
   5   6 -14    4.24    1.64
  -5  -6  13    7.44    1.49
   5   6 -13    8.30    1.54
  -5  -6  12    7.12    1.27
  -5  -6  12    5.49    1.04
   5   6 -12    7.23    1.53
   5   6 -11    3.04    1.14
  -5  -6  11    1.97    1.10
   5   6 -11    3.42    1.33
  -5  -6  11    2.18    0.95
   5   6 -10    8.85    1.12
  -5  -6  10    9.04    1.22
   5   6 -10    5.65    1.31
  -5  -6  10    7.81    1.06
   5   6 -10    6.83    1.27
   5   6  -9    0.11    0.95
  -5  -6   9    0.51    0.95
   5   6  -9    0.46    1.05
   5   6  -9    1.30    1.02
   5   6  -9   -0.22    1.01
  -5  -6   9    0.23    0.93
   5   6  -8    0.55    0.93
   5   6  -8    0.21    0.95
  -5  -6   8   -0.09    0.97
  -5  -6   8    2.19    0.93
   5   6  -8    2.80    1.04
   5   6  -8    1.48    0.88
   5   6  -7    0.03    0.91
   5   6  -7   -0.29    0.96
  -5  -6   7    0.78    0.98
  -5  -6   7    1.34    0.80
  -5  -6   7   -0.37    0.79
   5   6  -7    1.82    1.06
   5   6  -7    0.08    0.77
   5   6  -6    0.64    0.86
  -5  -6   6    0.30    0.67
  -5  -6   6   -0.91    0.97
   5   6  -6   -0.39    1.01
  -5  -6   6   -0.13    0.86
  -5  -6   6   -0.50    0.98
   5   6  -6    0.46    0.97
   5   6  -6    0.10    0.65
   5   6  -5    2.14    0.97
  -5  -6   5    0.92    0.53
  -5  -6   5    0.83    0.94
  -5  -6   5    0.37    0.92
  -5  -6   5    1.09    0.86
   5   6  -5    0.39    0.97
   5   6  -5    1.19    0.94
  -5  -6   5    0.57    0.53
   5   6  -5    0.64    0.58
   5   6  -4   35.96    1.71
  -5  -6   4   33.27    1.72
  -5  -6   4   32.74    1.73
   5   6  -4   33.48    1.72
   5   6  -4   32.30    1.38
  -5  -6   4   30.81    1.74
   5   6  -4   35.87    1.76
   5   6  -3   19.85    1.34
   5   6  -3   19.43    1.27
  -5  -6   3   18.40    1.30
  -5  -6   3   16.36    1.26
   5   6  -3   18.66    1.31
  -5  -6   3   17.06    1.30
   5   6  -2   38.64    1.92
   5   6  -2   37.38    1.82
   5   6  -2   36.83    1.78
   5   6  -2   33.40    1.47
  -5  -6   2   32.75    1.79
  -5  -6   1    1.61    1.05
   5   6  -1    0.14    1.10
  -5  -6   1   -0.29    0.97
   5   6  -1   -1.16    1.00
   5   6  -1   -0.84    0.94
   5   6  -1    0.18    0.67
   5   6   0   -0.65    1.11
  -5  -6   0   -0.63    0.98
   5   6   0    0.12    0.95
   5   6   0    1.69    0.84
   5   6   1    1.67    1.15
  -5  -6  -1    2.72    1.03
   5   6   1    2.75    1.15
  -5  -6  -2    4.45    1.04
   5   6   2    2.68    1.22
  -5  -6  -3    4.75    1.01
   5   6   3    3.81    1.41
  -5  -6  -3    2.24    1.15
  -5  -6  -4   -2.11    1.16
  -5  -6  -4    0.95    0.95
   5   6   4   -0.14    1.57
  -5  -6  -5    0.79    1.22
  -5  -6  -5    0.24    0.99
   5   6   5   -0.05    1.66
  -5  -6  -6    0.19    1.05
   5   6   6   -1.02    1.74
   5   6   7    1.35    1.84
   5   6   8   -1.27    1.95
   5   7 -14   -0.57    1.53
   5   7 -13   -1.41    1.52
   5   7 -12    0.26    1.41
   5   7 -11    0.92    1.34
   5   7 -10    0.99    0.96
   5   7 -10   -1.47    1.26
  -5  -7  10    0.97    1.06
   5   7  -9    0.58    1.04
   5   7  -9    2.03    1.19
  -5  -7   9    0.56    0.95
   5   7  -8   -0.17    1.00
  -5  -7   8    2.62    1.06
   5   7  -8    0.85    1.14
   5   7  -7    2.86    1.03
  -5  -7   7    0.34    0.97
   5   7  -7    1.41    1.04
   5   7  -7   -0.49    1.06
   5   7  -7   -0.40    0.81
   5   7  -6   16.86    1.32
  -5  -7   6   14.11    1.26
   5   7  -6   14.17    0.99
   5   7  -6   14.35    1.27
   5   7  -6   15.98    1.30
   5   7  -5   12.46    1.33
   5   7  -5   12.60    1.18
  -5  -7   5   11.08    1.22
   5   7  -5   12.10    1.21
   5   7  -5   10.59    0.79
   5   7  -4    1.52    1.16
  -5  -7   4    2.25    0.96
   5   7  -4    1.84    1.02
  -5  -7   4    0.35    1.03
   5   7  -4    1.19    1.07
   5   7  -3   -0.11    1.23
   5   7  -3   -0.45    1.03
  -5  -7   3    1.47    0.96
   5   7  -3    0.06    1.05
  -5  -7   3    1.21    1.08
  -5  -7   2    0.50    1.05
   5   7  -2    2.73    1.26
   5   7  -2    1.09    1.06
   5   7  -1    0.70    1.17
  -5  -7   1    1.23    1.03
   5   7  -1    2.31    1.13
   5   7  -1    1.61    0.65
  -5  -7   0    1.92    1.14
   5   7   0    3.54    1.10
   5   7   0    3.31    0.84
  -5  -7  -1    0.96    1.12
   5   7   1    0.89    1.12
   5   7   1   -0.22    0.95
  -5  -7  -2    0.42    1.03
  -5  -7  -2    1.56    1.16
   5   7   2    2.29    1.19
  -5  -7  -3    1.06    1.05
  -5  -7  -3    1.50    1.21
   5   7   3    3.38    1.33
  -5  -7  -4    0.22    1.02
   5   7   4    2.50    1.50
  -5  -7  -4    1.53    1.18
  -5  -7  -5    1.52    1.11
   5   7   5    1.70    1.55
   5   7   6    0.06    1.76
   5   7   7   -1.54    1.78
   5   8 -12    3.86    1.49
   5   8 -11    1.56    1.36
   5   8 -10    1.17    1.22
   5   8  -9    0.51    1.12
   5   8  -8   -0.11    1.15
  -5  -8   8    0.51    1.01
   5   8  -8   -0.53    1.12
   5   8  -7    1.75    1.25
  -5  -8   7    1.40    1.07
   5   8  -7    2.57    1.13
   5   8  -6    2.13    1.26
  -5  -8   6   -0.83    1.09
   5   8  -6    1.42    1.18
   5   8  -5    0.04    1.37
  -5  -8   5   -1.39    1.17
   5   8  -5    1.13    1.17
   5   8  -4   -0.53    1.23
  -5  -8   4   -0.24    1.13
   5   8  -4    0.27    1.18
   5   8  -3    1.51    1.40
   5   8  -3   -0.44    1.13
  -5  -8   3    0.67    1.16
  -5  -8   2    4.01    1.18
   5   8  -2    3.90    1.16
  -5  -8   1    1.50    1.14
   5   8  -1    1.95    1.28
  -5  -8   0    5.67    1.24
   5   8   0    4.48    1.28
  -5  -8  -1    1.47    1.10
  -5  -8  -1    0.84    1.25
  -5  -8  -2    0.13    1.07
  -5  -8  -2   -2.83    1.35
   5   8   2    0.20    1.05
  -5  -8  -3    0.23    1.12
   5   8   3   -0.59    1.33
   5   8   4   -0.98    1.40
   5   8   5    0.26    1.54
   5   8   6   -0.82    1.72
   5   9 -10   -0.85    1.30
   5   9  -9    0.15    1.31
   5   9  -8    2.00    1.21
   5   9  -7    3.32    1.38
  -5  -9   6    4.65    1.20
   5   9  -6    4.68    1.35
  -5  -9   5   -0.72    1.19
   5   9  -5    2.11    1.24
  -5  -9   4    0.66    1.22
   5   9  -4    1.41    1.27
   5   9  -3   -0.52    1.27
  -5  -9   3   -1.08    1.20
   5   9  -2   -0.16    1.32
  -5  -9   2   -0.46    1.29
  -5  -9   1    0.12    1.23
   5   9  -1    0.41    1.42
  -5  -9   0    2.46    1.20
  -5  -9  -1    0.33    1.09
   5  10  -8   -1.58    1.33
   5  10  -7    2.90    1.39
   5  10  -6    1.30    1.32
   5  10  -5    0.54    1.30
   5  10  -4   -0.87    1.30
   5  10  -3    1.84    1.38
   6 -12  -2    0.17    1.75
   6 -12  -1   -1.79    1.61
   6 -12   0    1.80    1.67
   6 -12   2    0.58    1.59
   6 -11  -8    0.16    1.55
   6 -11  -7    0.93    1.54
   6 -11  -6    1.73    1.50
   6 -11  -6   -0.18    1.34
   6 -11  -5    8.61    1.60
   6 -11  -5    3.60    1.19
   6 -11  -4    0.65    1.52
   6 -11  -4    1.59    1.21
   6 -11  -3   12.59    1.63
   6 -11  -3   11.49    1.36
   6 -11  -2    4.82    1.58
   6 -11  -2    5.68    1.27
   6 -11  -1    9.85    1.56
   6 -11  -1   11.00    1.46
   6 -11   0   12.97    1.73
   6 -11   0   15.58    1.49
   6 -11   1   12.12    1.65
   6 -11   1   14.55    1.51
   6 -11   2   27.88    2.07
   6 -11   2   32.88    1.99
   6 -11   3   -0.15    1.50
   6 -11   3    0.43    1.34
   6 -11   4   10.69    1.62
   6 -11   5   10.73    1.75
  -6  10   9    1.18    1.72
  -6  10   9    2.62    1.31
   6 -10  -8    1.47    1.45
  -6  10   8   -0.05    1.52
  -6  10   8   -0.78    1.09
   6 -10  -7    6.95    1.49
   6 -10  -7    5.61    1.50
  -6  10   7    5.79    1.55
  -6  10   7    5.48    1.09
   6 -10  -6    4.78    1.48
   6 -10  -6    6.20    1.34
  -6  10   6    4.10    1.53
  -6  10   6    2.34    1.03
   6 -10  -5   12.01    1.59
   6 -10  -5   11.11    1.37
  -6  10   5   12.82    1.13
   6 -10  -4   -2.67    1.42
   6 -10  -4   -0.48    1.08
   6 -10  -4   -0.47    1.14
  -6  10   4    1.13    0.89
   6 -10  -3    7.60    1.17
   6 -10  -3    7.18    1.49
   6 -10  -3    5.28    1.28
  -6  10   3    6.31    0.77
   6 -10  -2   15.63    1.64
   6 -10  -2   13.39    1.43
   6 -10  -1    0.70    1.32
   6 -10  -1   -0.26    1.28
   6 -10   0    8.15    1.35
   6 -10   0    6.70    1.38
   6 -10   1    4.38    1.37
   6 -10   1    6.77    1.38
   6 -10   2    2.84    1.40
   6 -10   2    1.33    1.27
   6 -10   3    9.64    1.52
   6 -10   3    9.09    1.40
   6 -10   4   -1.42    1.42
   6 -10   4    0.57    1.26
   6 -10   5    1.21    1.56
   6 -10   5   -1.45    1.32
   6 -10   6    1.40    1.51
   6  -9 -11    2.49    1.42
  -6   9  10    0.62    1.19
   6  -9 -10   -1.37    1.40
   6  -9 -10    2.34    1.47
  -6   9  10    2.73    1.75
  -6   9   9   -0.43    1.12
   6  -9  -9   -1.64    1.33
   6  -9  -9    0.46    1.16
  -6   9   9    0.11    1.61
  -6   9   8    0.52    1.17
   6  -9  -8    1.08    1.31
   6  -9  -8   -0.03    1.19
  -6   9   8    1.70    1.41
  -6   9   7    0.96    1.02
   6  -9  -7   -1.60    1.27
  -6   9   7    0.51    0.97
   6  -9  -7    0.61    1.36
   6  -9  -7    0.06    1.01
  -6   9   7    0.24    1.43
  -6   9   6    0.51    0.90
   6  -9  -6    1.95    1.25
  -6   9   6   -0.67    0.91
   6  -9  -6    0.30    1.22
   6  -9  -6    1.10    0.93
  -6   9   6   -0.41    1.33
  -6   9   5    1.01    0.84
   6  -9  -5    1.24    1.31
  -6   9   5    0.65    0.79
   6  -9  -5    0.63    1.28
  -6   9   5   -0.17    1.29
  -6   9   4    6.85    0.86
   6  -9  -4    7.42    1.34
  -6   9   4    6.69    0.81
   6  -9  -4    6.54    1.25
  -6   9   3    5.08    0.74
   6  -9  -3    2.73    1.26
  -6   9   3    4.52    0.66
   6  -9  -3    4.55    1.05
   6  -9  -3    4.10    1.18
  -6   9   2    9.77    0.75
   6  -9  -2   10.43    1.40
   6  -9  -2   11.84    1.15
   6  -9  -2   10.89    1.30
   6  -9  -1   11.47    1.41
   6  -9  -1   12.10    1.08
  -6   9   1   11.27    0.69
   6  -9  -1   13.32    1.38
   6  -9   0   34.93    2.10
   6  -9   0   39.23    2.09
   6  -9   1   13.01    1.46
   6  -9   1   12.15    1.39
   6  -9   2   31.58    2.01
   6  -9   2   30.13    1.87
   6  -9   3   65.36    3.23
   6  -9   3   71.35    3.14
   6  -9   4   13.74    1.63
   6  -9   5   30.87    2.15
   6  -9   6   13.42    1.66
   6  -9   7   20.85    1.97
   6  -9   7   21.04    1.69
   6  -9   8    1.13    1.53
   6  -8 -12    3.39    1.54
  -6   8  11    2.23    1.20
  -6   8  11    0.55    1.74
   6  -8 -11    3.64    1.45
  -6   8  10    0.85    1.17
   6  -8 -10    1.95    1.36
  -6   8  10    0.93    1.61
   6  -8 -10   -0.08    1.31
  -6   8   9    0.46    1.09
   6  -8  -9    0.86    1.32
   6  -8  -9    1.18    1.24
  -6   8   9    0.50    1.41
   6  -8  -8    4.49    1.18
  -6   8   8    2.80    1.02
   6  -8  -8    6.01    1.28
   6  -8  -8    3.86    1.43
   6  -8  -8    2.56    1.13
  -6   8   8    1.13    1.37
   6  -8  -7   53.69    2.73
  -6   8   7   61.20    2.48
   6  -8  -7   54.93    2.58
   6  -8  -7   54.37    2.80
   6  -8  -7   55.92    2.56
  -6   8   7   57.69    2.53
   6  -8  -6    0.87    0.96
  -6   8   6    2.30    0.95
   6  -8  -6    1.21    0.94
   6  -8  -6    0.37    1.25
  -6   8   6    2.23    0.84
   6  -8  -6    1.69    1.15
   6  -8  -5   45.75    2.42
  -6   8   5   47.20    2.08
   6  -8  -5   47.47    2.15
   6  -8  -5   48.05    2.36
   6  -8  -5   48.11    2.15
  -6   8   5   50.44    2.14
   6  -8  -4   37.40    2.10
  -6   8   4   38.83    1.68
  -6   8   4   34.42    2.01
   6  -8  -4   36.91    1.99
   6  -8  -4   38.12    1.73
   6  -8  -4   35.56    1.75
  -6   8   4   39.52    1.77
  -6   8   3    6.78    0.79
   6  -8  -3    5.93    1.25
  -6   8   3    8.19    0.74
   6  -8  -3    8.20    1.11
   6  -8  -3    7.61    0.76
   6  -8  -2   59.82    2.83
  -6   8   2   61.43    2.40
   6  -8  -2   62.96    2.69
   6  -8  -2   62.87    2.80
  -6   8   2   57.24    2.44
   6  -8  -1   17.12    1.45
   6  -8  -1   15.41    1.18
  -6   8   1   15.46    0.74
   6  -8  -1   17.13    1.44
  -6   8   1   14.91    0.83
   6  -8   0   18.01    1.54
   6  -8   0   19.59    1.23
  -6   8   0   19.34    0.85
   6  -8   0   18.49    1.52
   6  -8   1   89.80    3.85
   6  -8   1   89.43    3.83
   6  -8   1   89.97    3.60
   6  -8   2    1.91    1.24
   6  -8   3   36.11    2.09
   6  -8   4    3.29    1.40
   6  -8   5   28.78    2.02
   6  -8   5   28.92    1.75
   6  -8   6    0.87    1.38
   6  -8   6    2.17    1.21
   6  -8   7   -0.51    1.44
   6  -8   7   -1.12    1.27
   6  -8   8    1.64    1.51
   6  -8   8    2.47    1.25
   6  -7 -13   -0.21    1.63
  -6   7  12    2.98    1.19
   6  -7 -12    0.34    1.42
  -6   7  12    4.94    1.75
   6  -7 -12    1.27    1.50
  -6   7  11    9.28    1.21
   6  -7 -11    7.95    1.52
  -6   7  11    5.41    1.69
   6  -7 -11    6.48    1.46
  -6   7  10    7.26    1.15
  -6   7  10    3.65    1.57
   6  -7 -10    4.12    1.32
   6  -7  -9   35.69    1.93
  -6   7   9   34.64    1.78
   6  -7  -8   -0.03    1.10
  -6   7   8    1.61    0.94
  -6   7   8    1.63    0.82
   6  -7  -8    1.44    1.24
   6  -7  -8    1.51    1.05
  -6   7   7    0.02    0.84
   6  -7  -7   -0.18    1.04
  -6   7   7   -0.68    0.87
   6  -7  -7    1.48    1.22
   6  -7  -7   -1.11    1.22
   6  -7  -7    1.88    0.97
   6  -7  -6   58.64    2.99
  -6   7   6   69.11    2.96
  -6   7   6   66.92    2.69
   6  -7  -6   62.34    2.77
   6  -7  -6   67.34    2.99
   6  -7  -6   65.51    2.78
  -6   7   6   64.17    2.74
   6  -7  -5    7.66    0.92
  -6   7   5    7.88    0.90
   6  -7  -5    8.00    1.21
  -6   7   5    9.16    0.84
   6  -7  -5    9.26    1.14
  -6   7   5    8.48    1.16
   6  -7  -5    7.55    0.92
  -6   7   4    8.48    0.90
   6  -7  -4    7.22    0.83
   6  -7  -4    7.57    1.20
   6  -7  -4    7.50    0.99
  -6   7   4    8.70    0.78
   6  -7  -4    8.55    1.12
   6  -7  -4    7.01    0.80
  -6   7   4    6.86    1.15
   6  -7  -4    7.62    1.03
   6  -7  -4    6.83    1.14
  -6   7   3   58.37    2.78
   6  -7  -3   59.53    2.72
   6  -7  -3   67.56    2.88
  -6   7   3   60.73    2.55
  -6   7   3   67.88    2.82
   6  -7  -3   66.40    2.79
   6  -7  -3   65.16    2.57
   6  -7  -3   64.30    2.61
  -6   7   3   61.90    2.60
  -6   7   2   11.54    0.85
   6  -7  -2   14.52    1.27
  -6   7   2   11.13    0.78
   6  -7  -2   10.61    1.11
   6  -7  -2   11.71    0.74
   6  -7  -2   12.89    1.14
   6  -7  -2   13.72    1.30
   6  -7  -2   14.02    0.86
   6  -7  -1   30.88    1.32
   6  -7  -1   26.16    1.73
  -6   7   1   30.82    1.29
   6  -7  -1   30.49    1.57
   6  -7  -1   30.66    1.26
  -6   7   1   27.32    1.34
   6  -7   0   21.85    1.47
  -6   7   0   21.46    0.93
   6  -7   0   22.65    0.92
  -6   7   0   19.61    1.01
   6  -7   1    2.51    0.77
  -6   7  -1    1.66    0.42
  -6   7  -1    1.23    1.13
   6  -7   1    0.83    1.10
   6  -7   2   34.85    2.01
   6  -7   2   37.21    1.67
   6  -7   3   17.79    1.52
   6  -7   3   16.38    1.36
   6  -7   3   18.17    1.01
   6  -7   4    1.73    1.28
   6  -7   4    0.03    0.98
   6  -7   5  159.13    6.35
   6  -7   5  153.97    6.18
   6  -7   6    1.13    1.40
   6  -7   6    0.26    1.13
   6  -7   7   20.30    1.81
   6  -7   7   21.48    1.54
   6  -7   8   45.28    2.62
   6  -7   8   47.06    2.32
   6  -7   9   -0.10    1.28
   6  -7  10   15.86    1.48
   6  -6 -13    5.66    1.63
  -6   6  13    8.41    1.96
   6  -6 -13   10.31    1.80
  -6   6  12   10.53    1.23
   6  -6 -12    7.45    1.54
   6  -6 -12    8.10    1.69
  -6   6  11   16.86    1.38
   6  -6 -11   14.84    1.62
   6  -6 -11   18.23    1.63
  -6   6  10    0.48    0.93
   6  -6 -10    0.63    1.30
   6  -6 -10   -0.55    1.30
   6  -6  -9    0.25    1.10
  -6   6   9   -0.53    0.97
   6  -6  -9    0.18    1.24
  -6   6   9   -0.45    1.29
   6  -6  -9    0.48    1.29
   6  -6  -9    0.25    1.08
  -6   6   8   42.64    2.21
   6  -6  -8   39.66    2.04
   6  -6  -8   40.18    2.18
   6  -6  -8   38.78    2.01
  -6   6   8   41.44    1.89
  -6   6   8   40.78    1.92
   6  -6  -7    2.27    1.15
   6  -6  -7    2.80    1.01
  -6   6   7    3.34    0.90
  -6   6   7    2.68    0.80
  -6   6   7    3.37    1.13
   6  -6  -7    4.13    0.96
   6  -6  -6    1.25    0.87
  -6   6   6    1.65    0.82
   6  -6  -6   -0.61    0.88
  -6   6   6    0.86    0.74
  -6   6   6    2.33    1.04
   6  -6  -6    1.05    0.99
   6  -6  -6    0.50    0.79
   6  -6  -6    0.27    0.83
   6  -6  -5   29.87    1.58
   6  -6  -5   26.80    1.76
  -6   6   5   33.43    1.74
  -6   6   5   29.43    1.45
   6  -6  -5   31.95    1.73
   6  -6  -5   32.47    1.54
   6  -6  -5   32.25    1.60
   6  -6  -5   30.82    1.58
  -6   6   5   33.16    1.53
  -6   6   4   17.81    1.12
   6  -6  -4   19.37    1.44
  -6   6   4   20.46    1.36
  -6   6   4   21.65    1.09
   6  -6  -4   20.27    1.34
   6  -6  -4   20.70    1.16
   6  -6  -4   21.59    1.15
  -6   6   3    3.15    0.95
   6  -6  -3    5.40    1.07
  -6   6   3    4.40    0.68
  -6   6   3    5.47    0.65
   6  -6  -3    4.09    0.98
   6  -6  -3    4.43    0.76
   6  -6  -3    6.25    0.69
  -6   6   3    4.79    0.94
  -6   6   2  338.13   12.81
  -6   6   2  342.74   12.97
   6  -6  -2  343.84   13.01
  -6   6   2  331.63   12.79
   6  -6  -2  351.83   12.94
   6  -6  -2  335.18   12.80
   6  -6  -2  342.42   12.82
  -6   6   1    1.83    0.94
   6  -6  -1    2.37    0.53
   6  -6  -1    1.58    1.04
  -6   6   1    3.02    0.52
   6  -6  -1    1.92    0.87
  -6   6   1    1.85    0.56
   6  -6  -1    2.22    0.84
   6  -6  -1    1.78    0.46
  -6   6   0  178.50    6.89
   6  -6   0  173.50    7.05
   6  -6   0  183.00    7.13
   6  -6   0  184.14    6.87
  -6   6   0  174.58    6.86
   6  -6   0  187.23    6.85
  -6   6  -1   48.87    2.05
   6  -6   1   51.10    2.41
   6  -6   1   48.62    2.31
  -6   6  -1   49.78    2.01
   6  -6   1   52.57    1.99
   6  -6   1   52.50    2.35
   6  -6   1   51.69    2.02
   6  -6   1   50.27    2.20
  -6   6  -2   44.86    1.76
   6  -6   2   41.17    2.18
   6  -6   2   41.72    2.07
  -6   6  -2   41.24    1.71
   6  -6   2   48.06    2.10
  -6   6  -2   43.60    1.68
   6  -6   2   44.88    1.91
  -6   6  -3  136.49    5.10
   6  -6   3  137.92    5.44
   6  -6   3  129.89    5.35
  -6   6  -3  125.90    5.04
  -6   6  -3  136.92    5.06
  -6   6  -3  139.61    5.07
   6  -6   3  141.21    5.34
   6  -6   3  141.90    5.21
  -6   6  -4   49.82    1.93
   6  -6   4   52.43    2.47
  -6   6  -4   49.32    1.86
  -6   6  -4   48.02    1.87
  -6   6  -4   50.52    2.15
   6  -6   4   45.60    2.22
  -6   6  -4   45.94    1.88
   6  -6   4   51.12    2.05
   6  -6   5   18.41    1.05
  -6   6  -5   19.30    0.87
  -6   6  -5   17.78    0.78
   6  -6   5   20.34    1.60
  -6   6  -5   20.98    1.20
  -6   6  -5   18.89    0.81
   6  -6   5   18.21    1.37
   6  -6   6   44.12    2.25
  -6   6  -6   41.02    1.97
   6  -6   6   39.03    2.01
   6  -6   7   10.64    1.58
   6  -6   7   10.61    1.22
   6  -6   8   22.03    1.53
   6  -6   9    0.90    1.19
   6  -6  10    3.08    1.25
   6  -6  10    5.10    1.28
   6  -6  11    1.10    1.30
   6  -5 -14    3.85    1.61
   6  -5 -14    2.45    1.76
  -6   5  13   -0.64    1.12
   6  -5 -13   -0.23    1.53
   6  -5 -13    1.11    1.63
  -6   5  12    3.72    1.07
   6  -5 -12    2.62    1.48
   6  -5 -12    1.50    1.51
   6  -5 -12    2.99    1.46
   6  -5 -11   20.99    1.78
  -6   5  11   27.39    2.01
   6  -5 -11   27.08    1.81
  -6   5  11   26.85    1.54
   6  -5 -10    2.02    1.22
  -6   5  10   -0.25    0.96
  -6   5  10    0.52    1.34
   6  -5 -10    2.68    1.31
   6  -5 -10    0.24    1.24
   6  -5  -9   53.98    2.70
  -6   5   9   55.57    2.76
  -6   5   9   59.21    2.48
   6  -5  -9   58.56    2.66
   6  -5  -9   56.02    2.78
   6  -5  -9   60.11    2.68
  -6   5   9   57.94    2.53
   6  -5  -8   36.50    1.98
  -6   5   8   35.89    2.00
  -6   5   8   37.34    1.71
   6  -5  -8   34.49    1.91
   6  -5  -8   35.78    2.03
   6  -5  -8   34.40    1.84
   6  -5  -8   34.91    1.86
  -6   5   8   37.22    1.75
  -6   5   7   43.89    1.99
   6  -5  -7   43.52    2.22
  -6   5   7   47.22    2.20
  -6   5   7   44.21    1.96
   6  -5  -7   42.58    2.06
   6  -5  -7   44.78    2.21
   6  -5  -7   43.87    2.07
   6  -5  -7   43.52    2.11
  -6   5   6   40.39    1.77
  -6   5   6   38.69    1.96
  -6   5   6   37.85    1.70
   6  -5  -6   35.19    1.91
   6  -5  -6   37.22    1.80
   6  -5  -6   39.05    1.84
   6  -5  -6   40.11    1.92
   6  -5  -5    4.76    0.85
   6  -5  -5    5.29    0.97
  -6   5   5    4.78    0.74
  -6   5   5    5.41    0.73
  -6   5   5    4.95    0.94
   6  -5  -5    4.04    0.72
  -6   5   4   77.57    3.09
  -6   5   4   77.32    3.20
  -6   5   4   76.25    3.21
  -6   5   4   76.29    3.06
   6  -5  -4   73.52    3.22
   6  -5  -4   78.48    3.11
   6  -5  -4   76.40    3.10
  -6   5   3   25.35    1.22
   6  -5  -3   22.56    1.36
  -6   5   3   24.92    1.39
  -6   5   3   24.26    1.36
   6  -5  -3   25.35    1.43
   6  -5  -3   25.30    1.22
  -6   5   3   23.94    1.17
   6  -5  -3   23.32    1.23
  -6   5   2   35.66    1.62
  -6   5   2   38.04    1.82
   6  -5  -2   37.53    1.75
   6  -5  -2   37.28    1.86
  -6   5   2   36.86    1.60
  -6   5   2   37.05    1.78
   6  -5  -2   40.77    1.81
   6  -5  -2   37.45    1.61
   6  -5  -2   37.86    1.65
   6  -5  -1  176.31    6.58
  -6   5   1  181.08    6.75
  -6   5   1  168.85    6.59
   6  -5  -1  165.27    6.69
   6  -5  -1  177.34    6.78
  -6   5   1  168.10    6.56
   6  -5  -1  167.82    6.69
   6  -5  -1  174.01    6.56
   6  -5  -1  178.00    6.74
  -6   5   0   21.24    1.31
   6  -5   0   20.54    1.25
  -6   5   0   19.19    1.01
   6  -5   0   19.20    0.98
   6  -5   0   22.61    1.40
  -6   5   0   20.61    0.96
   6  -5   0   19.87    0.94
   6  -5   0   20.67    1.28
   6  -5   0   20.98    1.20
  -6   5  -1  231.35    8.75
  -6   5  -1  231.22    8.85
   6  -5   1  232.49    8.86
   6  -5   1  229.03    8.79
  -6   5  -1  207.05    8.65
  -6   5  -1  216.51    8.63
   6  -5   1  243.01    8.62
   6  -5   1  236.39    8.80
   6  -5   1  235.43    8.64
   6  -5   1  228.80    8.73
   6  -5   2    4.79    0.77
  -6   5  -2    4.94    0.56
  -6   5  -2    2.39    1.00
   6  -5   2    4.77    1.07
  -6   5  -2    5.89    0.84
   6  -5   2    5.80    0.97
  -6   5  -2    4.41    0.53
   6  -5   2    4.81    0.49
   6  -5   2    5.00    0.48
   6  -5   2    4.47    0.86
   6  -5   3   12.38    0.86
  -6   5  -3   10.11    0.59
   6  -5   3   11.13    1.21
  -6   5  -3   10.61    0.73
  -6   5  -3   10.71    0.69
  -6   5  -3   12.06    1.00
   6  -5   3    9.37    1.10
  -6   5  -3   11.08    0.63
   6  -5   3   10.99    1.01
   6  -5   4   19.91    1.08
  -6   5  -4   18.91    0.86
   6  -5   4   20.40    1.39
   6  -5   4   17.22    1.45
  -6   5  -4   19.24    1.25
  -6   5  -4   19.69    0.96
  -6   5  -4   18.94    1.03
  -6   5  -4   19.90    0.90
   6  -5   4   17.08    1.26
   6  -5   5   27.12    1.28
   6  -5   5   25.71    1.67
  -6   5  -5   23.86    1.08
   6  -5   5   22.07    1.59
  -6   5  -5   25.93    1.48
  -6   5  -5   25.28    1.18
  -6   5  -5   24.83    1.22
   6  -5   5   23.15    1.45
  -6   5  -5   23.44    1.08
   6  -5   6    0.23    0.76
  -6   5  -6    0.89    0.50
  -6   5  -6    1.79    0.67
  -6   5  -6    1.25    0.49
   6  -5   6    0.64    1.22
  -6   5  -6    0.89    0.99
  -6   5  -6    1.02    0.75
   6  -5   6    0.61    0.98
  -6   5  -7   18.28    0.97
   6  -5   7   18.97    1.78
  -6   5  -7   18.50    1.40
  -6   5  -7   18.25    1.17
   6  -5   7   17.77    1.36
   6  -5   8    7.36    1.23
   6  -5   9    3.92    1.22
   6  -5  10   20.47    1.60
   6  -5  10   20.30    1.52
   6  -5  11   -0.30    1.21
   6  -4 -15    9.37    1.83
   6  -4 -14    2.72    1.62
  -6   4  14    2.66    1.88
   6  -4 -14    4.10    1.79
   6  -4 -14    0.23    1.69
  -6   4  13   18.51    1.96
   6  -4 -13   17.74    1.86
   6  -4 -13   22.72    1.91
   6  -4 -12    0.25    1.37
  -6   4  12    1.34    1.57
   6  -4 -12   -1.42    1.48
   6  -4 -11    9.18    1.37
  -6   4  11    8.67    1.14
  -6   4  11   12.67    1.57
   6  -4 -11   10.88    1.40
   6  -4 -10    3.53    1.24
   6  -4 -10    3.83    1.18
  -6   4  10    2.66    0.95
  -6   4  10    4.50    1.39
   6  -4 -10    2.81    1.31
   6  -4 -10    2.75    1.17
   6  -4  -9   25.05    1.70
  -6   4   9   28.96    1.75
  -6   4   9   30.70    1.52
   6  -4  -9   31.17    1.74
   6  -4  -9   29.06    1.84
   6  -4  -9   29.51    1.70
   6  -4  -9   27.76    1.61
  -6   4   9   28.89    1.52
   6  -4  -8   11.68    1.17
   6  -4  -8    9.87    1.19
  -6   4   8   10.32    1.01
  -6   4   8   13.19    0.97
  -6   4   8   11.69    1.25
   6  -4  -8   12.39    1.29
   6  -4  -8   14.21    1.18
   6  -4  -8   11.66    1.16
  -6   4   7   84.20    3.30
   6  -4  -7   79.29    3.44
  -6   4   7   75.37    3.41
  -6   4   7   78.89    3.25
   6  -4  -7   82.95    3.46
   6  -4  -7   79.78    3.34
   6  -4  -7   78.63    3.35
   6  -4  -7   85.19    3.38
   6  -4  -6   26.10    1.38
  -6   4   6   28.84    1.37
   6  -4  -6   27.27    1.52
  -6   4   6   25.31    1.47
  -6   4   6   24.90    1.30
   6  -4  -6   27.12    1.54
   6  -4  -6   23.47    1.43
   6  -4  -6   25.20    1.40
   6  -4  -6   25.89    1.40
   6  -4  -6   26.94    1.45
   6  -4  -5   82.19    3.32
  -6   4   5   82.62    3.30
   6  -4  -5   84.11    3.45
  -6   4   5   81.82    3.39
  -6   4   5   81.64    3.28
   6  -4  -5   83.36    3.44
   6  -4  -5   82.35    3.33
   6  -4  -5   78.22    3.33
   6  -4  -5   82.35    3.33
   6  -4  -4   52.14    2.31
  -6   4   4   54.17    2.36
  -6   4   4   53.94    2.29
   6  -4  -4   49.13    2.43
  -6   4   4   53.43    2.35
  -6   4   4   54.95    2.25
   6  -4  -4   55.26    2.42
   6  -4  -4   57.31    2.29
   6  -4  -4   55.61    2.30
   6  -4  -4   54.42    2.32
   6  -4  -3   75.49    3.03
  -6   4   3   72.04    3.08
  -6   4   3   72.41    2.96
  -6   4   3   75.22    3.05
  -6   4   3   75.52    2.95
   6  -4  -3   74.36    3.08
   6  -4  -3   72.62    2.97
   6  -4  -3   73.82    2.98
   6  -4  -2  139.73    5.40
  -6   4   2  137.42    5.51
   6  -4  -2  145.37    5.48
  -6   4   2  135.34    5.40
   6  -4  -2  139.54    5.39
  -6   4   2  144.42    5.49
  -6   4   2  139.28    5.39
   6  -4  -2  141.98    5.50
   6  -4  -1   10.41    0.70
  -6   4   1    9.00    0.95
   6  -4  -1   10.95    0.92
  -6   4   1   10.59    0.90
  -6   4   1   10.43    0.73
   6  -4  -1   10.06    0.75
   6  -4  -1    9.06    0.89
  -6   4   1    8.60    0.75
  -6   4   0   74.42    2.91
   6  -4   0   66.05    2.81
  -6   4   0   61.81    2.70
   6  -4   0   68.18    2.68
  -6   4   0   64.48    2.79
  -6   4   0   67.26    2.68
   6  -4   0   70.05    2.67
   6  -4   0   66.28    2.82
   6  -4   0   69.52    2.81
  -6   4  -1   71.84    3.06
   6  -4   1   72.58    2.98
   6  -4   1   65.89    3.07
  -6   4  -1   65.89    2.85
  -6   4  -1   68.55    2.83
   6  -4   1   73.96    2.82
  -6   4  -1   71.24    2.98
   6  -4   1   74.19    2.99
   6  -4   1   75.24    2.83
   6  -4   1   74.47    2.95
  -6   4  -2  101.55    4.22
   6  -4   2  108.67    3.98
   6  -4   2   95.43    4.21
   6  -4   2   96.23    4.12
  -6   4  -2   99.49    4.11
  -6   4  -2  103.54    4.00
  -6   4  -2   96.90    4.02
   6  -4   2  106.63    3.97
   6  -4   2  102.22    4.11
   6  -4   2  106.52    4.08
   6  -4   3   10.30    0.81
  -6   4  -3   10.05    1.20
   6  -4   3   10.99    1.24
  -6   4  -3    9.38    0.81
  -6   4  -3    9.88    1.06
   6  -4   3   10.48    1.03
  -6   4  -3   10.51    0.77
  -6   4  -3   11.69    0.68
   6  -4   3    9.55    0.92
   6  -4   4  125.30    4.82
  -6   4  -4  124.70    5.07
   6  -4   4  117.72    5.05
  -6   4  -4  123.41    4.72
   6  -4   4  116.32    4.92
  -6   4  -4  129.53    4.94
  -6   4  -4  122.64    4.79
  -6   4  -4  124.96    4.73
   6  -4   4  120.83    4.86
  -6   4  -4  124.03    4.81
   6  -4   5   79.46    3.13
   6  -4   5   76.55    3.40
  -6   4  -5   74.90    3.00
   6  -4   5   73.55    3.24
  -6   4  -5   80.46    3.26
  -6   4  -5   77.13    3.09
  -6   4  -5   76.51    3.01
   6  -4   5   73.14    3.14
  -6   4  -5   78.73    3.11
   6  -4   6   54.11    2.21
  -6   4  -6   48.52    2.02
   6  -4   6   45.11    2.52
   6  -4   6   43.37    2.30
  -6   4  -6   55.75    2.42
  -6   4  -6   48.12    2.12
  -6   4  -6   49.44    2.02
   6  -4   6   50.03    2.25
  -6   4  -6   49.86    2.18
  -6   4  -7    8.01    0.72
  -6   4  -7    8.74    1.00
  -6   4  -7    9.25    0.76
  -6   4  -7    7.77    1.35
  -6   4  -7    7.39    0.86
   6  -4   7    7.00    1.06
  -6   4  -8   37.95    1.96
  -6   4  -8   44.13    1.83
   6  -4   8   40.68    2.05
   6  -4   9   10.33    1.22
   6  -4   9    9.99    1.10
   6  -4  10    3.20    1.21
   6  -4  10    2.45    1.01
   6  -4  11    5.27    1.37
   6  -3 -16    4.78    1.71
   6  -3 -15    1.59    1.53
   6  -3 -15    2.58    1.93
  -6   3  14    1.31    1.13
   6  -3 -14    1.14    1.51
  -6   3  14    0.83    1.68
   6  -3 -14   -0.47    1.76
   6  -3 -14    1.23    1.72
   6  -3 -13    0.20    1.42
  -6   3  13    0.83    1.02
  -6   3  13   -1.47    1.60
   6  -3 -13    1.26    1.63
   6  -3 -13   -0.05    1.49
   6  -3 -12    0.14    1.27
  -6   3  12    0.74    1.01
  -6   3  12    0.05    1.43
   6  -3 -12    1.22    1.44
   6  -3 -12    1.37    1.33
   6  -3 -11    0.25    1.19
  -6   3  11    1.56    1.31
   6  -3 -11   -0.93    1.28
   6  -3 -11   -0.79    1.22
   6  -3 -10    8.70    1.35
   6  -3 -10    4.54    1.15
  -6   3  10    8.82    1.28
   6  -3 -10    7.51    1.26
   6  -3 -10    5.32    1.05
   6  -3  -9   84.48    3.59
   6  -3  -9   86.02    3.73
  -6   3   9   85.95    3.76
  -6   3   9   89.98    3.56
   6  -3  -9   81.87    3.81
   6  -3  -9   91.67    3.72
   6  -3  -9   92.38    3.74
   6  -3  -9   90.23    3.64
   6  -3  -8    2.28    0.82
   6  -3  -8    1.37    0.94
   6  -3  -8    1.09    0.98
  -6   3   8    0.74    0.95
  -6   3   8    1.12    0.74
  -6   3   8    3.24    0.81
   6  -3  -8    1.22    1.03
   6  -3  -8    0.45    0.97
   6  -3  -8    2.61    0.82
   6  -3  -7   24.47    1.35
  -6   3   7   24.57    1.36
   6  -3  -7   24.96    1.50
  -6   3   7   25.60    1.45
  -6   3   7   25.12    1.30
   6  -3  -7   25.05    1.53
   6  -3  -7   25.06    1.43
   6  -3  -7   23.99    1.45
   6  -3  -7   25.34    1.32
   6  -3  -7   25.36    1.41
   6  -3  -6  312.47   11.86
  -6   3   6  309.10   11.87
   6  -3  -6  307.12   11.95
  -6   3   6  309.00   11.92
  -6   3   6  316.65   11.85
   6  -3  -6  311.85   11.98
   6  -3  -6  315.71   11.90
   6  -3  -6  316.35   11.91
   6  -3  -6  311.23   11.86
   6  -3  -6  310.00   11.89
   6  -3  -5   48.62    2.11
   6  -3  -5   48.16    2.22
  -6   3   5   50.31    2.11
  -6   3   5   48.67    2.18
  -6   3   5   48.89    2.09
   6  -3  -5   52.94    2.25
   6  -3  -5   48.50    2.13
   6  -3  -5   48.31    2.15
   6  -3  -5   49.60    2.12
   6  -3  -4   29.81    1.48
  -6   3   4   29.94    1.53
   6  -3  -4   29.26    1.55
  -6   3   4   33.15    1.49
  -6   3   4   28.53    1.50
  -6   3   4   31.32    1.45
   6  -3  -4   34.41    1.61
   6  -3  -4   32.99    1.48
   6  -3  -4   30.86    1.48
   6  -3  -4   31.61    1.51
   6  -3  -3  147.35    5.65
  -6   3   3  141.19    5.68
   6  -3  -3  146.07    5.72
  -6   3   3  141.67    5.63
  -6   3   3  143.68    5.66
  -6   3   3  148.84    5.61
   6  -3  -3  142.64    5.71
   6  -3  -3  145.09    5.63
   6  -3  -3  149.08    5.64
   6  -3  -3  147.54    5.64
   6  -3  -2   45.42    1.90
   6  -3  -2   46.43    1.95
  -6   3   2   42.48    1.99
   6  -3  -2   44.54    2.02
  -6   3   2   44.72    1.91
  -6   3   2   44.30    1.94
  -6   3   2   44.83    2.01
  -6   3   2   43.08    1.88
   6  -3  -2   42.32    1.88
  -6   3   1   80.01    3.38
   6  -3  -1   81.76    3.31
   6  -3  -1   85.11    3.26
  -6   3   1   80.90    3.28
  -6   3   1   81.73    3.36
  -6   3   1   80.42    3.25
   6  -3  -1   82.35    3.24
   6  -3  -1   85.78    3.34
   6  -3  -1   81.85    3.35
  -6   3   0  166.84    6.56
   6  -3   0  159.48    6.46
  -6   3   0  171.53    6.52
  -6   3   0  163.26    6.42
   6  -3   0  172.24    6.41
  -6   3   0  166.13    6.44
   6  -3   0  168.88    6.40
   6  -3   0  167.70    6.48
   6  -3   0  171.50    6.50
  -6   3  -1   85.34    3.55
   6  -3   1   84.99    3.44
  -6   3  -1   82.62    3.47
  -6   3  -1   82.93    3.36
   6  -3   1   90.92    3.35
   6  -3   1   83.91    3.42
  -6   3  -1   82.54    3.39
   6  -3   1   84.66    3.35
   6  -3   1   85.81    3.43
  -6   3  -2   28.04    1.57
   6  -3   2   28.44    1.28
   6  -3   2   24.35    1.39
  -6   3  -2   28.22    1.50
  -6   3  -2   27.66    1.33
   6  -3   2   29.57    1.27
   6  -3   2   24.78    1.34
  -6   3  -2   26.66    1.35
   6  -3   2   26.51    1.38
  -6   3  -3  124.18    5.20
   6  -3   3  122.91    5.07
  -6   3  -3  137.22    5.15
  -6   3  -3  128.29    5.01
   6  -3   3  135.74    5.00
   6  -3   3  123.08    5.03
  -6   3  -3  131.21    5.05
   6  -3   3  128.06    5.03
   6  -3   4   13.56    1.00
  -6   3  -4   16.26    1.40
  -6   3  -4   14.55    0.83
   6  -3   4   15.30    1.35
   6  -3   4   14.08    1.12
  -6   3  -4   15.34    1.24
  -6   3  -4   12.98    0.93
  -6   3  -4   13.98    0.82
   6  -3   4   14.46    1.00
  -6   3  -4   13.89    0.98
   6  -3   5    0.58    0.78
  -6   3  -5    0.57    0.84
  -6   3  -5   -0.06    0.59
   6  -3   5    1.93    1.22
  -6   3  -5    0.07    1.08
   6  -3   5    0.45    0.91
  -6   3  -5   -0.14    0.73
   6  -3   5    0.25    0.83
  -6   3  -5    0.39    0.58
  -6   3  -6    6.55    0.72
   6  -3   6    7.36    1.00
  -6   3  -6    8.20    0.74
  -6   3  -6    6.25    0.94
  -6   3  -6    9.74    1.16
   6  -3   6    5.73    1.07
  -6   3  -6    5.51    0.83
   6  -3   6    7.54    0.99
  -6   3  -7    3.82    0.69
  -6   3  -7    5.12    0.72
  -6   3  -7    5.95    0.97
  -6   3  -7    4.12    1.24
  -6   3  -7    3.34    0.82
   6  -3   7    3.95    0.99
   6  -3   8    2.46    0.93
  -6   3  -8    1.15    0.71
  -6   3  -8    2.05    0.74
  -6   3  -8    1.36    1.01
   6  -3   9   -0.64    1.07
   6  -3   9    0.18    0.89
  -6   3  -9    0.99    0.83
  -6   3  -9    1.11    1.03
   6  -3  10    3.26    1.14
   6  -3  10    1.56    0.94
   6  -3  11    1.24    1.32
   6  -2 -16    4.18    1.64
   6  -2 -15    3.58    1.46
  -6   2  15    8.67    1.82
   6  -2 -15    8.60    1.95
   6  -2 -15   11.59    1.95
  -6   2  15    7.30    1.76
   6  -2 -14    4.63    1.41
  -6   2  14    6.25    1.09
  -6   2  14    6.80    1.67
   6  -2 -14    3.13    1.81
   6  -2 -14    2.08    1.66
  -6   2  14    3.05    1.63
  -6   2  13   32.30    2.24
   6  -2 -13   29.69    2.02
   6  -2 -13   32.45    2.33
  -6   2  13   34.21    2.23
  -6   2  13   34.52    1.80
   6  -2 -12    1.09    1.31
  -6   2  12    4.02    1.00
  -6   2  12    2.79    1.51
   6  -2 -12    2.70    1.60
   6  -2 -12    3.95    1.47
  -6   2  12    3.39    1.42
   6  -2 -12    3.47    1.16
   6  -2 -11    3.11    1.20
  -6   2  11    3.07    1.27
  -6   2  11    2.58    0.93
   6  -2 -11    0.31    1.43
   6  -2 -11    1.31    1.30
  -6   2  11    2.57    1.32
   6  -2 -11    3.13    1.12
  -6   2  10  101.44    4.13
  -6   2  10  103.99    4.31
   6  -2 -10   98.44    4.23
   6  -2 -10  103.32    4.42
   6  -2 -10  108.19    4.32
   6  -2 -10  111.78    4.34
   6  -2 -10   99.12    4.16
   6  -2 -10   99.93    4.16
   6  -2  -9    5.18    0.91
   6  -2  -9    3.84    0.98
   6  -2  -9    1.97    1.06
  -6   2   9    4.29    1.06
  -6   2   9    3.66    0.85
   6  -2  -9    2.72    1.10
   6  -2  -9    4.25    0.88
   6  -2  -8   54.57    2.39
  -6   2   8   55.63    2.47
   6  -2  -8   54.75    2.47
  -6   2   8   55.44    2.35
   6  -2  -8   57.16    2.49
   6  -2  -8   59.67    2.54
   6  -2  -8   52.84    2.40
   6  -2  -7   60.43    2.47
   6  -2  -7   58.18    2.57
  -6   2   7   57.81    2.54
  -6   2   7   56.86    2.45
   6  -2  -7   57.68    2.65
   6  -2  -7   58.80    2.55
   6  -2  -7   60.21    2.58
   6  -2  -7   58.29    2.47
   6  -2  -6    9.68    0.82
   6  -2  -6    7.22    0.89
  -6   2   6    8.79    0.94
  -6   2   6    8.42    0.82
   6  -2  -6    7.61    0.99
   6  -2  -6    8.42    0.95
   6  -2  -6    8.03    0.92
   6  -2  -6    7.82    0.87
  -6   2   6    7.67    0.84
   6  -2  -6   10.34    0.87
   6  -2  -5  348.84   13.41
  -6   2   5  354.65   13.45
   6  -2  -5  350.11   13.49
  -6   2   5  349.69   13.47
  -6   2   5  356.34   13.46
  -6   2   5  364.95   13.44
   6  -2  -5  347.58   13.54
   6  -2  -5  353.57   13.46
   6  -2  -5  366.29   13.43
   6  -2  -5  349.24   13.47
  -6   2   4    2.67    0.71
  -6   2   4    2.66    0.74
   6  -2  -4    1.78    0.62
   6  -2  -4    2.10    0.79
  -6   2   4    1.57    0.70
  -6   2   4    1.86    0.67
   6  -2  -4    1.41    0.78
   6  -2  -4    2.02    0.65
   6  -2  -4    2.13    0.67
   6  -2  -4    2.04    0.74
   6  -2  -3  320.59   12.04
   6  -2  -3  320.83   12.03
  -6   2   3  315.10   12.07
   6  -2  -3  316.36   12.10
  -6   2   3  316.17   12.05
  -6   2   3  309.69   12.05
  -6   2   3  315.81   12.03
   6  -2  -3  317.99   12.12
   6  -2  -3  319.48   12.04
   6  -2  -3  320.09   12.03
   6  -2  -2    6.13    0.87
  -6   2   2    5.18    0.76
  -6   2   2    6.61    0.83
   6  -2  -2    5.02    0.86
   6  -2  -2    6.03    0.68
  -6   2   2    6.03    0.83
  -6   2   2    5.65    0.72
  -6   2   2    5.31    0.73
   6  -2  -2    6.53    0.73
   6  -2  -2    5.93    0.68
   6  -2  -1    6.05    0.86
  -6   2   1    7.51    0.88
  -6   2   1    7.22    0.77
   6  -2  -1    8.06    0.90
   6  -2  -1    6.84    0.68
  -6   2   1    7.26    0.86
  -6   2   1    7.56    0.74
   6  -2  -1    7.35    0.66
   6  -2  -1    6.22    0.72
   6  -2  -1    7.06    0.72
  -6   2   0   53.88    2.41
   6  -2   0   52.97    2.25
   6  -2   0   53.89    2.41
  -6   2   0   54.19    2.38
  -6   2   0   55.77    2.27
   6  -2   0   54.22    2.23
   6  -2   0   55.51    2.24
   6  -2   0   51.37    2.27
  -6   2   0   55.75    2.29
   6  -2   0   55.52    2.35
  -6   2  -1  101.11    4.24
   6  -2   1  103.41    4.12
   6  -2   1  103.63    4.26
  -6   2  -1  103.95    4.23
  -6   2  -1  106.02    4.13
   6  -2   1  107.10    4.09
   6  -2   1  104.43    4.12
  -6   2  -1  103.38    4.14
   6  -2   1  107.40    4.09
   6  -2   1  104.82    4.17
   6  -2   2    1.40    0.77
   6  -2   2    0.72    0.59
  -6   2  -2    0.80    0.89
  -6   2  -2    1.09    0.95
   6  -2   2    0.95    0.71
  -6   2  -2    1.07    0.70
   6  -2   2    1.01    0.63
   6  -2   2    0.18    0.62
  -6   2  -2    0.91    0.65
   6  -2   3   42.00    1.85
  -6   2  -3   39.57    1.86
  -6   2  -3   40.47    2.08
   6  -2   3   38.63    1.84
  -6   2  -3   41.40    1.99
  -6   2  -3   38.10    1.80
   6  -2   3   44.92    1.78
   6  -2   3   41.74    1.79
   6  -2   4   12.64    0.95
  -6   2  -4   13.13    0.95
  -6   2  -4   13.69    0.82
  -6   2  -4   11.53    1.30
   6  -2   4   11.25    1.00
  -6   2  -4   13.25    1.22
  -6   2  -4   13.12    0.97
  -6   2  -4   12.99    0.82
   6  -2   4   14.35    0.92
   6  -2   5    4.81    0.92
  -6   2  -5    4.55    0.83
  -6   2  -5    4.90    0.70
   6  -2   5    5.06    0.89
  -6   2  -5    5.96    0.86
  -6   2  -5    5.13    0.71
   6  -2   5    5.35    0.79
   6  -2   6   69.83    2.90
  -6   2  -6   64.84    2.84
  -6   2  -6   72.88    2.74
   6  -2   6   61.76    2.83
  -6   2  -6   63.79    2.82
  -6   2  -6   67.35    2.71
   6  -2   6   63.94    2.78
   6  -2   7    6.34    0.98
  -6   2  -7   10.13    0.84
  -6   2  -7    9.05    0.91
  -6   2  -7    8.68    1.01
  -6   2  -7    8.84    1.12
   6  -2   8   18.55    1.17
  -6   2  -8   20.77    1.13
  -6   2  -8   17.52    1.35
  -6   2  -8   18.86    1.17
   6  -2   8   19.42    1.28
  -6   2  -8   16.72    1.34
   6  -2   9   11.61    1.17
   6  -2   9   12.45    1.01
  -6   2  -9   13.26    1.08
  -6   2  -9   11.05    1.33
  -6   2 -10    2.10    1.28
   6  -2  10    1.24    1.17
  -6   2 -10    2.16    0.93
   6  -2  11    4.30    1.21
   6  -1 -16    1.02    1.47
   6  -1 -16    6.48    1.97
   6  -1 -15    3.69    1.40
  -6   1  15    4.80    1.71
   6  -1 -15    4.12    1.77
  -6   1  15    1.42    1.61
   6  -1 -14   -1.72    1.34
  -6   1  14   -0.16    1.05
  -6   1  14    1.05    1.64
   6  -1 -14   -0.07    1.69
  -6   1  14    2.51    1.54
   6  -1 -13    1.93    1.13
  -6   1  13    1.38    1.51
  -6   1  13    1.09    1.05
   6  -1 -13    1.34    1.60
   6  -1 -13    1.34    1.65
  -6   1  13    3.36    1.49
   6  -1 -13    0.40    1.16
   6  -1 -12    6.18    1.17
  -6   1  12    6.45    1.47
  -6   1  12    8.14    1.03
   6  -1 -12    6.13    1.63
   6  -1 -12    8.95    1.57
  -6   1  12    6.45    1.46
   6  -1 -12    6.33    1.03
   6  -1 -11   14.35    1.31
  -6   1  11   16.81    1.53
  -6   1  11   17.70    1.24
   6  -1 -11   18.72    1.77
   6  -1 -11   16.49    1.58
  -6   1  11   18.28    1.52
   6  -1 -11   14.23    1.24
  -6   1  10   41.62    1.97
  -6   1  10   38.52    2.14
   6  -1 -10   38.74    2.05
   6  -1 -10   45.41    2.32
   6  -1 -10   47.45    2.21
   6  -1 -10   43.98    2.22
  -6   1  10   43.28    2.16
   6  -1 -10   43.22    1.97
   6  -1 -10   39.56    2.01
   6  -1  -9    1.19    0.92
   6  -1  -9    2.95    0.86
  -6   1   9    2.14    0.96
   6  -1  -9    2.26    1.03
   6  -1  -9    3.54    1.18
   6  -1  -9    4.03    1.06
  -6   1   9    3.12    0.83
  -6   1   9    2.26    0.93
   6  -1  -9    1.82    0.81
  -6   1   8   41.82    1.90
  -6   1   8   39.02    1.82
   6  -1  -8   37.72    1.85
   6  -1  -8   40.49    1.96
   6  -1  -8   38.08    1.97
   6  -1  -8   39.34    1.76
   6  -1  -8   39.17    1.85
   6  -1  -7   22.79    1.23
  -6   1   7   20.36    1.26
   6  -1  -7   22.95    1.27
   6  -1  -7   23.37    1.38
   6  -1  -7   22.18    1.36
   6  -1  -7   22.06    1.19
   6  -1  -6   12.82    0.90
  -6   1   6   13.90    0.95
   6  -1  -6   13.02    1.00
  -6   1   6   12.77    0.96
   6  -1  -6   13.16    0.99
   6  -1  -6   12.55    1.01
   6  -1  -6   13.90    0.90
   6  -1  -5  113.18    4.28
  -6   1   5  110.03    4.30
   6  -1  -5  108.16    4.34
  -6   1   5  111.02    4.32
  -6   1   5  113.70    4.31
   6  -1  -5  107.51    4.41
   6  -1  -5  108.45    4.34
   6  -1  -5  104.77    4.27
   6  -1  -5  106.86    4.35
   6  -1  -4   54.79    2.23
   6  -1  -4   50.58    2.13
  -6   1   4   51.29    2.20
   6  -1  -4   50.77    2.23
  -6   1   4   52.57    2.18
  -6   1   4   51.37    2.21
  -6   1   4   53.03    2.25
  -6   1   4   49.16    2.19
   6  -1  -4   50.36    2.32
   6  -1  -4   51.01    2.20
   6  -1  -4   53.53    2.16
   6  -1  -3  134.82    5.25
   6  -1  -3  137.32    5.31
  -6   1   3  130.43    5.32
   6  -1  -3  138.12    5.35
  -6   1   3  134.04    5.28
  -6   1   3  137.00    5.36
  -6   1   3  140.95    5.31
  -6   1   3  136.06    5.32
   6  -1  -3  137.08    5.29
   6  -1  -3  137.42    5.25
   6  -1  -2   39.31    1.71
  -6   1   2   39.54    1.79
   6  -1  -2   40.22    1.78
   6  -1  -2   39.05    1.85
  -6   1   2   41.40    1.73
  -6   1   2   41.01    1.77
   6  -1  -2   38.09    1.75
  -6   1   2   41.58    1.82
   6  -1  -2   40.48    1.72
   6  -1  -2   39.16    1.86
   6  -1  -1   83.29    3.33
  -6   1   1   83.81    3.43
   6  -1  -1   83.41    3.46
   6  -1  -1   83.69    3.37
  -6   1   1   85.64    3.40
   6  -1  -1   87.08    3.37
   6  -1  -1   82.12    3.35
  -6   1   1   84.83    3.43
   6  -1  -1   90.61    3.48
   6  -1   0   17.18    0.94
  -6   1   0   17.15    1.19
   6  -1   0   18.12    1.20
  -6   1   0   18.42    1.03
  -6   1   0   16.09    1.20
   6  -1   0   19.01    0.98
   6  -1   0   16.67    0.93
   6  -1   0   16.87    0.99
  -6   1   0   17.47    1.07
   6  -1   0   16.26    1.07
   6  -1   1  125.08    4.78
  -6   1  -1  115.90    4.88
   6  -1   1  120.60    4.74
   6  -1   1  126.02    4.92
  -6   1  -1  126.27    4.90
  -6   1  -1  120.22    4.79
   6  -1   1  126.65    4.77
   6  -1   1  121.56    4.73
  -6   1  -1  118.55    4.82
   6  -1   1  126.18    4.83
  -6   1  -2  144.45    5.75
  -6   1  -2  147.82    5.85
   6  -1   2  140.37    5.69
   6  -1   2  150.63    5.87
   6  -1   2  150.20    5.70
  -6   1  -2  152.69    5.85
  -6   1  -2  145.70    5.73
   6  -1   2  153.91    5.72
   6  -1   2  143.68    5.66
   6  -1   2  153.35    5.76
   6  -1   3    0.79    0.79
  -6   1  -3    0.85    0.80
  -6   1  -3    1.05    1.02
   6  -1   3    2.23    1.02
   6  -1   3    0.89    0.64
  -6   1  -3    1.57    0.70
   6  -1   3    2.12    0.69
   6  -1   3    1.63    0.61
   6  -1   4  118.30    4.31
  -6   1  -4  106.16    4.30
  -6   1  -4  109.01    4.49
   6  -1   4  103.45    4.23
  -6   1  -4  107.72    4.27
  -6   1  -4  108.20    4.21
   6  -1   4  103.86    4.18
   6  -1   5   85.12    3.44
  -6   1  -5   78.40    3.40
  -6   1  -5   87.54    3.31
   6  -1   5   77.97    3.32
  -6   1  -5   79.81    3.38
  -6   1  -5   86.67    3.29
   6  -1   5   80.49    3.28
  -6   1  -5   77.21    3.55
  -6   1  -6    8.64    1.37
   6  -1   6    6.48    0.86
   6  -1   6    6.58    1.07
  -6   1  -6    6.30    0.83
   6  -1   6    6.80    0.88
  -6   1  -6    6.46    1.04
  -6   1  -6    7.02    1.09
  -6   1  -6    7.95    0.86
  -6   1  -7   23.59    1.55
  -6   1  -7   26.08    1.37
  -6   1  -7   23.82    1.51
  -6   1  -7   26.24    1.29
   6  -1   7   22.82    1.34
  -6   1  -8   -0.11    1.06
   6  -1   8   -0.52    0.87
  -6   1  -8   -0.89    0.82
   6  -1   8    0.66    0.74
  -6   1  -8   -0.36    0.84
  -6   1  -9    8.08    1.26
   6  -1   9    9.14    1.08
  -6   1  -9    8.81    1.03
  -6   1 -10    2.25    1.32
   6  -1  10   -0.74    1.03
  -6   1 -10   -0.62    1.08
   6  -1  10   -0.88    1.82
  -6   1 -11    0.03    1.11
   6   0 -16   -0.96    2.00
   6   0 -15    0.45    1.19
  -6   0  15    3.30    1.61
   6   0 -15    0.33    1.83
   6   0 -15    1.75    1.84
  -6   0  15    1.98    1.51
   6   0 -14    5.70    1.22
  -6   0  14   10.43    1.63
  -6   0  14    8.47    1.18
   6   0 -14    8.21    1.80
   6   0 -14   11.99    1.92
  -6   0  14    9.75    1.58
  -6   0  13   20.64    1.40
   6   0 -13   19.00    1.45
  -6   0  13   23.13    1.82
   6   0 -13   22.15    1.97
  -6   0  13   18.46    1.76
   6   0 -13   18.36    1.46
   6   0 -12    0.53    1.05
  -6   0  12    0.13    1.36
  -6   0  12   -0.26    0.96
   6   0 -12    0.54    1.48
  -6   0  12   -0.53    1.35
   6   0 -12    1.14    0.97
   6   0 -11    0.70    1.00
  -6   0  11    0.59    1.19
  -6   0  11    1.06    0.92
   6   0 -11    1.03    1.29
   6   0 -11   -0.41    1.32
  -6   0  11    2.75    1.18
   6   0 -11    1.55    0.88
  -6   0  10  108.66    4.40
  -6   0  10  109.34    4.29
   6   0 -10   95.30    4.27
   6   0 -10  107.95    4.50
   6   0 -10  124.27    4.48
  -6   0  10  113.90    4.43
   6   0 -10  100.54    4.23
   6   0 -10  103.69    4.32
   6   0  -9   -0.88    0.94
   6   0  -9    0.82    0.81
  -6   0   9   -1.27    1.03
  -6   0   9   -0.07    0.78
   6   0  -9    0.11    1.01
   6   0  -9   -0.91    1.09
   6   0  -9    0.15    1.07
  -6   0   9   -1.21    0.79
  -6   0   9    1.40    1.04
   6   0  -9   -0.79    0.74
  -6   0   8   81.80    3.25
   6   0  -8   79.55    3.21
  -6   0   8   77.13    3.23
  -6   0   8   77.43    3.22
   6   0  -8   83.20    3.39
   6   0  -8   81.57    3.34
  -6   0   8   80.19    3.25
   6   0  -8   80.17    3.33
   6   0  -8   74.96    3.14
   6   0  -8   73.29    3.21
   6   0  -7    1.22    0.77
   6   0  -7    1.02    0.77
  -6   0   7    0.70    0.76
   6   0  -7    1.12    0.95
   6   0  -7    1.92    0.87
   6   0  -7    0.36    0.89
  -6   0   7    1.36    0.74
   6   0  -7    1.13    0.65
  -6   0   6   82.97    3.43
   6   0  -6   86.63    3.41
  -6   0   6   82.53    3.44
   6   0  -6   86.31    3.48
   6   0  -6   84.11    3.37
   6   0  -6   89.22    3.49
   6   0  -6   83.74    3.38
   6   0  -5   87.31    3.36
   6   0  -5   85.85    3.45
  -6   0   5   80.26    3.36
  -6   0   5   85.50    3.40
   6   0  -5   83.91    3.42
  -6   0   5   86.45    3.46
   6   0  -5   86.20    3.45
   6   0  -4   17.69    0.97
   6   0  -4   18.80    1.12
  -6   0   4   16.68    0.99
  -6   0   4   19.00    0.99
   6   0  -4   17.67    1.07
  -6   0   4   15.76    1.12
  -6   0   4   17.92    1.13
   6   0  -4   19.75    1.10
   6   0  -4   18.50    1.22
   6   0  -3  425.81   15.95
  -6   0   3  407.08   16.00
   6   0  -3  428.74   16.03
   6   0  -3  417.61   16.05
  -6   0   3  422.33   15.98
  -6   0   3  429.10   16.09
  -6   0   3  422.76   16.03
   6   0  -3  423.70   16.03
   6   0  -3  438.25   15.96
   6   0  -3  412.84   16.09
   6   0  -2    7.69    0.95
   6   0  -2    8.44    0.81
   6   0  -2    7.97    0.64
  -6   0   2    7.16    0.79
   6   0  -2    7.63    0.90
  -6   0   2    8.69    0.85
  -6   0   2    9.89    0.92
  -6   0   2    8.61    0.85
  -6   0   2    8.50    0.68
   6   0  -2    8.18    0.77
   6   0  -2    7.79    0.62
   6   0  -1   77.15    3.00
  -6   0   1   75.52    3.13
   6   0  -1   76.92    3.17
  -6   0   1   79.48    3.12
   6   0  -1   79.12    3.10
   6   0  -1   75.69    3.10
   6   0  -1   76.18    3.01
   6   0  -1   75.34    3.00
  -6   0   1   74.97    3.15
   6   0  -1   76.49    3.17
   6   0   0  172.86    6.78
  -6   0   0  173.27    6.92
   6   0   0  183.05    6.96
  -6   0   0  184.16    6.89
   6   0   0  181.04    6.86
   6   0   0  176.93    6.78
   6   0   0  181.71    6.87
  -6   0   0  175.03    6.90
   6   0   0  183.90    6.92
  -6   0  -1   15.39    1.03
   6   0   1   15.54    0.98
   6   0   1   14.76    0.81
  -6   0  -1   14.79    1.13
   6   0   1   16.30    1.23
  -6   0  -1   14.12    1.05
  -6   0  -1   13.69    1.16
   6   0   1   14.80    0.97
   6   0   1   15.07    0.79
   6   0   1   16.42    1.05
   6   0   2   28.64    1.40
  -6   0  -2   26.86    1.45
   6   0   2   25.96    1.23
  -6   0  -2   28.05    1.56
   6   0   2   27.88    1.59
   6   0   2   28.51    1.36
  -6   0  -2   24.63    1.41
   6   0   2   29.15    1.37
   6   0   2   26.70    1.20
   6   0   3    1.96    0.82
  -6   0  -3    1.51    1.06
   6   0   3    0.29    0.57
  -6   0  -3    1.84    0.82
  -6   0  -3    1.95    0.82
   6   0   3    1.00    0.78
   6   0   3    2.14    0.55
   6   0   4   -0.16    0.58
  -6   0  -4    0.85    1.10
   6   0   4    1.91    0.95
  -6   0  -4   -0.25    1.18
   6   0   4   -0.22    0.65
  -6   0  -4   -0.40    0.89
  -6   0  -4    0.03    0.94
  -6   0  -4    0.40    0.73
  -6   0  -5   -0.28    1.22
   6   0   5    0.24    0.61
   6   0   5    0.19    1.02
  -6   0  -5   -0.35    0.71
   6   0   5   -0.38    0.68
  -6   0  -5    0.49    0.92
  -6   0  -5   -0.09    0.97
  -6   0  -5   -0.20    0.79
   6   0   6   11.66    0.89
   6   0   6   14.74    1.25
  -6   0  -6   13.88    1.00
   6   0   6   11.76    0.97
  -6   0  -6   12.41    1.18
  -6   0  -6   12.46    1.27
  -6   0  -6   13.66    1.00
  -6   0  -7    4.67    0.96
  -6   0  -7    4.29    1.16
   6   0   7    4.12    0.82
   6   0   7    3.86    0.61
  -6   0  -7    3.13    0.87
  -6   0  -8   12.40    1.41
   6   0   8    9.72    0.97
  -6   0  -8   12.74    1.08
   6   0   8   12.32    1.90
  -6   0  -9    1.80    1.28
   6   0   9    2.03    0.94
  -6   0  -9    0.35    1.08
  -6   0 -10    5.18    1.41
  -6   0 -10    4.70    1.18
  -6   0 -11    0.37    1.14
   6   1 -17    3.14    2.00
   6   1 -16   -1.42    1.72
  -6  -1  15    4.68    1.55
   6   1 -15    4.08    1.78
   6   1 -15    1.87    1.84
  -6  -1  15    3.04    1.64
   6   1 -14    4.81    1.11
  -6  -1  14    6.62    1.58
  -6  -1  14    4.09    1.16
   6   1 -14    2.39    1.56
   6   1 -14    5.03    1.70
  -6  -1  14    3.68    1.49
   6   1 -13    4.71    1.05
  -6  -1  13    4.66    1.46
  -6  -1  13    4.51    1.10
   6   1 -13    4.31    1.44
   6   1 -13    3.64    1.63
  -6  -1  13    3.76    1.43
   6   1 -12    7.13    1.08
  -6  -1  12    9.59    1.43
  -6  -1  12    7.31    1.07
   6   1 -12    8.97    1.50
   6   1 -12   10.55    1.55
  -6  -1  12    5.69    1.38
   6   1 -12    7.73    1.06
   6   1 -11    2.54    0.88
  -6  -1  11    1.61    1.26
   6   1 -11    3.66    1.45
  -6  -1  11    2.48    0.96
  -6  -1  11    1.37    1.23
   6   1 -11    2.56    0.85
   6   1 -10   11.32    1.25
   6   1 -10    9.64    0.95
  -6  -1  10   12.63    1.19
   6   1 -10   12.37    1.42
   6   1 -10   12.30    1.32
  -6  -1  10    9.39    1.06
  -6  -1  10   13.39    1.32
   6   1 -10    9.41    0.89
   6   1  -9   -1.23    1.02
   6   1  -9    0.61    0.78
  -6  -1   9    0.17    0.99
  -6  -1   9   -0.35    0.80
   6   1  -9    0.12    1.05
   6   1  -9   -1.86    1.17
  -6  -1   9    0.40    0.81
  -6  -1   9    0.47    1.01
   6   1  -9   -0.19    0.70
   6   1  -8   -0.28    0.94
   6   1  -8    0.24    1.04
   6   1  -8   -0.04    0.68
  -6  -1   8   -0.13    0.83
  -6  -1   8    0.07    0.75
   6   1  -8   -0.51    1.05
   6   1  -8   -1.51    0.99
  -6  -1   8    0.80    0.89
  -6  -1   8    1.41    0.78
   6   1  -8   -0.17    0.61
  -6  -1   7   93.94    3.71
   6   1  -7   92.66    3.68
  -6  -1   7   91.60    3.75
  -6  -1   7   92.17    3.74
   6   1  -7   96.08    3.86
   6   1  -7   93.92    3.81
  -6  -1   7   96.05    3.73
   6   1  -7   88.68    3.62
   6   1  -7   91.49    3.74
   6   1  -7   95.34    3.80
  -6  -1   6   43.86    1.92
   6   1  -6   46.47    1.90
  -6  -1   6   40.71    1.97
  -6  -1   6   44.62    2.02
  -6  -1   6   43.78    1.96
   6   1  -6   43.87    2.02
   6   1  -6   42.79    1.84
   6   1  -6   44.88    1.90
   6   1  -5   18.20    1.18
  -6  -1   5   20.61    1.01
  -6  -1   5   20.53    1.07
   6   1  -5   19.44    1.07
  -6  -1   5   17.46    1.21
  -6  -1   5   19.46    1.17
   6   1  -5   19.32    1.18
   6   1  -5   18.43    1.08
   6   1  -4    8.24    0.74
  -6  -1   4    9.57    0.73
  -6  -1   4    8.57    0.88
   6   1  -4    8.14    0.79
  -6  -1   4    9.18    0.70
  -6  -1   4    7.19    0.89
   6   1  -4    9.53    0.87
   6   1  -4    8.89    0.87
   6   1  -3   99.00    3.78
  -6  -1   3   93.16    3.83
  -6  -1   3   98.14    3.78
   6   1  -3   97.62    3.88
   6   1  -3   99.29    3.90
  -6  -1   3   94.59    3.94
   6   1  -3  100.53    3.90
   6   1  -2    2.11    0.84
   6   1  -2    1.44    0.71
   6   1  -2    0.04    0.45
  -6  -1   2    0.04    0.69
   6   1  -2    1.51    0.71
  -6  -1   2    1.34    0.84
  -6  -1   2    0.59    0.73
  -6  -1   2    0.70    0.45
   6   1  -2    1.45    0.70
   6   1  -1   85.97    3.40
  -6  -1   1   88.10    3.55
   6   1  -1   85.29    3.57
  -6  -1   1   86.95    3.61
  -6  -1   1   88.65    3.58
   6   1  -1   90.04    3.54
   6   1  -1   85.14    3.40
   6   1  -1   91.54    3.40
   6   1  -1   91.83    3.54
   6   1  -1   91.45    3.61
   6   1   0    2.61    0.81
  -6  -1   0    3.67    0.79
   6   1   0    0.56    0.70
   6   1   0    0.77    0.40
  -6  -1   0    0.75    0.74
   6   1   0    1.34    0.82
  -6  -1   0    1.50    0.89
  -6  -1   0    1.66    0.77
   6   1   0    0.88    0.71
   6   1   0    1.00    0.40
   6   1   0    1.52    0.38
   6   1   1   14.04    1.02
  -6  -1  -1   15.57    1.09
   6   1   1   13.25    0.68
   6   1   1   14.22    1.01
  -6  -1  -1   12.63    1.05
  -6  -1  -1   14.55    1.03
   6   1   1   13.56    0.94
   6   1   1   12.81    0.65
   6   1   1   12.54    0.68
   6   1   2   33.14    1.64
  -6  -1  -2   31.08    1.60
   6   1   2   31.35    1.33
  -6  -1  -2   32.85    1.70
  -6  -1  -2   31.61    1.59
   6   1   2   33.07    1.57
   6   1   2   32.69    1.54
   6   1   2   31.00    1.30
  -6  -1  -3    6.37    1.11
   6   1   3    5.43    0.53
   6   1   3    5.50    0.97
  -6  -1  -3    5.31    1.12
   6   1   3    5.03    0.53
  -6  -1  -3    5.72    0.93
  -6  -1  -3    3.80    0.93
   6   1   3    5.74    0.93
  -6  -1  -3    5.37    0.79
   6   1   4   32.20    1.61
  -6  -1  -4   26.00    1.55
  -6  -1  -4   29.26    1.78
   6   1   4   26.03    1.23
  -6  -1  -4   28.90    1.52
  -6  -1  -4   28.81    1.41
   6   1   4   24.69    1.20
  -6  -1  -4   29.60    1.78
   6   1   5   13.16    1.28
   6   1   5    9.02    0.76
  -6  -1  -5   12.01    1.01
   6   1   5   10.91    0.80
  -6  -1  -5   12.04    1.22
  -6  -1  -5   11.96    0.98
  -6  -1  -5   13.51    1.20
  -6  -1  -6    9.18    1.26
   6   1   6    7.60    0.77
   6   1   6    8.42    0.57
  -6  -1  -6   10.16    0.98
   6   1   6    9.48    0.80
   6   1   6   11.63    1.68
  -6  -1  -6   10.00    1.00
  -6  -1  -7   20.14    1.68
  -6  -1  -7   23.48    1.38
   6   1   7   21.44    1.19
  -6  -1  -8    3.69    1.33
  -6  -1  -8    3.20    1.02
   6   1   8    5.58    1.62
  -6  -1  -9    8.27    1.60
  -6  -1  -9    7.64    1.11
   6   1   9    5.12    1.72
  -6  -1 -10   -0.53    1.17
   6   2 -16    0.80    1.79
  -6  -2  15    2.36    1.50
   6   2 -15    3.35    1.60
   6   2 -15    4.81    1.81
  -6  -2  15    1.52    1.63
  -6  -2  14    4.00    1.47
  -6  -2  14    4.58    1.17
   6   2 -14    7.16    1.48
   6   2 -14    7.03    1.79
  -6  -2  14    7.82    1.57
   6   2 -13   -1.03    0.96
  -6  -2  13   -0.64    1.37
  -6  -2  13   -0.33    1.07
   6   2 -13   -1.54    1.39
   6   2 -13    1.24    1.61
  -6  -2  13   -1.44    1.42
   6   2 -12   -1.03    0.89
  -6  -2  12   -0.36    1.30
  -6  -2  12    0.03    1.03
   6   2 -12   -0.52    1.37
   6   2 -12    0.54    1.34
  -6  -2  12   -0.56    1.22
   6   2 -11    0.69    0.78
  -6  -2  11    0.11    1.25
   6   2 -11    0.57    1.25
   6   2 -11   -0.13    1.23
  -6  -2  11   -0.11    0.96
  -6  -2  11    0.76    1.24
   6   2 -11   -0.12    0.93
   6   2 -10    0.21    1.10
  -6  -2  10    2.29    1.09
   6   2 -10    0.75    0.71
   6   2 -10    1.06    1.21
  -6  -2  10    0.70    0.96
  -6  -2  10    2.32    1.23
   6   2 -10    0.33    0.70
   6   2 -10    0.58    1.14
   6   2  -9    6.26    1.10
   6   2  -9    7.41    1.33
  -6  -2   9    9.14    1.09
   6   2  -9    8.14    0.76
   6   2  -9    8.80    1.19
  -6  -2   9    7.59    1.01
  -6  -2   9    7.95    0.97
   6   2  -9    6.51    0.70
   6   2  -9    8.74    1.20
   6   2  -8   12.64    1.14
   6   2  -8   11.46    1.18
   6   2  -8   11.05    1.26
   6   2  -8   13.02    0.83
  -6  -2   8   11.42    1.03
  -6  -2   8   13.21    1.02
  -6  -2   8   12.23    0.99
   6   2  -8   10.51    0.76
  -6  -2   8   12.19    1.02
   6   2  -7   20.67    1.47
  -6  -2   7   20.37    1.19
   6   2  -7   20.72    1.03
  -6  -2   7   19.65    1.26
  -6  -2   7   20.23    1.23
   6   2  -7   21.97    1.35
  -6  -2   7   21.21    1.17
   6   2  -7   19.03    0.97
   6   2  -7   22.27    1.25
   6   2  -7   20.97    1.42
   6   2  -6    3.91    0.96
   6   2  -6    5.96    0.85
  -6  -2   6    4.18    0.84
   6   2  -6    5.19    1.07
  -6  -2   6    5.02    0.70
   6   2  -6    4.88    0.64
  -6  -2   6    5.21    0.91
  -6  -2   6    4.37    0.81
   6   2  -6    4.67    0.94
  -6  -2   6    6.06    0.70
   6   2  -6    4.72    0.54
   6   2  -5   53.87    2.29
  -6  -2   5   51.86    2.06
  -6  -2   5   52.90    2.11
   6   2  -5   49.50    2.24
   6   2  -5   47.54    2.09
  -6  -2   5   50.94    2.28
  -6  -2   5   49.63    2.22
  -6  -2   5   49.10    2.23
   6   2  -5   51.54    2.26
   6   2  -5   47.69    2.15
   6   2  -5   52.58    2.31
   6   2  -4    1.28    0.86
   6   2  -4    0.67    0.61
  -6  -2   4    0.70    0.51
  -6  -2   4    0.11    0.78
   6   2  -4    0.54    0.62
  -6  -2   4    1.23    0.52
  -6  -2   4    1.23    0.86
  -6  -2   4    1.05    0.74
   6   2  -4   -0.26    0.76
  -6  -2   3   80.71    3.28
  -6  -2   3   84.22    3.22
   6   2  -3   84.77    3.35
   6   2  -3   85.14    3.37
  -6  -2   3   84.04    3.45
  -6  -2   3   77.88    3.39
   6   2  -3   86.11    3.40
  -6  -2   3   79.69    3.40
   6   2  -3   83.06    3.25
   6   2  -2    3.89    0.50
  -6  -2   2    2.82    0.67
   6   2  -2    4.57    0.77
   6   2  -2    4.30    0.81
  -6  -2   2    4.07    0.90
   6   2  -2    4.59    0.81
  -6  -2   2    3.84    0.84
  -6  -2   1   24.61    1.27
  -6  -2   1   24.15    1.39
   6   2  -1   24.37    1.29
   6   2  -1   24.12    0.99
   6   2  -1   27.19    1.33
   6   2  -1   22.71    1.00
   6   2  -1   24.63    1.38
   6   2   0   45.81    2.08
  -6  -2   0   45.25    2.09
  -6  -2   0   43.92    2.10
   6   2   0   48.98    2.06
   6   2   0   49.82    2.14
   6   2   1   85.93    3.63
  -6  -2  -1   90.40    3.65
   6   2   1   88.64    3.59
  -6  -2  -1   86.89    3.63
   6   2   1   91.49    3.60
  -6  -2  -2    0.61    1.08
   6   2   2    1.80    0.92
  -6  -2  -2    3.05    0.95
  -6  -2  -2    2.04    0.90
  -6  -2  -2    1.86    0.90
   6   2   2    2.24    0.83
   6   2   3   18.73    1.34
  -6  -2  -3   17.75    1.38
  -6  -2  -3   17.10    1.14
  -6  -2  -3   15.89    1.29
   6   2   3   18.29    1.24
  -6  -2  -3   16.27    1.32
   6   2   4   -0.67    1.08
   6   2   4    0.11    0.41
  -6  -2  -4    1.39    0.82
  -6  -2  -4    0.48    1.31
   6   2   4    0.99    0.38
   6   2   4    0.54    1.43
  -6  -2  -4    1.01    1.00
  -6  -2  -4    0.44    0.83
   6   2   5   16.79    0.88
   6   2   5   20.77    1.44
   6   2   5   17.21    0.87
  -6  -2  -5   21.16    1.49
  -6  -2  -5   21.04    1.24
   6   2   5   20.15    1.86
  -6  -2  -6    5.57    1.30
   6   2   6    5.98    0.64
  -6  -2  -6    5.76    0.96
   6   2   6    6.55    1.57
  -6  -2  -7    3.32    1.38
  -6  -2  -7    4.26    1.05
   6   2   7    3.23    1.51
  -6  -2  -8    2.23    1.44
  -6  -2  -8    0.42    1.11
   6   2   8   -0.86    1.59
  -6  -2  -9    2.31    1.21
   6   2   9    4.61    1.75
  -6  -3  15   -0.50    1.63
   6   3 -15   -0.28    1.50
   6   3 -15   -1.56    1.90
  -6  -3  15   -1.08    1.59
  -6  -3  14    4.75    1.57
  -6  -3  14    2.52    1.15
   6   3 -14    3.60    1.42
   6   3 -14    4.09    1.67
  -6  -3  14    4.77    1.59
  -6  -3  13    7.20    1.39
  -6  -3  13    3.36    1.08
   6   3 -13    4.78    1.52
   6   3 -13    0.84    1.66
  -6  -3  13    4.35    1.37
  -6  -3  12    5.46    1.35
  -6  -3  12    4.46    1.10
   6   3 -12    5.50    1.41
   6   3 -12    6.88    1.50
  -6  -3  12    3.98    1.32
  -6  -3  11    3.45    1.25
   6   3 -11    4.07    0.63
   6   3 -11    3.51    1.32
  -6  -3  11    4.54    1.07
  -6  -3  11    2.14    1.17
   6   3 -10    1.77    1.30
   6   3 -10    1.19    1.19
  -6  -3  10    3.38    1.13
   6   3 -10    2.23    0.53
   6   3 -10    2.00    1.16
  -6  -3  10    4.43    1.15
  -6  -3  10    2.41    1.00
   6   3  -9   18.58    1.51
   6   3  -9   22.74    1.51
  -6  -3   9   20.73    1.35
   6   3  -9   19.03    0.94
  -6  -3   9   19.44    1.35
   6   3  -9   22.00    1.50
  -6  -3   9   24.29    1.39
   6   3  -9   21.11    1.35
   6   3  -8   25.89    1.57
  -6  -3   8   27.70    1.40
   6   3  -8   27.08    1.65
   6   3  -8   24.44    1.07
  -6  -3   8   26.85    1.43
  -6  -3   8   23.68    1.38
  -6  -3   8   30.39    1.41
   6   3  -8   20.59    1.05
   6   3  -8   28.04    1.47
   6   3  -8   22.89    1.57
   6   3  -7   56.56    2.46
  -6  -3   7   52.94    2.19
   6   3  -7   54.78    2.38
   6   3  -7   49.05    2.02
  -6  -3   7   50.09    2.28
  -6  -3   7   52.59    2.29
  -6  -3   7   52.29    2.29
  -6  -3   7   53.79    2.19
   6   3  -7   46.76    1.99
   6   3  -7   55.48    2.28
   6   3  -7   54.70    2.39
   6   3  -6   -0.88    0.81
   6   3  -6   -0.71    1.02
   6   3  -6    0.15    1.12
  -6  -3   6    0.96    0.84
  -6  -3   6    0.23    0.63
   6   3  -6    0.54    0.49
  -6  -3   6   -0.50    0.82
  -6  -3   6    1.40    0.79
  -6  -3   6    0.40    0.64
   6   3  -6    0.40    0.37
   6   3  -5    6.46    0.80
   6   3  -5    7.49    1.05
   6   3  -5   10.24    1.09
  -6  -3   5    5.75    0.98
  -6  -3   5    7.12    0.64
  -6  -3   5    7.46    0.96
  -6  -3   5    5.94    0.92
   6   3  -5    7.06    0.96
   6   3  -4    9.37    0.68
   6   3  -4    8.18    0.97
   6   3  -4    9.94    1.05
  -6  -3   4    9.08    0.63
  -6  -3   4    8.98    0.63
  -6  -3   4    8.00    0.94
  -6  -3   4    9.33    1.02
  -6  -3   4    6.74    0.98
   6   3  -4   11.77    0.97
   6   3  -3    5.29    0.91
   6   3  -3    4.69    0.94
  -6  -3   3    4.25    0.58
   6   3  -3    5.27    0.89
  -6  -3   3    4.67    0.42
  -6  -3   3    3.30    0.94
  -6  -3   3    4.49    0.84
   6   3  -3    4.69    0.83
  -6  -3   3    4.90    0.91
   6   3  -3    4.57    0.43
   6   3  -2    3.99    0.90
   6   3  -2    4.48    0.88
  -6  -3   2    4.62    0.66
  -6  -3   2    5.52    1.01
  -6  -3   2    4.15    0.81
   6   3  -2    3.97    0.85
   6   3  -2    4.79    0.82
  -6  -3   2    4.32    0.90
  -6  -3   1   10.78    1.04
   6   3  -1    9.57    0.88
   6   3  -1   11.30    0.97
  -6  -3   1   10.85    0.86
  -6  -3   1    8.66    1.07
  -6  -3   1   11.00    1.04
   6   3  -1   12.68    1.02
   6   3   0    0.77    0.63
  -6  -3   0    2.14    0.92
  -6  -3   0    2.26    0.79
   6   3   0    1.22    0.84
   6   3   0    3.15    0.85
  -6  -3  -1    4.93    1.07
   6   3   1    5.88    1.03
   6   3   1    4.81    0.56
  -6  -3  -1    7.02    0.96
   6   3   1    5.93    0.92
   6   3   1    5.49    0.89
   6   3   1    8.17    1.41
   6   3   2   10.43    1.14
  -6  -3  -2    9.20    1.13
   6   3   2    9.66    1.00
   6   3   2   11.86    1.49
   6   3   3    6.11    1.19
  -6  -3  -3    7.15    1.26
   6   3   3    3.88    1.02
  -6  -3  -3    4.07    1.10
  -6  -3  -3    2.86    0.92
   6   3   3    4.61    1.46
   6   3   4    1.86    1.13
  -6  -3  -4    1.43    1.33
  -6  -3  -4    1.19    0.86
   6   3   4    1.11    1.44
  -6  -3  -4    2.45    1.21
  -6  -3  -5    3.48    0.91
   6   3   5    3.24    1.48
  -6  -3  -5    3.27    1.23
  -6  -3  -6    0.69    1.29
  -6  -3  -6    1.21    0.97
   6   3   6    0.70    1.49
  -6  -3  -7    4.59    1.39
  -6  -3  -7    4.54    1.07
   6   3   7    3.83    1.65
  -6  -3  -8    0.39    1.15
   6   3   8    3.26    1.64
  -6  -4  14    5.73    1.42
  -6  -4  14    6.15    1.20
   6   4 -14    3.10    1.69
  -6  -4  14    4.51    1.55
   6   4 -13    2.52    1.51
  -6  -4  13    4.63    1.46
  -6  -4  13    5.76    1.14
   6   4 -13    2.18    1.51
  -6  -4  13    3.91    1.39
   6   4 -12    0.65    1.29
  -6  -4  12   -1.21    1.27
   6   4 -12   -0.62    1.38
  -6  -4  12   -0.18    1.05
  -6  -4  12    2.31    1.33
   6   4 -11   13.26    1.47
  -6  -4  11   12.69    1.38
   6   4 -11   13.52    1.55
  -6  -4  11   12.33    1.24
  -6  -4  11   13.52    1.33
   6   4 -10    2.80    1.23
  -6  -4  10    0.73    1.00
   6   4 -10    0.45    1.27
  -6  -4  10    0.57    1.11
  -6  -4  10    1.21    1.02
   6   4 -10    0.88    1.25
   6   4  -9   -1.36    1.23
  -6  -4   9    0.76    0.88
   6   4  -9   -0.64    1.09
   6   4  -9    0.80    1.21
  -6  -4   9   -0.18    0.97
  -6  -4   9    0.75    0.98
   6   4  -9   -1.51    1.12
   6   4  -8   16.28    1.39
  -6  -4   8   12.89    1.16
   6   4  -8   15.24    1.47
  -6  -4   8   13.07    1.10
   6   4  -8   14.19    1.28
   6   4  -8   13.88    1.26
  -6  -4   8   14.50    1.09
   6   4  -8   13.52    1.19
   6   4  -7   15.49    1.25
  -6  -4   7   15.42    1.01
   6   4  -7   17.08    1.46
  -6  -4   7   15.17    1.20
  -6  -4   7   15.68    1.19
   6   4  -7   15.45    1.27
  -6  -4   7   15.25    1.00
   6   4  -7   14.61    1.28
   6   4  -7   13.97    1.11
   6   4  -6    1.68    0.97
   6   4  -6    1.54    0.92
   6   4  -6    2.19    1.19
  -6  -4   6    1.50    0.90
  -6  -4   6    1.37    0.63
  -6  -4   6    2.76    0.94
  -6  -4   6    1.70    0.91
   6   4  -6    1.64    0.96
  -6  -4   6    1.66    0.65
   6   4  -6    1.93    0.69
   6   4  -5   28.92    1.67
  -6  -4   5   27.68    1.24
  -6  -4   5   28.70    1.56
  -6  -4   5   29.10    1.53
   6   4  -5   28.70    1.54
  -6  -4   5   27.56    1.55
   6   4  -5   24.03    1.22
   6   4  -5   28.47    1.56
   6   4  -4    1.26    0.91
   6   4  -4   -0.40    0.96
   6   4  -4    1.07    0.95
  -6  -4   4    1.11    0.43
  -6  -4   4    0.71    0.86
  -6  -4   4    0.46    0.95
  -6  -4   4    0.91    0.86
   6   4  -4    0.72    0.60
   6   4  -4    0.39    0.41
   6   4  -3    5.66    1.01
   6   4  -3    5.60    0.91
  -6  -4   3    4.67    0.57
  -6  -4   3    4.33    1.03
  -6  -4   3    3.49    0.93
  -6  -4   3    4.31    0.94
   6   4  -3    4.63    0.86
   6   4  -2   30.70    1.57
   6   4  -2   25.44    1.41
  -6  -4   2   26.17    1.31
  -6  -4   2   28.78    1.58
  -6  -4   2   25.63    1.52
   6   4  -2   31.62    1.56
   6   4  -2   26.53    1.53
  -6  -4   2   30.91    1.60
   6   4  -1    1.05    0.88
  -6  -4   1   -0.03    0.90
   6   4  -1    0.27    0.63
  -6  -4   1    0.74    0.71
   6   4  -1    0.86    0.87
   6   4  -1   -0.28    0.86
   6   4  -1    2.29    1.07
   6   4   0    7.64    0.94
   6   4   0    5.76    1.05
   6   4   0    5.50    0.57
  -6  -4   0    6.27    1.04
  -6  -4   0    4.76    0.90
   6   4   0    7.36    1.00
   6   4   0    7.56    1.22
  -6  -4  -1    6.93    1.03
  -6  -4  -1    7.32    1.11
   6   4   1    8.98    1.09
   6   4   1    7.70    1.36
  -6  -4  -2    6.00    1.07
  -6  -4  -2    3.36    1.10
   6   4   2    4.85    1.05
   6   4   2    5.07    1.39
   6   4   3   28.72    1.75
  -6  -4  -3   25.10    1.74
   6   4   3   24.33    1.90
   6   4   4    0.65    1.31
  -6  -4  -5   10.37    1.18
   6   4   5    8.48    1.64
  -6  -4  -5    9.24    1.36
  -6  -4  -6   -0.09    1.34
  -6  -4  -6   -0.24    1.01
   6   4   6    0.14    1.61
  -6  -4  -7    2.82    1.14
   6   4   7    2.68    1.73
   6   4   8   -0.84    1.73
  -6  -5  14    3.34    1.37
   6   5 -14    1.61    1.65
  -6  -5  14    0.29    1.47
  -6  -5  13    2.75    1.43
  -6  -5  13    1.97    1.10
   6   5 -13    0.77    1.59
  -6  -5  13    0.55    1.49
   6   5 -12    4.03    1.32
  -6  -5  12    3.54    1.36
   6   5 -12    2.65    1.41
  -6  -5  12    2.89    1.14
  -6  -5  12    2.50    1.21
   6   5 -11   -1.60    1.21
  -6  -5  11   -0.06    1.14
   6   5 -11    0.26    1.32
  -6  -5  11    1.28    1.23
  -6  -5  11    1.22    1.10
   6   5 -10   -0.29    1.14
  -6  -5  10    1.69    1.10
   6   5 -10    4.22    1.26
  -6  -5  10    0.35    1.08
  -6  -5  10    1.35    1.15
   6   5 -10    2.70    1.24
  -6  -5   9    5.61    1.11
   6   5  -9    6.44    1.23
  -6  -5   9    8.73    1.03
   6   5  -9    6.10    1.24
  -6  -5   9    5.84    1.00
   6   5  -9    5.02    1.07
   6   5  -8    5.70    1.08
  -6  -5   8    4.66    1.04
  -6  -5   8    5.09    0.88
  -6  -5   8    4.41    0.97
   6   5  -8    3.99    1.18
  -6  -5   8    6.87    0.90
   6   5  -8    3.55    0.87
   6   5  -7   18.03    1.33
  -6  -5   7   19.24    1.05
   6   5  -7   16.39    1.36
   6   5  -7   19.10    1.59
  -6  -5   7   16.42    1.32
  -6  -5   7   15.49    1.20
   6   5  -7   17.12    1.41
   6   5  -7   16.63    1.04
  -6  -5   7   16.42    1.06
   6   5  -6    2.05    0.98
   6   5  -6   -0.48    1.21
   6   5  -6    0.43    0.99
  -6  -5   6    0.54    1.04
  -6  -5   6   -0.45    0.94
   6   5  -6    1.41    0.96
   6   5  -6    1.45    0.66
   6   5  -5    0.48    0.93
   6   5  -5    0.95    1.04
  -6  -5   5   -0.64    1.00
   6   5  -5   -1.03    0.97
  -6  -5   5   -0.09    0.95
   6   5  -5   -0.03    0.97
   6   5  -5    0.20    0.51
   6   5  -4   18.72    1.30
  -6  -5   4   20.90    1.39
   6   5  -4   21.52    1.39
  -6  -5   4   19.17    1.39
   6   5  -4   19.90    0.87
   6   5  -4   18.42    1.35
   6   5  -4   21.84    1.36
   6   5  -3   -0.79    1.06
   6   5  -3   -0.28    0.87
   6   5  -3   -0.74    0.98
  -6  -5   3    0.36    0.99
  -6  -5   3    0.36    0.98
   6   5  -3   -0.09    0.56
   6   5  -2   11.94    1.19
   6   5  -2   11.42    1.15
   6   5  -2    9.82    0.92
  -6  -5   2   11.33    1.16
   6   5  -1    0.71    1.05
  -6  -5   1   -0.10    0.93
   6   5  -1    1.81    0.96
   6   5   0    2.20    1.15
  -6  -5   0    2.86    1.09
   6   5   0    1.74    0.99
   6   5   0    2.76    1.08
   6   5   1    3.79    1.23
  -6  -5  -1    2.57    1.12
   6   5   1    1.49    1.06
   6   5   1    0.85    1.25
   6   5   2    0.41    1.25
  -6  -5  -2    0.82    1.10
   6   5   2   -1.10    1.13
   6   5   2    0.24    1.38
  -6  -5  -3    0.99    0.98
  -6  -5  -3    0.04    1.18
   6   5   3   -1.46    1.52
   6   5   4   -1.62    1.55
   6   5   5    0.44    1.65
   6   5   6    0.83    1.79
   6   5   7    2.27    1.83
   6   6 -13    1.17    1.56
   6   6 -12    1.93    1.53
  -6  -6  12    1.94    1.18
   6   6 -11   18.00    1.51
   6   6 -11   20.42    1.76
  -6  -6  11   19.29    1.48
   6   6 -10    0.45    1.09
   6   6 -10    0.45    1.24
  -6  -6  10   -0.81    1.04
  -6  -6   9    7.99    1.23
   6   6  -9    7.39    1.15
   6   6  -9    8.88    1.38
   6   6  -8    1.18    1.06
  -6  -6   8   -1.05    1.07
   6   6  -8    1.61    1.16
   6   6  -7    1.22    0.99
  -6  -6   7    2.52    1.10
   6   6  -7   -0.82    1.18
   6   6  -6    2.45    1.09
  -6  -6   6    3.18    1.15
  -6  -6   6    1.68    1.03
   6   6  -6    1.64    1.17
   6   6  -5    1.19    1.12
  -6  -6   5   -1.47    1.16
  -6  -6   5   -0.71    1.00
   6   6  -5    0.17    1.08
   6   6  -4   -0.03    1.07
  -6  -6   4    0.94    1.13
   6   6  -4   -0.07    1.09
   6   6  -3    2.09    1.12
   6   6  -3    1.06    1.11
  -6  -6   3    0.67    1.07
   6   6  -3    0.66    0.38
   6   6  -2   10.45    1.30
   6   6  -2   10.40    1.17
   6   6  -2    8.19    0.74
  -6  -6   2    8.08    1.24
   6   6  -1    5.18    1.32
  -6  -6   1    3.18    1.12
   6   6  -1    2.13    0.87
   6   6   0    8.59    1.46
  -6  -6   0    6.66    1.24
   6   6   0    6.06    1.12
   6   6   1   -1.07    1.28
  -6  -6  -1   -1.48    1.15
   6   6   1    0.78    1.25
  -6  -6  -2    0.42    1.19
   6   6   2    0.08    1.31
  -6  -6  -3    2.28    1.07
  -6  -6  -3    1.57    1.25
   6   6   3    2.88    1.51
  -6  -6  -4    1.26    1.07
   6   6   4    0.15    1.59
   6   6   5   -0.58    1.68
   6   6   6   -0.16    1.89
   6   7 -12    1.13    1.44
   6   7 -11    0.26    1.31
   6   7 -10   -1.21    1.47
  -6  -7  10    0.61    1.23
  -6  -7   9    0.96    1.17
   6   7  -9    2.33    1.15
   6   7  -9    2.22    1.33
   6   7  -8    3.53    1.18
  -6  -7   8    3.10    1.10
   6   7  -8    3.54    1.22
   6   7  -7    0.10    1.11
  -6  -7   7   -1.93    1.18
   6   7  -7   -0.07    1.15
   6   7  -6    3.16    1.07
  -6  -7   6    3.76    1.17
   6   7  -6    3.25    1.17
   6   7  -5    1.46    1.12
  -6  -7   5    1.63    1.22
   6   7  -5    1.76    1.20
   6   7  -4    2.61    1.19
  -6  -7   4    3.43    1.22
   6   7  -4    2.91    1.17
   6   7  -3    1.40    1.33
   6   7  -3    1.93    1.21
  -6  -7   3   -0.94    1.20
   6   7  -2    7.61    1.37
   6   7  -2    7.43    1.28
  -6  -7   2    6.55    1.32
  -6  -7   1    0.36    1.18
   6   7  -1   -0.90    1.38
   6   7  -1    2.10    1.23
  -6  -7   0   -0.12    1.21
   6   7   0    0.12    1.23
  -6  -7  -1    1.45    1.26
   6   7   1    1.39    1.03
  -6  -7  -2   -0.10    1.10
   6   7   2    0.63    1.25
  -6  -7  -3   -0.03    1.18
   6   7   3    2.59    1.40
   6   7   4    3.06    1.44
   6   7   5   -0.80    1.63
   6   8 -11    3.39    1.51
   6   8 -10    1.22    1.31
   6   8  -9    5.38    1.35
  -6  -8   8    1.15    1.43
   6   8  -8    0.35    1.28
   6   8  -7    0.33    1.34
  -6  -8   7    1.92    1.21
   6   8  -7   -1.00    1.28
   6   8  -6   -1.05    1.47
  -6  -8   6   -0.53    1.21
   6   8  -6   -0.80    1.28
   6   8  -5   -1.74    1.52
  -6  -8   5    1.30    1.22
   6   8  -5    0.15    1.26
   6   8  -4   -1.04    1.39
  -6  -8   4   -0.16    1.32
   6   8  -4    0.84    1.21
   6   8  -3    4.97    1.50
   6   8  -3    2.43    1.32
  -6  -8   3    2.55    1.37
   6   8  -2    3.30    1.39
  -6  -8   2    4.32    1.34
   6   8  -1    4.33    1.41
   6   8   0    1.75    1.44
   6   9  -8   -2.24    1.32
   6   9  -7   -1.32    1.42
   6   9  -6    1.16    1.37
   6   9  -5    1.05    1.34
   6   9  -4    0.20    1.33
   6   9  -3    1.43    1.41
   7 -11  -3    0.50    1.47
   7 -11  -2   13.72    1.78
   7 -11  -2   13.30    1.67
   7 -11  -1    0.16    1.48
   7 -11   0   11.15    1.65
   7 -11   1    1.29    1.62
  -7  10   9    1.86    1.19
  -7  10   8    1.09    1.08
   7 -10  -8    1.85    1.65
  -7  10   7    1.45    1.12
   7 -10  -7   -1.31    1.54
   7 -10  -7   -0.30    1.49
  -7  10   7   -0.80    1.59
   7 -10  -6    0.17    1.51
   7 -10  -6   -0.80    1.46
   7 -10  -5    2.80    1.42
   7 -10  -5    2.00    1.31
   7 -10  -5    3.63    1.29
   7 -10  -4    2.99    1.44
   7 -10  -4    0.12    1.34
   7 -10  -4    2.22    1.28
   7 -10  -3    1.40    1.38
   7 -10  -3    0.41    1.28
   7 -10  -2    3.05    1.43
   7 -10  -2    3.28    1.33
   7 -10  -1   -1.94    1.44
   7 -10  -1    0.42    1.40
   7 -10   0   24.42    1.94
   7 -10   0   22.82    1.80
   7 -10   1   -0.97    1.44
   7 -10   1   -1.27    1.36
   7 -10   2   10.08    1.67
   7 -10   2   15.08    1.56
   7 -10   3    5.97    1.57
   7 -10   4    4.85    1.58
  -7   9  10    1.16    1.24
  -7   9   9    5.20    1.18
   7  -9  -9    4.84    1.53
   7  -9  -9    2.69    1.67
  -7   9   9    5.22    1.71
  -7   9   8    3.34    1.00
   7  -9  -8    1.22    1.35
   7  -9  -8    0.05    1.50
  -7   9   7   12.12    1.18
   7  -9  -7   16.37    1.63
   7  -9  -7   13.42    1.57
  -7   9   6    4.87    0.93
   7  -9  -6    2.88    1.40
   7  -9  -6    5.06    1.35
  -7   9   5    1.42    0.91
   7  -9  -5    1.57    1.40
   7  -9  -5    0.04    1.18
  -7   9   5    0.88    1.27
   7  -9  -4   31.39    2.05
   7  -9  -4   34.91    1.96
   7  -9  -4   29.31    1.93
  -7   9   4   32.51    1.62
  -7   9   3   12.18    0.95
   7  -9  -3    8.73    1.39
   7  -9  -3   11.74    1.37
   7  -9  -3    8.31    1.38
   7  -9  -2   51.95    2.65
   7  -9  -2   48.39    2.37
   7  -9  -2   51.51    2.56
  -7   9   2   50.39    2.11
   7  -9  -1   13.99    1.60
   7  -9  -1   14.71    1.56
   7  -9   0   30.47    2.01
   7  -9   1   21.38    1.79
   7  -9   2   12.79    1.58
   7  -9   3   34.73    2.21
   7  -9   4    2.62    1.51
   7  -9   4    2.51    1.27
   7  -9   5    3.80    1.59
   7  -9   5    3.39    1.38
   7  -8 -11    7.77    1.52
  -7   8  10    6.23    1.23
   7  -8 -10    4.98    1.64
   7  -8 -10    5.46    1.33
  -7   8   9   13.02    1.29
   7  -8  -9   12.40    1.73
   7  -8  -9   12.30    1.39
  -7   8   8    4.78    0.99
   7  -8  -8    5.34    1.48
   7  -8  -8    4.38    1.14
  -7   8   7    5.91    1.00
   7  -8  -7    2.12    1.43
  -7   8   7    4.87    0.90
   7  -8  -7    3.00    1.39
   7  -8  -7    6.86    1.13
  -7   8   7    4.48    1.36
  -7   8   6    8.63    1.04
   7  -8  -6    6.85    1.38
  -7   8   6    8.55    0.94
   7  -8  -6    6.66    1.39
   7  -8  -6    7.68    1.08
  -7   8   6    8.06    1.38
  -7   8   5    0.38    0.88
   7  -8  -5   -0.50    1.27
  -7   8   5    0.51    0.78
   7  -8  -5    0.75    1.21
   7  -8  -5    0.55    0.88
  -7   8   5    1.46    1.19
   7  -8  -4   22.89    1.76
  -7   8   4   26.01    1.30
  -7   8   4   23.45    1.36
  -7   8   3    7.90    0.89
   7  -8  -3    7.55    1.33
  -7   8   3    7.75    0.83
   7  -8  -3    8.93    1.24
   7  -8  -3    6.69    1.32
  -7   8   2    0.47    0.73
   7  -8  -2    0.09    1.23
  -7   8   2    0.01    0.61
   7  -8  -2   -1.26    1.01
  -7   8   1    7.91    0.75
   7  -8  -1    6.33    1.31
   7  -8  -1    7.80    0.99
   7  -8   0   11.13    1.11
  -7   8   0    9.19    0.67
   7  -8   0   10.55    1.44
   7  -8   1   -0.61    1.28
   7  -8   1    0.12    1.28
   7  -8   2    3.07    1.43
   7  -8   2    1.67    1.18
   7  -8   3   14.37    1.60
   7  -8   3   15.59    1.45
   7  -8   4   -0.46    1.42
   7  -8   4    0.60    1.23
   7  -8   5    6.61    1.61
   7  -8   5    6.44    1.34
   7  -8   6    5.24    1.65
   7  -8   6    7.19    1.46
   7  -7 -12    1.40    1.58
   7  -7 -12   -1.34    1.62
  -7   7  11    1.51    1.10
   7  -7 -11    1.21    1.48
   7  -7 -11    1.17    1.53
   7  -7 -11    1.58    1.39
  -7   7  10   -0.33    1.08
   7  -7 -10    2.04    1.48
  -7   7  10    2.09    1.53
   7  -7 -10    0.06    1.45
   7  -7 -10   -0.08    1.27
  -7   7   9    5.90    1.07
   7  -7  -9    5.92    1.53
  -7   7   9    4.68    1.39
   7  -7  -9    6.25    1.51
   7  -7  -9    6.28    1.30
   7  -7  -8    3.71    1.16
  -7   7   8    3.42    1.03
  -7   7   8    2.36    1.33
   7  -7  -8    4.40    1.36
   7  -7  -8    3.22    1.12
  -7   7   7   10.62    1.12
   7  -7  -7    8.59    1.25
  -7   7   7    7.67    0.91
   7  -7  -7    6.88    1.36
  -7   7   7    5.41    1.32
   7  -7  -7   10.38    1.17
  -7   7   6   -0.51    0.93
   7  -7  -6   -0.43    0.88
  -7   7   6   -1.14    0.81
   7  -7  -6    0.17    1.19
  -7   7   6    0.13    1.24
   7  -7  -6   -0.38    0.90
  -7   7   5    9.62    0.99
   7  -7  -5   10.85    1.45
  -7   7   5    9.46    0.88
   7  -7  -5   10.86    1.10
   7  -7  -5   11.07    1.26
   7  -7  -5   11.91    1.08
  -7   7   5   11.89    1.31
   7  -7  -4   35.04    2.12
  -7   7   4   35.27    1.70
  -7   7   4   35.12    2.00
   7  -7  -4   40.53    2.03
   7  -7  -4   39.05    1.74
   7  -7  -4   38.43    1.77
  -7   7   4   37.07    1.77
  -7   7   3    0.58    0.77
   7  -7  -3    0.53    1.17
  -7   7   3    0.41    0.67
   7  -7  -3    0.84    1.03
   7  -7  -3    0.16    0.70
   7  -7  -3   -0.16    0.75
  -7   7   2   60.54    2.53
   7  -7  -2   64.30    2.85
  -7   7   2   60.71    2.48
   7  -7  -2   64.16    2.73
   7  -7  -2   58.59    2.45
  -7   7   1   56.13    2.29
   7  -7  -1   51.46    2.66
  -7   7   1   53.52    2.23
   7  -7  -1   60.08    2.66
  -7   7   0   49.93    2.12
   7  -7   0   52.52    2.55
  -7   7   0   50.65    2.07
   7  -7   0   53.56    2.50
   7  -7   0   53.64    2.32
  -7   7  -1   76.43    3.10
   7  -7   1   74.13    3.49
  -7   7  -1   79.76    3.03
   7  -7   1   79.64    3.43
   7  -7   1   82.15    3.27
  -7   7  -2   41.12    1.64
   7  -7   2   36.38    2.18
  -7   7  -2   38.81    1.57
   7  -7   2   37.23    2.09
   7  -7   2   40.40    1.85
   7  -7   3   46.37    2.50
   7  -7   3   50.57    2.41
   7  -7   4   51.70    2.62
   7  -7   4   48.68    2.43
   7  -7   5   18.17    1.76
   7  -7   5   18.43    1.50
   7  -7   6   10.97    1.65
   7  -7   6   10.60    1.29
   7  -7   7    3.10    1.57
   7  -7   7    3.06    1.19
   7  -6 -13    4.80    1.73
   7  -6 -13    1.19    1.59
  -7   6  12    0.06    1.18
   7  -6 -12    0.76    1.60
  -7   6  12   -1.06    1.76
   7  -6 -12   -2.76    1.68
   7  -6 -12   -0.98    1.49
  -7   6  11   13.68    1.32
   7  -6 -11    8.68    1.59
  -7   6  11   11.33    1.76
   7  -6 -11   14.46    1.75
   7  -6 -11   13.86    1.53
  -7   6  10    2.04    1.08
   7  -6 -10    1.89    1.46
  -7   6  10    1.93    1.53
   7  -6 -10   -0.11    1.39
   7  -6 -10    1.33    1.26
  -7   6   9    1.07    1.01
   7  -6  -9   -0.80    1.30
  -7   6   9    2.71    1.34
   7  -6  -9    1.22    1.32
   7  -6  -9    2.15    1.15
   7  -6  -8    8.06    1.18
   7  -6  -8    8.11    1.40
  -7   6   8    7.18    0.99
  -7   6   8    7.03    0.98
  -7   6   8    7.54    1.43
   7  -6  -8    8.45    1.37
   7  -6  -8    6.75    1.21
   7  -6  -7    0.23    1.24
   7  -6  -7    2.00    1.09
  -7   6   7   -0.03    0.83
  -7   6   7    0.82    0.86
  -7   6   7   -0.45    1.13
   7  -6  -7    0.67    1.24
   7  -6  -7    0.97    1.07
  -7   6   6  151.15    5.86
  -7   6   6  148.09    6.02
  -7   6   6  148.95    5.81
   7  -6  -6  153.80    6.06
   7  -6  -6  147.46    5.88
   7  -6  -6  150.33    5.90
  -7   6   5    1.70    0.76
  -7   6   5   -0.31    0.71
   7  -6  -5    0.16    0.90
   7  -6  -5   -0.43    1.16
  -7   6   5    1.00    1.08
   7  -6  -5    0.37    0.89
  -7   6   4   66.08    2.83
  -7   6   4   69.12    3.03
  -7   6   4   64.93    2.78
   7  -6  -4   70.42    3.03
   7  -6  -4   71.86    2.84
   7  -6  -4   70.51    2.84
  -7   6   3   34.83    1.65
   7  -6  -3   34.66    1.80
  -7   6   3   32.93    1.56
  -7   6   3   33.17    1.84
   7  -6  -3   35.95    1.87
   7  -6  -3   35.70    1.59
   7  -6  -3   35.08    1.61
   7  -6  -2   10.31    0.80
   7  -6  -2    7.76    1.32
   7  -6  -2    8.55    1.07
  -7   6   2    9.49    0.76
  -7   6   2    9.81    0.85
   7  -6  -2    9.03    1.07
   7  -6  -2    8.76    0.74
  -7   6   1   21.63    1.13
   7  -6  -1   21.31    1.40
   7  -6  -1   21.75    1.10
   7  -6  -1   19.12    1.51
  -7   6   1   21.77    1.09
   7  -6  -1   21.16    1.05
   7  -6  -1   21.36    1.47
   7  -6   0    1.48    0.89
   7  -6   0    0.83    1.19
   7  -6   0    1.41    1.00
  -7   6   0    0.54    0.57
  -7   6   0    0.62    0.66
   7  -6   0    0.06    0.50
   7  -6   0    0.21    1.04
   7  -6   1    1.97    0.85
  -7   6  -1    1.74    0.53
  -7   6  -1    2.53    0.66
   7  -6   1    0.64    1.09
  -7   6  -2   24.28    1.22
   7  -6   2   25.45    1.74
  -7   6  -2   25.72    1.15
   7  -6   2   26.58    1.59
   7  -6   2   24.39    1.35
   7  -6   3    4.58    0.86
  -7   6  -3    4.67    0.45
   7  -6   3    4.63    1.30
  -7   6  -3    5.02    0.56
   7  -6   3    4.11    1.07
  -7   6  -3    4.89    0.66
  -7   6  -3    4.69    0.51
   7  -6   4    2.67    0.83
  -7   6  -4    1.90    0.41
   7  -6   4    1.95    1.33
  -7   6  -4    2.11    0.95
   7  -6   4    1.46    1.06
  -7   6  -4    3.06    0.63
   7  -6   5    4.33    1.44
   7  -6   5    6.83    1.09
   7  -6   6    5.28    1.44
   7  -6   6    5.29    1.15
   7  -6   7    1.86    1.53
   7  -6   7    1.81    1.12
   7  -6   8    5.72    1.33
   7  -5 -14   -0.70    1.73
   7  -5 -13    1.19    1.61
  -7   5  13    2.71    1.84
   7  -5 -13    6.44    1.62
  -7   5  12    0.55    1.13
   7  -5 -12    0.78    1.55
  -7   5  12    0.84    1.59
   7  -5 -12    0.50    1.52
   7  -5 -12    1.93    1.54
   7  -5 -11    4.23    1.57
  -7   5  11    4.12    1.06
  -7   5  11    6.69    1.54
   7  -5 -11    6.62    1.52
   7  -5 -11    4.90    1.39
   7  -5 -10    5.50    1.45
  -7   5  10    9.32    1.13
  -7   5  10    5.22    1.45
   7  -5 -10    6.53    1.42
   7  -5 -10    7.07    1.42
   7  -5  -9   -0.66    1.27
  -7   5   9   -0.25    1.03
  -7   5   9    0.36    1.34
   7  -5  -9    0.94    1.30
   7  -5  -9    0.07    1.13
  -7   5   8   34.14    1.76
   7  -5  -8   35.23    2.04
  -7   5   8   35.72    2.01
  -7   5   8   34.91    1.71
   7  -5  -8   32.72    2.07
   7  -5  -8   37.04    1.91
   7  -5  -8   37.51    1.93
  -7   5   7   16.42    1.12
   7  -5  -7   14.53    1.46
   7  -5  -7   13.79    1.29
  -7   5   7   16.09    1.10
  -7   5   7   18.17    1.36
   7  -5  -7   15.16    1.47
   7  -5  -7   14.74    1.27
  -7   5   6   31.75    1.62
   7  -5  -6   34.19    1.70
   7  -5  -6   33.85    1.92
  -7   5   6   32.91    1.82
  -7   5   6   32.05    1.56
   7  -5  -6   33.86    1.87
   7  -5  -6   33.24    1.72
   7  -5  -6   32.33    1.71
   7  -5  -6   32.65    1.69
   7  -5  -6   32.94    1.79
   7  -5  -5   20.32    1.28
  -7   5   5   22.09    1.22
   7  -5  -5   17.74    1.48
  -7   5   5   19.82    1.39
  -7   5   5   17.59    1.12
   7  -5  -5   19.88    1.22
   7  -5  -5   17.76    1.40
   7  -5  -5   21.27    1.26
   7  -5  -5   19.13    1.30
   7  -5  -4   34.67    1.78
  -7   5   4   35.63    1.68
  -7   5   4   35.51    1.83
   7  -5  -4   33.08    1.94
  -7   5   4   36.96    1.86
  -7   5   4   33.46    1.61
   7  -5  -4   38.77    1.90
   7  -5  -4   36.26    1.69
   7  -5  -4   38.41    1.80
   7  -5  -4   37.21    1.75
   7  -5  -3   12.66    1.00
  -7   5   3   13.65    1.18
   7  -5  -3   13.55    1.09
  -7   5   3   13.81    0.89
   7  -5  -3   14.10    1.18
  -7   5   3   13.93    1.16
   7  -5  -3   12.59    0.92
  -7   5   3   13.26    0.95
  -7   5   2    1.19    0.92
   7  -5  -2    2.58    0.90
   7  -5  -2    2.67    0.68
  -7   5   2    2.76    0.64
   7  -5  -2    1.97    0.94
   7  -5  -2    2.78    0.67
  -7   5   2    1.98    0.74
  -7   5   1   65.65    2.85
   7  -5  -1   64.32    2.77
  -7   5   1   60.29    2.61
   7  -5  -1   66.45    2.59
  -7   5   1   62.42    2.57
   7  -5  -1   62.11    2.56
   7  -5  -1   64.89    2.78
   7  -5  -1   66.59    2.78
   7  -5   0    8.01    0.95
  -7   5   0    9.57    1.19
   7  -5   0    8.90    0.73
   7  -5   0    6.87    1.21
   7  -5   0    8.40    1.02
  -7   5   0    7.13    0.74
   7  -5   0    8.53    0.68
   7  -5   0   10.45    1.05
  -7   5   0    7.40    0.78
   7  -5   1   74.97    2.77
   7  -5   1   66.47    2.97
   7  -5   1   64.87    3.06
  -7   5  -1   65.57    2.79
  -7   5  -1   65.05    2.92
  -7   5  -1   67.23    2.77
   7  -5   1   70.93    2.75
   7  -5   1   68.26    2.97
   7  -5   1   72.76    2.93
   7  -5   2   30.50    1.66
   7  -5   2   31.54    1.81
  -7   5  -2   28.40    1.41
  -7   5  -2   28.19    1.57
  -7   5  -2   27.36    1.35
   7  -5   2   30.22    1.31
   7  -5   2   29.16    1.57
   7  -5   2   30.42    1.53
   7  -5   3  101.24    4.39
   7  -5   3  110.04    4.54
  -7   5  -3  107.05    4.14
  -7   5  -3  110.51    4.39
  -7   5  -3  106.17    4.24
  -7   5  -3  108.56    4.20
  -7   5  -3  106.61    4.15
   7  -5   3  107.88    4.34
   7  -5   3  113.41    4.30
   7  -5   4   50.74    2.10
   7  -5   4   46.78    2.44
  -7   5  -4   44.79    1.91
  -7   5  -4   47.69    2.30
  -7   5  -4   47.88    2.03
  -7   5  -4   45.32    2.07
  -7   5  -4   48.38    1.93
   7  -5   4   46.64    2.21
   7  -5   5    3.70    0.92
  -7   5  -5    2.99    0.92
  -7   5  -5    3.80    0.57
   7  -5   5    2.20    1.27
  -7   5  -5    4.83    1.15
   7  -5   5    4.95    1.08
   7  -5   6  131.18    5.24
   7  -5   6  119.65    4.94
   7  -5   7    4.33    1.16
   7  -5   8    3.36    1.15
   7  -5   9   13.50    1.49
   7  -4 -15    4.23    1.79
   7  -4 -14    1.90    1.55
   7  -4 -14    2.60    1.81
   7  -4 -14   -1.09    1.80
   7  -4 -13    2.50    1.55
  -7   4  13    1.88    1.70
   7  -4 -13    3.57    1.84
   7  -4 -13    2.60    1.58
   7  -4 -12    9.17    1.54
  -7   4  12   11.62    1.23
  -7   4  12   13.56    1.75
   7  -4 -12   11.56    1.64
   7  -4 -11   24.23    1.91
  -7   4  11   27.31    2.06
   7  -4 -11   30.31    1.93
  -7   4  11   30.69    1.65
   7  -4 -10    7.48    1.32
  -7   4  10    6.95    1.10
  -7   4  10    6.53    1.42
   7  -4 -10    6.42    1.42
   7  -4 -10    7.14    1.34
   7  -4  -9    6.57    1.30
   7  -4  -9    4.87    1.23
  -7   4   9    4.91    0.98
  -7   4   9    6.55    1.24
   7  -4  -9    4.19    1.32
   7  -4  -9    3.68    1.21
   7  -4  -8   15.16    1.45
   7  -4  -8   13.69    1.28
  -7   4   8   13.74    1.12
  -7   4   8   14.11    1.07
  -7   4   8   14.33    1.36
   7  -4  -8   15.14    1.41
   7  -4  -8   13.03    1.25
   7  -4  -8   14.14    1.24
   7  -4  -7   15.34    1.17
   7  -4  -7   15.33    1.35
  -7   4   7   15.74    1.07
   7  -4  -7   17.14    1.28
  -7   4   7   15.10    1.33
  -7   4   7   15.86    1.13
   7  -4  -7   15.52    1.41
   7  -4  -7   13.87    1.21
   7  -4  -7   17.65    1.18
   7  -4  -7   17.51    1.30
  -7   4   6   15.53    1.08
   7  -4  -6   15.09    1.13
   7  -4  -6   14.82    1.33
  -7   4   6   13.09    1.00
  -7   4   6   13.58    1.24
   7  -4  -6   17.46    1.32
   7  -4  -6   16.07    1.17
   7  -4  -6   14.03    1.17
   7  -4  -6   14.24    1.14
   7  -4  -6   14.03    1.22
  -7   4   5    9.77    1.04
   7  -4  -5    7.32    0.92
   7  -4  -5    9.37    1.20
  -7   4   5    8.49    0.81
  -7   4   5    9.24    0.98
   7  -4  -5    8.73    1.12
   7  -4  -5    7.57    0.94
  -7   4   5    7.68    0.85
   7  -4  -5    8.36    0.93
   7  -4  -5    9.01    0.94
   7  -4  -4  109.79    4.32
  -7   4   4  109.43    4.36
  -7   4   4  103.08    4.27
   7  -4  -4  101.45    4.41
  -7   4   4  111.10    4.38
  -7   4   4  108.04    4.25
   7  -4  -4  109.11    4.40
   7  -4  -4  108.31    4.28
   7  -4  -4  108.90    4.31
   7  -4  -4  110.90    4.29
   7  -4  -3   48.84    2.12
   7  -4  -3   51.61    2.18
  -7   4   3   45.52    2.20
   7  -4  -3   47.86    2.28
  -7   4   3   45.87    2.09
  -7   4   3   50.58    2.20
  -7   4   3   48.57    2.07
   7  -4  -3   46.08    2.24
   7  -4  -3   49.82    2.09
   7  -4  -3   47.65    2.17
  -7   4   2    7.77    1.04
   7  -4  -2    6.54    1.10
   7  -4  -2    7.57    0.91
  -7   4   2    9.80    0.79
   7  -4  -2    8.25    0.82
   7  -4  -2    7.19    0.75
  -7   4   2    6.25    0.82
  -7   4   1  330.81   12.87
   7  -4  -1  323.96   12.78
   7  -4  -1  341.66   12.72
  -7   4   1  334.06   12.74
  -7   4   1  336.82   12.83
  -7   4   1  339.13   12.72
   7  -4  -1  339.70   12.71
   7  -4  -1  337.25   12.81
   7  -4  -1  332.46   12.82
   7  -4   0    6.64    0.97
  -7   4   0    6.21    0.85
  -7   4   0    5.95    1.08
   7  -4   0    6.67    0.74
   7  -4   0    5.99    0.97
  -7   4   0    6.56    1.02
  -7   4   0    6.45    0.71
   7  -4   0    6.63    0.70
   7  -4   0    7.27    0.96
   7  -4   1   68.18    2.63
  -7   4  -1   63.75    2.88
   7  -4   1   60.94    2.74
  -7   4  -1   60.97    2.80
  -7   4  -1   63.23    2.64
  -7   4  -1   61.90    2.68
   7  -4   1   68.89    2.62
   7  -4   1   64.53    2.77
   7  -4   1   63.98    2.74
   7  -4   2   23.08    1.40
   7  -4   2   24.54    1.16
  -7   4  -2   23.06    1.45
  -7   4  -2   22.25    1.25
  -7   4  -2   23.59    1.31
   7  -4   2   21.07    1.14
   7  -4   2   22.94    1.37
   7  -4   2   22.07    1.33
   7  -4   3    5.50    0.89
   7  -4   3    5.85    1.28
  -7   4  -3    6.52    0.96
   7  -4   3    6.57    1.02
  -7   4  -3    6.61    1.13
  -7   4  -3    6.68    0.85
  -7   4  -3    6.33    0.66
   7  -4   3    4.14    0.95
   7  -4   4   24.06    1.38
   7  -4   4   23.63    1.48
  -7   4  -4   23.00    1.18
   7  -4   4   22.95    1.79
  -7   4  -4   25.29    1.29
  -7   4  -4   23.24    1.61
  -7   4  -4   25.05    1.18
   7  -4   4   25.55    1.45
  -7   4  -4   24.11    1.39
   7  -4   5    2.84    0.97
  -7   4  -5    2.40    0.66
  -7   4  -5    2.17    1.19
  -7   4  -5    2.63    0.84
  -7   4  -5    1.56    0.91
   7  -4   5    0.50    0.96
  -7   4  -5    1.44    0.63
   7  -4   6    2.04    1.00
  -7   4  -6    2.83    0.66
   7  -4   6    1.18    1.38
  -7   4  -6    2.40    1.31
  -7   4  -6    1.55    0.98
   7  -4   6    2.82    1.04
  -7   4  -7    4.93    1.10
  -7   4  -7    4.46    0.78
   7  -4   7    2.22    1.03
   7  -4   8    0.33    1.10
   7  -4   9    1.93    1.23
   7  -4   9    2.45    1.03
   7  -4  10    0.31    1.21
   7  -3 -15    8.85    1.70
   7  -3 -14    6.30    1.63
  -7   3  14    5.82    1.87
   7  -3 -14    7.52    1.99
   7  -3 -14    6.82    1.86
   7  -3 -13    5.65    1.57
  -7   3  13    7.50    1.75
   7  -3 -13    7.63    1.89
   7  -3 -13    8.07    1.72
   7  -3 -12   -0.81    1.29
  -7   3  12    0.80    1.44
   7  -3 -12   -0.94    1.64
   7  -3 -12    1.25    1.53
   7  -3 -11    0.98    1.30
  -7   3  11    5.00    1.38
   7  -3 -11    2.57    1.39
  -7   3  10   36.72    1.84
   7  -3 -10   35.92    2.06
  -7   3  10   37.95    2.11
   7  -3 -10   38.38    2.08
   7  -3 -10   32.87    1.86
   7  -3  -9    2.80    1.29
   7  -3  -9    1.66    1.12
  -7   3   9    1.76    1.22
  -7   3   9    2.71    0.95
   7  -3  -9    2.08    1.28
   7  -3  -9    2.46    1.15
   7  -3  -9    1.49    1.04
   7  -3  -8   43.98    2.00
  -7   3   8   43.89    2.03
   7  -3  -8   38.85    2.13
  -7   3   8   43.89    2.17
  -7   3   8   40.83    1.97
   7  -3  -8   41.64    2.23
   7  -3  -8   42.83    2.13
   7  -3  -8   44.15    2.13
   7  -3  -8   43.03    2.05
   7  -3  -7   11.12    0.98
   7  -3  -7    9.08    1.18
  -7   3   7    9.65    1.08
  -7   3   7   10.35    0.97
   7  -3  -7   10.11    1.29
   7  -3  -7   10.23    1.07
   7  -3  -7   10.71    1.11
  -7   3   7   11.83    1.00
   7  -3  -7    9.67    0.97
   7  -3  -7    9.13    1.06
   7  -3  -6   23.40    1.34
  -7   3   6   22.36    1.34
   7  -3  -6   23.89    1.52
  -7   3   6   23.80    1.46
  -7   3   6   24.67    1.30
   7  -3  -6   23.92    1.52
   7  -3  -6   23.45    1.39
   7  -3  -6   25.78    1.40
   7  -3  -6   25.81    1.44
   7  -3  -6   22.99    1.42
  -7   3   5    2.69    0.89
   7  -3  -5    1.61    0.76
   7  -3  -5    2.05    0.91
  -7   3   5    2.16    0.75
  -7   3   5    1.79    0.88
   7  -3  -5    0.29    0.91
   7  -3  -5    1.91    0.84
   7  -3  -5    1.79    0.81
  -7   3   5    0.64    0.79
   7  -3  -5    2.31    0.86
   7  -3  -4   40.64    1.87
   7  -3  -4   41.38    1.85
  -7   3   4   40.43    1.92
   7  -3  -4   40.32    2.01
  -7   3   4   39.55    1.86
  -7   3   4   40.51    1.90
  -7   3   4   40.11    1.81
   7  -3  -4   40.78    2.01
   7  -3  -4   42.24    1.88
   7  -3  -4   39.20    1.84
   7  -3  -3   28.70    1.38
   7  -3  -3   27.92    1.40
  -7   3   3   25.28    1.47
   7  -3  -3   25.37    1.54
  -7   3   3   25.79    1.41
  -7   3   3   27.00    1.45
  -7   3   3   25.85    1.33
   7  -3  -3   26.51    1.37
   7  -3  -3   27.55    1.36
   7  -3  -2    2.66    0.91
  -7   3   2    2.18    0.82
  -7   3   2    3.26    0.94
   7  -3  -2    3.12    0.97
   7  -3  -2    2.39    0.79
  -7   3   2    3.89    0.94
  -7   3   2    3.03    0.79
   7  -3  -2    3.23    0.69
   7  -3  -2    3.72    0.76
   7  -3  -1    5.92    0.97
   7  -3  -1    5.29    0.72
  -7   3   1    5.98    0.79
  -7   3   1    6.02    0.99
   7  -3  -1    6.64    1.01
   7  -3  -1    5.97    0.86
  -7   3   1    5.18    0.98
  -7   3   1    6.46    0.75
   7  -3  -1    7.30    0.75
   7  -3  -1    7.06    0.92
  -7   3   0   26.71    1.67
   7  -3   0   30.30    1.56
   7  -3   0   28.67    1.67
  -7   3   0   31.56    1.67
  -7   3   0   31.12    1.49
  -7   3   0   30.80    1.50
   7  -3   0   31.38    1.41
   7  -3   0   28.65    1.52
   7  -3   0   29.22    1.43
   7  -3   0   31.72    1.60
   7  -3   1   91.74    3.53
  -7   3  -1   88.63    3.75
   7  -3   1   83.67    3.58
   7  -3   1   86.69    3.76
  -7   3  -1   92.53    3.71
  -7   3  -1   91.52    3.56
   7  -3   1   89.74    3.51
  -7   3  -1   87.39    3.60
   7  -3   1   85.07    3.58
   7  -3   1   87.24    3.61
  -7   3  -2   34.80    1.95
   7  -3   2   34.69    1.78
   7  -3   2   35.90    1.64
  -7   3  -2   35.47    1.91
  -7   3  -2   36.73    1.68
   7  -3   2   36.12    1.64
   7  -3   2   34.70    1.71
  -7   3  -2   35.41    1.77
   7  -3   2   38.38    1.76
   7  -3   3   31.18    1.72
  -7   3  -3   40.66    1.99
  -7   3  -3   36.40    1.71
   7  -3   3   38.78    1.67
   7  -3   3   34.61    1.71
  -7   3  -3   34.97    1.74
   7  -3   3   35.87    1.73
   7  -3   4   67.38    2.81
   7  -3   4   59.46    2.80
  -7   3  -4   65.11    2.66
  -7   3  -4   69.88    3.03
  -7   3  -4   67.97    2.76
  -7   3  -4   67.19    2.67
   7  -3   4   63.93    2.73
  -7   3  -4   64.67    2.82
  -7   3  -5    1.76    0.97
   7  -3   5    0.14    0.90
   7  -3   5   -0.09    1.06
  -7   3  -5    2.11    1.26
  -7   3  -5    0.50    0.82
  -7   3  -5    1.06    0.70
   7  -3   5    0.64    0.90
  -7   3  -5    1.26    0.70
  -7   3  -6   28.79    1.61
   7  -3   6   28.83    1.62
  -7   3  -6   28.23    1.39
  -7   3  -6   27.98    1.55
   7  -3   6   22.92    1.63
  -7   3  -6   30.46    1.39
   7  -3   6   26.77    1.53
   7  -3   7    6.07    1.05
  -7   3  -7    5.22    1.12
  -7   3  -7    6.00    0.85
  -7   3  -8   29.07    1.47
   7  -3   8   25.39    1.63
   7  -3   9    3.57    1.14
   7  -2 -16    0.17    1.57
   7  -2 -15    1.45    1.54
   7  -2 -15    1.07    2.08
   7  -2 -14    8.28    1.54
  -7   2  14    8.15    1.78
   7  -2 -14    7.37    1.95
   7  -2 -14    8.88    1.90
   7  -2 -13   -1.62    1.31
  -7   2  13   -1.34    1.09
  -7   2  13    3.31    1.55
   7  -2 -13    1.68    1.74
   7  -2 -13    1.51    1.69
   7  -2 -12   12.53    1.48
  -7   2  12   16.68    1.79
  -7   2  12   17.07    1.27
   7  -2 -12   15.73    1.91
   7  -2 -12   17.48    1.74
   7  -2 -11    2.45    1.15
  -7   2  11    2.86    1.47
   7  -2 -11    4.43    1.42
   7  -2 -11    2.61    1.34
   7  -2 -11    3.72    1.07
   7  -2 -10    6.83    1.20
  -7   2  10   10.13    1.40
   7  -2 -10    8.44    1.50
   7  -2 -10    9.37    1.31
   7  -2 -10    8.32    1.07
   7  -2  -9    8.35    1.12
   7  -2  -9    9.58    1.21
  -7   2   9    9.71    1.25
   7  -2  -9    8.66    1.22
   7  -2  -9   10.10    1.27
   7  -2  -9    8.68    0.96
   7  -2  -8   17.03    1.15
   7  -2  -8   13.49    1.30
  -7   2   8   17.27    1.30
  -7   2   8   15.94    1.12
   7  -2  -8   16.87    1.31
   7  -2  -8   16.05    1.34
  -7   2   8   12.95    1.19
   7  -2  -8   14.77    1.14
   7  -2  -7   20.19    1.28
   7  -2  -7   21.22    1.42
  -7   2   7   21.01    1.29
  -7   2   7   25.06    1.39
  -7   2   7   21.01    1.27
   7  -2  -7   19.48    1.52
   7  -2  -7   20.35    1.36
   7  -2  -7   21.96    1.40
   7  -2  -7   22.05    1.27
   7  -2  -6    5.70    0.86
   7  -2  -6    6.74    1.03
  -7   2   6    6.44    0.95
  -7   2   6    7.20    0.91
   7  -2  -6    8.51    1.14
   7  -2  -6    7.26    0.99
   7  -2  -6    5.95    0.87
  -7   2   6    4.96    0.88
   7  -2  -6    7.15    0.97
   7  -2  -5    0.85    0.83
  -7   2   5    0.68    0.79
   7  -2  -5    1.89    0.74
   7  -2  -5    0.46    0.91
  -7   2   5    2.05    0.85
  -7   2   5    0.21    0.76
   7  -2  -5    1.21    0.98
   7  -2  -5    0.87    0.78
   7  -2  -5    1.33    0.68
  -7   2   5    2.29    0.84
  -7   2   4    9.53    0.92
  -7   2   4   10.26    0.95
   7  -2  -4    9.16    0.91
   7  -2  -4    9.50    0.78
   7  -2  -4    9.18    1.05
  -7   2   4   10.08    0.92
  -7   2   4    8.67    0.90
   7  -2  -4    7.85    0.88
   7  -2  -4    8.55    0.83
   7  -2  -3   92.67    3.72
   7  -2  -3   95.30    3.77
  -7   2   3   89.27    3.81
   7  -2  -3   94.45    3.87
  -7   2   3   96.93    3.78
  -7   2   3   92.21    3.78
  -7   2   3   98.07    3.76
   7  -2  -3   96.02    3.76
   7  -2  -3   90.57    3.72
   7  -2  -3   94.12    3.87
   7  -2  -2    9.15    1.00
  -7   2   2    8.68    0.95
  -7   2   2    8.72    1.06
   7  -2  -2    8.42    0.80
   7  -2  -2    9.54    1.08
  -7   2   2    9.10    1.05
  -7   2   2   10.26    0.90
   7  -2  -2    8.65    0.87
   7  -2  -2    8.18    0.83
   7  -2  -2   10.13    0.85
   7  -2  -1  210.02    8.45
  -7   2   1  218.56    8.56
   7  -2  -1  226.21    8.60
  -7   2   1  230.36    8.59
  -7   2   1  219.40    8.48
   7  -2  -1  226.08    8.46
  -7   2   1  217.27    8.51
   7  -2  -1  223.13    8.46
   7  -2  -1  220.43    8.47
   7  -2  -1  225.84    8.56
   7  -2   0   11.57    1.05
  -7   2   0   12.03    1.19
   7  -2   0    9.70    1.18
   7  -2   0   12.20    0.92
  -7   2   0   10.75    0.97
  -7   2   0   12.64    1.17
  -7   2   0   11.23    0.93
   7  -2   0   12.36    0.90
   7  -2   0   10.57    0.92
   7  -2   0   14.10    0.96
   7  -2   1   61.18    2.53
  -7   2  -1   60.24    2.75
   7  -2   1   58.36    2.54
   7  -2   1   58.20    2.76
  -7   2  -1   63.61    2.74
  -7   2  -1   59.00    2.58
   7  -2   1   62.00    2.54
   7  -2   1   61.47    2.54
  -7   2  -1   61.67    2.61
   7  -2   1   62.55    2.64
   7  -2   2   17.17    1.18
   7  -2   2   15.29    1.06
  -7   2  -2   17.39    1.35
   7  -2   2   16.72    1.05
   7  -2   2   15.71    1.38
  -7   2  -2   16.86    1.35
  -7   2  -2   14.85    1.11
   7  -2   2   15.87    1.04
   7  -2   2   14.33    1.01
  -7   2  -2   13.82    1.17
   7  -2   3   52.34    2.39
   7  -2   3   53.73    2.35
   7  -2   3   55.79    2.65
  -7   2  -3   57.23    2.58
  -7   2  -3   51.17    2.34
   7  -2   3   60.40    2.37
   7  -2   3   53.98    2.30
  -7   2  -3   51.86    2.40
   7  -2   4    4.13    0.97
  -7   2  -4    1.63    0.92
  -7   2  -4    3.22    0.72
   7  -2   4    4.44    1.35
   7  -2   4    3.45    0.84
  -7   2  -4    3.50    1.24
  -7   2  -4    0.77    0.83
  -7   2  -4    2.10    0.69
   7  -2   4    1.98    0.79
   7  -2   5   12.98    1.16
  -7   2  -5    8.26    1.05
  -7   2  -5   11.29    0.86
   7  -2   5   10.33    1.03
  -7   2  -5    8.38    1.04
  -7   2  -5    9.85    0.91
   7  -2   5   10.21    0.94
   7  -2   6   11.61    1.07
   7  -2   6   11.77    1.20
  -7   2  -6   12.12    1.23
  -7   2  -6   14.54    1.04
   7  -2   6   12.67    1.23
  -7   2  -6   14.65    1.23
  -7   2  -6   13.20    0.98
   7  -2   7   10.50    1.05
  -7   2  -7   12.19    0.97
  -7   2  -7   11.24    0.99
   7  -2   8    0.55    1.04
  -7   2  -8    0.11    0.92
  -7   2  -8   -0.04    1.26
   7  -2   9    2.47    1.09
  -7   2  -9    1.76    1.02
   7  -1 -15    2.54    1.34
   7  -1 -15    2.44    1.99
   7  -1 -14    0.90    1.25
  -7   1  14    3.17    1.63
   7  -1 -14    3.13    1.97
   7  -1 -14    3.07    1.84
  -7   1  14   -0.23    1.75
   7  -1 -13    6.21    1.29
  -7   1  13    4.37    1.56
  -7   1  13    4.57    1.16
   7  -1 -13    4.02    1.80
   7  -1 -13    4.58    1.74
  -7   1  13    4.95    1.54
   7  -1 -12    0.31    1.21
  -7   1  12   -0.48    1.42
  -7   1  12    0.53    0.98
   7  -1 -12    1.14    1.66
   7  -1 -12    1.07    1.55
  -7   1  12   -0.19    1.44
   7  -1 -12    0.97    1.04
   7  -1 -11    0.75    1.11
  -7   1  11    1.36    1.31
  -7   1  11   -0.64    0.97
   7  -1 -11   -0.44    1.47
   7  -1 -11    2.56    1.41
   7  -1 -11    0.38    1.00
   7  -1 -10    3.88    1.09
  -7   1  10    4.12    1.30
   7  -1 -10    5.14    1.43
   7  -1 -10    4.05    1.30
  -7   1  10    2.76    0.97
   7  -1 -10    4.85    0.91
   7  -1  -9   12.08    1.16
   7  -1  -9   11.51    1.20
  -7   1   9   13.59    1.36
   7  -1  -9   10.76    1.43
   7  -1  -9   12.98    1.29
   7  -1  -9   11.88    1.29
  -7   1   9   10.76    1.08
   7  -1  -9   12.39    1.00
  -7   1   8   97.34    4.10
   7  -1  -8   93.78    4.08
  -7   1   8  103.08    4.05
   7  -1  -8  107.47    4.17
   7  -1  -8  102.16    4.15
   7  -1  -8  100.52    4.00
   7  -1  -8   98.94    4.04
   7  -1  -7    1.82    0.83
   7  -1  -7    0.55    0.89
  -7   1   7    0.68    0.93
  -7   1   7    2.58    0.84
   7  -1  -7    1.86    0.99
   7  -1  -7    0.41    0.96
   7  -1  -7    2.12    0.80
   7  -1  -6    8.75    1.04
   7  -1  -6   10.18    0.86
   7  -1  -6    8.80    0.97
  -7   1   6    9.22    1.01
  -7   1   6    7.16    0.94
   7  -1  -6    8.14    1.17
   7  -1  -6    9.04    0.99
  -7   1   6    7.05    0.94
   7  -1  -5  173.84    6.65
   7  -1  -5  173.24    6.74
  -7   1   5  175.59    6.70
   7  -1  -5  171.62    6.74
  -7   1   5  178.74    6.72
  -7   1   5  163.75    6.73
  -7   1   5  170.89    6.77
  -7   1   5  175.91    6.71
   7  -1  -5  171.68    6.73
   7  -1  -4    5.05    1.04
  -7   1   4    2.68    0.84
  -7   1   4    3.53    0.77
   7  -1  -4    4.66    0.70
   7  -1  -4    4.69    0.90
   7  -1  -4    3.18    0.83
  -7   1   4    4.96    0.97
  -7   1   4    4.07    0.75
  -7   1   4    3.86    0.86
   7  -1  -4    3.79    0.86
   7  -1  -4    3.65    0.71
   7  -1  -3    1.12    0.90
  -7   1   3    1.15    0.79
  -7   1   3    0.96    0.78
   7  -1  -3    0.78    0.66
   7  -1  -3    1.91    0.89
  -7   1   3    1.33    0.83
  -7   1   3    0.77    0.68
   7  -1  -3    1.09    0.79
   7  -1  -3    1.50    0.66
   7  -1  -3    1.78    0.82
   7  -1  -2    6.98    0.99
   7  -1  -2    7.02    0.86
  -7   1   2    9.48    0.92
   7  -1  -2    7.74    0.72
  -7   1   2    6.40    0.95
   7  -1  -2    6.55    1.00
  -7   1   2    7.24    0.89
   7  -1  -2    9.08    0.86
   7  -1  -2    6.62    0.69
   7  -1  -1   11.13    1.07
  -7   1   1   10.75    1.08
   7  -1  -1   12.02    0.94
   7  -1  -1   10.27    0.79
   7  -1  -1   11.88    1.15
  -7   1   1   10.87    1.02
  -7   1   1   10.98    1.15
  -7   1   1   11.29    1.01
   7  -1  -1   10.51    0.93
   7  -1  -1   10.93    0.84
   7  -1  -1   12.06    0.82
   7  -1   0   -0.38    0.86
  -7   1   0    1.75    0.97
   7  -1   0    0.17    0.63
   7  -1   0    1.01    1.03
  -7   1   0   -0.17    0.96
  -7   1   0    0.02    0.82
  -7   1   0    2.59    0.89
   7  -1   0    0.61    0.72
   7  -1   0    1.27    0.63
   7  -1   0    0.69    0.75
   7  -1   1    2.11    0.89
  -7   1  -1    2.83    1.04
   7  -1   1    2.39    1.18
   7  -1   1    1.47    0.66
   7  -1   1    2.53    0.80
  -7   1  -1    0.92    0.98
  -7   1  -1    2.56    0.81
   7  -1   1    1.06    0.74
   7  -1   1    1.85    0.69
  -7   1  -1    1.88    0.83
  -7   1  -2   27.21    1.71
   7  -1   2   26.35    1.37
   7  -1   2   28.99    1.80
   7  -1   2   28.98    1.47
  -7   1  -2   30.82    1.74
  -7   1  -2   26.34    1.50
   7  -1   2   30.72    1.47
   7  -1   2   27.82    1.33
  -7   1  -2   28.42    1.55
   7  -1   2   28.19    1.55
   7  -1   3    6.00    1.01
  -7   1  -3    4.45    1.02
   7  -1   3    3.25    1.29
   7  -1   3    3.89    0.78
  -7   1  -3    3.35    1.15
  -7   1  -3    3.70    0.93
   7  -1   3    3.97    0.90
   7  -1   3    3.60    0.71
   7  -1   4    7.72    1.08
  -7   1  -4    7.38    1.16
   7  -1   4    6.90    0.83
  -7   1  -4    5.73    0.97
  -7   1  -4    5.89    0.85
   7  -1   4    6.60    0.81
   7  -1   5    2.02    0.79
   7  -1   5    2.07    1.08
  -7   1  -5    0.93    0.78
  -7   1  -5    2.48    1.01
   7  -1   5    1.37    0.80
  -7   1  -5    2.39    1.04
  -7   1  -5    1.24    0.81
   7  -1   6    7.82    0.94
   7  -1   6    8.68    1.21
  -7   1  -6   10.95    1.01
  -7   1  -6    8.91    1.19
  -7   1  -6    9.38    1.01
   7  -1   7   -0.12    0.84
  -7   1  -7    1.40    0.88
  -7   1  -7    1.90    1.21
  -7   1  -8    1.13    0.92
  -7   1  -8    0.78    1.27
  -7   1  -9    4.16    1.02
  -7   1  -9    3.62    1.48
   7   0 -15   -0.14    1.77
   7   0 -14    7.54    1.29
  -7   0  14   11.08    1.77
   7   0 -14   12.34    1.91
  -7   0  14    7.85    1.69
   7   0 -13    4.73    1.19
  -7   0  13    8.97    1.59
  -7   0  13    7.24    1.16
   7   0 -13    7.40    1.88
  -7   0  13    6.65    1.52
  -7   0  12   25.03    1.55
   7   0 -12   24.93    1.56
  -7   0  12   23.71    1.89
   7   0 -12   26.24    2.06
   7   0 -12   28.27    1.99
  -7   0  12   25.39    1.87
   7   0 -12   21.45    1.46
   7   0 -11    0.25    1.03
  -7   0  11    0.65    1.32
   7   0 -11    1.07    1.43
  -7   0  11    0.80    0.95
  -7   0  11   -0.56    1.30
   7   0 -11    0.25    0.89
   7   0 -10    1.85    1.08
   7   0 -10    1.64    0.98
  -7   0  10    2.95    1.29
   7   0 -10    3.38    1.37
   7   0 -10    1.61    1.29
  -7   0  10    2.60    0.97
  -7   0  10    2.89    1.17
   7   0 -10    1.49    0.83
  -7   0   9   38.21    1.87
   7   0  -9   33.00    1.78
  -7   0   9   36.90    1.78
   7   0  -9   35.63    2.05
   7   0  -9   33.44    1.97
   7   0  -9   33.23    1.62
   7   0  -9   36.35    1.91
   7   0  -9   33.01    1.82
   7   0  -8    7.21    1.05
   7   0  -8    8.64    1.02
  -7   0   8    9.64    1.06
   7   0  -8    9.68    1.24
   7   0  -8    9.68    1.16
  -7   0   8    8.47    1.08
   7   0  -8    9.83    0.87
   7   0  -8    6.98    1.19
   7   0  -7    6.14    1.03
   7   0  -7    5.87    0.91
   7   0  -7    5.42    0.92
  -7   0   7    5.92    0.94
   7   0  -7    5.15    1.12
   7   0  -7    7.98    1.05
   7   0  -7    4.62    0.77
  -7   0   7    4.70    0.91
   7   0  -6   32.70    1.63
  -7   0   6   29.23    1.55
   7   0  -6   29.94    1.57
  -7   0   6   32.60    1.66
  -7   0   6   29.46    1.59
   7   0  -6   30.35    1.62
   7   0  -6   30.91    1.48
   7   0  -5   31.43    1.52
   7   0  -5   32.43    1.66
  -7   0   5   34.08    1.53
  -7   0   5   32.99    1.57
   7   0  -5   30.22    1.61
  -7   0   5   31.18    1.69
  -7   0   5   32.59    1.63
   7   0  -5   31.14    1.64
   7   0  -4   79.06    3.04
  -7   0   4   75.22    3.11
   7   0  -4   77.98    3.17
   7   0  -4   75.93    3.16
  -7   0   4   76.54    3.08
  -7   0   4   79.70    3.22
  -7   0   4   78.96    3.17
  -7   0   4   66.12    3.17
   7   0  -4   74.62    3.16
   7   0  -4   75.90    3.29
   7   0  -3   10.83    1.13
   7   0  -3   10.48    0.80
  -7   0   3   10.03    0.90
  -7   0   3   11.30    1.03
   7   0  -3   10.46    1.06
  -7   0   3   12.48    1.09
  -7   0   3   10.48    1.02
  -7   0   3   10.53    0.82
   7   0  -3   12.40    0.99
   7   0  -3   10.85    0.80
   7   0  -3   11.19    0.98
   7   0  -2   90.34    3.43
  -7   0   2   86.97    3.57
   7   0  -2   88.19    3.64
  -7   0   2   84.61    3.68
  -7   0   2   85.63    3.58
   7   0  -2   85.78    3.55
   7   0  -2   90.25    3.56
  -7   0   2   87.82    3.61
   7   0  -2   85.50    3.43
   7   0  -2   89.70    3.64
   7   0  -1   10.74    1.03
  -7   0   1   10.24    1.00
   7   0  -1    9.08    0.70
   7   0  -1    9.79    1.10
  -7   0   1   10.10    1.00
   7   0  -1    8.14    0.93
  -7   0   1    8.69    1.02
   7   0  -1    9.69    0.94
   7   0  -1    8.85    0.70
   7   0  -1    9.86    0.72
   7   0   0   32.68    1.60
   7   0   0   31.78    1.42
  -7   0   0   32.25    1.70
   7   0   0   33.42    1.76
  -7   0   0   31.99    1.66
   7   0   0   34.96    1.61
   7   0   0   31.02    1.41
   7   0   0   31.52    1.40
  -7   0   0   32.09    1.69
   7   0   0   31.99    1.66
  -7   0  -1    0.09    0.88
   7   0   1    1.02    0.94
  -7   0  -1   -0.36    1.00
   7   0   1   -0.10    0.57
   7   0   1    0.26    1.07
  -7   0  -1   -0.29    0.96
  -7   0  -1    0.38    0.87
   7   0   1   -0.12    0.79
   7   0   1    1.27    0.86
   7   0   1   -0.10    0.53
   7   0   2   38.02    1.85
  -7   0  -2   34.34    1.83
   7   0   2   34.87    1.57
  -7   0  -2   35.41    1.94
  -7   0  -2   36.84    1.80
   7   0   2   39.80    1.78
   7   0   2   36.62    1.75
   7   0   2   34.85    1.54
   7   0   3    2.73    1.05
  -7   0  -3    4.13    1.08
   7   0   3    3.05    0.68
  -7   0  -3    3.68    1.00
   7   0   3    3.56    0.89
  -7   0  -3    4.19    0.84
   7   0   3    3.83    0.62
   7   0   4   24.18    1.51
  -7   0  -4   20.86    1.43
   7   0   4   22.08    1.17
  -7   0  -4   23.37    1.29
   7   0   4   18.98    1.10
   7   0   5    4.64    0.75
   7   0   5    4.29    1.21
  -7   0  -5    4.33    0.86
  -7   0  -5    3.54    1.17
  -7   0  -5    3.76    0.89
   7   0   6    0.27    0.77
   7   0   6   -0.04    1.21
  -7   0  -6    0.74    0.95
  -7   0  -6   -0.20    1.25
  -7   0  -7    9.74    1.09
  -7   0  -7    9.69    1.52
   7   0   7   11.54    2.06
  -7   0  -8    3.44    1.02
  -7   0  -8    1.90    1.34
   7   0   8    0.72    1.94
  -7   0  -9    2.69    1.16
  -7   0  -9   -0.05    1.59
   7   1 -16    0.90    1.76
   7   1 -15    3.83    1.77
  -7  -1  14    7.02    1.62
   7   1 -14    5.94    1.82
   7   1 -14    6.03    1.89
  -7  -1  14    4.91    1.62
   7   1 -13   -0.59    1.11
  -7  -1  13    2.65    1.45
  -7  -1  13    0.10    1.13
   7   1 -13   -0.41    1.62
  -7  -1  13    0.43    1.51
   7   1 -12    2.28    1.03
  -7  -1  12    1.76    1.43
  -7  -1  12    2.24    1.06
   7   1 -12    1.35    1.50
  -7  -1  12    5.13    1.47
   7   1 -11    7.75    1.10
  -7  -1  11   10.15    1.35
   7   1 -11   10.83    1.59
  -7  -1  11   11.28    1.15
  -7  -1  11   12.28    1.33
   7   1 -11    8.67    0.99
   7   1 -10   15.35    1.38
   7   1 -10   15.28    1.19
  -7  -1  10   18.35    1.40
   7   1 -10   16.40    1.52
   7   1 -10   18.91    1.57
  -7  -1  10   17.20    1.22
  -7  -1  10   16.19    1.40
   7   1 -10   13.75    1.07
   7   1  -9    8.67    1.17
   7   1  -9    8.37    0.95
  -7  -1   9   10.77    1.15
   7   1  -9    7.76    1.30
   7   1  -9    9.90    1.31
  -7  -1   9   11.12    1.18
  -7  -1   9    5.90    1.05
   7   1  -9    9.03    0.85
   7   1  -8    0.63    1.01
   7   1  -8   -0.42    1.04
   7   1  -8   -1.76    1.18
   7   1  -8    0.81    0.76
  -7  -1   8    0.51    0.97
   7   1  -8    2.03    1.06
   7   1  -8   -0.73    0.66
  -7  -1   8    0.33    0.93
   7   1  -7   11.48    1.24
  -7  -1   7   10.83    1.08
   7   1  -7    7.48    0.98
   7   1  -7   10.41    1.10
   7   1  -7   10.87    0.95
  -7  -1   7    9.83    0.96
  -7  -1   7   10.91    1.02
   7   1  -7   11.43    1.17
   7   1  -7    8.57    0.85
   7   1  -6    0.41    1.03
  -7  -1   6   -0.74    0.90
   7   1  -6    0.54    0.79
   7   1  -6   -0.07    0.75
  -7  -1   6   -0.07    0.78
   7   1  -6    0.61    0.96
  -7  -1   6   -0.63    0.98
   7   1  -6   -0.03    0.92
   7   1  -6   -0.15    0.61
   7   1  -5   11.87    0.93
  -7  -1   5   14.03    0.91
  -7  -1   5   11.31    1.04
  -7  -1   5   13.44    0.93
   7   1  -5   12.77    1.01
  -7  -1   5   12.32    1.11
   7   1  -5   12.80    1.11
   7   1  -5   13.88    1.09
  -7  -1   4   35.04    1.63
  -7  -1   4   37.90    1.59
   7   1  -4   34.73    1.72
   7   1  -4   35.20    1.74
  -7  -1   4   36.39    1.86
  -7  -1   4   33.60    1.74
   7   1  -4   36.07    1.76
   7   1  -4   35.23    1.62
   7   1  -3   18.97    1.38
  -7  -1   3   22.11    1.21
   7   1  -3   21.59    1.34
  -7  -1   3   21.91    1.10
   7   1  -3   23.25    1.30
  -7  -1   3   22.33    1.36
  -7  -1   3   22.75    1.39
   7   1  -3   22.88    1.30
   7   1  -3   21.26    1.12
   7   1  -2   21.09    0.99
  -7  -1   2   19.05    1.18
   7   1  -2   20.74    1.34
  -7  -1   2   20.18    1.42
  -7  -1   2   19.82    1.28
   7   1  -2   19.91    1.25
   7   1  -2   19.63    0.99
  -7  -1   2   17.45    1.31
   7   1  -2   20.62    1.25
   7   1  -2   19.97    1.36
   7   1  -1    2.43    0.95
   7   1  -1    3.66    0.51
  -7  -1   1    2.39    0.86
   7   1  -1    2.13    1.03
  -7  -1   1    3.17    1.00
  -7  -1   1    3.19    0.93
   7   1  -1    3.08    0.88
   7   1  -1    2.77    0.50
  -7  -1   1    3.55    0.91
   7   1  -1    1.63    0.86
   7   1   0   13.71    1.17
   7   1   0   14.62    0.76
  -7  -1   0   15.31    1.17
   7   1   0   14.56    1.10
   7   1   0   14.09    1.24
  -7  -1   0   13.28    1.13
   7   1   0   13.59    0.73
   7   1   0   14.29    1.13
   7   1   0   15.46    0.78
  -7  -1   0   14.21    1.18
   7   1   1    2.81    0.98
  -7  -1  -1    0.29    0.95
   7   1   1    1.04    0.90
   7   1   1    1.91    0.48
  -7  -1  -1    1.80    1.03
  -7  -1  -1    2.37    0.96
   7   1   1    1.78    0.87
   7   1   1    2.18    0.49
   7   1   1    1.40    0.42
   7   1   2    2.57    0.45
   7   1   2    3.52    1.02
  -7  -1  -2    3.34    1.08
   7   1   2    2.57    0.48
  -7  -1  -2    3.10    1.09
  -7  -1  -2    4.46    1.03
   7   1   2    3.60    0.95
   7   1   2    2.62    0.48
   7   1   2    2.95    0.95
   7   1   3   26.59    1.50
  -7  -1  -3   24.51    1.56
   7   1   3   21.07    1.04
  -7  -1  -3   24.94    1.35
   7   1   3   26.45    1.46
   7   1   3   20.04    1.00
   7   1   4    0.63    0.52
   7   1   4   -0.73    1.14
  -7  -1  -4   -1.15    1.17
   7   1   5    2.32    1.23
   7   1   5    1.12    0.59
  -7  -1  -5    1.13    0.91
  -7  -1  -5    0.56    1.15
  -7  -1  -6    9.62    1.07
  -7  -1  -6   10.27    1.42
   7   1   6   11.48    1.98
  -7  -1  -7    3.82    1.12
  -7  -1  -7    3.20    1.47
   7   1   7    6.58    1.87
  -7  -1  -8    0.85    1.03
  -7  -1  -8   -1.38    1.54
   7   1   8    2.67    1.75
   7   2 -16    3.52    1.95
   7   2 -15    0.87    1.68
  -7  -2  14    5.40    1.65
   7   2 -14    6.39    1.79
   7   2 -14    7.23    1.85
  -7  -2  14    7.70    1.69
  -7  -2  13    3.56    1.50
  -7  -2  13    3.78    1.17
   7   2 -13    3.87    1.48
   7   2 -13    3.33    1.62
  -7  -2  13    2.59    1.44
  -7  -2  12   21.42    1.68
   7   2 -12   17.34    1.80
   7   2 -12   21.79    1.84
  -7  -2  12   18.37    1.45
  -7  -2  12   19.99    1.72
  -7  -2  11    2.05    1.25
   7   2 -11    0.19    0.79
  -7  -2  11   -1.21    1.11
  -7  -2  11    2.72    1.17
   7   2 -10    0.09    1.22
  -7  -2  10   -2.98    1.07
   7   2 -10   -0.20    0.74
  -7  -2  10    0.23    1.12
  -7  -2  10    0.54    0.97
  -7  -2   9   57.17    2.48
   7   2  -9   54.93    2.32
  -7  -2   9   54.67    2.53
  -7  -2   9   60.51    2.52
   7   2  -9   52.66    2.28
   7   2  -9   56.33    2.52
  -7  -2   8    0.34    0.93
   7   2  -8    2.32    1.15
   7   2  -8    0.63    0.98
  -7  -2   8    1.84    0.91
   7   2  -8    1.26    0.68
   7   2  -8    2.28    1.07
   7   2  -8    1.36    0.59
   7   2  -7   31.49    1.83
  -7  -2   7   31.90    1.54
   7   2  -7   28.08    1.44
  -7  -2   7   28.82    1.63
  -7  -2   7   30.76    1.69
   7   2  -7   29.96    1.70
   7   2  -7   29.79    1.36
   7   2  -7   32.77    1.63
   7   2  -7   33.88    1.86
   7   2  -6    1.05    1.10
   7   2  -6    1.33    0.94
   7   2  -6   -0.09    1.12
  -7  -2   6    0.96    0.92
   7   2  -6    1.24    0.74
  -7  -2   6    1.17    0.77
  -7  -2   6    0.99    0.98
   7   2  -6    2.54    1.02
   7   2  -6    1.45    0.92
   7   2  -6    1.03    0.58
   7   2  -5   14.77    1.36
   7   2  -5   14.95    1.12
   7   2  -5   18.65    1.41
  -7  -2   5   18.44    1.00
  -7  -2   5   17.12    1.02
   7   2  -5   17.76    1.26
   7   2  -5   17.78    1.07
  -7  -2   5   17.19    1.22
  -7  -2   5   18.57    1.33
  -7  -2   5   16.35    1.21
   7   2  -5   18.93    1.27
  -7  -2   4   18.91    1.11
  -7  -2   4   20.31    1.03
   7   2  -4   20.50    1.19
   7   2  -4   22.92    1.29
  -7  -2   4   18.80    1.39
   7   2  -4   21.92    1.35
  -7  -2   4   18.47    1.36
   7   2  -4   18.77    1.11
   7   2  -4   19.99    1.40
  -7  -2   3   36.37    1.65
   7   2  -3   37.79    1.79
  -7  -2   3   36.82    1.51
  -7  -2   3   36.02    1.89
   7   2  -3   41.45    1.82
   7   2  -3   36.77    1.75
  -7  -2   3   30.18    1.81
   7   2  -3   33.61    1.57
  -7  -2   2   97.38    3.84
  -7  -2   2  102.13    4.00
  -7  -2   2   90.76    3.93
   7   2  -2  102.86    3.92
   7   2  -2   97.98    3.67
   7   2  -2  102.09    3.91
   7   2  -2   88.38    3.69
   7   2  -1    0.80    0.97
   7   2  -1    0.73    0.37
   7   2  -1    0.46    0.88
  -7  -2   1   -0.18    0.82
  -7  -2   1    2.04    0.96
   7   2  -1    1.68    0.90
   7   2  -1    1.48    0.31
  -7  -2   0    4.36    1.03
   7   2   0    4.29    0.97
  -7  -2   0    2.58    0.84
   7   2   0    2.16    0.95
   7   2   0    3.24    0.89
   7   2   1   14.07    1.25
  -7  -2  -1   14.09    1.32
   7   2   1   16.42    1.18
  -7  -2  -1   14.64    1.17
   7   2   1   15.29    1.21
   7   2   2   15.18    1.33
  -7  -2  -2   13.86    1.29
  -7  -2  -2   15.01    1.37
   7   2   2   17.27    1.28
   7   2   3    0.45    1.21
  -7  -2  -3    2.89    1.14
   7   2   3    3.62    1.10
   7   2   4    7.18    1.38
  -7  -2  -4    7.45    1.04
  -7  -2  -4    7.93    1.33
   7   2   4    7.07    1.71
   7   2   5    2.66    1.22
  -7  -2  -5    3.06    1.02
  -7  -2  -5    2.16    1.40
   7   2   5    2.08    1.70
  -7  -2  -6   -0.67    1.03
  -7  -2  -6    2.01    1.40
   7   2   6    0.69    1.59
  -7  -2  -7   -0.32    1.07
   7   2   7    0.11    1.65
  -7  -3  14    3.63    1.64
  -7  -3  14    1.61    1.57
  -7  -3  13    1.98    1.51
  -7  -3  13    2.02    1.17
   7   3 -13   -0.06    1.60
  -7  -3  13    2.18    1.54
  -7  -3  12    2.45    1.30
   7   3 -12    1.84    1.49
  -7  -3  12    2.12    1.16
  -7  -3  12    1.54    1.33
  -7  -3  11    7.17    1.29
   7   3 -11    6.38    1.47
  -7  -3  11    5.11    1.11
  -7  -3  11    4.85    1.17
   7   3 -10    4.94    1.27
   7   3 -10    3.35    1.32
  -7  -3  10    3.12    1.09
   7   3 -10    3.87    1.33
  -7  -3  10    3.83    1.15
  -7  -3  10    4.34    1.14
   7   3  -9    7.27    1.31
   7   3  -9    8.37    1.38
  -7  -3   9    7.31    1.06
   7   3  -9    6.90    0.61
  -7  -3   9    8.35    1.08
  -7  -3   9    6.15    1.14
   7   3  -8    2.55    1.03
   7   3  -8    1.76    1.21
  -7  -3   8    2.11    1.01
  -7  -3   8    1.55    0.85
   7   3  -8    2.41    0.57
  -7  -3   8    0.32    0.87
   7   3  -8    1.27    0.49
   7   3  -7    1.99    0.95
   7   3  -7    0.43    1.17
  -7  -3   7    1.39    0.96
   7   3  -7    2.51    1.35
  -7  -3   7    2.04    0.76
   7   3  -7    1.38    0.62
   7   3  -7    1.00    0.44
   7   3  -6   43.52    2.19
  -7  -3   6   40.19    1.79
  -7  -3   6   39.01    2.01
  -7  -3   6   39.27    1.98
   7   3  -6   41.94    2.05
   7   3  -6   40.09    1.86
   7   3  -6   39.32    1.65
   7   3  -6   42.24    2.13
   7   3  -5   26.54    1.56
  -7  -3   5   27.22    1.22
  -7  -3   5   26.10    1.61
  -7  -3   5   24.58    1.50
   7   3  -5   23.79    1.55
   7   3  -5   23.36    1.25
   7   3  -5   25.86    1.63
   7   3  -4    0.73    0.55
   7   3  -4    0.07    1.07
   7   3  -4   -1.02    1.06
   7   3  -4   -0.60    0.96
  -7  -3   4   -0.10    0.96
   7   3  -4    1.32    0.92
   7   3  -3    1.30    1.06
   7   3  -3   -0.45    0.94
  -7  -3   3    0.03    0.97
   7   3  -3   -0.44    0.95
   7   3  -3    0.59    0.89
   7   3  -3    0.19    0.35
   7   3  -3    0.87    0.35
   7   3  -2   22.58    1.44
   7   3  -2   28.25    1.56
  -7  -3   2   28.73    1.61
   7   3  -2   27.73    1.55
   7   3  -2   26.67    1.58
   7   3  -1    0.84    0.78
   7   3  -1    1.58    0.94
   7   3  -1    0.90    0.96
   7   3   0   22.47    1.24
  -7  -3   0   26.04    1.45
   7   3   0   27.33    1.50
   7   3   1    0.29    1.11
   7   3   1    0.05    0.51
  -7  -3  -1   -0.48    1.02
   7   3   1    0.06    0.99
   7   3   1   -0.45    1.48
   7   3   2   -0.97    1.17
  -7  -3  -2    1.80    1.10
  -7  -3  -2   -0.95    1.15
   7   3   2    2.33    1.06
   7   3   2    1.48    1.49
   7   3   3    2.04    1.27
  -7  -3  -3    1.11    1.19
   7   3   3    0.11    1.17
   7   3   3    2.53    1.53
   7   3   4   -1.37    1.29
  -7  -3  -4    0.20    1.00
  -7  -3  -4    0.78    1.33
   7   3   4    0.05    1.46
  -7  -3  -5    5.74    1.12
  -7  -3  -5    4.74    1.42
   7   3   5    6.17    1.68
  -7  -3  -6    0.63    1.03
   7   3   6   -1.04    1.71
   7   3   7    1.63    1.67
  -7  -4  14   -1.21    1.59
  -7  -4  14    0.05    1.56
   7   4 -13    1.64    1.46
  -7  -4  13    0.58    1.46
   7   4 -13    0.49    1.74
  -7  -4  13    0.13    1.36
   7   4 -12    3.23    1.50
  -7  -4  12    4.60    1.34
   7   4 -12    3.41    1.54
  -7  -4  12    3.97    1.17
  -7  -4  12    3.30    1.36
   7   4 -11    0.54    1.39
  -7  -4  11    0.33    1.11
   7   4 -11   -1.28    1.40
  -7  -4  11    0.24    1.17
  -7  -4  11   -0.75    1.15
   7   4 -10    4.08    1.26
  -7  -4  10    1.98    1.04
   7   4 -10    2.70    1.30
  -7  -4  10    3.58    1.05
  -7  -4  10    3.03    1.21
   7   4 -10    3.26    1.26
  -7  -4   9   -0.30    1.07
   7   4  -9   -1.51    1.33
  -7  -4   9   -0.03    0.90
   7   4  -9    1.38    1.32
  -7  -4   9    0.18    0.91
   7   4  -9    1.09    1.07
   7   4  -8    2.56    1.20
  -7  -4   8    1.70    1.08
   7   4  -8    3.24    1.26
   7   4  -8    2.13    0.96
   7   4  -7   11.50    1.30
   7   4  -7   12.46    1.39
  -7  -4   7   10.27    1.24
   7   4  -7    8.71    0.98
   7   4  -6    2.46    1.11
   7   4  -6    3.96    1.29
  -7  -4   6    1.48    1.08
   7   4  -6    1.20    0.65
   7   4  -5    3.24    1.14
   7   4  -5    3.71    1.05
  -7  -4   5    2.73    1.07
   7   4  -5    2.98    0.65
   7   4  -5    2.65    0.54
   7   4  -5    3.06    0.46
   7   4  -4   11.04    1.21
   7   4  -4   10.00    1.12
  -7  -4   4    9.78    1.21
   7   4  -4    8.60    1.21
   7   4  -4   10.70    0.54
   7   4  -4    8.81    0.95
   7   4  -3    0.51    1.00
   7   4  -3    1.92    0.91
  -7  -4   3    2.38    1.04
   7   4  -3    2.12    1.02
   7   4  -3   -0.03    0.99
   7   4  -2   10.71    1.22
   7   4  -2   10.49    0.93
   7   4  -2   10.04    1.22
  -7  -4   2   11.42    1.23
   7   4  -2   10.48    1.28
   7   4  -1    0.90    1.07
   7   4  -1   -0.25    0.67
   7   4  -1    0.16    1.05
   7   4  -1   -1.73    1.33
  -7  -4   1   -0.08    1.05
  -7  -4   0    6.19    1.23
   7   4   0    7.15    1.40
   7   4   1    3.59    1.08
   7   4   1    2.29    1.32
   7   4   2    7.05    1.21
   7   4   2    6.27    1.50
   7   4   3   -1.34    1.33
   7   4   3    0.43    1.45
  -7  -4  -4    1.42    1.06
  -7  -4  -4    0.88    1.38
   7   4   4    2.06    1.48
  -7  -4  -5    2.50    1.12
   7   4   5   -0.38    1.71
   7   4   6   -0.05    1.70
   7   5 -12    4.11    1.41
   7   5 -12    2.33    1.54
   7   5 -11    3.01    1.36
   7   5 -11    3.62    1.42
  -7  -5  11    0.63    1.17
   7   5 -10    1.01    1.37
   7   5 -10    1.30    1.37
  -7  -5  10    2.05    1.22
  -7  -5   9   -0.39    1.18
   7   5  -9    0.12    1.23
   7   5  -9    1.66    1.37
   7   5  -8    5.45    1.25
  -7  -5   8    3.18    1.20
   7   5  -8    6.04    1.27
   7   5  -7    9.22    1.24
  -7  -5   7    9.26    1.25
   7   5  -7   11.39    1.35
   7   5  -6    8.33    1.25
   7   5  -6    6.86    1.35
  -7  -5   6    9.89    1.29
   7   5  -6    9.15    1.29
   7   5  -5    0.10    1.15
   7   5  -5   -0.43    1.20
  -7  -5   5   -0.66    1.13
   7   5  -5    0.47    1.16
   7   5  -4    5.70    1.20
   7   5  -4    4.24    0.98
   7   5  -3    0.84    1.13
   7   5  -3    0.19    0.86
  -7  -5   3   -0.96    1.12
   7   5  -3    0.94    0.74
   7   5  -2    1.05    1.22
  -7  -5   2    1.85    1.15
   7   5  -2   -0.93    0.96
  -7  -5   1    1.41    1.16
   7   5  -1    1.64    1.24
   7   5  -1   -0.07    1.14
   7   5  -1    0.65    1.13
   7   5   0    6.11    1.35
  -7  -5   0    5.62    1.31
   7   5   0    8.36    1.17
   7   5   0    5.98    1.31
   7   5   1   -1.03    1.36
  -7  -5  -1   -0.60    1.25
   7   5   1   -1.20    1.16
   7   5   1    1.70    1.39
  -7  -5  -2    1.98    1.36
   7   5   2   -0.24    1.19
   7   5   2    3.01    1.51
   7   5   3    0.27    1.48
   7   5   4    0.14    1.58
   7   5   5    2.99    1.87
   7   5   6    1.17    1.71
   7   6 -11    0.16    1.40
   7   6 -11   -1.34    1.48
   7   6 -10    0.82    1.24
   7   6 -10   -0.23    1.57
  -7  -6  10    0.33    1.30
  -7  -6   9    1.29    1.19
   7   6  -9   -0.53    1.20
   7   6  -9    0.04    1.41
   7   6  -8    2.49    1.24
  -7  -6   8    3.07    1.29
   7   6  -8    2.48    1.28
   7   6  -7   -0.39    1.13
  -7  -6   7   -0.79    1.24
   7   6  -7   -0.48    1.28
   7   6  -6    5.06    1.22
  -7  -6   6    2.72    1.24
   7   6  -6    2.53    1.34
   7   6  -5    1.00    1.24
  -7  -6   5   -0.43    1.23
   7   6  -5   -2.02    1.20
  -7  -6   4    3.57    1.25
   7   6  -4    5.98    1.32
   7   6  -3   -0.39    1.24
   7   6  -3   -0.15    1.16
  -7  -6   3    0.53    1.21
   7   6  -2    1.57    1.29
  -7  -6   2    0.67    1.25
   7   6  -1    0.97    1.40
  -7  -6   1    1.25    1.26
   7   6   0   -0.47    1.39
  -7  -6   0    0.31    1.29
   7   6   1    1.66    1.43
   7   6   1   -0.54    1.35
   7   6   2   -0.99    1.51
   7   6   4    3.36    1.79
   7   7  -9   -0.77    1.12
   7   7  -9    1.32    1.40
   7   7  -8    0.81    1.36
   7   7  -8    2.64    1.38
   7   7  -7   -0.15    1.25
  -7  -7   7   -0.04    1.32
   7   7  -7    1.32    1.33
   7   7  -6    0.74    1.26
  -7  -7   6    2.21    1.31
   7   7  -6    1.79    1.29
   7   7  -5   -0.69    1.34
  -7  -7   5   -0.04    1.27
   7   7  -5    2.77    1.30
   7   7  -4    1.40    1.40
  -7  -7   4   -0.54    1.29
   7   7  -4   -1.61    1.28
   7   7  -3    3.34    1.39
   7   7  -3    3.87    1.35
   7   7  -2   -2.09    1.45
   7   7  -2   -0.33    1.35
   7   7  -1   -0.67    1.52
   7   7  -1    0.88    1.32
   7   8  -7    0.86    1.53
   7   8  -6    0.05    1.48
   7   8  -5    1.95    1.55
   7   8  -4    0.93    1.65
   7   8  -3    0.99    1.46
   8 -10  -7    1.34    1.53
   8 -10  -6    1.19    1.40
   8 -10  -4   12.31    1.74
   8 -10  -3    3.14    1.54
   8 -10  -3    0.31    1.40
   8 -10  -2   27.17    2.07
   8 -10  -2   26.20    2.07
   8 -10  -1    5.97    1.65
   8 -10   0   10.11    1.65
  -8   9   9    6.24    1.21
  -8   9   8    2.22    1.14
   8  -9  -8    2.93    1.55
  -8   9   7    4.40    1.17
   8  -9  -7    4.82    1.59
   8  -9  -7    2.42    1.58
  -8   9   7    0.95    1.50
  -8   9   6    7.26    1.11
   8  -9  -6    7.73    1.62
   8  -9  -6    5.71    1.53
  -8   9   6    8.01    1.55
  -8   9   5   -0.60    0.99
   8  -9  -5   -1.46    1.54
   8  -9  -5    2.22    1.45
   8  -9  -4    9.43    1.55
   8  -9  -4   11.72    1.41
   8  -9  -3    4.16    1.48
   8  -9  -3    4.95    1.21
   8  -9  -2    4.24    1.46
   8  -9  -1    9.54    1.56
   8  -9   0    4.72    1.45
   8  -9   0    5.27    1.43
   8  -9   1    2.29    1.56
   8  -9   1    4.29    1.48
   8  -9   2    3.63    1.54
   8  -9   2    2.15    1.40
   8  -9   3    5.33    1.47
   8  -8 -11    1.03    1.43
  -8   8  10    3.78    1.28
   8  -8 -10    3.99    1.44
  -8   8   9    1.00    1.10
   8  -8  -9    3.16    1.67
   8  -8  -9    2.46    1.66
  -8   8   9    0.22    1.58
  -8   8   8    3.47    1.13
   8  -8  -8    2.30    1.62
  -8   8   8    0.95    1.46
  -8   8   7    7.14    1.10
   8  -8  -7    7.83    1.52
  -8   8   7    5.05    1.45
  -8   8   6    0.27    0.96
   8  -8  -6    0.53    1.45
  -8   8   6   -0.24    1.32
  -8   8   5    0.94    0.91
   8  -8  -5    0.38    1.49
   8  -8  -5    0.91    1.34
  -8   8   5   -0.87    1.31
  -8   8   4   15.46    1.19
   8  -8  -4   17.21    1.63
   8  -8  -4   18.89    1.54
  -8   8   3    8.77    0.95
   8  -8  -3    9.44    1.47
   8  -8  -3    9.41    1.27
   8  -8  -3   10.01    1.51
  -8   8   2   14.29    1.09
   8  -8  -2   15.06    1.60
   8  -8  -2   17.68    1.62
   8  -8  -1   10.27    1.23
   8  -8  -1    9.13    1.53
   8  -8  -1    9.64    1.53
   8  -8   0   15.33    1.59
   8  -8   0   12.77    1.55
   8  -8   1   65.29    3.21
   8  -8   1   67.35    3.12
   8  -8   2    3.91    1.53
   8  -8   2    2.10    1.38
   8  -8   3   15.57    1.85
   8  -8   3   19.02    1.66
   8  -8   4   11.45    1.72
   8  -8   4    9.68    1.51
   8  -8   5    5.12    1.43
   8  -7 -12   -0.20    1.50
   8  -7 -11    3.77    1.68
   8  -7 -11    4.54    1.43
  -8   7  10    0.99    1.10
   8  -7 -10    1.25    1.54
  -8   7  10    1.01    1.57
   8  -7 -10   -0.60    1.54
   8  -7 -10    0.09    1.42
  -8   7   9    6.58    1.16
   8  -7  -9    4.52    1.60
  -8   7   9    6.78    1.52
   8  -7  -9    6.38    1.59
   8  -7  -9    7.86    1.32
  -8   7   8   12.65    1.19
   8  -7  -8   10.84    1.68
  -8   7   8   13.64    1.65
   8  -7  -8   11.36    1.66
   8  -7  -8   10.30    1.28
  -8   7   7    0.03    1.01
   8  -7  -7    0.82    1.48
   8  -7  -7   -1.58    1.41
  -8   7   7   -1.17    1.41
   8  -7  -7   -0.10    1.12
  -8   7   6   23.68    1.36
   8  -7  -6   24.57    1.44
   8  -7  -6   23.23    1.81
  -8   7   6   20.11    1.74
  -8   7   6   24.89    1.43
  -8   7   5   16.79    1.20
  -8   7   5   16.65    1.15
   8  -7  -5   19.02    1.23
   8  -7  -5   18.57    1.64
  -8   7   5   18.10    1.60
  -8   7   4    8.63    0.98
  -8   7   4    7.33    0.86
   8  -7  -4    8.58    1.31
  -8   7   3   33.29    1.61
  -8   7   3   31.92    1.55
   8  -7  -3   32.47    1.85
   8  -7  -3   32.27    2.00
   8  -7  -2    7.37    1.38
  -8   7   2    7.55    0.93
   8  -7  -2    9.92    1.42
  -8   7   1   33.91    1.63
   8  -7  -1   34.04    1.99
   8  -7  -1   35.84    1.86
   8  -7   0   -1.45    1.12
   8  -7   0   -0.94    1.38
  -8   7   0    0.73    0.77
   8  -7   0   -0.87    1.29
   8  -7   1   11.96    1.18
   8  -7   1    9.97    1.41
   8  -7   2    0.97    1.36
   8  -7   2    1.31    1.17
   8  -7   3   -0.90    1.49
   8  -7   3   -0.62    1.31
   8  -7   4   11.90    1.66
   8  -7   4   11.71    1.40
   8  -7   5   15.22    1.82
   8  -7   5   13.61    1.48
   8  -7   6    2.44    1.24
   8  -6 -12    9.22    1.79
   8  -6 -12   11.50    1.65
  -8   6  11    2.89    1.14
   8  -6 -11    4.06    1.69
  -8   6  11    3.41    1.62
   8  -6 -11    4.48    1.70
   8  -6 -11    1.77    1.44
   8  -6 -10   16.66    1.76
  -8   6  10   14.73    1.38
  -8   6  10   19.84    1.75
   8  -6 -10   14.94    1.81
   8  -6 -10   18.29    1.64
   8  -6  -9    9.09    1.58
  -8   6   9    8.55    1.18
  -8   6   9    6.60    1.53
   8  -6  -9    8.93    1.60
   8  -6  -9    7.06    1.32
   8  -6  -8   27.36    2.03
  -8   6   8   26.30    1.91
   8  -6  -8   30.35    2.02
   8  -6  -8   26.47    1.74
  -8   6   8   26.92    1.58
   8  -6  -7    1.34    1.41
  -8   6   7   -0.22    0.96
  -8   6   7   -0.07    0.86
  -8   6   7   -1.09    1.33
   8  -6  -7    0.14    1.37
   8  -6  -7   -0.72    1.05
   8  -6  -6    0.25    1.39
  -8   6   6    2.18    0.88
  -8   6   6    0.18    0.81
  -8   6   6    0.87    1.29
   8  -6  -6    0.64    1.33
   8  -6  -6    1.57    1.09
   8  -6  -6    0.68    1.06
   8  -6  -5    1.82    1.33
  -8   6   5    1.22    0.92
  -8   6   5    0.17    0.76
   8  -6  -5   -0.09    1.30
  -8   6   5    0.72    1.21
   8  -6  -5    1.51    0.96
   8  -6  -5   -0.37    0.90
   8  -6  -4   11.68    1.04
   8  -6  -4   14.16    1.54
  -8   6   4   11.37    0.92
  -8   6   4   11.34    1.06
   8  -6  -4   10.52    1.35
  -8   6   4   12.39    1.34
   8  -6  -4   12.18    1.04
  -8   6   3    6.26    0.77
  -8   6   3    6.67    0.92
   8  -6  -3    6.17    1.24
   8  -6  -3    6.84    0.83
   8  -6  -3    3.58    1.27
  -8   6   2   38.65    1.77
  -8   6   2   36.15    1.70
   8  -6  -2   37.78    1.69
   8  -6  -2   39.47    2.10
   8  -6  -1   12.26    1.27
  -8   6   1   12.79    0.92
  -8   6   1   13.75    1.01
   8  -6  -1   15.49    1.42
   8  -6   0   -1.20    1.11
   8  -6   0   -1.22    1.33
  -8   6   0    0.59    0.67
  -8   6   0   -0.56    0.80
   8  -6   0    1.05    1.13
  -8   6  -1   38.15    1.83
   8  -6   1   43.65    2.29
   8  -6   1   42.67    2.13
   8  -6   1   39.76    2.00
   8  -6   2   11.40    1.12
   8  -6   2   13.99    1.52
   8  -6   2   12.52    1.29
  -8   6  -2   11.96    0.97
   8  -6   3   16.67    1.72
  -8   6  -3   18.69    1.51
   8  -6   3   18.35    1.48
   8  -6   3   20.34    1.28
   8  -6   4   13.70    1.63
   8  -6   4   13.07    1.31
   8  -6   5    5.80    1.59
   8  -6   5    6.77    1.21
   8  -6   6   10.59    1.27
   8  -6   7    1.66    1.30
   8  -5 -13    2.03    1.65
   8  -5 -12    3.36    1.63
  -8   5  12    0.54    1.76
   8  -5 -12    1.41    1.70
   8  -5 -12    2.17    1.69
   8  -5 -11    3.30    1.50
  -8   5  11    0.45    1.10
  -8   5  11    1.70    1.56
   8  -5 -11    1.25    1.55
   8  -5 -11    3.66    1.51
   8  -5 -10   -0.10    1.44
  -8   5  10    0.31    1.06
  -8   5  10   -0.41    1.46
   8  -5 -10    0.12    1.45
   8  -5 -10    0.43    1.36
   8  -5  -9    1.47    1.42
  -8   5   9   -0.27    1.01
  -8   5   9    1.75    1.32
   8  -5  -9   -0.05    1.40
   8  -5  -9   -0.12    1.20
   8  -5  -8   11.20    1.62
  -8   5   8   12.01    1.21
  -8   5   8   12.55    1.51
   8  -5  -8   13.45    1.56
   8  -5  -8   13.78    1.36
   8  -5  -7   13.00    1.49
  -8   5   7    9.07    1.02
  -8   5   7   10.19    1.13
  -8   5   7    9.26    1.37
   8  -5  -7    9.52    1.39
   8  -5  -7   11.73    1.26
   8  -5  -7   11.23    1.23
  -8   5   6   35.75    1.73
   8  -5  -6   34.82    2.09
  -8   5   6   33.95    1.98
  -8   5   6   34.43    1.72
   8  -5  -6   38.57    2.06
   8  -5  -6   35.10    1.84
   8  -5  -6   37.41    1.89
   8  -5  -5    0.65    0.99
   8  -5  -5    0.98    1.22
  -8   5   5   -0.24    0.79
  -8   5   5    1.59    1.21
   8  -5  -5    0.95    1.27
  -8   5   5   -0.53    0.88
   8  -5  -5    1.71    1.00
   8  -5  -4   34.18    1.59
  -8   5   4   26.96    1.58
   8  -5  -4   33.56    1.89
  -8   5   4   30.43    1.81
  -8   5   4   30.18    1.51
   8  -5  -4   31.77    1.88
   8  -5  -4   30.72    1.60
   8  -5  -3   81.17    3.35
  -8   5   3   77.02    3.35
   8  -5  -3   81.23    3.62
  -8   5   3   82.83    3.32
   8  -5  -3   88.06    3.35
   8  -5  -2    3.45    1.08
   8  -5  -2    1.99    1.17
   8  -5  -2    3.12    1.01
  -8   5   2    3.18    0.77
   8  -5  -2    3.22    0.79
   8  -5  -2    1.36    1.03
  -8   5   2    2.64    0.84
   8  -5  -2    1.91    0.74
   8  -5  -1   54.89    2.44
  -8   5   1   53.31    2.31
  -8   5   1   49.29    2.23
   8  -5  -1   51.16    2.22
   8  -5  -1   52.19    2.22
   8  -5  -1   56.21    2.45
   8  -5  -1   56.67    2.46
  -8   5   0   41.17    1.95
  -8   5   0   42.03    1.89
   8  -5   0   44.80    1.88
   8  -5   0   44.59    2.17
   8  -5   0   43.05    2.11
  -8   5  -1   36.83    1.78
  -8   5  -1   40.90    1.98
  -8   5  -1   36.17    1.70
   8  -5   1   37.99    1.94
   8  -5   1   37.47    1.91
  -8   5  -2   20.53    1.29
  -8   5  -2   21.09    1.57
   8  -5   2   20.26    1.46
   8  -5   2   21.06    1.39
   8  -5   3    5.13    0.98
  -8   5  -3    5.12    0.96
  -8   5  -3    6.11    0.69
   8  -5   3    4.86    1.45
  -8   5  -3    6.35    1.26
   8  -5   3    4.57    1.00
   8  -5   4   11.72    1.10
  -8   5  -4   11.69    1.14
  -8   5  -4   10.93    0.82
   8  -5   4   13.70    1.61
   8  -5   4   11.44    1.16
   8  -5   5    6.90    1.58
   8  -5   5    7.11    1.16
   8  -5   6    3.28    1.68
   8  -5   6    2.88    1.11
   8  -5   7    1.48    1.22
   8  -5   8   -0.40    1.15
   8  -4 -14   -0.12    1.52
   8  -4 -13   -1.02    1.49
  -8   4  13    1.52    1.72
   8  -4 -13   -0.58    1.68
   8  -4 -12    2.94    1.62
  -8   4  12    3.41    1.21
  -8   4  12    4.47    1.66
   8  -4 -12    3.78    1.62
   8  -4 -11    2.02    1.40
  -8   4  11   -0.43    1.12
  -8   4  11    0.31    1.57
   8  -4 -11   -0.92    1.52
   8  -4 -11   -0.14    1.43
  -8   4  10   29.07    1.67
   8  -4 -10   26.49    1.90
  -8   4  10   27.92    1.97
   8  -4 -10   28.14    2.04
   8  -4 -10   28.48    1.92
   8  -4  -9    1.49    1.28
  -8   4   9    2.15    1.02
  -8   4   9   -0.39    1.28
   8  -4  -9    1.64    1.36
   8  -4  -9   -0.35    1.17
   8  -4  -8   12.06    1.50
  -8   4   8   14.05    1.46
  -8   4   8   12.78    1.18
   8  -4  -8   12.59    1.55
   8  -4  -8   13.26    1.33
   8  -4  -7   12.82    1.42
  -8   4   7   13.24    1.10
  -8   4   7   14.50    1.41
   8  -4  -7   12.70    1.45
  -8   4   7   13.32    1.19
   8  -4  -7   13.70    1.21
   8  -4  -7   13.21    1.25
   8  -4  -6    1.29    1.18
  -8   4   6    0.71    0.89
  -8   4   6    3.02    1.11
   8  -4  -6    0.51    1.16
   8  -4  -6    2.49    0.99
  -8   4   6    1.84    0.96
   8  -4  -6    1.49    1.01
   8  -4  -5  100.44    4.15
  -8   4   5   99.97    4.23
  -8   4   5  105.99    4.16
   8  -4  -5  105.91    4.33
  -8   4   5  100.44    4.23
  -8   4   5   96.60    4.10
   8  -4  -5  103.68    4.31
   8  -4  -5  105.01    4.17
   8  -4  -5  107.31    4.16
   8  -4  -5  104.30    4.18
  -8   4   4    3.74    1.10
   8  -4  -4    3.90    0.86
   8  -4  -4    3.84    0.95
   8  -4  -4    3.28    1.17
  -8   4   4    3.38    0.78
  -8   4   4    4.74    1.10
   8  -4  -4    5.33    0.92
   8  -4  -4    4.95    0.94
  -8   4   4    4.53    0.98
   8  -4  -3   23.87    1.40
   8  -4  -3   21.53    1.32
   8  -4  -3   24.29    1.60
  -8   4   3   22.27    1.39
  -8   4   3   22.50    1.29
   8  -4  -3   23.38    1.33
   8  -4  -3   21.54    1.35
   8  -4  -2    0.81    1.08
   8  -4  -2   -0.69    1.20
   8  -4  -2   -0.27    0.91
  -8   4   2    0.57    0.76
   8  -4  -2   -0.21    0.79
   8  -4  -2   -0.40    0.98
   8  -4  -2    0.25    0.81
  -8   4   2   -0.15    0.90
   8  -4  -1   -1.52    1.01
  -8   4   1    0.78    0.89
   8  -4  -1    0.98    0.75
   8  -4  -1   -0.33    1.18
   8  -4  -1    0.80    0.94
  -8   4   1   -1.06    1.07
  -8   4   1    0.20    0.77
   8  -4  -1    0.76    0.76
   8  -4  -1   -0.36    0.96
   8  -4   0   -1.65    0.94
  -8   4   0    0.20    0.92
   8  -4   0    0.51    1.25
   8  -4   0    0.68    0.95
  -8   4   0    0.18    1.11
  -8   4   0   -0.81    0.75
   8  -4   0    0.73    0.77
   8  -4   0    0.97    1.04
   8  -4   0    0.14    0.73
   8  -4   1    7.87    1.10
  -8   4  -1    7.58    1.02
   8  -4   1    7.48    1.34
   8  -4   1    7.90    1.07
   8  -4   1    8.00    0.83
  -8   4  -1    6.38    1.20
  -8   4  -1    7.49    0.90
   8  -4   1    8.66    0.85
   8  -4   1    7.94    1.05
   8  -4   2    7.56    1.05
  -8   4  -2    6.76    1.04
   8  -4   2    6.46    1.08
  -8   4  -2    6.64    0.89
   8  -4   2    8.09    0.86
   8  -4   2    6.28    1.07
   8  -4   3   -0.64    0.88
  -8   4  -3    0.69    0.96
  -8   4  -3   -1.34    0.90
  -8   4  -3   -0.49    0.68
   8  -4   3   -0.58    0.92
   8  -4   4   11.20    1.11
  -8   4  -4   12.16    0.90
  -8   4  -4   11.11    1.19
   8  -4   4   11.37    1.17
   8  -4   5    1.36    0.98
  -8   4  -5    1.11    0.70
  -8   4  -5    1.78    1.06
   8  -4   5    1.20    1.06
   8  -4   6   13.62    1.21
   8  -4   7   -0.22    1.18
   8  -4   8    1.95    1.13
   8  -3 -15    4.19    1.63
   8  -3 -14    2.04    1.56
   8  -3 -13    0.88    1.46
  -8   3  13    2.68    1.67
   8  -3 -13    1.44    1.84
   8  -3 -13   -0.41    1.71
   8  -3 -12   10.08    1.53
  -8   3  12   10.61    1.26
  -8   3  12    9.06    1.70
   8  -3 -12    7.63    1.78
   8  -3 -12    8.94    1.68
   8  -3 -11    6.56    1.35
  -8   3  11    3.77    1.13
  -8   3  11    7.71    1.53
   8  -3 -11    9.10    1.53
   8  -3 -10    0.26    1.30
  -8   3  10    0.27    1.38
  -8   3  10    0.99    1.11
   8  -3 -10    0.22    1.32
   8  -3  -9    4.27    1.29
  -8   3   9    6.18    1.30
  -8   3   9    1.85    1.06
   8  -3  -9    2.05    1.42
   8  -3  -9    4.15    1.30
   8  -3  -8    6.62    1.33
  -8   3   8    9.46    1.30
   8  -3  -8    8.39    1.38
   8  -3  -8    7.91    1.27
  -8   3   8    8.59    1.10
   8  -3  -8    7.66    1.09
   8  -3  -7   10.81    1.11
   8  -3  -7   10.40    1.32
  -8   3   7   10.61    1.26
   8  -3  -7    9.84    1.40
   8  -3  -7   11.21    1.23
  -8   3   7    9.86    1.08
   8  -3  -7   11.94    1.15
   8  -3  -7   12.33    1.26
   8  -3  -7   10.82    1.12
   8  -3  -6   30.40    1.61
  -8   3   6   30.18    1.65
   8  -3  -6   30.23    1.75
  -8   3   6   32.25    1.76
  -8   3   6   29.14    1.59
   8  -3  -6   29.06    1.86
   8  -3  -6   30.38    1.67
   8  -3  -6   31.42    1.61
   8  -3  -6   30.84    1.70
   8  -3  -5   45.46    2.10
   8  -3  -5   43.61    2.04
  -8   3   5   43.49    2.13
   8  -3  -5   44.16    2.25
  -8   3   5   43.21    2.10
  -8   3   5   45.81    2.18
  -8   3   5   47.83    2.07
   8  -3  -5   42.39    2.21
   8  -3  -5   46.32    2.13
   8  -3  -5   43.34    2.04
  -8   3   4    1.29    1.06
   8  -3  -4    0.87    0.79
   8  -3  -4   -0.34    1.10
   8  -3  -4    0.91    0.88
  -8   3   4    0.39    0.83
  -8   3   4    1.08    1.01
   8  -3  -4    0.40    0.83
   8  -3  -4   -1.34    0.83
  -8   3   4    0.44    0.99
   8  -3  -3   27.28    1.49
  -8   3   3   25.82    1.62
   8  -3  -3   28.43    1.48
   8  -3  -3   25.44    1.75
  -8   3   3   25.64    1.53
  -8   3   3   28.24    1.57
  -8   3   3   29.45    1.68
  -8   3   3   26.86    1.50
   8  -3  -3   29.51    1.48
   8  -3  -3   29.11    1.50
   8  -3  -3   28.84    1.72
   8  -3  -2   48.56    2.19
  -8   3   2   47.21    2.33
   8  -3  -2   48.00    2.39
   8  -3  -2   47.82    2.14
  -8   3   2   48.14    2.23
  -8   3   2   49.08    2.33
  -8   3   2   47.65    2.17
   8  -3  -2   52.40    2.18
   8  -3  -2   47.99    2.24
   8  -3  -2   46.19    2.17
   8  -3  -2   52.51    2.39
   8  -3  -1    5.05    1.15
  -8   3   1    4.38    1.00
  -8   3   1    4.49    1.17
   8  -3  -1    3.81    0.79
   8  -3  -1    3.33    1.20
   8  -3  -1    3.67    0.83
  -8   3   1    3.21    1.14
  -8   3   1    4.66    0.85
   8  -3  -1    3.66    0.86
   8  -3  -1    4.19    0.94
   8  -3   0   29.12    1.62
   8  -3   0   32.05    1.92
  -8   3   0   29.08    1.58
  -8   3   0   29.63    1.69
   8  -3   0   33.27    1.55
   8  -3   0   30.82    1.61
   8  -3   0   32.98    1.57
   8  -3   0   31.71    1.74
   8  -3   1   25.65    1.41
   8  -3   1   25.29    1.47
   8  -3   1   25.53    1.82
  -8   3  -1   25.53    1.47
  -8   3  -1   25.85    1.55
   8  -3   1   27.53    1.38
   8  -3   1   23.10    1.44
   8  -3   1   25.41    1.53
   8  -3   2   52.02    2.40
   8  -3   2   54.80    2.71
  -8   3  -2   57.14    2.44
   8  -3   2   55.11    2.37
   8  -3   2   59.83    2.39
  -8   3  -2   52.65    2.49
   8  -3   2   53.12    2.42
   8  -3   2   55.52    2.48
   8  -3   3    9.75    1.07
   8  -3   3    7.06    1.46
   8  -3   3    8.95    1.08
  -8   3  -3    9.57    1.05
  -8   3  -3    9.06    1.16
   8  -3   3    9.14    1.00
  -8   3  -3    8.43    0.82
   8  -3   3    6.77    0.95
   8  -3   4   28.38    1.56
   8  -3   4   25.24    1.58
  -8   3  -4   26.03    1.34
   8  -3   4   27.96    2.01
  -8   3  -4   25.50    1.59
  -8   3  -4   26.60    1.36
   8  -3   4   27.86    1.47
  -8   3  -4   27.44    1.63
   8  -3   5   19.57    1.39
  -8   3  -5   17.37    1.10
  -8   3  -5   17.38    1.40
   8  -3   5   15.06    1.19
   8  -3   6    0.28    1.11
  -8   3  -6   -0.33    0.82
  -8   3  -6    1.98    1.19
   8  -3   6   -0.56    0.96
   8  -3   7   19.89    1.33
   8  -2 -15    3.23    1.63
   8  -2 -14    3.78    1.43
   8  -2 -14    3.81    2.12
   8  -2 -13    0.28    1.18
  -8   2  13   -0.17    1.64
   8  -2 -13    2.56    1.88
   8  -2 -13    0.42    1.72
   8  -2 -12    3.33    1.35
  -8   2  12    3.63    1.46
   8  -2 -12    2.63    1.84
   8  -2 -12    3.44    1.57
   8  -2 -11    3.94    1.24
  -8   2  11    4.16    1.53
   8  -2 -11    6.75    1.67
   8  -2 -11    2.90    1.54
   8  -2 -10   33.47    2.09
  -8   2  10   38.80    2.12
   8  -2 -10   38.78    2.19
   8  -2 -10   38.64    1.90
   8  -2  -9    0.85    1.23
  -8   2   9    1.77    1.24
   8  -2  -9    3.02    1.23
  -8   2   9   -0.13    1.02
   8  -2  -9    1.75    0.89
   8  -2  -8   12.61    1.16
   8  -2  -8   13.48    1.36
  -8   2   8   14.41    1.32
   8  -2  -8   16.15    1.47
   8  -2  -8   14.38    1.40
  -8   2   8   14.43    1.23
   8  -2  -8   12.82    1.13
   8  -2  -7   35.91    1.79
   8  -2  -7   35.94    1.97
  -8   2   7   35.66    1.92
  -8   2   7   37.91    1.95
   8  -2  -7   43.84    2.13
   8  -2  -7   39.96    2.00
   8  -2  -7   37.79    1.85
   8  -2  -7   36.91    1.95
   8  -2  -6    1.34    1.02
   8  -2  -6    2.19    0.92
   8  -2  -6    1.91    1.02
  -8   2   6    2.55    0.98
  -8   2   6    2.02    1.06
   8  -2  -6    2.12    1.15
   8  -2  -6    0.28    1.05
   8  -2  -6    2.97    0.88
  -8   2   6    3.73    0.95
   8  -2  -5   24.86    1.36
   8  -2  -5   26.35    1.54
  -8   2   5   24.83    1.48
   8  -2  -5   25.80    1.64
  -8   2   5   27.43    1.52
  -8   2   5   24.66    1.50
  -8   2   5   27.03    1.45
   8  -2  -5   26.06    1.53
   8  -2  -5   23.88    1.34
   8  -2  -4    1.50    1.13
  -8   2   4    1.53    0.95
  -8   2   4    1.91    0.95
   8  -2  -4    1.80    0.77
   8  -2  -4    2.92    1.04
  -8   2   4    2.91    0.92
  -8   2   4    1.66    0.93
   8  -2  -4    1.69    0.92
   8  -2  -4    1.43    0.94
   8  -2  -4    2.06    0.77
   8  -2  -3   88.08    3.51
  -8   2   3   86.22    3.64
   8  -2  -3   83.32    3.71
   8  -2  -3   90.16    3.58
  -8   2   3   86.97    3.58
  -8   2   3   83.69    3.62
  -8   2   3   86.30    3.58
   8  -2  -3   90.75    3.58
   8  -2  -3   86.84    3.50
   8  -2  -3   90.49    3.74
   8  -2  -2   17.40    1.37
  -8   2   2   15.63    1.24
  -8   2   2   17.22    1.34
   8  -2  -2   15.48    1.07
   8  -2  -2   16.05    1.42
  -8   2   2   18.60    1.26
   8  -2  -2   17.97    1.15
   8  -2  -2   18.12    1.16
   8  -2  -2   16.75    1.19
   8  -2  -2   16.59    1.08
   8  -2  -1    3.04    1.06
  -8   2   1    4.98    1.11
  -8   2   1    4.91    1.04
   8  -2  -1    5.95    0.84
   8  -2  -1    5.55    1.28
   8  -2  -1    6.59    0.90
  -8   2   1    6.08    0.97
   8  -2  -1    6.38    0.93
   8  -2  -1    4.63    0.91
   8  -2  -1    5.71    0.80
   8  -2   0   83.74    3.59
   8  -2   0   91.25    3.88
  -8   2   0   88.45    3.69
   8  -2   0   91.02    3.64
  -8   2   0   86.50    3.73
   8  -2   0   89.86    3.62
   8  -2   0   94.38    3.65
   8  -2   0   93.37    3.75
   8  -2   1    9.20    1.19
   8  -2   1    8.08    1.39
   8  -2   1    8.68    0.91
  -8   2  -1    6.91    1.12
  -8   2  -1   10.90    1.08
   8  -2   1    9.22    1.01
   8  -2   1    7.68    0.91
   8  -2   1    9.23    0.95
   8  -2   2    3.83    1.05
   8  -2   2    4.43    1.37
   8  -2   2    3.75    0.87
   8  -2   2    3.72    0.90
  -8   2  -2    3.25    0.97
  -8   2  -2    3.01    1.10
   8  -2   2    3.91    0.98
   8  -2   2    3.99    0.84
   8  -2   3    0.55    1.04
   8  -2   3    1.13    1.47
   8  -2   3    1.08    0.84
  -8   2  -3   -0.12    1.02
   8  -2   3    0.74    0.98
  -8   2  -3   -1.04    0.79
  -8   2  -3    0.40    1.12
   8  -2   3   -0.30    0.79
   8  -2   4    2.69    1.13
  -8   2  -4    0.63    0.85
  -8   2  -4    1.60    1.06
  -8   2  -4    0.21    0.74
  -8   2  -4    0.77    1.11
   8  -2   4    0.36    0.79
  -8   2  -5    1.63    1.12
   8  -2   5    4.11    1.23
  -8   2  -5    2.29    0.89
  -8   2  -5    1.55    0.86
   8  -2   5    1.76    0.88
   8  -2   6    0.38    0.90
  -8   2  -6    0.56    1.12
   8  -2   6    1.77    1.25
  -8   2  -6    2.12    0.90
  -8   2  -7   -0.43    1.44
  -8   2  -7    1.96    0.90
   8  -1 -14   15.04    1.59
  -8   1  14   14.83    1.97
   8  -1 -14   18.94    2.27
   8  -1 -13    6.85    1.29
  -8   1  13    3.87    1.70
   8  -1 -13    8.20    2.02
   8  -1 -13    6.18    1.81
   8  -1 -12   11.75    1.35
  -8   1  12   14.25    1.71
  -8   1  12   12.99    1.36
   8  -1 -12   13.25    1.93
   8  -1 -12   14.14    1.75
   8  -1 -11    0.08    1.18
  -8   1  11    1.91    1.36
  -8   1  11    0.77    1.05
   8  -1 -11    2.54    1.58
   8  -1 -11    1.79    1.39
   8  -1 -11    1.18    0.95
   8  -1 -10    1.60    1.10
  -8   1  10    1.69    1.27
   8  -1 -10    0.98    1.46
   8  -1 -10   -1.08    1.33
   8  -1 -10    1.62    0.87
   8  -1  -9    9.95    1.22
  -8   1   9   12.06    1.25
   8  -1  -9   13.21    1.56
   8  -1  -9   13.37    1.42
   8  -1  -9   11.35    1.07
   8  -1  -8    2.43    0.96
   8  -1  -8    2.57    1.08
  -8   1   8    0.73    1.11
   8  -1  -8    1.54    1.14
   8  -1  -8    2.92    0.87
   8  -1  -7   15.83    1.21
   8  -1  -7   17.49    1.36
   8  -1  -7   17.68    1.34
  -8   1   7   18.81    1.36
   8  -1  -7   16.80    1.37
   8  -1  -7   17.87    1.18
  -8   1   7   17.31    1.34
   8  -1  -6    4.04    0.89
  -8   1   6    3.11    0.81
   8  -1  -6    3.15    1.02
   8  -1  -6    3.71    1.10
  -8   1   6    2.68    0.94
   8  -1  -6    2.89    1.07
  -8   1   6    4.45    1.09
   8  -1  -5    0.16    1.10
  -8   1   5    1.22    0.95
  -8   1   5    0.66    0.85
   8  -1  -5    0.78    0.74
   8  -1  -5    2.23    1.04
  -8   1   5    0.36    0.96
  -8   1   5    2.41    0.87
   8  -1  -5   -0.03    0.92
   8  -1  -5    2.26    0.97
   8  -1  -4    0.82    1.09
  -8   1   4   -1.77    0.96
  -8   1   4    0.58    0.81
   8  -1  -4   -0.09    0.68
   8  -1  -4    1.05    1.05
  -8   1   4    0.58    0.89
  -8   1   4   -0.85    0.89
   8  -1  -4    1.39    0.96
   8  -1  -4    0.42    0.73
   8  -1  -4   -0.68    0.92
   8  -1  -3   59.28    2.47
  -8   1   3   58.23    2.62
   8  -1  -3   57.77    2.70
   8  -1  -3   60.31    2.62
  -8   1   3   61.19    2.54
  -8   1   3   60.34    2.61
  -8   1   3   56.27    2.65
   8  -1  -3   61.28    2.63
   8  -1  -3   58.28    2.47
   8  -1  -3   62.57    2.76
   8  -1  -2   -0.32    1.10
   8  -1  -2    1.69    0.89
  -8   1   2    1.59    0.94
   8  -1  -2    0.84    0.68
  -8   1   2    1.08    1.00
   8  -1  -2    2.57    1.13
  -8   1   2    1.16    0.95
   8  -1  -2    1.63    0.89
   8  -1  -2    0.08    0.78
   8  -1  -2    1.46    0.68
   8  -1  -1   15.52    1.29
  -8   1   1   14.80    1.31
   8  -1  -1   13.37    0.96
   8  -1  -1   15.08    1.43
  -8   1   1   14.37    1.24
  -8   1   1   15.71    1.17
   8  -1  -1   13.66    1.15
   8  -1  -1   14.00    1.11
   8  -1  -1   14.38    0.94
   8  -1  -1   15.02    1.02
   8  -1   0   18.98    1.20
   8  -1   0   16.06    1.33
   8  -1   0   15.14    0.99
  -8   1   0   16.99    1.46
   8  -1   0   13.24    1.46
  -8   1   0   16.56    1.26
  -8   1   0   16.67    1.22
   8  -1   0   15.83    1.03
   8  -1   0   17.44    1.22
   8  -1   0   17.22    1.00
   8  -1   1    2.71    1.04
   8  -1   1    5.98    0.76
   8  -1   1    6.85    1.39
  -8   1  -1    5.02    1.07
   8  -1   1    5.11    0.99
  -8   1  -1    6.07    1.08
   8  -1   1    5.18    0.76
   8  -1   1    5.02    0.94
   8  -1   2   63.92    2.85
   8  -1   2   61.83    2.62
   8  -1   2   68.58    3.10
  -8   1  -2   59.91    2.79
   8  -1   2   67.06    2.74
   8  -1   2   67.39    2.77
   8  -1   2   60.06    2.61
  -8   1  -2   68.86    2.90
   8  -1   3   -0.32    1.01
   8  -1   3    0.84    1.03
  -8   1  -3    0.76    0.89
   8  -1   3    0.02    0.73
  -8   1  -3    0.07    1.01
  -8   1  -4   10.59    1.32
   8  -1   4   12.96    1.31
   8  -1   4   11.76    0.89
  -8   1  -5   16.22    1.53
  -8   1  -5   18.65    1.23
   8  -1   5   15.64    1.12
   8  -1   6    0.12    1.21
  -8   1  -6    2.77    1.36
  -8   1  -6    0.92    0.96
  -8   1  -7    8.44    1.70
  -8   1  -7    7.46    1.04
  -8   1  -8    0.77    1.00
  -8   0  14    2.56    1.66
   8   0 -14    2.46    1.88
  -8   0  13   -0.76    1.61
   8   0 -13   -0.59    1.81
   8   0 -13   -0.67    1.74
   8   0 -12    2.64    1.15
  -8   0  12   -0.96    1.48
  -8   0  12    3.37    1.19
   8   0 -12    1.28    1.64
   8   0 -12    0.66    1.51
   8   0 -11    3.76    1.11
  -8   0  11    3.00    1.33
   8   0 -11    5.00    1.58
   8   0 -11    2.60    1.47
  -8   0  11    4.26    1.13
   8   0 -10   12.86    1.23
  -8   0  10   16.12    1.47
   8   0 -10   15.19    1.69
   8   0 -10   16.71    1.54
  -8   0  10   12.44    1.27
   8   0 -10   13.51    1.03
   8   0  -9    4.95    1.13
   8   0  -9    5.40    1.08
  -8   0   9    7.92    1.21
   8   0  -9    6.86    1.44
   8   0  -9    7.15    1.34
  -8   0   9    5.41    1.16
   8   0  -9    5.59    0.85
  -8   0   8   21.72    1.41
   8   0  -8   23.86    1.42
   8   0  -8   20.60    1.54
   8   0  -8   20.54    1.22
   8   0  -8   21.75    1.41
   8   0  -7    1.76    0.86
   8   0  -7    1.88    1.03
  -8   0   7    1.52    0.99
   8   0  -7    2.79    1.13
   8   0  -7    1.36    0.76
   8   0  -6   32.49    1.80
  -8   0   6   34.15    1.69
   8   0  -6   31.60    1.77
   8   0  -6   31.68    1.75
   8   0  -6   32.21    1.60
  -8   0   5    3.00    1.01
   8   0  -5    3.04    0.78
  -8   0   5    2.23    0.86
   8   0  -5    3.95    1.06
  -8   0   5    3.12    0.87
   8   0  -5    2.80    1.03
   8   0  -5    1.98    1.02
   8   0  -4    0.38    0.97
   8   0  -4    0.24    1.14
   8   0  -4   -0.25    0.72
  -8   0   4   -0.62    1.02
  -8   0   4    0.97    0.85
   8   0  -4    0.67    1.00
  -8   0   4    0.51    0.80
   8   0  -4    1.06    0.99
   8   0  -3    1.50    1.09
   8   0  -3    1.22    0.94
   8   0  -3    0.64    0.74
  -8   0   3    0.63    0.82
  -8   0   3    0.10    1.03
   8   0  -3    0.91    1.12
  -8   0   3   -0.27    0.98
   8   0  -3   -1.16    0.96
   8   0  -2   67.73    2.74
  -8   0   2   68.22    2.94
   8   0  -2   73.00    3.08
  -8   0   2   69.28    2.96
   8   0  -2   72.42    2.94
   8   0  -2   64.27    2.76
  -8   0   2   68.03    3.00
   8   0  -2   68.76    2.92
   8   0  -2   68.65    2.76
   8   0  -2   66.69    3.02
   8   0  -1    0.80    1.02
   8   0  -1    2.60    0.62
  -8   0   1    0.84    1.00
   8   0  -1    0.94    1.10
  -8   0   1    2.07    1.09
   8   0  -1    2.03    0.91
   8   0  -1    2.22    0.66
   8   0  -1    1.71    0.67
   8   0  -1    3.82    0.94
   8   0   0   56.52    2.39
   8   0   0   64.23    2.60
  -8   0   0   62.10    2.73
   8   0   0   60.73    2.81
   8   0   0   58.56    2.59
   8   0   0   57.94    2.38
   8   0   0   56.93    2.39
  -8   0   0   60.89    2.69
   8   0   0   59.02    2.66
   8   0   1    1.37    1.04
   8   0   1   -0.82    0.65
   8   0   1    0.84    0.95
   8   0   1   -0.34    1.23
   8   0   1    0.84    0.96
   8   0   1   -0.53    0.62
  -8   0  -1   -0.81    1.09
   8   0   1   -0.68    0.58
   8   0   2   24.74    1.57
   8   0   2   23.52    1.47
   8   0   2   21.62    1.11
  -8   0  -2   24.42    1.62
   8   0   3   -0.10    0.60
  -8   0  -3    0.04    1.16
   8   0   3   -0.46    1.19
   8   0   3   -0.19    1.09
   8   0   4    1.94    1.24
  -8   0  -4    0.64    1.23
  -8   0  -4    3.37    0.93
   8   0   5    1.64    1.32
  -8   0  -5   -1.37    1.38
  -8   0  -5   -0.08    1.02
  -8   0  -6    0.37    1.39
  -8   0  -6    0.61    1.04
  -8   0  -7    0.93    1.11
  -8   0  -8   -0.06    1.10
  -8  -1  14    0.74    1.71
   8   1 -14    1.45    1.73
  -8  -1  14    1.75    1.72
  -8  -1  13    4.63    1.69
   8   1 -13    3.18    1.82
  -8  -1  13    2.93    1.45
  -8  -1  12   13.84    1.55
   8   1 -12    9.14    1.77
  -8  -1  12   10.70    1.30
   8   1 -11   -0.17    0.99
  -8  -1  11   -0.35    1.27
   8   1 -11   -1.25    1.42
  -8  -1  11    0.17    1.12
   8   1 -10    3.93    0.97
  -8  -1  10    3.06    1.23
   8   1 -10    0.73    1.30
  -8  -1  10    3.59    1.07
   8   1  -9    6.46    1.22
   8   1  -9    6.18    1.00
  -8  -1   9    8.25    1.22
  -8  -1   9    4.73    1.16
   8   1  -9    6.54    0.82
   8   1  -8   14.01    1.55
   8   1  -8   16.45    1.28
   8   1  -8   14.10    1.17
  -8  -1   8   13.82    1.24
   8   1  -8   16.72    1.48
   8   1  -8   15.16    1.00
  -8  -1   8   13.83    1.32
  -8  -1   7   51.04    2.24
   8   1  -7   49.54    2.22
  -8  -1   7   49.65    2.33
   8   1  -7   49.95    2.37
   8   1  -7   45.34    2.10
   8   1  -7   50.67    2.23
   8   1  -7   49.30    2.50
   8   1  -6    1.32    1.28
   8   1  -6    0.75    0.90
   8   1  -6    0.91    0.90
  -8  -1   6    2.58    0.87
   8   1  -6    1.47    1.05
   8   1  -5    0.02    0.84
   8   1  -5   -0.57    0.98
  -8  -1   5   -0.30    0.77
   8   1  -5    0.70    1.06
   8   1  -4   22.51    1.45
  -8  -1   4   22.48    1.19
   8   1  -4   24.51    1.48
   8   1  -4   21.64    1.23
   8   1  -3    0.26    1.16
   8   1  -3   -0.29    0.69
  -8  -1   3    0.85    0.87
   8   1  -3    0.68    0.94
  -8  -1   3   -1.05    1.03
   8   1  -3    0.13    1.02
   8   1  -3    0.46    0.98
   8   1  -3    0.38    0.62
   8   1  -2    0.84    1.10
   8   1  -2    1.32    0.65
  -8  -1   2    0.95    0.89
   8   1  -2    1.05    1.04
  -8  -1   2    1.95    1.11
   8   1  -2    0.39    0.98
   8   1  -2    1.64    0.58
   8   1  -2    0.58    0.96
   8   1  -1   11.13    0.76
   8   1  -1   13.67    1.23
  -8  -1   1   11.68    1.19
   8   1  -1   12.37    1.36
   8   1  -1   10.47    0.70
  -8  -1   1   10.63    1.26
   8   1  -1   11.28    1.21
   8   1   0    1.15    1.05
   8   1   0    0.91    0.54
  -8  -1   0   -0.31    1.08
   8   1   0    1.64    0.98
  -8  -1   0    0.66    1.08
   8   1   0   -0.62    0.46
   8   1   1    1.83    1.09
   8   1   1    0.60    1.01
  -8  -1  -1    1.29    1.14
   8   1   1    1.38    0.44
  -8  -1  -2    2.58    1.27
   8   1   2    1.69    1.10
   8   1   2    2.18    1.12
   8   1   3    5.01    1.23
  -8  -1  -3    2.32    1.31
   8   1   3    2.72    1.14
  -8  -1  -4    7.87    1.38
  -8  -1  -4    9.20    1.15
   8   1   5   -0.17    1.27
  -8  -1  -5   -0.28    1.41
  -8  -1  -5    0.87    1.08
   8   1   5   -0.76    1.96
  -8  -1  -6    0.66    1.01
   8   1   6   -0.45    1.81
  -8  -2  14    2.07    1.57
  -8  -2  14    1.52    1.73
  -8  -2  13    3.30    1.60
  -8  -2  13    1.61    1.57
  -8  -2  12    7.46    1.47
  -8  -2  12    8.49    1.38
   8   2 -11    9.93    1.71
  -8  -2  11    8.18    1.36
  -8  -2  11    9.94    1.28
   8   2 -10    3.32    1.55
  -8  -2  10    1.72    1.10
  -8  -2  10    2.11    1.14
   8   2  -9    0.91    1.35
   8   2  -9    1.67    1.24
   8   2  -9    0.41    0.80
  -8  -2   9    0.72    0.99
   8   2  -9    1.30    1.23
  -8  -2   9   -0.53    1.06
  -8  -2   8    3.25    1.10
   8   2  -8    3.02    1.41
   8   2  -8    3.84    1.14
   8   2  -8    2.03    0.83
  -8  -2   8    1.87    0.91
   8   2  -8    4.48    1.19
   8   2  -7    3.14    1.31
   8   2  -7    3.00    1.01
  -8  -2   7    2.19    1.02
   8   2  -7    1.88    0.83
  -8  -2   7    2.18    0.88
   8   2  -7    3.03    1.17
   8   2  -7    1.60    0.67
   8   2  -6    3.63    1.27
   8   2  -6    1.46    0.95
   8   2  -6    0.29    1.38
  -8  -2   6    2.09    1.10
   8   2  -6    1.92    0.89
   8   2  -6    2.01    1.15
   8   2  -5    2.01    1.19
   8   2  -5    2.51    0.86
   8   2  -5    2.96    1.30
  -8  -2   5    2.59    1.06
   8   2  -5    2.08    0.88
   8   2  -5    2.83    1.08
   8   2  -4   24.64    1.49
   8   2  -4   25.91    1.51
   8   2  -4   21.78    1.24
   8   2  -4   23.61    1.65
   8   2  -3   11.18    0.82
   8   2  -3   12.57    0.74
   8   2  -3   13.70    1.27
   8   2  -2   13.22    0.64
   8   2  -2   13.03    1.26
   8   2  -2   10.60    0.68
   8   2  -1    4.84    1.12
   8   2  -1    5.37    1.08
  -8  -2   1    3.21    1.22
   8   2   0    6.53    1.23
   8   2   0    6.61    1.15
  -8  -2   0    6.42    1.25
  -8  -2  -1    5.06    1.25
   8   2   1    5.40    1.19
   8   2   1    5.63    1.16
   8   2   2    1.81    1.20
  -8  -2  -2    2.74    1.32
   8   2   2    2.51    1.21
   8   2   3    7.10    1.35
  -8  -2  -3    5.71    1.36
   8   2   3    7.92    1.32
   8   2   3    7.84    1.82
   8   2   4    0.72    1.39
  -8  -2  -4    0.75    1.37
  -8  -2  -4    3.16    1.07
   8   2   4    1.43    1.80
  -8  -2  -5    0.54    1.16
   8   2   5    1.55    1.63
   8   2   6    0.45    1.76
   8   3 -14    4.31    1.99
   8   3 -13    4.49    1.81
   8   3 -12    0.49    1.72
   8   3 -12   -1.09    1.60
   8   3 -11   -0.21    1.49
   8   3 -11    0.51    1.45
   8   3 -10    2.65    1.44
  -8  -3  10    1.14    1.21
   8   3  -9    8.61    1.54
  -8  -3   9    8.73    1.24
   8   3  -8    2.97    1.44
  -8  -3   8    1.10    1.12
   8   3  -7   -0.08    1.28
  -8  -3   7   -0.18    1.11
   8   3  -7    1.52    1.24
   8   3  -6    0.20    1.24
   8   3  -6    1.15    1.43
  -8  -3   6    1.15    1.15
   8   3  -6   -1.60    1.20
   8   3  -5    2.11    1.25
   8   3  -5    1.01    1.32
  -8  -3   5   -0.53    1.07
   8   3  -5    0.62    1.13
   8   3  -4   -0.12    1.18
   8   3  -4   -0.61    1.23
  -8  -3   4   -0.42    1.09
   8   3  -4    0.35    1.08
   8   3  -4   -0.20    0.46
   8   3  -3    0.99    1.18
   8   3  -3    0.23    1.07
  -8  -3   3    1.37    1.12
   8   3  -3    2.13    1.07
   8   3  -2    6.16    1.13
   8   3  -1    1.64    1.12
   8   3   0    2.55    1.16
   8   3   0    0.38    1.52
  -8  -3   0    0.67    1.18
  -8  -3  -1   -0.91    1.28
   8   3   1    0.62    1.16
   8   3   1   -1.70    1.18
   8   3   1   -1.50    1.55
   8   3   2   -1.59    1.31
  -8  -3  -2    1.26    1.31
   8   3   2    0.60    1.21
   8   3   2   -1.82    1.51
   8   3   3   -1.08    1.45
   8   3   3    2.04    1.59
  -8  -3  -4    1.39    1.22
   8   3   4   -0.15    1.57
   8   3   5   -1.22    1.67
   8   4 -13    3.70    1.66
   8   4 -12    1.96    1.61
   8   4 -11    8.11    1.69
   8   4 -11    8.06    1.65
   8   4 -10    1.03    1.47
   8   4 -10    2.16    1.48
  -8  -4   9    1.18    1.20
   8   4  -9    0.49    1.51
   8   4  -9    1.09    1.41
   8   4  -8    7.73    1.50
  -8  -4   8    7.10    1.26
   8   4  -7    2.72    1.40
  -8  -4   7    0.04    1.15
   8   4  -6    8.11    1.34
  -8  -4   6    7.08    1.34
   8   4  -5    3.46    1.26
   8   4  -5    4.39    1.36
  -8  -4   5    3.11    1.21
   8   4  -5    2.08    1.17
   8   4  -4    0.69    1.23
  -8  -4   4   -0.08    1.19
   8   4  -4    0.93    1.12
   8   4  -3    5.13    1.32
  -8  -4   3    4.93    1.31
   8   4  -3    5.57    1.23
   8   4  -3    5.45    1.21
   8   4  -2   14.15    1.47
   8   4  -2   16.05    1.44
  -8  -4   2   14.50    1.43
   8   4  -2   15.49    1.47
   8   4  -1    9.71    1.39
   8   4  -1   11.79    1.30
  -8  -4   1    8.02    1.39
   8   4  -1   10.26    1.46
   8   4   0    2.01    1.20
   8   4   0    0.97    1.39
   8   4   1   -0.31    1.26
   8   4   1   -1.63    1.42
   8   4   2    1.66    1.49
   8   4   2    0.49    1.26
   8   4   2   -0.80    1.50
   8   4   3    4.04    1.58
   8   4   4    0.77    1.63
   8   4   5    0.20    1.65
   8   5 -12   -2.05    1.54
   8   5 -11   -1.18    1.52
   8   5 -10    2.21    1.42
   8   5 -10    5.76    1.54
   8   5  -9    2.79    1.42
   8   5  -9    2.80    1.49
   8   5  -8   -0.75    1.39
   8   5  -8    1.38    1.38
   8   5  -7    1.73    1.34
  -8  -5   7    0.48    1.26
   8   5  -7   -0.21    1.31
   8   5  -6    1.35    1.34
  -8  -5   6    1.64    1.29
   8   5  -6    2.54    1.34
   8   5  -5    7.16    1.39
  -8  -5   5    6.56    1.37
   8   5  -4    5.04    1.42
  -8  -5   4    1.97    1.27
   8   5  -3   -0.40    1.30
  -8  -5   3    0.09    1.23
   8   5  -3    0.47    1.25
   8   5  -2   -1.31    1.38
   8   5  -2   -2.24    1.23
  -8  -5   2    0.18    1.33
   8   5  -1    4.42    1.51
   8   5  -1    4.59    1.23
   8   5   0   -0.24    1.42
   8   5   0   -0.69    1.31
   8   6 -10    2.25    1.41
   8   6  -9    0.89    1.39
   8   6  -8   -1.12    1.36
   8   6  -7   -1.50    1.38
   8   6  -7    1.24    1.47
   8   6  -6    5.13    1.32
   8   6  -6    3.67    1.37
   8   6  -5    1.34    1.32
   8   6  -5    1.24    1.36
   8   6  -4    2.43    1.41
   8   6  -4    0.38    1.32
   8   6  -3   -0.04    1.51
   8   6  -2    2.53    1.53
   8   7  -8    0.56    1.42
   8   7  -7    1.07    1.61
   8   7  -6    1.45    1.44
   8   7  -5    0.92    1.44
   8   7  -4   -0.09    1.52
   9  -9  -7   -1.40    1.76
   9  -9  -6    6.30    1.60
   9  -9  -5    1.99    1.46
   9  -9  -4    5.29    1.56
   9  -9  -2    1.34    1.53
  -9   8   9   20.27    1.49
  -9   8   8    1.13    1.18
   9  -8  -8    1.63    1.69
  -9   8   7    0.80    1.12
   9  -8  -7    1.72    1.73
   9  -8  -7    3.75    1.71
  -9   8   7    2.15    1.49
  -9   8   6    8.25    1.14
   9  -8  -6   10.46    1.71
  -9   8   6    9.44    1.61
  -9   8   5    3.68    1.03
   9  -8  -5    4.00    1.41
   9  -8  -4    5.21    1.42
   9  -8  -4    0.20    1.50
   9  -8  -3   16.23    1.76
   9  -8  -2    0.39    1.36
   9  -8  -2    0.51    1.49
   9  -8  -2   -0.99    1.53
   9  -8  -1   28.28    2.15
   9  -8  -1   30.55    2.02
   9  -8   0    2.35    1.45
   9  -8   0    2.95    1.50
   9  -8   1   11.24    1.52
   9  -8   2   -0.37    1.37
   9  -7 -11   -0.49    1.52
   9  -7 -10   11.29    1.50
  -9   7   9    2.36    1.11
   9  -7  -9    5.18    1.83
  -9   7   9    4.49    1.66
   9  -7  -9    0.84    1.65
   9  -7  -9    4.88    1.34
  -9   7   8    5.76    1.21
   9  -7  -8    8.42    1.77
  -9   7   8    9.08    1.65
   9  -7  -8    7.15    1.66
   9  -7  -7    2.22    1.66
  -9   7   7    0.17    1.00
   9  -7  -7   -1.50    1.53
  -9   7   7    2.08    1.53
   9  -7  -6    2.68    1.55
  -9   7   6    2.43    1.04
   9  -7  -6    4.42    1.51
  -9   7   6    2.45    1.37
   9  -7  -5    5.57    1.66
  -9   7   5    4.98    0.98
   9  -7  -5    4.59    1.44
   9  -7  -4    7.34    1.61
  -9   7   4    4.22    0.98
   9  -7  -4    4.67    1.43
   9  -7  -4    6.76    1.43
  -9   7   3    1.81    0.88
   9  -7  -3   -0.27    1.33
   9  -7  -2    1.18    1.24
  -9   7   2    0.19    0.90
   9  -7  -2   -0.17    1.35
   9  -7  -1   23.42    1.61
   9  -7  -1   23.79    1.77
   9  -7   0   -0.10    1.12
   9  -7   0    0.33    1.55
   9  -7   0    2.51    1.32
   9  -7   1   21.36    2.02
   9  -7   1   25.85    1.80
   9  -7   2    1.09    1.55
   9  -7   2    0.04    1.26
   9  -7   3   12.45    1.51
   9  -7   4    8.35    1.36
   9  -6 -11   -0.25    1.69
   9  -6 -11    2.00    1.51
   9  -6 -10    4.67    1.75
  -9   6  10    4.17    1.24
  -9   6  10    4.65    1.68
   9  -6 -10    2.12    1.64
   9  -6 -10    2.58    1.34
   9  -6  -9   -1.63    1.72
  -9   6   9    1.08    1.10
  -9   6   9    0.67    1.52
   9  -6  -9   -1.47    1.56
   9  -6  -9    0.41    1.31
   9  -6  -8    9.58    1.63
  -9   6   8    9.33    1.15
  -9   6   8    7.55    1.52
   9  -6  -8    9.24    1.65
   9  -6  -8   12.02    1.33
   9  -6  -7    0.33    1.64
  -9   6   7    1.28    1.10
  -9   6   7    0.93    1.43
   9  -6  -7    0.36    1.45
   9  -6  -7   -0.07    1.12
  -9   6   6   20.86    1.37
   9  -6  -6   22.59    1.88
   9  -6  -6   22.11    1.42
  -9   6   6   20.67    1.78
   9  -6  -6   23.35    1.81
   9  -6  -5    7.12    1.58
  -9   6   5    5.79    0.93
  -9   6   5    6.30    1.06
   9  -6  -5    5.96    1.46
  -9   6   5    5.36    1.39
   9  -6  -5    4.13    0.99
   9  -6  -4    5.67    1.53
  -9   6   4    5.27    0.96
   9  -6  -3   20.21    1.60
   9  -6  -3   17.66    1.72
  -9   6   3   16.70    1.28
   9  -6  -3   18.01    1.60
   9  -6  -2    3.47    1.30
   9  -6  -2    4.19    1.45
  -9   6   2    5.94    0.95
   9  -6  -2    4.10    1.22
   9  -6  -1   26.03    1.72
  -9   6   1   24.18    1.41
   9  -6  -1   21.00    1.85
   9  -6  -1   25.43    1.74
   9  -6   0    8.46    1.27
  -9   6   0    6.33    0.99
   9  -6   0    9.09    1.37
   9  -6   1    9.75    1.30
   9  -6   1    9.66    1.39
   9  -6   2   39.58    2.12
   9  -6   3    0.57    1.61
   9  -6   3    1.58    1.22
   9  -6   4    4.98    1.25
   9  -6   5    2.80    1.27
   9  -5 -12    0.30    1.75
   9  -5 -11    1.92    1.63
  -9   5  11    1.89    1.73
   9  -5 -11    0.24    1.58
   9  -5 -10    5.36    1.69
  -9   5  10    6.25    1.25
  -9   5  10    4.31    1.57
   9  -5 -10    5.24    1.57
   9  -5 -10    5.14    1.46
   9  -5  -9   -0.16    1.44
  -9   5   9    0.26    1.11
  -9   5   9   -0.05    1.40
   9  -5  -9   -1.61    1.53
   9  -5  -9   -1.82    1.32
   9  -5  -8    3.54    1.51
  -9   5   8    5.18    1.10
  -9   5   8    4.38    1.41
   9  -5  -8    3.76    1.43
   9  -5  -8    6.20    1.24
   9  -5  -7    5.45    1.56
  -9   5   7    1.53    1.04
  -9   5   7    4.16    1.32
   9  -5  -7    2.17    1.41
   9  -5  -7    5.36    1.14
   9  -5  -6    0.94    1.43
  -9   5   6   -0.25    1.30
  -9   5   6    1.51    1.03
   9  -5  -6    0.86    1.34
   9  -5  -6    0.61    1.11
   9  -5  -5   11.80    1.21
   9  -5  -5   10.99    1.56
  -9   5   5   12.11    1.11
  -9   5   5   13.17    1.40
   9  -5  -5   16.19    1.58
   9  -5  -5   12.12    1.16
  -9   5   5   12.47    1.21
   9  -5  -4    7.17    1.45
  -9   5   4    8.38    0.98
   9  -5  -4    7.55    1.06
   9  -5  -4    6.74    1.02
  -9   5   4    6.13    1.01
   9  -5  -3    2.60    1.29
   9  -5  -3    3.20    1.37
  -9   5   3    3.51    0.88
   9  -5  -3    0.36    0.90
   9  -5  -3    3.40    1.23
  -9   5   3    1.67    1.00
   9  -5  -2    4.46    1.25
   9  -5  -2    3.64    1.38
  -9   5   2    3.36    0.85
   9  -5  -2    3.59    0.84
   9  -5  -2    2.93    1.17
  -9   5   2    3.95    0.94
   9  -5  -1    0.88    1.25
   9  -5  -1   -1.18    1.42
   9  -5  -1   -1.55    1.13
  -9   5   1    0.03    0.94
   9  -5   0    6.27    1.16
   9  -5   0    2.88    1.38
   9  -5   0    5.48    1.16
  -9   5   0    4.15    0.98
  -9   5  -1   14.66    1.29
   9  -5   1   14.15    1.34
   9  -5   1   13.04    1.68
   9  -5   1   18.01    1.35
   9  -5   2    0.25    1.12
  -9   5  -2   -1.34    1.05
   9  -5   2   -2.19    1.10
   9  -5   3    1.07    0.97
   9  -5   3    0.61    1.07
   9  -5   4    7.25    1.14
   9  -5   5   -0.66    1.15
   9  -5   6    9.50    1.29
   9  -4 -13   -0.29    1.53
   9  -4 -12    0.33    1.46
  -9   4  12   -0.17    1.71
   9  -4 -12   -1.67    1.72
   9  -4 -11    9.78    1.72
  -9   4  11   10.42    1.69
   9  -4 -11    9.60    1.78
   9  -4 -11   10.94    1.61
   9  -4 -10    3.39    1.49
  -9   4  10    3.60    1.16
  -9   4  10    3.90    1.61
   9  -4 -10    4.46    1.58
   9  -4 -10    3.07    1.39
   9  -4  -9    8.19    1.58
  -9   4   9    6.19    1.21
  -9   4   9    5.92    1.45
   9  -4  -9    6.33    1.48
   9  -4  -9   10.16    1.40
  -9   4   8   29.72    1.72
   9  -4  -8   28.03    1.96
  -9   4   8   30.94    1.98
   9  -4  -8   32.31    1.89
   9  -4  -8   28.27    2.01
   9  -4  -7   14.90    1.62
  -9   4   7   17.78    1.63
   9  -4  -7   13.75    1.60
   9  -4  -7   16.18    1.42
  -9   4   7   14.86    1.34
   9  -4  -6   10.18    1.54
  -9   4   6   14.04    1.40
   9  -4  -6   13.20    1.48
   9  -4  -6   12.67    1.25
  -9   4   6    9.15    1.20
   9  -4  -5    2.61    1.29
   9  -4  -5    3.95    1.07
  -9   4   5    4.87    1.22
   9  -4  -5    4.44    1.05
  -9   4   5    2.95    1.07
   9  -4  -4    8.03    1.39
   9  -4  -4    5.11    1.35
  -9   4   4    4.28    0.96
  -9   4   4    6.56    1.27
   9  -4  -4    5.24    1.09
   9  -4  -4    6.30    1.06
  -9   4   4    5.71    1.03
   9  -4  -3   31.80    1.98
  -9   4   3   29.80    1.72
   9  -4  -3   33.27    1.69
  -9   4   3   30.50    1.63
   9  -4  -3   29.44    1.63
   9  -4  -3   30.23    1.75
   9  -4  -3   30.58    1.93
  -9   4   2    0.92    1.02
   9  -4  -2    2.34    1.26
   9  -4  -2    0.30    0.80
   9  -4  -2   -1.71    1.33
  -9   4   2    0.49    0.88
   9  -4  -2   -0.05    0.88
   9  -4  -2    1.69    1.08
   9  -4  -1   28.30    1.92
  -9   4   1   25.96    1.57
  -9   4   1   26.41    1.52
   9  -4  -1   27.68    1.47
   9  -4  -1   29.90    1.64
   9  -4  -1   31.11    1.79
   9  -4   0   17.15    1.45
  -9   4   0   17.42    1.32
   9  -4   0   15.27    1.63
  -9   4   0   16.77    1.23
   9  -4   0   17.85    1.19
   9  -4   0   16.40    1.32
   9  -4   1    2.90    1.21
  -9   4  -1    1.47    1.04
   9  -4   1    1.18    1.51
   9  -4   1    1.72    0.95
   9  -4   2   19.97    1.46
  -9   4  -2   17.85    1.41
   9  -4   2   22.89    1.87
   9  -4   2   19.67    1.34
   9  -4   3    3.91    1.21
  -9   4  -3    5.53    1.22
   9  -4   3    6.55    1.67
   9  -4   3    5.38    1.03
   9  -4   4   20.27    1.51
   9  -4   4   17.52    2.01
   9  -4   4   19.94    1.45
   9  -4   5    3.58    1.06
   9  -3 -14    1.07    1.52
   9  -3 -13    1.40    1.51
   9  -3 -12    4.85    1.34
  -9   3  12    3.06    1.62
   9  -3 -12    3.46    1.94
   9  -3 -12    4.95    1.72
   9  -3 -11    1.08    1.29
  -9   3  11    1.20    1.52
   9  -3 -11    0.70    1.52
   9  -3 -10    3.00    1.39
  -9   3  10    3.66    1.52
  -9   3  10    4.73    1.18
   9  -3 -10    6.29    1.63
   9  -3 -10    3.69    1.42
   9  -3  -9    0.63    1.23
  -9   3   9    0.66    1.36
   9  -3  -9   -0.33    1.44
  -9   3   9    0.88    1.14
   9  -3  -9    0.34    1.38
   9  -3  -8    1.93    1.19
  -9   3   8    4.00    1.26
   9  -3  -8    2.30    1.40
   9  -3  -8    1.05    1.27
  -9   3   8    0.79    1.05
   9  -3  -7    2.90    1.28
  -9   3   7    3.68    1.27
   9  -3  -7    2.73    1.30
   9  -3  -7    4.75    1.23
  -9   3   7    3.30    1.12
   9  -3  -6    1.14    1.16
  -9   3   6    0.97    1.19
   9  -3  -6    0.61    1.16
  -9   3   6    1.36    1.05
   9  -3  -5   26.05    1.85
  -9   3   5   30.50    1.73
  -9   3   5   33.89    1.80
   9  -3  -5   29.25    1.74
   9  -3  -5   29.90    1.92
   9  -3  -4    1.89    1.22
   9  -3  -4    0.88    0.97
   9  -3  -4    0.94    1.22
  -9   3   4    1.03    1.12
   9  -3  -4   -0.21    1.02
   9  -3  -4    0.61    0.95
   9  -3  -4    1.36    0.99
  -9   3   4    0.38    1.03
   9  -3  -3   11.32    1.35
  -9   3   3    9.66    1.15
   9  -3  -3   11.22    1.16
   9  -3  -3   10.90    1.05
   9  -3  -3   11.85    1.43
  -9   3   3    9.74    1.10
   9  -3  -3   10.30    1.14
   9  -3  -3   11.78    1.24
   9  -3  -3   10.31    1.06
   9  -3  -2   28.04    1.57
   9  -3  -2   31.03    1.92
  -9   3   2   30.45    1.72
  -9   3   2   27.60    1.65
   9  -3  -2   33.14    1.65
   9  -3  -2   31.90    1.63
   9  -3  -2   31.85    1.68
   9  -3  -2   28.06    1.54
   9  -3  -2   32.14    1.90
   9  -3  -1   -0.52    1.16
  -9   3   1   -0.23    1.07
   9  -3  -1    0.52    0.90
   9  -3  -1    0.18    1.37
  -9   3   1    0.96    0.93
   9  -3  -1    0.17    0.94
   9  -3  -1    1.61    0.92
   9  -3  -1    0.26    1.03
   9  -3  -1   -2.18    1.04
   9  -3   0   12.36    1.35
  -9   3   0   10.72    1.25
   9  -3   0   12.46    1.06
   9  -3   0   11.69    1.59
  -9   3   0   13.33    1.18
   9  -3   0   13.50    1.12
   9  -3   0   12.79    1.15
   9  -3   1   -0.38    1.10
  -9   3  -1    1.74    1.16
   9  -3   1    1.95    1.46
   9  -3   1    1.33    0.92
  -9   3  -1    2.12    0.98
   9  -3   1    0.74    0.96
   9  -3   1    0.86    0.92
   9  -3   2    0.54    1.07
  -9   3  -2    1.13    1.16
   9  -3   2    4.12    1.60
   9  -3   2    1.00    0.89
   9  -3   3    0.47    1.12
   9  -3   3   -1.77    1.60
  -9   3  -3    0.74    1.11
   9  -3   3    0.02    0.87
   9  -3   4   -0.66    1.25
  -9   3  -4    0.25    0.84
   9  -3   4   -0.06    1.63
  -9   3  -4   -1.45    1.16
   9  -3   4   -0.35    0.98
   9  -3   5   -1.28    1.40
   9  -2 -13    1.55    1.37
  -9   2  13    0.97    1.79
   9  -2 -12   -0.05    1.34
  -9   2  12    0.46    1.51
   9  -2 -12    0.83    1.79
   9  -2 -12    0.11    1.61
   9  -2 -11    0.58    1.26
  -9   2  11    0.38    1.44
   9  -2 -11   -0.89    1.66
   9  -2 -11    0.10    1.52
   9  -2 -10    0.64    1.31
  -9   2  10   -1.00    1.33
   9  -2 -10   -0.93    1.41
  -9   2  10    1.17    1.16
   9  -2  -9   20.98    1.67
  -9   2   9   22.62    1.66
   9  -2  -9   22.62    1.71
  -9   2   9   21.76    1.56
   9  -2  -8    4.37    1.29
  -9   2   8    3.03    1.27
   9  -2  -8    0.58    1.41
   9  -2  -8    1.69    1.20
  -9   2   8    2.15    1.16
   9  -2  -7    3.62    1.27
  -9   2   7    3.37    1.20
   9  -2  -7    4.64    1.17
  -9   2   7    3.66    1.14
   9  -2  -7    2.31    1.10
   9  -2  -6   -0.23    1.26
  -9   2   6   -0.19    1.02
   9  -2  -6    1.27    0.97
   9  -2  -6   -0.99    1.26
  -9   2   6   -0.33    1.04
   9  -2  -6   -0.55    1.12
  -9   2   6    0.20    1.13
  -9   2   5    4.69    1.15
   9  -2  -5    3.90    1.29
  -9   2   5    3.48    0.99
   9  -2  -5    4.96    1.03
   9  -2  -5    3.32    1.23
  -9   2   5    5.25    1.05
   9  -2  -5    3.17    1.06
   9  -2  -5    4.94    0.97
   9  -2  -4   18.41    1.57
  -9   2   4   16.16    1.36
   9  -2  -4   16.32    1.13
   9  -2  -4   17.55    1.51
  -9   2   4   18.92    1.29
   9  -2  -4   18.19    1.30
   9  -2  -4   16.11    1.12
   9  -2  -3   24.72    1.34
   9  -2  -3   21.04    1.70
  -9   2   3   23.18    1.52
   9  -2  -3   24.61    1.47
   9  -2  -3   27.73    1.53
   9  -2  -3   24.17    1.45
   9  -2  -3   23.05    1.31
   9  -2  -3   25.94    1.73
   9  -2  -2   -1.14    1.18
  -9   2   2    1.80    1.14
   9  -2  -2   -0.63    0.81
   9  -2  -2    2.30    1.24
   9  -2  -2   -0.03    1.01
   9  -2  -2    1.40    0.99
   9  -2  -2    1.04    0.93
   9  -2  -2    0.11    0.76
   9  -2  -1    7.00    1.26
  -9   2   1    8.17    1.27
   9  -2  -1    6.28    0.91
   9  -2  -1    5.51    1.36
   9  -2  -1    5.47    1.02
   9  -2  -1    5.15    0.99
   9  -2  -1    5.56    0.86
   9  -2  -1    4.15    1.06
   9  -2   0    1.38    1.17
  -9   2   0    2.06    1.10
   9  -2   0    2.36    0.81
   9  -2   0    1.76    1.38
   9  -2   0    3.10    1.00
   9  -2   0    2.91    0.80
   9  -2   0    3.36    0.86
   9  -2   1    4.46    1.19
   9  -2   1    2.94    1.49
  -9   2  -1    3.35    1.23
   9  -2   1    4.17    1.05
   9  -2   1    3.75    0.87
   9  -2   2    6.44    1.26
   9  -2   2    4.97    1.63
  -9   2  -2    6.24    1.15
   9  -2   2    7.12    1.11
   9  -2   2    6.40    0.89
   9  -2   3    3.51    1.20
   9  -2   3    2.64    1.61
  -9   2  -3    0.94    1.20
   9  -2   3    1.87    0.88
   9  -2   4    3.32    1.38
  -9   2  -4    1.29    0.92
  -9   2  -4    1.77    1.34
  -9   2  -5    5.82    0.98
  -9   2  -5    5.90    1.40
  -9   1  13    0.70    1.59
   9  -1 -12    0.43    1.36
  -9   1  12    0.49    1.63
   9  -1 -12    0.88    1.75
   9  -1 -12   -1.07    1.70
   9  -1 -11    8.45    1.41
  -9   1  11    7.23    1.50
   9  -1 -11    7.24    1.79
   9  -1 -11    6.20    1.52
   9  -1 -10    7.61    1.32
  -9   1  10    7.89    1.37
   9  -1 -10    6.79    1.66
   9  -1 -10   10.42    1.45
   9  -1  -9   -0.27    1.13
  -9   1   9   -0.79    1.23
   9  -1  -9   -0.69    1.35
  -9   1   9   -1.05    1.14
   9  -1  -8    1.53    1.21
  -9   1   8    0.67    1.13
   9  -1  -8    1.09    1.27
  -9   1   8    0.04    1.17
   9  -1  -8    0.44    0.89
   9  -1  -7    7.28    1.07
   9  -1  -7    6.62    1.24
  -9   1   7    7.15    1.14
   9  -1  -7    7.73    1.25
  -9   1   7    5.72    1.20
   9  -1  -7    8.19    1.00
  -9   1   6    5.26    1.20
   9  -1  -6    4.18    1.42
   9  -1  -6    5.52    0.99
   9  -1  -6    7.57    1.26
  -9   1   6    6.94    1.11
   9  -1  -6    4.71    1.20
   9  -1  -5    9.44    1.36
  -9   1   5    7.89    1.24
   9  -1  -5    7.50    0.91
   9  -1  -5    8.85    1.32
  -9   1   5    8.24    1.06
   9  -1  -5    7.96    1.17
   9  -1  -4   11.82    1.46
  -9   1   4   13.56    1.30
   9  -1  -4   13.00    1.00
  -9   1   4   11.14    1.31
   9  -1  -4   12.46    1.40
  -9   1   4   13.75    1.11
   9  -1  -4   14.69    1.28
   9  -1  -3    0.91    1.22
  -9   1   3    0.75    1.21
   9  -1  -3    1.45    0.79
  -9   1   3    1.24    1.03
   9  -1  -3    1.59    1.30
   9  -1  -3    0.34    1.01
   9  -1  -3    0.17    0.86
   9  -1  -3    0.30    0.75
   9  -1  -2    0.32    1.18
   9  -1  -2    1.63    0.72
  -9   1   2    1.27    1.14
   9  -1  -2    1.10    1.33
   9  -1  -2    0.30    0.99
   9  -1  -2    0.13    0.82
   9  -1  -2    0.77    0.75
   9  -1  -1   13.61    1.41
  -9   1   1   16.37    1.43
   9  -1  -1   14.29    1.63
   9  -1  -1   15.02    1.23
   9  -1  -1   15.73    1.06
   9  -1   0    3.14    1.20
   9  -1   0    4.57    1.44
  -9   1   0    2.78    1.19
   9  -1   0    4.85    1.07
   9  -1   0    3.91    0.79
   9  -1   1    6.19    1.24
   9  -1   1    4.67    1.56
  -9   1  -1    5.27    1.24
   9  -1   1    3.80    1.04
   9  -1   1    5.16    0.77
   9  -1   2    2.21    1.24
  -9   1  -2    1.79    1.30
   9  -1   2    3.75    1.02
   9  -1   3    5.35    1.36
   9  -1   3    8.01    1.21
  -9   1  -3    7.84    1.39
   9  -1   4    3.16    1.43
  -9   1  -4    0.52    1.04
  -9   1  -4    0.84    1.45
   9  -1   5    0.39    1.46
  -9   1  -5    0.76    0.93
  -9   1  -5    0.99    1.39
  -9   1  -6    1.14    1.11
  -9   0  13    5.80    1.63
  -9   0  12    1.75    1.51
   9   0 -12   -0.59    1.86
  -9   0  11   -0.04    1.37
   9   0 -11    0.16    1.53
   9   0 -10    4.31    1.20
  -9   0  10    4.91    1.25
   9   0 -10    3.58    1.42
  -9   0  10    5.90    1.24
   9   0  -9   19.20    1.84
   9   0  -9   18.60    1.46
  -9   0   9   18.55    1.46
   9   0  -9   19.43    1.64
   9   0  -8    1.55    1.42
   9   0  -8   -0.16    1.03
   9   0  -8    0.27    1.06
  -9   0   8    0.88    1.08
   9   0  -8   -0.62    1.25
  -9   0   7    6.00    1.26
   9   0  -7    5.28    1.05
   9   0  -7    6.28    1.15
  -9   0   7    7.81    1.12
   9   0  -7    5.30    1.32
   9   0  -7    4.10    0.87
  -9   0   6    7.24    1.23
   9   0  -6   10.89    1.03
   9   0  -6   10.42    1.23
  -9   0   6    9.34    1.10
   9   0  -6    9.39    1.25
   9   0  -5    1.47    1.31
  -9   0   5    3.44    1.21
   9   0  -5    2.00    0.85
   9   0  -5    0.75    1.12
   9   0  -5    2.75    1.16
   9   0  -4    9.83    0.94
  -9   0   4   11.59    1.34
   9   0  -4   11.38    1.37
   9   0  -4   11.33    1.23
   9   0  -3    5.06    1.27
  -9   0   3    2.65    1.20
   9   0  -3    1.40    1.19
   9   0  -3    1.84    1.15
   9   0  -3    2.36    0.79
   9   0  -2    7.56    1.29
  -9   0   2    8.09    1.27
   9   0  -2    7.61    1.28
   9   0  -2    6.60    1.21
   9   0  -2    8.91    0.84
   9   0  -1    1.13    1.19
   9   0  -1   -0.65    1.39
  -9   0   1    0.08    1.25
   9   0  -1    0.25    1.11
   9   0  -1    0.40    0.66
   9   0   0    7.85    1.28
   9   0   0    7.44    1.55
  -9   0   0    4.57    1.29
   9   0   0    7.90    1.20
   9   0   1    8.50    1.33
  -9   0  -1    6.29    1.34
   9   0   1    6.36    1.16
   9   0   2    6.05    1.30
   9   0   2    7.79    1.27
  -9   0  -2    7.42    1.39
   9   0   3    0.78    1.36
  -9   0  -3    0.13    1.44
   9   0   4   -0.61    1.38
  -9   0  -4   -0.68    1.03
  -9   0  -4   -0.47    1.50
  -9   0  -5   -0.37    1.07
   9   1 -11    4.41    1.74
   9   1 -11    6.20    1.58
   9   1 -10    1.13    1.59
   9   1 -10   -0.54    1.39
   9   1  -9    0.70    1.56
   9   1  -9   -0.05    1.31
  -9  -1   9    0.69    1.12
   9   1  -8    1.18    1.51
   9   1  -8    0.65    1.05
   9   1  -8    1.02    1.24
  -9  -1   8    4.67    1.24
   9   1  -7    6.82    1.58
   9   1  -7    4.41    1.09
   9   1  -7    4.56    1.22
   9   1  -6    5.03    1.49
   9   1  -6    4.47    1.12
   9   1  -6    8.45    1.27
  -9  -1   5    2.36    1.20
   9   1  -5    3.45    1.11
   9   1  -5    1.18    1.23
  -9  -1   4    0.51    1.14
   9   1  -4    0.21    1.10
   9   1  -4    1.88    1.18
   9   1  -4    0.86    0.72
   9   1  -3    0.04    1.29
  -9  -1   3    0.16    1.18
   9   1  -3    1.60    1.20
   9   1  -3    1.37    1.09
   9   1  -3   -0.36    0.68
   9   1  -2   20.90    1.58
  -9  -1   2   16.43    1.59
   9   1  -2   20.49    1.62
   9   1  -2   19.73    1.45
   9   1  -1    2.62    1.22
  -9  -1   1    0.91    1.24
   9   1  -1    3.07    1.22
   9   1   0    0.55    1.19
  -9  -1   0    0.80    1.24
   9   1   0    2.90    1.14
   9   1   1    8.62    1.38
   9   1   1    8.55    1.35
  -9  -1  -1    6.52    1.43
   9   1   2    1.58    1.28
   9   1   2    0.80    1.23
  -9  -1  -2    2.36    1.38
   9   1   3    8.68    1.48
  -9  -1  -4    1.53    1.11
   9   2 -12   -1.95    1.80
   9   2 -11   -1.34    1.86
   9   2 -10    5.36    1.78
   9   2 -10    5.32    1.44
   9   2  -9    7.43    1.66
   9   2  -9    9.48    1.47
  -9  -2   8    7.54    1.34
   9   2  -8    6.37    1.56
   9   2  -8    4.36    1.41
   9   2  -7   15.09    1.68
  -9  -2   7   16.75    1.44
   9   2  -7   16.75    1.54
   9   2  -6   -0.05    1.32
  -9  -2   6    2.72    1.24
   9   2  -6    1.10    1.09
   9   2  -6    1.08    1.18
   9   2  -5    7.70    1.42
   9   2  -5    7.48    1.13
   9   2  -5    6.62    1.29
   9   2  -4    1.25    1.36
   9   2  -4    3.35    1.39
   9   2  -4    2.76    1.14
  -9  -2   3    0.29    1.25
   9   2  -3   -0.04    1.15
  -9  -2   2    0.30    1.31
   9   2  -2    2.11    1.19
   9   2  -1    7.82    1.37
  -9  -2   1    7.40    1.43
   9   2  -1    7.47    1.30
   9   2   0   -1.24    1.30
   9   2   0    1.16    1.18
  -9  -2   0    0.04    1.35
   9   2   1   10.72    1.51
   9   2   1   11.07    1.39
   9   2   2    0.59    1.28
   9   2   3    4.25    2.00
   9   2   4   -2.94    1.92
   9   3 -11   14.00    1.77
   9   3 -10    1.73    1.57
   9   3  -9    2.84    1.49
   9   3  -9    1.63    1.52
   9   3  -8    4.33    1.47
   9   3  -8    5.55    1.44
   9   3  -7    6.79    1.49
   9   3  -7    5.60    1.40
   9   3  -6    8.90    1.51
  -9  -3   6    6.56    1.36
   9   3  -6    7.27    1.32
   9   3  -5    1.06    1.34
  -9  -3   5    0.43    1.27
   9   3  -5    1.90    1.17
   9   3  -4   -0.95    1.36
  -9  -3   4   -0.78    1.31
   9   3  -4    2.19    1.23
   9   3  -3    0.21    1.38
   9   3  -3    2.41    1.19
   9   3  -2    0.30    1.15
   9   3  -1   -0.42    1.27
   9   3  -1    0.65    1.70
   9   3   0    2.69    1.48
   9   3   0    5.27    1.28
   9   3   0    4.57    1.74
   9   3   1   -0.44    1.35
   9   3   1    0.63    1.58
   9   3   2   -1.15    1.57
   9   3   3    1.63    1.70
   9   4 -11    4.64    1.71
   9   4 -10   -0.61    1.52
   9   4  -9    0.25    1.49
   9   4  -8   -0.05    1.54
   9   4  -7   -1.01    1.39
   9   4  -6    0.13    1.48
   9   4  -6   -2.05    1.43
   9   4  -5    3.00    1.42
   9   4  -5    1.35    1.34
   9   4  -4    1.26    1.44
   9   4  -4    1.92    1.34
   9   4  -3    9.01    1.55
   9   4  -3    7.97    1.37
   9   4  -2    1.45    1.45
   9   4  -2   -0.90    1.35
   9   5  -9   -0.48    1.48
   9   5  -8   -0.69    1.60
   9   5  -7   -0.77    1.39
   9   5  -6   -0.04    1.48
   9   5  -5    0.80    1.43
 -10   7   8    6.22    1.32
 -10   7   7    1.32    1.10
 -10   7   6    0.27    1.23
  10  -7  -6   -1.58    1.50
  10  -7  -5   10.52    1.79
 -10   7   5   10.04    1.22
  10  -7  -5   11.48    1.64
  10  -7  -4    1.50    1.38
  10  -7  -4   -0.18    1.62
  10  -7  -4    1.37    1.47
  10  -7  -3    7.90    1.50
  10  -7  -3    7.43    1.70
  10  -7  -3   10.20    1.57
  10  -7  -2   10.84    1.50
  10  -7  -2   11.50    1.52
  10  -7  -1    0.26    1.35
  10  -7   0   10.10    1.43
  10  -7   1    6.11    1.43
  10  -6 -10   20.96    1.81
  10  -6  -9    4.58    1.77
  10  -6  -9    9.73    1.50
  10  -6  -8   28.14    2.23
 -10   6   8   24.00    1.66
 -10   6   8   22.62    1.97
  10  -6  -7   -0.71    1.73
 -10   6   7   -0.86    1.16
 -10   6   7    1.67    1.53
  10  -6  -7    1.51    1.57
  10  -6  -6    1.38    1.60
 -10   6   6   -2.13    1.08
 -10   6   6    2.01    1.52
  10  -6  -5    3.59    1.55
 -10   6   5    1.37    1.13
  10  -6  -4    0.29    1.54
  10  -6  -4    0.84    1.58
 -10   6   4   -0.09    1.04
  10  -6  -4    1.14    1.31
  10  -6  -3   -1.10    1.53
  10  -6  -3   -0.73    1.52
 -10   6   3    0.18    1.01
  10  -6  -3   -0.92    1.33
  10  -6  -2    4.62    1.42
  10  -6  -2    3.69    1.67
  10  -6  -2    4.70    1.36
  10  -6  -1    1.81    1.32
  10  -6  -1   -0.17    1.61
  10  -6  -1    3.22    1.37
  10  -6   0    8.34    1.30
  10  -6   0    6.22    1.31
  10  -6   1    1.58    1.26
  10  -6   2    2.46    1.19
  10  -6   3    8.71    1.36
  10  -5 -10    0.70    1.62
  10  -5 -10   -0.28    1.45
  10  -5  -9   12.74    1.80
 -10   5   9   14.62    1.72
  10  -5  -9   10.43    1.58
  10  -5  -8    9.13    1.64
 -10   5   8   10.43    1.34
 -10   5   8    8.28    1.52
  10  -5  -8    9.28    1.62
  10  -5  -8    9.18    1.43
  10  -5  -7    6.00    1.54
 -10   5   7    3.94    1.25
 -10   5   7    2.58    1.51
  10  -5  -7    3.36    1.57
  10  -5  -7    5.22    1.24
  10  -5  -6    0.59    1.56
 -10   5   6    1.53    1.42
 -10   5   6   -1.62    1.22
  10  -5  -6   -0.41    1.29
  10  -5  -5   -1.39    1.55
  10  -5  -5   -0.58    1.56
  10  -5  -5   -1.29    1.02
 -10   5   5    0.48    1.12
  10  -5  -4    0.05    1.42
  10  -5  -4   -0.11    1.56
  10  -5  -4    1.25    1.27
 -10   5   4   -0.03    0.97
  10  -5  -3   12.41    1.64
  10  -5  -3   11.48    1.69
  10  -5  -3   11.99    1.47
 -10   5   3   13.14    1.33
  10  -5  -2    0.13    1.37
  10  -5  -2    2.10    1.57
  10  -5  -2    0.91    1.31
 -10   5   2    0.42    1.10
  10  -5  -1    2.92    1.40
  10  -5  -1    1.26    1.53
  10  -5  -1    3.07    1.21
 -10   5   1    1.72    1.04
  10  -5   0   20.37    1.60
  10  -5   0   17.77    1.93
  10  -5   0   20.24    1.54
  10  -5   1    0.44    1.24
  10  -5   1    0.06    1.60
  10  -5   1   -0.13    1.12
  10  -5   2   12.03    1.26
  10  -5   3    0.47    1.18
  10  -4 -12    0.06    1.67
  10  -4 -11   -1.06    1.51
  10  -4 -10    1.77    1.60
 -10   4  10    4.92    1.51
  10  -4 -10    5.77    1.43
  10  -4  -9    3.05    1.58
 -10   4   9    7.35    1.61
  10  -4  -9    2.65    1.66
  10  -4  -9    2.70    1.50
  10  -4  -8    0.83    1.48
 -10   4   8    1.44    1.41
  10  -4  -8   -0.40    1.45
 -10   4   8    1.79    1.17
  10  -4  -8    1.43    1.28
  10  -4  -7    5.84    1.54
 -10   4   7    6.88    1.49
  10  -4  -7    5.44    1.31
 -10   4   7    5.63    1.21
  10  -4  -6    1.34    1.51
  10  -4  -6    0.30    1.44
 -10   4   6   -0.61    1.38
  10  -4  -6    0.82    1.16
 -10   4   6    0.82    1.22
  10  -4  -5   19.48    1.77
  10  -4  -5   15.56    1.68
  10  -4  -5   15.99    1.32
 -10   4   5   16.15    1.52
  10  -4  -4   -0.19    1.43
  10  -4  -4    1.11    1.53
  10  -4  -4    0.95    1.00
  10  -4  -4   -0.33    1.12
 -10   4   4   -0.14    1.12
  10  -4  -3    2.88    1.35
  10  -4  -3   -0.10    1.42
  10  -4  -3    0.28    1.03
  10  -4  -3    2.82    1.19
 -10   4   3    1.10    1.16
  10  -4  -2    6.95    1.44
  10  -4  -2    6.64    1.61
  10  -4  -2    5.56    1.24
 -10   4   2    4.52    1.19
 -10   4   1   -1.33    1.06
  10  -4  -1    0.70    1.31
  10  -4  -1   -0.32    1.46
  10  -4  -1    0.03    1.22
  10  -4   0    3.85    1.30
 -10   4   0    4.21    1.26
  10  -4   0    5.79    1.65
  10  -4   0    5.00    1.19
  10  -4   1    1.53    1.24
 -10   4  -1    0.78    1.12
  10  -4   1    2.45    1.55
  10  -4   1   -1.17    1.11
  10  -4   2   -0.04    1.20
  10  -4   2    0.62    1.15
  10  -4   3    6.56    1.48
  10  -3 -12    6.33    1.73
  10  -3 -11   -1.34    1.57
 -10   3  11   -0.42    1.50
  10  -3 -10    3.06    1.50
 -10   3  10    3.16    1.49
  10  -3 -10    3.61    1.43
  10  -3  -9    5.02    1.52
 -10   3   9    6.30    1.38
  10  -3  -9    5.97    1.43
  10  -3  -8   -0.95    1.36
 -10   3   8    2.05    1.33
  10  -3  -8    2.78    1.28
 -10   3   8    0.11    1.21
  10  -3  -7    3.97    1.53
  10  -3  -7    3.64    1.31
 -10   3   7    5.06    1.24
  10  -3  -7    5.07    1.34
 -10   3   7    4.78    1.33
  10  -3  -6    1.03    1.41
  10  -3  -6   -0.66    1.34
 -10   3   6    1.78    1.15
  10  -3  -6    0.73    1.20
 -10   3   6   -0.11    1.23
  10  -3  -5   -1.03    1.41
  10  -3  -5    1.23    1.44
 -10   3   5    0.46    1.16
  10  -3  -5    1.25    1.20
 -10   3   5    0.33    1.20
  10  -3  -4    0.62    1.43
  10  -3  -4    2.88    1.50
  10  -3  -4    0.55    1.05
  10  -3  -4    2.20    1.10
 -10   3   4    0.25    1.18
 -10   3   3    2.04    1.22
  10  -3  -3   -1.12    1.43
  10  -3  -3    0.54    1.38
  10  -3  -3    1.59    1.03
  10  -3  -3   -0.22    1.11
  10  -3  -2   -1.58    1.38
 -10   3   2    1.91    1.17
  10  -3  -2    2.32    1.50
  10  -3  -2    1.62    1.00
  10  -3  -2    0.55    1.12
  10  -3  -1    0.25    1.27
 -10   3   1    0.11    1.15
  10  -3  -1   -0.94    1.52
  10  -3  -1    0.67    0.97
  10  -3  -1   -0.69    0.98
  10  -3   0    5.09    1.37
 -10   3   0    4.04    1.34
  10  -3   0    5.15    1.74
  10  -3   0    3.78    1.02
  10  -3   1    0.27    1.23
 -10   3  -1    1.94    1.21
  10  -3   1    1.02    1.61
  10  -3   1    1.15    0.95
  10  -3   2   13.80    1.51
 -10   3  -2   11.65    1.44
  10  -3   2   13.07    1.90
  10  -2 -11   -0.24    1.43
 -10   2  11   -0.29    1.40
  10  -2 -10    3.98    1.40
 -10   2  10    1.60    1.43
  10  -2 -10    0.68    1.44
  10  -2  -9    3.81    1.35
 -10   2   9    2.70    1.29
  10  -2  -9    5.05    1.42
  10  -2  -8    1.13    1.55
  10  -2  -8    1.47    1.40
 -10   2   8   -0.50    1.28
  10  -2  -8   -0.46    1.28
 -10   2   8    1.61    1.29
  10  -2  -7   27.98    2.04
 -10   2   7   27.32    1.81
 -10   2   7   25.96    1.72
  10  -2  -7   28.38    1.94
  10  -2  -7   28.74    1.85
  10  -2  -6    3.96    1.53
  10  -2  -6    3.55    1.35
  10  -2  -6    6.32    1.35
 -10   2   6    3.06    1.25
  10  -2  -5   14.25    1.67
  10  -2  -5   14.04    1.52
  10  -2  -5   15.90    1.39
 -10   2   5   15.68    1.52
  10  -2  -4    2.52    1.40
 -10   2   4    2.41    1.25
  10  -2  -4    2.64    1.37
  10  -2  -4    2.91    1.16
  10  -2  -4    3.68    1.03
  10  -2  -3    3.71    1.42
 -10   2   3    3.67    1.24
  10  -2  -3    2.88    1.43
  10  -2  -3    0.98    1.10
  10  -2  -3    1.75    0.97
  10  -2  -2   12.32    1.53
 -10   2   2   11.91    1.41
  10  -2  -2   12.54    1.71
  10  -2  -2   12.21    1.29
  10  -2  -2   13.02    1.18
  10  -2  -1   -0.33    1.29
 -10   2   1    0.87    1.23
  10  -2  -1   -0.97    1.60
  10  -2  -1    0.30    1.09
  10  -2  -1   -0.24    0.96
  10  -2   0    4.09    1.34
 -10   2   0    5.23    1.39
  10  -2   0    6.97    1.64
  10  -2   0    3.85    1.15
  10  -2   1    1.18    1.27
 -10   2  -1   -1.38    1.36
  10  -2   1    1.06    1.62
  10  -2   2   -0.43    1.34
 -10   2  -2   -0.04    1.45
  10  -2   2   -0.47    1.64
 -10   2  -3    4.56    1.49
  10  -1 -10    1.18    1.55
  10  -1  -9    2.98    1.30
  10  -1  -9    3.86    1.39
  10  -1  -8    0.71    1.33
  10  -1  -8    0.30    1.40
  10  -1  -7    1.67    1.52
  10  -1  -7    0.08    1.25
  10  -1  -7    1.64    1.28
 -10   1   7    1.28    1.27
 -10   1   6    0.64    1.23
  10  -1  -6   -0.83    1.54
  10  -1  -6    0.51    1.30
  10  -1  -6    1.29    1.33
  10  -1  -5   -0.65    1.37
 -10   1   5    0.44    1.27
  10  -1  -5    1.87    1.39
  10  -1  -5    1.22    1.27
  10  -1  -4    5.99    1.40
 -10   1   4    5.10    1.36
  10  -1  -4    6.44    1.44
  10  -1  -4    7.50    1.23
  10  -1  -4    4.88    1.00
  10  -1  -3    0.18    1.32
 -10   1   3    2.01    1.24
  10  -1  -3    0.70    1.45
  10  -1  -3    1.03    1.14
  10  -1  -3    0.96    0.92
  10  -1  -2    3.16    1.29
 -10   1   2    1.84    1.36
  10  -1  -2    3.44    1.46
  10  -1  -2    3.08    1.25
  10  -1  -1    6.58    1.35
 -10   1   1    5.80    1.33
  10  -1  -1    5.17    1.71
  10  -1  -1    4.19    1.20
  10  -1   0   -0.78    1.27
 -10   1   0   -0.64    1.33
  10  -1   0   -1.32    1.75
  10  -1   0   -0.92    1.11
  10  -1   1    0.41    1.26
 -10   1  -1    0.35    1.34
  10  -1   1    3.28    1.23
 -10   1  -2   -1.28    1.48
 -10   1  -4    2.50    1.11
  10   0  -9   -0.65    1.67
  10   0  -9   -1.41    1.40
  10   0  -8    2.82    1.66
  10   0  -8    6.54    1.43
  10   0  -7    1.70    1.27
  10   0  -7    4.65    1.38
 -10   0   6   -0.29    1.33
  10   0  -6    0.36    1.25
  10   0  -6   -0.40    1.36
  10   0  -5    1.46    1.47
 -10   0   5    4.10    1.34
  10   0  -5    2.05    1.25
  10   0  -5    2.08    1.34
  10   0  -4    5.97    1.46
 -10   0   4    2.72    1.32
  10   0  -4    3.33    1.30
  10   0  -4    5.93    1.35
  10   0  -3    1.14    1.27
 -10   0   3   -0.98    1.37
  10   0  -3    1.83    1.39
  10   0  -3    0.58    1.16
  10   0  -2    9.96    1.48
 -10   0   2    9.89    1.54
  10   0  -2   12.68    1.64
  10   0  -2   12.00    1.35
  10   0  -1    0.04    1.36
 -10   0   1    0.44    1.37
  10   0  -1   -0.10    1.40
  10   0  -1   -1.59    1.26
  10   0   0    3.71    1.30
  10   0   2    0.80    1.35
  10   1  -8   -0.34    1.65
  10   1  -8   -0.92    1.39
  10   1  -7    2.06    1.53
  10   1  -7   -0.57    1.34
  10   1  -6    2.58    1.58
  10   1  -6    0.96    1.31
  10   1  -5    0.08    1.32
  10   1  -4    2.87    1.39
  10   1  -4    0.62    1.27
  10   1  -3    0.14    1.41
  10   1  -3    1.15    1.26
  10   1  -2   -0.31    1.39
  10   1  -2    2.55    1.30
  10   1  -1   -0.11    1.29
  10   1   0    2.19    1.38
  10   2  -6    0.91    1.51
  10   2  -5    1.97    1.34
  10   2  -4    2.49    1.33
  10   2  -3    0.73    1.33
  10   2   1    3.47    1.94
  10   2   2   -0.57    1.94
 -11   6   6    4.29    1.30
  11  -6  -4    2.32    1.48
  11  -6  -3   14.21    1.63
  11  -6  -2   -0.59    1.41
 -11   5   7    4.85    1.49
 -11   5   5    1.23    1.20
  11  -5  -5   -0.35    1.43
 -11   5   4    6.33    1.29
  11  -5  -4    7.28    1.42
  11  -5  -3   -0.61    1.40
  11  -5  -2   -0.19    1.43
  11  -5  -1    5.44    1.43
  11  -4  -9   10.99    1.74
  11  -4  -8   11.73    1.72
 -11   4   8   13.00    1.81
  11  -4  -8   10.97    1.65
  11  -4  -7    7.86    1.69
  11  -4  -7    9.18    1.59
  11  -4  -6    0.11    1.61
  11  -4  -5    2.04    1.69
  11  -4  -5    0.72    1.33
 -11   4   5    0.84    1.37
  11  -4  -4   -1.82    1.57
  11  -4  -4    0.80    1.24
 -11   4   4    0.04    1.21
  11  -4  -3    0.06    1.56
  11  -4  -3    0.70    1.32
 -11   4   3    2.15    1.43
  11  -4  -2    1.86    1.17
 -11   4   2    0.79    1.48
  11  -3  -9    0.95    1.56
  11  -3  -8   11.14    1.73
  11  -3  -7    8.63    1.57
  11  -3  -6    1.89    1.62
  11  -3  -6    0.24    1.35
  11  -3  -5    4.03    1.52
  11  -3  -5    1.08    1.27
  11  -3  -5    0.22    1.13
  11  -3  -4   -1.24    1.64
  11  -3  -4   -0.78    1.34
  11  -3  -4   -0.49    1.17
 -11   3   3    0.90    1.36
  11  -3  -3    0.22    1.58
 -11   3   2    4.70    1.58
  11  -3  -2    6.05    1.59
 -11   3   1   -0.21    1.58
  11  -2  -8    0.20    1.39
  11  -2  -7    2.23    1.46
  11  -2  -6   -1.35    1.51
  11  -2  -6    2.34    1.36
  11  -2  -5    2.20    1.65
  11  -2  -4    4.97    1.75
  11  -2  -4    5.33    1.34
  11  -2  -3   -0.11    1.53
  11  -2  -3    2.56    1.33
  11  -2  -2   -0.95    1.80
  11  -2  -1    0.80    1.58
  11  -1  -6    1.19    1.36
  11  -1  -5    1.96    1.47
  11  -1  -4    0.70    1.56
  11  -1  -4    0.47    1.29
  11  -1  -3   -0.84    1.56
  11  -1  -3   -0.83    1.37
  11  -1  -2   -1.30    1.81
  11  -1  -2   -0.59    1.27
  11  -1  -1    0.45    1.77
   0   0   0    0.00    0.00


TITL m20190311b in P-1
REM P-1 (#2 in standard setting)
CELL 0.71073   8.037515   9.364479  12.038621  92.0478 106.6332 102.3790
ZERR    2.00   0.000204   0.000228   0.000317   0.0021   0.0023   0.0021
LATT  1
SFAC C H N O F S Br
UNIT 30.00 22.00 8.00 2.00 4.00 2.00 2.00
TREF
HKLF 4
END
_computing_structure_solution     'SHELXT 2018/2 (Sheldrick, 2018)'
;
_shelx_hkl_checksum              1655
_olex2_submission_special_instructions 'No special instructions were received'
_oxdiff_exptl_absorpt_empirical_details
;
Empirical correction (ABSPACK) includes:
- Absorption correction using spherical harmonics
- Frame scaling
;
_oxdiff_exptl_absorpt_empirical_full_max 2.098
_oxdiff_exptl_absorpt_empirical_full_min 0.609
loop_
_space_group_symop_operation_xyz
'x, y, z'
'-x, -y, -z'
loop_
_atom_site_label
_atom_site_type_symbol
_atom_site_fract_x
_atom_site_fract_y
_atom_site_fract_z
_atom_site_U_iso_or_equiv
_atom_site_adp_type
_atom_site_occupancy
_atom_site_site_symmetry_order
_atom_site_calc_flag
_atom_site_refinement_flags_posn
_atom_site_refinement_flags_adp
_atom_site_refinement_flags_occupancy
_atom_site_disorder_assembly
_atom_site_disorder_group
Br1 Br 1.19230(5) 0.19743(4) 1.02360(3) 0.07875(14) Uani 1 1 d . . . . .
S1 S 0.68107(8) 0.72398(7) 0.40119(5) 0.04880(16) Uani 1 1 d . . . . .
O1 O 0.9773(2) 0.4681(2) 0.67214(16) 0.0591(5) Uani 1 1 d . . . . .
N1 N 0.2066(2) 0.9109(2) 0.40343(17) 0.0429(4) Uani 1 1 d . . . . .
N2 N 0.1906(3) 0.8902(2) 0.51011(17) 0.0456(4) Uani 1 1 d . . . . .
N3 N 0.6212(2) 0.6568(2) 0.59277(16) 0.0397(4) Uani 1 1 d . . . . .
N4 N 0.7694(3) 0.4951(2) 0.76112(17) 0.0444(4) Uani 1 1 d . . . . .
H4 H 0.688(4) 0.532(3) 0.751(2) 0.049(7) Uiso 1 1 d . . . . .
C1 C 0.3391(3) 0.8575(2) 0.3837(2) 0.0412(5) Uani 1 1 d . . . . .
H1 H 0.372626 0.860644 0.315901 0.049 Uiso 1 1 calc R . . . .
C2 C 0.4160(3) 0.7969(2) 0.48287(19) 0.0379(4) Uani 1 1 d . . . . .
C3 C 0.3174(3) 0.8214(2) 0.5586(2) 0.0421(5) Uani 1 1 d D . . . .
C4 C 0.0828(4) 0.9805(3) 0.3233(2) 0.0570(6) Uani 1 1 d . . . . .
H4A H -0.012864 0.906226 0.272335 0.086 Uiso 1 1 calc GR . . . .
H4B H 0.144633 1.040856 0.277896 0.086 Uiso 1 1 calc GR . . . .
H4C H 0.035041 1.040358 0.366734 0.086 Uiso 1 1 calc GR . . . .
C5 C 0.3358(4) 0.7801(4) 0.6793(3) 0.0515(8) Uani 0.851(6) 1 d D . P A 1
H5 H 0.336267 0.675582 0.680848 0.062 Uiso 0.851(6) 1 calc R . P A 1
C5A C 0.392(2) 0.8075(13) 0.6847(8) 0.0515(8) Uani 0.149(6) 1 d D . P A 2
H5A H 0.520767 0.819046 0.698700 0.062 Uiso 0.149(6) 1 calc R . P A 2
C6 C 0.5636(3) 0.7249(2) 0.50229(19) 0.0386(4) Uani 1 1 d . . . . .
C7 C 0.8136(3) 0.6267(3) 0.4876(2) 0.0461(5) Uani 1 1 d . . . . .
H7 H 0.906823 0.595548 0.470683 0.059(8) Uiso 1 1 calc R . . . .
C8 C 0.7635(3) 0.6012(2) 0.58457(19) 0.0400(4) Uani 1 1 d . . . . .
C9 C 0.8492(3) 0.5162(2) 0.6761(2) 0.0422(5) Uani 1 1 d . . . . .
C10 C 0.8045(3) 0.4062(3) 0.85303(19) 0.0435(5) Uani 1 1 d . . . . .
C11 C 0.9592(3) 0.3548(3) 0.8863(2) 0.0464(5) Uani 1 1 d . . . . .
H11 H 1.046271 0.378916 0.848752 0.051(7) Uiso 1 1 calc R . . . .
C12 C 0.9806(4) 0.2665(3) 0.9770(2) 0.0541(6) Uani 1 1 d . . . . .
C13 C 0.8566(5) 0.2290(4) 1.0344(3) 0.0719(8) Uani 1 1 d . . . . .
H13 H 0.873994 0.168770 1.094439 0.113(14) Uiso 1 1 calc R . . . .
C14 C 0.7045(4) 0.2825(4) 1.0012(3) 0.0757(9) Uani 1 1 d . . . . .
H14 H 0.619313 0.259269 1.040194 0.091 Uiso 1 1 calc R . . . .
C15 C 0.6770(4) 0.3698(3) 0.9110(2) 0.0603(7) Uani 1 1 d . . . . .
H15 H 0.573263 0.404380 0.889013 0.072 Uiso 1 1 calc R . . . .
F1 F 0.4916(3) 0.8617(4) 0.75227(19) 0.0833(10) Uani 0.851(6) 1 d D . P A 1
F2 F 0.2045(3) 0.8055(4) 0.7163(2) 0.0894(11) Uani 0.851(6) 1 d D U P A 1
F1A F 0.334(3) 0.6751(13) 0.7126(10) 0.137(9) Uani 0.149(6) 1 d D U P A 2
F2A F 0.376(5) 0.9129(15) 0.7535(9) 0.154(15) Uani 0.149(6) 1 d D . P A 2
loop_
_atom_site_aniso_label
_atom_site_aniso_U_11
_atom_site_aniso_U_22
_atom_site_aniso_U_33
_atom_site_aniso_U_23
_atom_site_aniso_U_13
_atom_site_aniso_U_12
Br1 0.0802(2) 0.0872(2) 0.0740(2) 0.01603(17) 0.00793(16) 0.04998(19)
S1 0.0501(3) 0.0600(4) 0.0492(3) 0.0157(3) 0.0259(3) 0.0237(3)
O1 0.0584(10) 0.0809(12) 0.0599(11) 0.0216(9) 0.0304(9) 0.0431(9)
N1 0.0428(9) 0.0437(10) 0.0436(10) 0.0053(8) 0.0100(8) 0.0171(8)
N2 0.0458(10) 0.0501(11) 0.0483(11) 0.0086(8) 0.0184(8) 0.0207(9)
N3 0.0385(9) 0.0421(9) 0.0440(10) 0.0044(8) 0.0165(7) 0.0158(7)
N4 0.0441(10) 0.0565(12) 0.0415(10) 0.0058(8) 0.0156(8) 0.0265(9)
C1 0.0434(11) 0.0397(11) 0.0424(11) 0.0029(9) 0.0141(9) 0.0124(9)
C2 0.0379(10) 0.0355(10) 0.0422(11) 0.0028(8) 0.0134(8) 0.0110(8)
C3 0.0419(11) 0.0443(12) 0.0452(12) 0.0068(9) 0.0162(9) 0.0161(9)
C4 0.0532(14) 0.0636(16) 0.0557(15) 0.0116(12) 0.0069(11) 0.0284(12)
C5 0.049(2) 0.0665(19) 0.0540(15) 0.0219(14) 0.0280(14) 0.0263(16)
C5A 0.049(2) 0.0665(19) 0.0540(15) 0.0219(14) 0.0280(14) 0.0263(16)
C6 0.0379(10) 0.0382(10) 0.0430(11) 0.0020(9) 0.0165(8) 0.0106(8)
C7 0.0418(11) 0.0529(13) 0.0527(13) 0.0083(10) 0.0212(10) 0.0201(10)
C8 0.0377(10) 0.0416(11) 0.0448(11) 0.0030(9) 0.0157(9) 0.0138(9)
C9 0.0418(11) 0.0457(12) 0.0438(11) 0.0021(9) 0.0150(9) 0.0177(9)
C10 0.0478(12) 0.0501(12) 0.0349(10) 0.0010(9) 0.0121(9) 0.0174(10)
C11 0.0481(12) 0.0525(13) 0.0406(11) 0.0010(10) 0.0115(10) 0.0191(10)
C12 0.0607(14) 0.0579(14) 0.0445(13) 0.0041(11) 0.0081(11) 0.0260(12)
C13 0.085(2) 0.082(2) 0.0569(16) 0.0266(15) 0.0243(15) 0.0316(17)
C14 0.0733(19) 0.104(2) 0.0667(18) 0.0304(18) 0.0383(16) 0.0296(18)
C15 0.0537(14) 0.0831(19) 0.0540(15) 0.0135(13) 0.0221(12) 0.0277(13)
F1 0.0716(14) 0.125(2) 0.0445(12) 0.0161(13) 0.0045(10) 0.0203(13)
F2 0.0823(16) 0.149(3) 0.0703(14) 0.0381(16) 0.0490(13) 0.0584(17)
F1A 0.175(15) 0.134(13) 0.078(9) 0.036(9) 0.046(9) -0.030(11)
F2A 0.34(5) 0.085(11) 0.056(9) 0.003(8) 0.082(17) 0.070(18)
loop_
_atom_type_symbol
_atom_type_description
_atom_type_scat_dispersion_real
_atom_type_scat_dispersion_imag
_atom_type_scat_source
C C 0.0033 0.0016 'International Tables Vol C Tables 4.2.6.8 and 6.1.1.4'
H H 0.0000 0.0000 'International Tables Vol C Tables 4.2.6.8 and 6.1.1.4'
Br Br -0.2901 2.4595 'International Tables Vol C Tables 4.2.6.8 and 6.1.1.4'
F F 0.0171 0.0103 'International Tables Vol C Tables 4.2.6.8 and 6.1.1.4'
N N 0.0061 0.0033 'International Tables Vol C Tables 4.2.6.8 and 6.1.1.4'
O O 0.0106 0.0060 'International Tables Vol C Tables 4.2.6.8 and 6.1.1.4'
S S 0.1246 0.1234 'International Tables Vol C Tables 4.2.6.8 and 6.1.1.4'
loop_
_geom_angle_atom_site_label_1
_geom_angle_atom_site_label_2
_geom_angle_atom_site_label_3
_geom_angle
_geom_angle_site_symmetry_1
_geom_angle_site_symmetry_3
_geom_angle_publ_flag
C7 S1 C6 89.69(11) . . ?
N2 N1 C4 119.63(19) . . ?
C1 N1 N2 112.57(18) . . ?
C1 N1 C4 127.8(2) . . ?
C3 N2 N1 104.55(17) . . ?
C6 N3 C8 110.77(18) . . ?
C9 N4 H4 112(2) . . ?
C9 N4 C10 127.92(19) . . ?
C10 N4 H4 119(2) . . ?
N1 C1 H1 126.4 . . ?
N1 C1 C2 107.24(19) . . ?
C2 C1 H1 126.4 . . ?
C1 C2 C3 103.66(18) . . ?
C1 C2 C6 127.3(2) . . ?
C3 C2 C6 129.0(2) . . ?
N2 C3 C2 111.97(19) . . ?
N2 C3 C5 118.5(2) . . ?
N2 C3 C5A 127.0(7) . . ?
C2 C3 C5 129.5(2) . . ?
C2 C3 C5A 118.7(7) . . ?
N1 C4 H4A 109.5 . . ?
N1 C4 H4B 109.5 . . ?
N1 C4 H4C 109.5 . . ?
H4A C4 H4B 109.5 . . ?
H4A C4 H4C 109.5 . . ?
H4B C4 H4C 109.5 . . ?
C3 C5 H5 109.4 . . ?
F1 C5 C3 109.0(2) . . ?
F1 C5 H5 109.4 . . ?
F2 C5 C3 111.4(2) . . ?
F2 C5 H5 109.4 . . ?
F2 C5 F1 108.1(3) . . ?
C3 C5A H5A 105.7 . . ?
F1A C5A C3 112.5(9) . . ?
F1A C5A H5A 105.7 . . ?
F2A C5A C3 113.7(9) . . ?
F2A C5A H5A 105.7 . . ?
F2A C5A F1A 112.8(11) . . ?
N3 C6 S1 113.75(15) . . ?
N3 C6 C2 125.33(19) . . ?
C2 C6 S1 120.92(16) . . ?
S1 C7 H7 125.0 . . ?
C8 C7 S1 110.05(16) . . ?
C8 C7 H7 125.0 . . ?
N3 C8 C9 120.74(19) . . ?
C7 C8 N3 115.7(2) . . ?
C7 C8 C9 123.50(19) . . ?
O1 C9 N4 124.3(2) . . ?
O1 C9 C8 122.1(2) . . ?
N4 C9 C8 113.56(18) . . ?
C11 C10 N4 122.5(2) . . ?
C11 C10 C15 119.9(2) . . ?
C15 C10 N4 117.6(2) . . ?
C10 C11 H11 120.9 . . ?
C10 C11 C12 118.2(2) . . ?
C12 C11 H11 120.9 . . ?
C11 C12 Br1 118.4(2) . . ?
C13 C12 Br1 118.9(2) . . ?
C13 C12 C11 122.7(2) . . ?
C12 C13 H13 120.8 . . ?
C12 C13 C14 118.3(3) . . ?
C14 C13 H13 120.8 . . ?
C13 C14 H14 119.5 . . ?
C15 C14 C13 121.0(3) . . ?
C15 C14 H14 119.5 . . ?
C10 C15 H15 120.1 . . ?
C14 C15 C10 119.8(3) . . ?
C14 C15 H15 120.1 . . ?
loop_
_geom_bond_atom_site_label_1
_geom_bond_atom_site_label_2
_geom_bond_distance
_geom_bond_site_symmetry_2
_geom_bond_publ_flag
Br1 C12 1.892(3) . ?
S1 C6 1.742(2) . ?
S1 C7 1.702(2) . ?
O1 C9 1.221(3) . ?
N1 N2 1.344(3) . ?
N1 C1 1.343(3) . ?
N1 C4 1.456(3) . ?
N2 C3 1.327(3) . ?
N3 C6 1.302(3) . ?
N3 C8 1.380(3) . ?
N4 H4 0.78(3) . ?
N4 C9 1.355(3) . ?
N4 C10 1.409(3) . ?
C1 H1 0.9300 . ?
C1 C2 1.380(3) . ?
C2 C3 1.410(3) . ?
C2 C6 1.453(3) . ?
C3 C5 1.492(4) . ?
C3 C5A 1.486(10) . ?
C4 H4A 0.9600 . ?
C4 H4B 0.9600 . ?
C4 H4C 0.9600 . ?
C5 H5 0.9800 . ?
C5 F1 1.355(4) . ?
C5 F2 1.319(3) . ?
C5A H5A 0.9800 . ?
C5A F1A 1.320(8) . ?
C5A F2A 1.316(8) . ?
C7 H7 0.9300 . ?
C7 C8 1.352(3) . ?
C8 C9 1.478(3) . ?
C10 C11 1.387(3) . ?
C10 C15 1.389(3) . ?
C11 H11 0.9300 . ?
C11 C12 1.388(3) . ?
C12 C13 1.362(4) . ?
C13 H13 0.9300 . ?
C13 C14 1.379(5) . ?
C14 H14 0.9300 . ?
C14 C15 1.379(4) . ?
C15 H15 0.9300 . ?
loop_
_geom_torsion_atom_site_label_1
_geom_torsion_atom_site_label_2
_geom_torsion_atom_site_label_3
_geom_torsion_atom_site_label_4
_geom_torsion
_geom_torsion_site_symmetry_1
_geom_torsion_site_symmetry_2
_geom_torsion_site_symmetry_3
_geom_torsion_site_symmetry_4
_geom_torsion_publ_flag
Br1 C12 C13 C14 178.7(3) . . . . ?
S1 C7 C8 N3 0.1(3) . . . . ?
S1 C7 C8 C9 178.47(18) . . . . ?
N1 N2 C3 C2 -0.2(3) . . . . ?
N1 N2 C3 C5 -179.5(2) . . . . ?
N1 N2 C3 C5A 162.1(7) . . . . ?
N1 C1 C2 C3 -0.3(2) . . . . ?
N1 C1 C2 C6 179.5(2) . . . . ?
N2 N1 C1 C2 0.2(3) . . . . ?
N2 C3 C5 F1 -112.1(3) . . . . ?
N2 C3 C5 F2 7.1(4) . . . . ?
N2 C3 C5A F1A 104.8(13) . . . . ?
N2 C3 C5A F2A -25(2) . . . . ?
N3 C8 C9 O1 -178.6(2) . . . . ?
N3 C8 C9 N4 2.9(3) . . . . ?
N4 C10 C11 C12 -179.3(2) . . . . ?
N4 C10 C15 C14 179.7(3) . . . . ?
C1 N1 N2 C3 0.0(3) . . . . ?
C1 C2 C3 N2 0.3(3) . . . . ?
C1 C2 C3 C5 179.5(3) . . . . ?
C1 C2 C3 C5A -163.7(6) . . . . ?
C1 C2 C6 S1 7.1(3) . . . . ?
C1 C2 C6 N3 -173.0(2) . . . . ?
C2 C3 C5 F1 68.8(4) . . . . ?
C2 C3 C5 F2 -172.1(3) . . . . ?
C2 C3 C5A F1A -93.9(15) . . . . ?
C2 C3 C5A F2A 136.4(16) . . . . ?
C3 C2 C6 S1 -173.24(19) . . . . ?
C3 C2 C6 N3 6.7(4) . . . . ?
C4 N1 N2 C3 178.1(2) . . . . ?
C4 N1 C1 C2 -177.7(2) . . . . ?
C6 S1 C7 C8 0.00(19) . . . . ?
C6 N3 C8 C7 -0.2(3) . . . . ?
C6 N3 C8 C9 -178.6(2) . . . . ?
C6 C2 C3 N2 -179.5(2) . . . . ?
C6 C2 C3 C5 -0.3(4) . . . . ?
C6 C2 C3 C5A 16.6(7) . . . . ?
C7 S1 C6 N3 -0.10(18) . . . . ?
C7 S1 C6 C2 179.81(19) . . . . ?
C7 C8 C9 O1 3.1(4) . . . . ?
C7 C8 C9 N4 -175.4(2) . . . . ?
C8 N3 C6 S1 0.2(2) . . . . ?
C8 N3 C6 C2 -179.7(2) . . . . ?
C9 N4 C10 C11 16.7(4) . . . . ?
C9 N4 C10 C15 -163.2(2) . . . . ?
C10 N4 C9 O1 -6.1(4) . . . . ?
C10 N4 C9 C8 172.3(2) . . . . ?
C10 C11 C12 Br1 -179.50(17) . . . . ?
C10 C11 C12 C13 -0.2(4) . . . . ?
C11 C10 C15 C14 -0.2(4) . . . . ?
C11 C12 C13 C14 -0.6(5) . . . . ?
C12 C13 C14 C15 1.0(5) . . . . ?
C13 C14 C15 C10 -0.6(5) . . . . ?
C15 C10 C11 C12 0.6(4) . . . . ?
