#------------------------------------------------------------------------------
#$Date: 2020-06-26 04:24:15 +0300 (Fri, 26 Jun 2020) $
#$Revision: 253462 $
#$URL: file:///home/coder/svn-repositories/cod/cif/1/55/84/1558421.cif $
#------------------------------------------------------------------------------
#
# This file is available in the Crystallography Open Database (COD),
# http://www.crystallography.net/
#
# All data on this site have been placed in the public domain by the
# contributors.
#
data_1558421
loop_
_publ_author_name
'Gini, Andrea'
'Paraja, Miguel'
'Galm\'es, Bartomeu'
'Besnard, Celine'
'Poblador-Bahamonde, Amalia I.'
'Sakai, Naomi'
'Frontera, Antonio'
'Matile, Stefan'
_publ_section_title
;
 Pnictogen-bonding catalysis: brevetoxin-type polyether cyclizations
;
_journal_name_full               'Chemical Science'
_journal_paper_doi               10.1039/D0SC02551H
_journal_year                    2020
_chemical_formula_moiety         'C18 H6 F9 Sb'
_chemical_formula_sum            'C18 H6 F9 Sb'
_chemical_formula_weight         514.98
_space_group_crystal_system      triclinic
_space_group_IT_number           2
_space_group_name_Hall           '-P 1'
_space_group_name_H-M_alt        'P -1'
_atom_sites_solution_hydrogens   geom
_atom_sites_solution_primary     dual
_audit_creation_date             2020-02-24
_audit_creation_method
;
Olex2 1.3
(compiled Nov 21 2019 18:26:39 for OlexSys, GUI svn.r6003)
;
_audit_update_record
;
2020-04-26 deposited with the CCDC.	2020-06-17 downloaded from the CCDC.
;
_cell_angle_alpha                102.271(2)
_cell_angle_beta                 90.684(2)
_cell_angle_gamma                100.761(2)
_cell_formula_units_Z            2
_cell_length_a                   4.65720(10)
_cell_length_b                   11.8323(3)
_cell_length_c                   15.3860(3)
_cell_measurement_reflns_used    14511
_cell_measurement_temperature    150.00(10)
_cell_measurement_theta_max      73.6470
_cell_measurement_theta_min      2.8850
_cell_volume                     812.73(3)
_computing_cell_refinement       'CrysAlisPro 1.171.41.53a (Rigaku OD, 2020)'
_computing_data_collection       'CrysAlisPro 1.171.41.53a (Rigaku OD, 2020)'
_computing_data_reduction        'CrysAlisPro 1.171.41.53a (Rigaku OD, 2020)'
_computing_molecular_graphics    'Olex2 1.3 (Dolomanov et al., 2009)'
_computing_publication_material  'Olex2 1.3 (Dolomanov et al., 2009)'
_computing_structure_refinement  'SHELXL 2018/3 (Sheldrick, 2015)'
_computing_structure_solution    'SHELXT  (Sheldrick, 2015)'
_diffrn_ambient_environment      N~2~
_diffrn_ambient_temperature      150.00(10)
_diffrn_detector                 'Hybrid Pixel Array Detector'
_diffrn_detector_area_resol_mean 10.0000
_diffrn_detector_type            HyPix-Arc
_diffrn_measured_fraction_theta_full 0.988
_diffrn_measured_fraction_theta_max 0.947
_diffrn_measurement_details
;
List of Runs (angles in degrees, time in seconds):

  # Type    Start    End  Width  t~exp~   \w     \q     \k     \f   Frames
#--------------------------------------------------------------------------
  1  \w    -15.00  10.00   0.50    1.50    --   -4.00 102.00-132.55   50
  2  \w      1.00  26.00   0.50    1.50    --    8.00  97.00 -91.76   50
  3  \w     21.00  46.00   0.50    1.50    --   12.00  71.00 -18.81   50
  4  \w     16.00  41.00   0.50    1.50    --   16.00  86.00  41.89   50
  5  \w     12.00  37.00   0.50    1.50    --   16.00  92.00 136.61   50
  6  \w     16.00  41.00   0.50    1.50    --   16.00  86.00  78.05   50
  7  \w     24.00  49.00   0.50    1.50    --   20.00  80.00   7.02   50
  8  \w     24.00  49.00   0.50    1.50    --   20.00  80.00 153.84   50
  9  \w     17.00  43.00   0.50    1.50    --   20.00  90.00-173.27   52
 10  \w    -59.00 -34.00   0.50    1.50    --  -24.00 -72.00  97.85   50
 11  \w    -39.00 -12.00   0.50    1.50    --  -28.00 120.00  -1.74   54
 12  \w     39.00  64.00   0.50    1.50    --   28.00  63.00 -92.96   50
 13  \w     38.00  63.00   0.50    1.50    --   28.00  67.00   7.52   50
 14  \w    -58.00 -33.00   0.50    1.50    --  -28.00 -78.00 -67.97   50
 15  \w     40.00  65.00   0.50    1.50    --   28.00  60.00 164.32   50
 16  \w     37.00  62.00   0.50    1.50    --   32.00  77.00 -43.73   50
 17  \w     36.00  61.00   0.50    1.50    --   32.00  79.00 156.86   50
 18  \w     36.00  61.00   0.50    1.50    --   32.00  80.00 -99.86   50
 19  \w     48.00  73.00   0.50    1.50    --   36.00  58.00-123.47   50
 20  \w     50.00  76.00   0.50    1.50    --   36.00  56.00  32.31   52
 21  \w     44.00  69.00   0.50    1.50    --   40.00  80.00 -61.11   50
 22  \w     48.00  73.00   0.50    1.50    --   40.00  72.00-176.01   50
 23  \w     57.00  82.00   0.50    1.50    --   44.00  58.00 -71.92   50
 24  \w     56.00  81.00   0.50    1.50    --   44.00  58.00   4.95   50
 25  \w     48.00  73.00   0.50    1.50    --   44.00  80.00 149.19   50
 26  \w     48.00  73.00   0.50    1.50    --   44.00  79.00 -50.10   50
 27  \w     60.00  85.00   0.50    1.50    --   48.00  59.00-111.56   50
 28  \w     58.00  83.00   0.50    1.50    --   48.00  70.00  72.37   50
 29  \w     52.00  77.00   0.50    1.50    --   48.00  80.00  48.93   50
 30  \w     60.00  85.00   0.50    1.50    --   48.00  57.00-119.90   50
 31  \w     60.00  85.00   0.50    1.50    --   48.00  60.00 -97.64   50
 32  \w     56.00  81.00   0.50    1.50    --   48.00  72.00  44.45   50
 33  \w     58.00  83.00   0.50    1.50    --   48.00  70.00  96.19   50
 34  \w     64.00  89.00   0.50    1.50    --   52.00  61.00 -15.98   50
 35  \w     63.00  88.00   0.50    1.50    --   52.00  63.00  91.42   50
 36  \w    -65.00 -16.00   0.50    1.50    --  -52.73 125.00-120.00   98
 37  \w     66.00  91.00   0.50    1.50    --   56.00  70.00 -39.92   50
 38  \w    -90.00 -64.00   0.50    1.50    --  -56.00 -72.00  10.17   52
 39  \w    -98.00 -73.00   0.50    1.50    --  -60.50 -66.00-121.30   50
 40  \w    -96.00 -71.00   0.50    1.50    --  -60.50 -68.00  25.20   50
 41  \f    269.00 353.00   0.50    1.50 -62.75 -60.50  20.00    --   168
 42  \w    -93.00 -68.00   0.50    1.50    --  -60.50 -75.00 -37.72   50
 43  \w    -99.00 -44.00   0.50    1.50    --  -60.50 148.00 -84.05  110
 44  \w    -90.00 -65.00   0.50    1.50    --  -60.50 -79.00-150.76   50
 45  \w   -100.00 -75.00   0.50    1.50    --  -60.50 -59.00  30.97   50
 46  \w    -97.00 -71.00   0.50    1.50    --  -60.50 -65.00 175.65   52
 47  \f     95.00 120.00   0.50    1.50 -78.31 -60.50 -60.00    --    50
 48  \f     25.00  57.00   0.50    1.50 -78.31 -60.50 -60.00    --    64
 49  \f    248.00 282.00   0.50    1.50 -78.31 -60.50 -60.00    --    68
 50  \f    310.00 343.00   0.50    1.50 -78.31 -60.50 -60.00    --    66
 51  \w    -94.00 -69.00   0.50    1.50    --  -60.50 -71.00   9.38   50
 52  \w    -90.00 -65.00   0.50    1.50    --  -60.50 -79.00  92.21   50
 53  \w    -96.00 -70.00   0.50    1.50    --  -60.50 -68.00-140.91   52
 54  \w    -99.00 -73.00   0.50    1.50    --  -60.50 -58.00 122.16   52
 55  \w     35.00  92.00   0.50    1.50    --   67.40-125.00 -30.00  114
 56  \w     38.00 102.00   0.50    1.50    --   67.40  15.00 -90.00  128
 57  \w     35.00  79.00   0.50    1.50    --   67.40-125.00 150.00   88
 58  \w     56.00  85.00   0.50    1.50    --   67.40-125.00  60.00   58
 59  \w     65.00  92.00   0.50    1.50    --   67.40-125.00 -90.00   54
 60  \w     37.00  63.00   0.50    1.50    --   67.40-125.00 -90.00   52
 61  \w     80.00 107.00   0.50    1.50    --   67.40  15.00 150.00   54
 62  \w     41.00  76.00   0.50    1.50    --   67.40  15.00 150.00   70
 63  \w     58.00  84.00   0.50    1.50    --   67.40-125.00 -60.00   52
 64  \w     40.00  91.00   0.50    1.50    --   67.40-125.00-150.00  102
 65  \w     75.00 101.00   0.50    1.50    --   68.00  75.00  96.59   52
 66  \w     75.00 101.00   0.50    1.50    --   68.00  76.00 162.89   52
 67  \w     75.00 100.00   0.50    1.50    --   68.00  75.00 -58.32   50
 68  \w     75.00 102.00   0.50    1.50    --   68.00  74.00   9.51   54
 69  \w     35.00  63.00   0.50    1.50    --   69.81-125.00  90.00   56
 70  \w     41.00  94.00   0.50    1.50    --   69.81   0.00   0.00  106
 71  \w     35.00  78.00   0.50    1.50    --   69.81   0.00 240.00   86
 72  \w     35.00  93.00   0.50    1.50    --   69.81   0.00  60.00  116
 73  \w     71.00  96.00   0.50    1.50    --   69.81-125.00  30.00   50
 74  \w     36.00  69.00   0.50    1.50    --   69.81-125.00   0.00   66
 75  \w     42.00  96.00   0.50    1.50    --   69.81   0.00 300.00  108
 76  \w     71.00  96.00   0.50    1.50    --   69.81-125.00  90.00   50
 77  \f    186.00 217.00   0.50    1.50  91.14  73.33  60.00    --    62
 78  \f    125.00 163.00   0.50    1.50  91.14  73.33  60.00    --    76
 79  \f    333.00 360.00   0.50    1.50  91.14  73.33  60.00    --    54
 80  \f    247.00 300.00   0.50    1.50  91.14  73.33  60.00    --   106
 81  \f    164.00 239.00   0.50    1.50  54.95  73.33   0.00    --   150
 82  \f    123.00 160.00   0.50    1.50  54.95  73.33   0.00    --    74
 83  \w     37.00  95.00   0.50    1.50    --   75.25-116.00-137.48  116
 84  \f     93.00 120.00   0.50    1.50  56.87  75.25   0.00    --    54
 85  \f      2.00  84.00   0.50    1.50  56.87  75.25   0.00    --   164
 86  \f     34.00  84.00   0.50    1.50  93.06  75.25  60.00    --   100
 87  \w     39.00  90.00   0.50    1.50    --   75.25-106.00 102.47  102
 88  \w     36.00  98.00   0.50    1.50    --   75.25-118.00 163.42  124
 89  \f    325.00 353.00   0.50    1.50  77.50  75.25 -20.00    --    56
 90  \f    242.00 293.00   0.50    1.50  77.50  75.25 -20.00    --   102
 91  \w     38.00  89.00   0.50    1.50    --   75.25-105.00 -91.23  102
;
_diffrn_measurement_device       'four-circle diffractometer'
_diffrn_measurement_device_type  'XtaLAB Synergy, Dualflex, HyPix-Arc'
_diffrn_measurement_method       '\w and \f scans'
_diffrn_orient_matrix_type
'CrysAlisPro convention (1999,Acta A55,543-557)'
_diffrn_orient_matrix_UB_11      -0.0391250000
_diffrn_orient_matrix_UB_12      0.0310470000
_diffrn_orient_matrix_UB_13      0.1010263000
_diffrn_orient_matrix_UB_21      -0.0328463000
_diffrn_orient_matrix_UB_22      0.1251716000
_diffrn_orient_matrix_UB_23      -0.0064347000
_diffrn_orient_matrix_UB_31      -0.3333120000
_diffrn_orient_matrix_UB_32      -0.0425937000
_diffrn_orient_matrix_UB_33      -0.0168076000
_diffrn_radiation_monochromator  mirror
_diffrn_radiation_probe          x-ray
_diffrn_radiation_type           'Cu K\a'
_diffrn_radiation_wavelength     1.54184
_diffrn_reflns_av_R_equivalents  0.0525
_diffrn_reflns_av_unetI/netI     0.0260
_diffrn_reflns_Laue_measured_fraction_full 0.988
_diffrn_reflns_Laue_measured_fraction_max 0.947
_diffrn_reflns_limit_h_max       5
_diffrn_reflns_limit_h_min       -5
_diffrn_reflns_limit_k_max       14
_diffrn_reflns_limit_k_min       -14
_diffrn_reflns_limit_l_max       18
_diffrn_reflns_limit_l_min       -18
_diffrn_reflns_number            19583
_diffrn_reflns_point_group_measured_fraction_full 0.988
_diffrn_reflns_point_group_measured_fraction_max 0.947
_diffrn_reflns_theta_full        67.684
_diffrn_reflns_theta_max         74.074
_diffrn_reflns_theta_min         2.943
_diffrn_source                   'micro-focus sealed X-ray tube'
_diffrn_source_type              'PhotonJet (Cu) X-ray Source'
_exptl_absorpt_coefficient_mu    14.421
_exptl_absorpt_correction_T_max  0.825
_exptl_absorpt_correction_T_min  0.155
_exptl_absorpt_correction_type   analytical
_exptl_absorpt_process_details
;
CrysAlisPro 1.171.41.53a (Rigaku Oxford Diffraction, 2020)
Analytical numeric absorption correction using a multifaceted crystal
			model based on expressions derived by R.C. Clark & J.S. Reid.
(Clark, R. C. & Reid, J. S. (1995). Acta Cryst. A51, 887-897)
Empirical absorption correction using spherical harmonics,
 implemented in SCALE3 ABSPACK scaling algorithm.
;
_exptl_crystal_colour            colourless
_exptl_crystal_colour_primary    colourless
_exptl_crystal_density_diffrn    2.104
_exptl_crystal_description       needle
_exptl_crystal_F_000             492
_exptl_crystal_size_max          0.536
_exptl_crystal_size_mid          0.023
_exptl_crystal_size_min          0.015
_refine_diff_density_max         0.741
_refine_diff_density_min         -1.221
_refine_diff_density_rms         0.105
_refine_ls_extinction_method     none
_refine_ls_goodness_of_fit_ref   1.184
_refine_ls_hydrogen_treatment    constr
_refine_ls_matrix_type           full
_refine_ls_number_parameters     253
_refine_ls_number_reflns         3122
_refine_ls_number_restraints     0
_refine_ls_restrained_S_all      1.184
_refine_ls_R_factor_all          0.0325
_refine_ls_R_factor_gt           0.0308
_refine_ls_shift/su_max          0.001
_refine_ls_shift/su_mean         0.000
_refine_ls_structure_factor_coef Fsqd
_refine_ls_weighting_details
'w=1/[\s^2^(Fo^2^)+(0.0580P)^2^] where P=(Fo^2^+2Fc^2^)/3'
_refine_ls_weighting_scheme      calc
_refine_ls_wR_factor_gt          0.0851
_refine_ls_wR_factor_ref         0.0857
_reflns_Friedel_coverage         0.000
_reflns_number_gt                2959
_reflns_number_total             3122
_reflns_threshold_expression     'I > 2\s(I)'
_cod_data_source_file            d0sc02551h2.cif
_cod_data_source_block           agn02_09
_cod_database_code               1558421
_shelx_shelxl_version_number     2018/3
_chemical_oxdiff_formula         'Sb C18 H6 F9'
_shelx_space_group_comment
;
The symmetry employed for this shelxl refinement is uniquely defined
by the following loop, which should always be used as a source of
symmetry information in preference to the above space-group names.
They are only intended as comments.
;
_reflns_odcompleteness_completeness 98.83
_reflns_odcompleteness_iscentric 1
_reflns_odcompleteness_theta     66.97
_olex2_refinement_description
;
1. Fixed Uiso
 At 1.2 times of:
  All C(H) groups
2.a Aromatic/amide H refined with riding coordinates:
 C3(H3), C6(H6), C9(H9), C12(H12), C15(H15), C18(H18)
;
_shelx_res_file
;
TITL agn02_09_a.res in P-1
    agn02_09.res
    created by SHELXL-2018/3 at 16:33:23 on 24-Feb-2020
REM Old TITL agn02_09 in P1
REM SHELXT solution in P-1
REM R1 0.062, Rweak 0.013, Alpha 0.063, Orientation as input
REM Formula found by SHELXT: C4 F4 Sb
CELL 1.54184 4.6572 11.8323 15.386 102.271 90.684 100.761
ZERR 2 0.0001 0.0003 0.0003 0.002 0.002 0.002
LATT 1
SFAC C H F Sb
UNIT 36 12 18 2

L.S. 4
PLAN  5
TEMP -123
CONF
MORE -1
BOND $H
fmap 2
acta
REM <olex2.extras>
REM <HklSrc "%.\\agn02_09.hkl">
REM </olex2.extras>

WGHT    0.058000
FVAR       3.41470
SB1   4    0.275315    0.340087    0.724275    11.00000    0.02741    0.02302 =
         0.02515    0.00333   -0.00019    0.00402
F2    3    0.416140    0.584917    0.676042    11.00000    0.05392    0.03268 =
         0.04117    0.01167   -0.01316    0.00944
F4    3    1.173671    0.805914    0.881671    11.00000    0.05867    0.02832 =
         0.06755    0.00079   -0.01367   -0.00779
F5    3    1.181023    0.617552    0.952773    11.00000    0.04455    0.03952 =
         0.03703   -0.00180   -0.01044    0.00302
F8    3    0.103076    0.116433    0.576391    11.00000    0.04247    0.03011 =
         0.03557    0.00075    0.00566   -0.01032
F10   3    0.739371    0.168279    0.347139    11.00000    0.05918    0.04371 =
         0.02977   -0.00182    0.01471    0.00451
F11   3    1.020265    0.373706    0.447951    11.00000    0.03919    0.03767 =
         0.03803    0.01397    0.00867   -0.00038
F14   3    0.235173    0.299781    0.917667    11.00000    0.05291    0.04478 =
         0.03177    0.00552    0.00858    0.01612
F16   3    0.736461   -0.010046    0.919772    11.00000    0.06231    0.04208 =
         0.04913    0.02687   -0.00240    0.01025
F17   3    0.859929   -0.017437    0.749338    11.00000    0.05064    0.02817 =
         0.04730    0.00745    0.00242    0.01464
C1    1    0.605277    0.493633    0.778933    11.00000    0.02789    0.02006 =
         0.02439    0.00093    0.00135    0.00472
C2    1    0.607908    0.592673    0.745691    11.00000    0.03632    0.02570 =
         0.03225    0.00406   -0.00075    0.00831
C3    1    0.793284    0.699508    0.777667    11.00000    0.04854    0.02277 =
         0.04519    0.00821    0.00071    0.00318
AFIX  43
H3    2    0.790113    0.765793    0.752270    11.00000   -1.20000
AFIX   0
C4    1    0.982645    0.704875    0.848187    11.00000    0.04106    0.02138 =
         0.04299   -0.00167    0.00237   -0.00061
C5    1    0.987447    0.608091    0.884696    11.00000    0.03266    0.03122 =
         0.02774   -0.00477   -0.00146    0.00752
C6    1    0.798529    0.502930    0.851339    11.00000    0.03692    0.02273 =
         0.02625    0.00326    0.00232    0.00583
AFIX  43
H6    2    0.799605    0.437073    0.877415    11.00000   -1.20000
AFIX   0
C7    1    0.468699    0.288324    0.599087    11.00000    0.02667    0.02336 =
         0.02138    0.00425    0.00168    0.00367
C8    1    0.333526    0.182004    0.544282    11.00000    0.03485    0.02569 =
         0.02657    0.00533    0.00100   -0.00266
C9    1    0.413012    0.139059    0.460230    11.00000    0.03846    0.02678 =
         0.03105   -0.00075   -0.00030    0.00313
AFIX  43
H9    2    0.310986    0.066446    0.424883    11.00000   -1.20000
AFIX   0
C10   1    0.646604    0.205494    0.429231    11.00000    0.04205    0.02992 =
         0.02562    0.00368    0.00331    0.01100
C11   1    0.789174    0.311594    0.480552    11.00000    0.03096    0.02935 =
         0.02927    0.01121    0.00254    0.00460
C12   1    0.700497    0.354354    0.564674    11.00000    0.03034    0.02343 =
         0.02712    0.00648   -0.00421    0.00253
AFIX  43
H12   2    0.797768    0.428615    0.598796    11.00000   -1.20000
AFIX   0
C13   1    0.453135    0.221149    0.788044    11.00000    0.02494    0.01902 =
         0.02657    0.00417   -0.00224   -0.00148
C14   1    0.390548    0.219959    0.874703    11.00000    0.03095    0.02727 =
         0.02723    0.00587    0.00105    0.00164
C15   1    0.478227    0.144131    0.921843    11.00000    0.04420    0.03895 =
         0.02664    0.01240    0.00176   -0.00107
AFIX  43
H15   2    0.430596    0.146485    0.981985    11.00000   -1.20000
AFIX   0
C16   1    0.637004    0.065367    0.877930    11.00000    0.03945    0.02764 =
         0.03603    0.01598   -0.00672   -0.00243
C17   1    0.701108    0.061932    0.790245    11.00000    0.03196    0.02155 =
         0.03511    0.00442    0.00065    0.00249
C18   1    0.611259    0.138131    0.744909    11.00000    0.02955    0.02149 =
         0.02793    0.00474    0.00054    0.00268
AFIX  43
H18   2    0.656219    0.134560    0.684439    11.00000   -1.20000
AFIX   0
HKLF 4




REM  agn02_09_a.res in P-1
REM wR2 = 0.0857, GooF = S = 1.184, Restrained GooF = 1.184 for all data
REM R1 = 0.0308 for 2959 Fo > 4sig(Fo) and 0.0325 for all 3122 data
REM 253 parameters refined using 0 restraints

END

WGHT      0.0580      0.0000

REM Highest difference peak  0.741,  deepest hole -1.221,  1-sigma level  0.105
Q1    1   0.1257  0.3306  0.6731  11.00000  0.05    0.74
Q2    1   0.1064  0.3055  0.7606  11.00000  0.05    0.69
Q3    1   0.4055  0.3565  0.7802  11.00000  0.05    0.69
Q4    1   0.0073  0.3614  0.7233  11.00000  0.05    0.68
Q5    1  -0.0661  0.3027  0.7024  11.00000  0.05    0.66
;
_shelx_res_checksum              71556
_shelx_hkl_file
;
   0   0  -1 2100.05 68.8524  15
   0   0  -1 1640.94 60.0410   9
   0   0   1 2053.13 67.4589  13
   0   0   1 1837.38 65.2947   7
   0   0  -1 1711.68 78.7937  17
   0   0   1 2037.14 71.7223  53
   0   0  -1 2010.26 66.0029  45
   0   0  -1 1905.48 71.5499  38
   0   0   1 1930.65 76.5806  37
   0   0   1 1948.80 74.4508  34
   0   0  -1 1984.64 67.6548  41
   0   0  -1 1735.13 63.3361  40
   0   0   1 1942.94 69.1018  39
   0   0   1 2367.24 60.9397  65
   0   0  -1 1620.40 61.9252  65
   0   0  -1 1465.68 77.0373  25
   0   0   2 82016.8 1417.52  78
   0   0  -2 59539.7 1416.94  45
   0   0   2 73377.1 1444.25  53
   0   0  -2 67533.5 1421.62  51
   0   0   2 65069.3 1429.83  37
   0   0  -2 58735.9 1409.75  40
   0   0  -2 73072.7 1438.37  41
   0   0   2 74480.3 1434.95  39
   0   0  -2 66893.4 1416.74  38
   0   0  -2 64313.3 1437.97  39
   0   0  -2 74250.6 1436.15  24
   0   0  -2 66092.4 1426.78   8
   0   0  -2 59490.6 1419.46  17
   0   0  -2 71156.4 1431.18  13
   0   0   2 82213.8 1416.63   9
   0   0  -2 63907.0 1416.92  15
   0   0   2 72447.4 1425.67  13
   0   0  -2 68990.4 1391.32   4
   0   0  -3 3816.23 196.529  15
   0   0  -3 3737.00 119.981   4
   0   0  -3 4692.82 214.718   8
   0   0  -3 3684.98 236.726  17
   0   0   3 4352.26 169.728  13
   0   0   3 4020.13 160.292   7
   0   0   3 5031.11 158.257   9
   0   0  -3 4402.48 183.762  13
   0   0   3 4053.58 107.612  55
   0   0   3 4514.20 182.565  53
   0   0   3 4528.58 186.517  44
   0   0  -3 4332.98 211.111  51
   0   0  -3 3609.62 184.673  45
   0   0   3 5071.99 155.998  78
   0   0  -3 3615.00 186.233  40
   0   0  -3 4272.74 205.013  38
   0   0  -3 4065.46 175.793  41
   0   0  -3 3937.40 210.416  67
   0   0   3 4228.08 195.930  26
   0   0   4 24986.1 561.966   1
   0   0   4 27445.8 629.123   7
   0   0  -4 28752.2 637.489   8
   0   0  -4 24957.0 648.751  17
   0   0  -4 25752.6 645.135  15
   0   0   4 23844.7 591.622   9
   0   0   4 27683.1 662.475  53
   0   0   4 25400.0 536.303  55
   0   0   4 29997.0 678.092  44
   0   0  -4 27211.5 638.692  51
   0   0   4 30084.7 618.808  78
   0   0   4 26886.4 644.994  81
   0   0  -4 26951.6 631.172  38
   0   0  -4 24878.2 630.115  40
   0   0  -4 25194.5 661.809  41
   0   0   4 27050.4 640.737  71
   0   0  -4 24056.7 556.021  57
   0   0   4 25778.8 652.431  26
   0   0   4 28255.9 612.256  22
   0   0  -4 25998.3 660.414  24
   0   0   5 79903.1 1618.25  25
   0   0  -5 67228.1 1572.11  33
   0   0  -5 79113.5 1683.72  24
   0   0   5 81974.9 1617.33  22
   0   0   5 71406.1 1556.12   1
   0   0  -5 80085.0 1626.36   8
   0   0  -5 78924.1 1658.68  15
   0   0   5 78013.0 1644.30   7
   0   0  -5 78097.8 1627.10   5
   0   0  -5 73393.8 1702.79  85
   0   0   5 78843.7 1671.75  81
   0   0   5 85191.8 1630.48  78
   0   0  -5 77048.8 1635.44  79
   0   0  -5 75253.0 1698.95  41
   0   0  -5 77818.5 1687.67  34
   0   0  -5 74444.2 1635.55  40
   0   0  -5 74508.3 1708.74  72
   0   0   5 77561.4 1660.92  71
   0   0  -5 69159.9 1542.79  57
   0   0   5 80842.3 1696.02  44
   0   0   5 79452.6 1692.53  53
   0   0  -5 81258.3 1636.94  51
   0   0   6 143388. 2861.47  16
   0   0  -6 141652. 2806.16   8
   0   0   6 122712. 2714.35   1
   0   0   6 139637. 2835.45   7
   0   0  -6 142012. 2809.94   5
   0   0  -6 132920. 2914.97  85
   0   0   6 151545. 2817.34  78
   0   0   6 141030. 2872.05  81
   0   0  -6 138936. 2819.61  79
   0   0  -6 138087. 2805.50  38
   0   0  -6 132768. 2906.93  41
   0   0  -6 134938. 2922.67  72
   0   0   6 136808. 2856.18  71
   0   0   6 134116. 2787.49  25
   0   0  -6 108126. 2728.71  33
   0   0  -6 151503. 2902.25  24
   0   0   6 150407. 2803.13  22
   0   0  -6 139976. 2847.92  20
   0   0   6 131010. 2881.88  44
   0   0  -7 40153.3 989.570   8
   0   0  -7 39310.0 979.435   5
   0   0  -7 39167.8 1099.37  85
   0   0  -7 41240.4 998.174  79
   0   0   7 40331.3 977.216  78
   0   0   7 41906.5 1048.61  81
   0   0  -7 39835.4 1093.96  41
   0   0   7 41262.3 1078.81  44
   0   0  -7 40657.8 989.669  38
   0   0  -7 41347.4 1000.43  51
   0   0   7 39911.5 1061.96  53
   0   0   7 42077.1 973.545  22
   0   0  -7 41185.3 1023.33  20
   0   0  -7 45262.7 1090.63  24
   0   0  -8 225.146 244.131  51
   0   0  -8 640.229 136.081  50
   0   0   8 489.295 162.472  44
   0   0  -8 597.716 163.789  41
   0   0  -8 570.443 106.336  42
   0   0  -8 503.787 174.272  72
   0   0   8 526.446 159.375  71
   0   0   8 434.945 121.921  22
   0   0  -8 507.415 155.616  20
   0   0  -8 550.623 163.259   5
   0   0   8 683.032 163.085   3
   0   0  -8 220.258 214.993   8
   0   0  -9 2926.69 231.866  20
   0   0   9 2929.96 208.189  22
   0   0   9 3001.82 248.795   3
   0   0  -9 2464.46 221.745   5
   0   0  -9 2963.44 284.775  85
   0   0  -9 3160.96 248.185  79
   0   0   9 2618.40 195.805  78
   0   0  -9 2836.81 276.183  41
   0   0   9 2940.33 269.054  44
   0   0  -9 2654.73 239.980  68
   0   0  -9 2961.84 281.124  72
   0   0   9 2609.40 232.517  71
   0   0   9 3453.44 246.016  66
   0   0  -9 2385.93 170.946  50
   0   0   9 3076.96 298.828  46
   0   0  10 6673.13 321.881  22
   0   0 -10 6592.55 436.875  85
   0   0  10 6100.80 309.988  78
   0   0 -10 6820.30 433.560  72
   0   0 -10 7845.99 359.264  68
   0   0  10 6346.73 365.447  71
   0   0  10 6407.02 399.203  44
   0   0 -10 7108.24 440.046  41
   0   0  10 7059.36 364.529  66
   0   0  10 7478.82 442.622  46
   0   0 -10 4812.13 234.816  50
   0   0 -11 19150.0 817.982  85
   0   0 -11 19284.1 805.557  41
   0   0  11 19637.4 729.122  71
   0   0 -11 18979.3 810.475  72
   0   0  11 19763.1 705.286  66
   0   0  11 20352.6 797.798  46
   0   0  12 1481.38 236.287  90
   0   0 -12 1284.92 272.714  85
   0   0  12 1235.83 233.503  71
   0   0 -12 1156.07 260.428  72
   0   0 -12 1150.41 257.796  41
   0   0  12 1201.53 218.348  66
   0   0  12 1561.64 294.533  46
   0   0  13 15448.8 668.902  90
   0   0 -13 15284.5 771.603  85
   0   0 -13 14533.0 745.191  72
   0   0  13 15804.8 695.138  71
   0   0 -13 14834.7 750.206  41
   0   0  13 14709.6 648.041  66
   0   0  13 16484.7 761.891  46
   0   0  14 8747.31 500.001  90
   0   0 -14 10271.3 628.095  85
   0   0 -14 8707.90 575.203  41
   0   0  14 10163.7 545.313  71
   0   0 -14 9053.07 572.864  72
   0   0  14 10339.5 608.543  46
   0   0  14 8568.16 492.082  66
   0   0 -15 9206.15 569.099  72
   0   0  15 10319.3 537.868  71
   0   0  15 8861.37 495.525  66
   0   0  16 8013.58 444.227  56
   0   0 -16 7657.79 483.185  72
   0   0  17 2868.87 258.236  56
   0   0 -17 2354.49 266.563  72
   0   0  18 5567.78 287.352  56
   0   0 -18 5131.21 299.835  84
   0  -1  18 3716.06 252.389  56
   0   1 -18 3369.21 262.732  72
   0  -1  17 8147.12 418.620  56
   0   1 -17 7689.37 447.456  72
   0  -1  16 517.191 188.945  71
   0   1 -16 431.129 189.979  72
   0  -1  16 327.002 158.858  90
   0   1 -16 516.734 213.626  85
   0  -1  15 13054.1 606.163  66
   0   1 -15 14404.8 723.984  85
   0  -1  14 1799.35 262.649  71
   0   1 -14 1294.45 271.341  72
   0   1 -14 1408.02 296.669  85
   0  -1  14 1048.93 225.359  66
   0  -1  14 1581.14 248.345  90
   0   1 -13 11972.5 669.712  85
   0  -1  13 11818.1 581.266  71
   0   1 -13 11615.2 649.064  72
   0  -1  13 10897.6 543.063  66
   0  -1  13 11911.3 645.436  46
   0   1 -12 3434.36 361.070  85
   0   1 -12 3215.82 354.808  41
   0   1 -12 2966.40 345.526  72
   0  -1  12 3309.94 312.358  71
   0  -1  12 3631.63 316.473  66
   0  -1  12 3872.85 389.229  46
   0  -1  11 5862.53 319.088  22
   0   1 -11 6149.65 444.575  85
   0  -1  11 6446.62 391.117  81
   0  -1  11 6204.31 316.600  78
   0   1 -11 5593.99 417.626  41
   0   1 -11 5940.97 423.640  72
   0  -1  11 6638.94 388.383  71
   0  -1  11 6687.48 387.248  66
   0  -1  11 6640.07 448.307  46
   0  -1  10 37393.2 939.123  22
   0  -1  10 38617.3 1052.90   3
   0   1 -10 38669.4 1157.59  85
   0  -1  10 36588.8 1057.84  81
   0   1 -10 39679.9 968.936  79
   0  -1  10 35246.0 942.119  78
   0   1 -10 36144.5 1131.70  41
   0  -1  10 35789.0 1037.52  71
   0   1 -10 35292.7 1132.03  72
   0  -1  10 40518.1 1042.71  66
   0  -1  10 40205.3 1133.66  46
   0  -1   9 45819.6 1182.91   3
   0   1  -9 44085.0 1124.01   5
   0   1  -9 49679.6 1314.40  85
   0  -1   9 45526.0 1201.27  81
   0   1  -9 49689.5 1147.54  79
   0  -1   9 40980.1 1085.15  78
   0   1  -9 48207.3 1301.29  72
   0  -1   9 45694.3 1184.21  71
   0   1  -9 44719.3 1092.24  42
   0   1  -9 45203.2 1264.15  41
   0   1  -9 52135.1 1257.48  24
   0   1  -9 42604.5 1147.48  20
   0  -1   9 44321.6 1082.21  22
   0   1  -9 40287.2 1049.90  50
   0  -1   9 45832.9 1252.93  46
   0  -1   8 44442.3 1155.73  46
   0   1  -8 36958.6 981.460  50
   0   1  -8 41336.6 1146.76  41
   0   1  -8 46260.1 1168.49  34
   0  -1   8 40382.4 1080.82  71
   0   1  -8 42535.3 1178.71  72
   0  -1   8 42337.4 999.298  22
   0   1  -8 47726.1 1154.92  24
   0   1  -8 41771.7 1064.96  20
   0   1  -8 42556.1 1039.73   5
   0  -1   8 42623.3 1082.87   3
   0   1  -7 2088.87 200.047   5
   0  -1   7 2181.30 192.513   3
   0  -1   7 1468.56 80.6887   1
   0   1  -7 1630.15 119.348  14
   0   1  -7 1472.12 229.787   8
   0   1  -7 2043.95 222.386  85
   0  -1   7 2090.45 191.549  81
   0  -1   7 2110.01 157.959  78
   0  -1   7 1910.05 199.345  44
   0   1  -7 2074.26 307.827  34
   0   1  -7 1741.31 204.329  41
   0   1  -7 1798.30 168.625  50
   0   1  -7 1683.87 247.573  51
   0  -1   7 2181.09 244.423  46
   0   1  -7 1824.90 240.775  24
   0  -1   7 2041.67 154.574  22
   0  -1   7 1495.52 196.536  25
   0   1  -6 9951.48 333.536   5
   0   1  -6 9939.26 344.525   8
   0  -1   6 10384.1 358.918   3
   0   1  -6 8224.70 244.336   4
   0  -1   6 10223.2 378.235  16
   0   1  -6 10741.1 373.640  13
   0   1  -6 11051.5 417.787  85
   0  -1   6 11198.4 373.102  81
   0  -1   6 11623.4 333.418  78
   0   1  -6 10934.4 427.714  37
   0   1  -6 9805.93 351.006  38
   0   1  -6 10648.6 415.189  34
   0   1  -6 11399.7 415.974  70
   0   1  -6 11206.8 429.858  67
   0  -1   6 10605.8 310.725  22
   0  -1   6 10606.3 340.471  25
   0   1  -6 11017.8 401.940  24
   0  -1   5 15492.2 460.511  21
   0   1  -5 14328.8 396.319  33
   0   1  -5 15759.3 470.880  24
   0  -1   5 17227.2 440.340  25
   0  -1   5 13914.7 383.739   9
   0   1  -5 16089.4 460.152  13
   0   1  -5 16700.0 432.147   8
   0  -1   5 16079.6 456.777   3
   0  -1   5 16853.2 472.400  16
   0   1  -5 16388.7 434.399   5
   0   1  -5 15965.8 502.067  85
   0  -1   5 16131.3 420.644  78
   0  -1   5 15854.0 459.485  81
   0  -1   5 16648.5 483.521  44
   0   1  -5 15829.3 483.553  41
   0   1  -5 15924.7 489.044  34
   0   1  -5 17313.2 501.731  70
   0  -1   5 17462.6 469.956  61
   0   1  -5 16430.9 495.361  67
   0   1  -5 15603.3 442.341  51
   0  -1   5 17216.6 505.822  46
   0  -1   4 70093.7 1356.74  15
   0  -1   4 61849.7 1374.62   3
   0  -1   4 62735.6 1383.29  16
   0  -1   4 70405.3 1350.19  17
   0   1  -4 62021.6 1372.44  13
   0  -1   4 66920.5 1321.86   9
   0   1  -4 59956.5 1364.11   7
   0   1  -4 63725.4 1348.69   8
   0  -1   4 67808.7 1422.18  46
   0   1  -4 64109.0 1363.25  51
   0   1  -4 51125.4 1331.01  35
   0   1  -4 65390.4 1410.89  41
   0  -1   4 63625.2 1401.14  44
   0   1  -4 63639.7 1359.13  38
   0  -1   4 69020.6 1368.34  65
   0  -1   4 59670.9 1379.10  21
   0  -1   4 58255.7 1379.77  26
   0  -1   4 69872.8 1368.12  25
   0   1  -4 62421.4 1338.73  33
   0   1  -3 13530.4 334.150  33
   0  -1   3 12700.4 352.799  23
   0  -1   3 11872.8 361.572  26
   0  -1   3 12882.5 361.856  21
   0   1  -3 13470.0 293.635  87
   0  -1   3 15854.8 366.353  17
   0   1  -3 13157.1 335.248   7
   0  -1   3 14287.6 353.212  15
   0   1  -3 14239.7 346.891   8
   0  -1   3 12536.6 363.121  16
   0  -1   3 14505.6 315.135   9
   0  -1   3 13139.2 365.308  44
   0   1  -3 13732.5 358.211  38
   0   1  -3 13976.6 372.933  41
   0   1  -3 11973.9 328.663  35
   0  -1   3 14708.9 361.744  65
   0  -1   3 13026.2 385.835  46
   0   1  -3 13971.0 358.559  51
   0  -1   2 42299.9 826.412  91
   0   1  -2 43946.9 851.125  80
   0  -1   2 39216.7 854.111   3
   0   1  -2 43200.6 859.233   3
   0  -1   2 42884.8 849.469  15
   0  -1   2 39963.3 863.419  16
   0  -1   2 42503.8 847.827  17
   0   1  -2 44710.1 849.363  51
   0  -1   2 36963.6 883.422  46
   0  -1   2 33772.3 849.874  51
   0   1  -2 44489.2 848.532  33
   0  -1   2 33760.0 851.783  25
   0  -1   2 41377.4 866.606  23
   0  -1   2 38998.4 864.311  21
   0   1  -2 40253.6 843.677  35
   0  -1   2 30162.1 838.853  40
   0   1  -2 46021.0 877.765  41
   0  -1   2 37194.2 847.308  38
   0   1  -2 44964.1 847.107  38
   0   1  -2 39648.1 874.767  44
   0   1  -1 40039.0 815.843  14
   0  -1   1 39681.7 830.236  12
   0  -1   1 40312.2 803.332   8
   0   1  -1 40169.4 817.743  10
   0  -1   1 40933.3 818.972  10
   0   1  -1 37828.0 817.451  35
   0  -1   1 39676.9 811.039  38
   0   1  -1 40026.7 817.727  50
   0  -1   1 38332.5 811.488  51
   0  -1   1 38151.7 828.402  18
   0  -1   1 40936.0 831.819  31
   0   1  -1 40753.6 816.797  33
   0  -1   1 40087.9 826.539  27
   0   1   0 24138.8 505.787  28
   0  -1   0 24788.1 518.081  19
   0   1   0 26634.2 515.672  32
   0   1   0 27129.6 512.593  29
   0   1   0 23923.2 507.796  14
   0  -1   0 21066.1 507.345   2
   0   1   0 22108.6 507.263   2
   0   1   0 24550.7 521.804  90
   0   1   0 24745.1 510.491  77
   0   1   0 26294.5 509.629  42
   0  -1   0 21799.6 496.848  64
   0   1   0 22675.2 498.805  64
   0  -1   0 24461.7 497.149  66
   0  -1   0 26549.5 505.120  50
   0  -1   0 25951.6 517.115  52
   0  -1  -1 89903.0 1595.71   1
   0   1   1 66617.1 1560.60   6
   0  -1  -1 95228.2 1599.59   9
   0  -1  -1 78498.1 1573.71  17
   0  -1  -1 74718.7 1570.00  88
   0   1   1 81195.7 1606.67  90
   0  -1  -1 77921.5 1572.86  36
   0   1   1 78980.9 1605.40  71
   0  -1  -1 83854.5 1588.04  22
   0   1   1 82440.4 1604.70  20
   0   1   1 69670.4 1575.94  29
   0   1   1 77281.8 1589.45  32
   0  -1  -1 83758.5 1580.33  29
   0  -1  -1 90627.7 1586.01  25
   0   1   1 77311.5 1582.30  22
   0  -1  -1 86048.6 1589.70  32
   0   1   1 84935.0 1595.79  49
   0  -1  -1 66814.6 1563.10  48
   0  -1  -2 12216.4 339.897  17
   0  -1  -2 13003.3 304.188  15
   0  -1  -2 11614.1 293.047   1
   0  -1  -2 13457.5 320.383   9
   0  -1  -2 11440.4 274.887  88
   0   1   2 12964.0 332.331  90
   0  -1  -2 12326.0 331.415  85
   0   1   2 14019.5 305.266  78
   0   1   2 12138.6 340.119  34
   0  -1  -2 13184.6 301.578  40
   0   1   2 12208.3 267.883  36
   0  -1  -2 12192.9 327.623  41
   0  -1  -2 11568.0 273.431  36
   0   1   2 12149.8 320.574  71
   0  -1  -2 13025.0 319.671  68
   0  -1  -2 12048.7 328.844  72
   0  -1  -2 10051.9 334.821  25
   0  -1  -2 13145.4 328.893  20
   0   1   2 11563.7 316.263  20
   0  -1  -2 12699.4 301.934  32
   0  -1  -2 12035.1 285.748  29
   0   1   2 11159.1 292.367  25
   0   1   2 12582.1 333.352  24
   0  -1  -2 11657.2 283.839  48
   0  -1  -2 8651.75 305.041  49
   0  -1  -2 12944.5 303.962  45
   0  -1  -3 78689.3 1771.52  17
   0  -1  -3 91510.7 1771.90  15
   0  -1  -3 74157.9 1767.30   9
   0  -1  -3 86834.4 1775.87   8
   0   1   3 86358.4 1801.67  13
   0  -1  -3 84807.0 1728.39  88
   0  -1  -3 89456.6 1815.16  85
   0   1   3 97863.1 1770.87  78
   0  -1  -3 86622.0 1804.57  41
   0  -1  -3 80339.5 1755.65  38
   0   1   3 86242.6 1818.93  39
   0  -1  -3 78912.4 1754.18  40
   0   1   3 83006.6 1710.17  36
   0  -1  -3 88607.7 1814.57  72
   0  -1  -3 91628.0 1779.19  68
   0   1   3 81650.0 1783.90  71
   0  -1  -3 91191.0 1775.50  45
   0  -1  -3 83027.0 1697.51  55
   0  -1  -3 90591.8 1790.32  20
   0   1   3 78331.0 1744.89  25
   0  -1  -3 82507.8 1728.06  29
   0  -1  -3 87442.8 1757.04  32
   0   1   3 85773.8 1804.07  24
   0  -1  -4 166.515 85.3722  32
   0   1   4 203.978 123.956  24
   0  -1  -4 114.175 57.3121  29
   0   1   4 231.298 71.1838  22
   0   1   4 62.1858 105.845  25
   0  -1  -4 231.784 97.6046  20
   0  -1  -4 175.547 145.753  15
   0   1   4 168.708 110.485  13
   0   1   4 200.644 99.9061   7
   0  -1  -4 158.238 117.947   9
   0  -1  -4 316.083 196.782  17
   0  -1  -4 478.167 156.865   8
   0  -1  -4 171.838 60.9073  88
   0  -1  -4 176.604 117.897  79
   0   1   4 175.090 74.2170  78
   0  -1  -4 142.323 100.836  85
   0   1   4 89.5945 97.8731  39
   0  -1  -4 164.541 93.4795  41
   0   1   4 202.225 37.5058  36
   0  -1  -4 241.385 148.175  38
   0  -1  -4 225.368 139.168  40
   0  -1  -4 65.9204 87.8674  72
   0   1   4 142.857 98.7517  71
   0  -1  -4 98.8060 117.982  68
   0  -1  -4 143.291 128.567  45
   0   1   4 171.354 109.816  53
   0  -1  -4 334.422 158.664  51
   0  -1  -5 97100.6 2016.66   8
   0   1   5 96710.0 2071.48   7
   0  -1  -5 95708.9 2005.98   5
   0   1   5 93809.7 2068.85  13
   0  -1  -5 89201.5 2043.11  15
   0  -1  -5 103575. 2126.59  85
   0  -1  -5 95214.2 1974.14  88
   0  -1  -5 100766. 2020.00  79
   0   1   5 109919. 2035.63  78
   0   1   5 88262.1 1928.25  36
   0   1   5 94011.8 2087.07  39
   0  -1  -5 104440. 2126.68  72
   0  -1  -5 96119.1 2036.09  68
   0   1   5 95639.5 2064.64  71
   0  -1  -5 84506.5 1939.66  29
   0   1   5 109227. 2032.09  22
   0  -1  -5 104065. 2068.75  20
   0  -1  -5 98256.8 2016.80  51
   0   1   6 22825.5 613.505   7
   0   1   6 21379.2 607.009  13
   0  -1  -6 21389.3 552.658   5
   0  -1  -6 22734.4 585.845   8
   0  -1  -6 22963.5 636.632  15
   0  -1  -6 20706.2 508.650  88
   0  -1  -6 23487.6 671.942  85
   0   1   6 25855.2 585.264  78
   0  -1  -6 22782.3 572.331  79
   0   1   6 22179.9 616.641  71
   0  -1  -6 23332.9 670.458  72
   0  -1  -6 22875.9 596.782  68
   0   1   6 23936.7 569.483  22
   0  -1  -6 18895.7 461.249  29
   0  -1  -6 24044.1 621.732  20
   0  -1  -6 21293.6 600.768  40
   0   1   6 17828.9 443.429  36
   0  -1  -6 22772.7 654.659  41
   0  -1  -6 22519.8 579.365  38
   0   1   6 22985.8 646.690  44
   0   1   6 23330.5 655.305  53
   0   1   7 93274.9 2169.53   7
   0  -1  -7 95963.9 2111.72   5
   0  -1  -7 99133.3 2126.10   8
   0  -1  -7 92240.6 2252.98  85
   0  -1  -7 95764.1 2259.06  41
   0  -1  -7 99021.6 2117.76  38
   0   1   7 100536. 2245.14  44
   0  -1  -7 99450.6 2126.19  51
   0   1   7 96764.9 2235.30  53
   0  -1  -7 101006. 2190.01  20
   0   1   7 98821.9 2122.51  22
   0  -1  -8 40085.2 1002.63   5
   0  -1  -8 38511.2 1001.78   8
   0   1   8 37752.4 1042.70   7
   0   1   8 41042.9 1121.02  44
   0  -1  -8 38722.4 998.030  51
   0   1   8 39760.4 1116.36  53
   0   1   8 38156.6 998.076  78
   0  -1  -8 39557.9 1147.92  41
   0  -1  -8 37608.6 1129.79  72
   0   1   8 39646.6 1071.16  71
   0  -1  -8 41162.6 1034.16  68
   0   1   8 41537.7 1058.36  66
   0  -1  -8 42173.3 1064.84  20
   0   1   8 41729.8 1001.82  22
   0   1   9 1711.76 175.079  22
   0  -1  -9 1351.84 189.057   5
   0   1   9 1613.78 206.163   3
   0  -1  -9 1265.50 223.523  85
   0   1   9 1378.47 196.865  90
   0   1   9 1315.06 198.449  71
   0  -1  -9 1652.43 217.009  68
   0  -1  -9 1363.52 216.295  72
   0  -1  -9 1507.95 226.933  41
   0   1   9 1641.55 228.434  44
   0   1   9 1434.60 183.878  66
   0  -1  -9 1178.17 122.130  50
   0  -1 -10 27156.5 993.586  85
   0   1  10 27954.5 906.176  90
   0  -1 -10 26280.0 963.063  41
   0   1  10 27554.7 943.767  44
   0  -1 -10 26469.0 972.146  72
   0   1  10 27438.0 897.753  71
   0  -1 -10 30104.4 840.416  68
   0   1  10 25977.6 853.353  66
   0   1  10 30014.3 970.694  46
   0   1  11 130.894 154.875  90
   0  -1 -11 123.952 200.465  85
   0  -1 -11 108.571 173.710  72
   0   1  11 131.792 157.950  71
   0  -1 -11 213.425 191.778  68
   0   1  11 38.2309 179.759  44
   0  -1 -11 161.895 194.115  41
   0   1  11 22.0358 138.607  66
   0   1  11 83.6313 213.572  46
   0   1  12 28398.7 965.593  90
   0  -1 -12 28770.4 1094.95  85
   0  -1 -12 26143.9 1047.45  41
   0   1  12 28788.8 991.382  71
   0  -1 -12 27239.4 1055.80  72
   0   1  12 27329.7 934.344  66
   0   1  12 30453.3 1047.36  46
   0  -1 -13 52.2531 209.946  85
   0   1  13 38.2420 177.422  71
   0  -1 -13 313.008 198.482  72
   0   1  13-43.8993 197.293  66
   0   1  13 90.9255 159.358  90
   0   1  14 9387.60 414.264  77
   0  -1 -14 10258.6 611.683  41
   0   1  14 9171.46 502.733  90
   0  -1 -14 9862.23 621.769  85
   0   1  15 3081.97 225.563  77
   0   1  15 4221.39 398.490  46
   0   1  15 3480.74 326.866  56
   0  -1 -15 3403.04 358.287  72
   0   1  16 15437.8 625.304  56
   0  -1 -16 15039.7 670.854  72
   0  -1 -17 546.467 168.099  84
   0   1  17 601.415 154.899  56
   0  -1 -18 3694.27 227.763  84
   0  -2  18 1323.49 179.516  56
   0   2 -18 1062.66 182.483  72
   0   2 -17 5980.91 413.831  85
   0  -2  17 5123.39 327.358  90
   0   2 -17 6058.93 403.984  72
   0   2 -16 8462.65 539.441  85
   0  -2  16 9306.93 480.962  90
   0  -2  16 9648.70 508.486  71
   0   2 -16 8909.01 529.244  72
   0  -2  15 5919.09 408.158  90
   0   2 -15 5361.85 457.630  85
   0  -2  15 5444.28 386.842  66
   0  -2  14 15465.9 673.513  71
   0   2 -14 14409.7 733.526  72
   0  -2  14 14741.3 643.104  66
   0   2 -14 14534.8 747.521  85
   0   2 -13 11.8780 185.662  72
   0  -2  13 62.1626 172.415  71
   0  -2  13-111.969 168.606  66
   0   2 -13-47.6596 191.486  85
   0  -2  12 43846.9 1258.53  81
   0   2 -12 41440.8 1046.43  79
   0   2 -12 38769.5 1304.11  85
   0  -2  12 42644.3 1218.53  71
   0   2 -12 40672.3 1310.75  72
   0  -2  12 40350.7 1164.10  66
   0  -2  12 43589.6 1319.31  46
   0  -2  11 3030.40 236.918  22
   0   2 -11 3187.30 325.382  85
   0   2 -11 3179.08 271.710  79
   0  -2  11 2659.96 266.371  81
   0  -2  11 2366.42 202.229  78
   0  -2  11 2864.18 276.807  71
   0   2 -11 3027.75 321.720  72
   0  -2  11 3343.43 277.972  66
   0   2 -11 2393.81 186.060  50
   0  -2  11 3365.05 349.798  46
   0   2 -10 57162.6 1552.25  85
   0  -2  10 55441.8 1444.18  81
   0   2 -10 63098.5 1384.12  79
   0  -2  10 53851.3 1317.89  78
   0   2 -10 56415.6 1367.59  42
   0   2 -10 53642.1 1508.31  41
   0   2 -10 55624.5 1540.16  72
   0  -2  10 57796.8 1442.62  71
   0  -2  10 50322.1 1280.03  22
   0   2 -10 66821.6 1513.55  24
   0  -2  10 58790.7 1528.15  46
   0   2 -10 45841.0 1256.62  50
   0   2  -9 3955.39 257.776   5
   0  -2   9 3899.21 269.255   3
   0   2  -9 4536.14 331.904  85
   0  -2   9 3927.40 276.403  81
   0  -2   9 3482.67 215.534  78
   0  -2   9 4484.00 290.110  71
   0   2  -9 4139.03 323.974  72
   0  -2   9 4438.82 343.586  46
   0   2  -9 3739.88 219.839  50
   0   2  -9 4794.85 331.895  24
   0  -2   9 4170.04 220.651  22
   0   2  -9 4356.73 257.761  42
   0   2  -9 3766.46 298.500  41
   0   2  -9 4576.94 382.953  34
   0   2  -8 24671.0 694.360   5
   0   2  -8 28182.9 773.594  13
   0   2  -8 22228.3 597.840  14
   0  -2   8 24561.7 734.134   3
   0   2  -8 24054.7 670.780  50
   0  -2   8 27154.1 823.767  46
   0   2  -8 28555.2 842.275  37
   0   2  -8 28230.9 821.236  34
   0   2  -8 24451.9 791.139  41
   0   2  -8 26053.9 717.689  42
   0   2  -8 28171.6 840.219  70
   0   2  -8 28530.7 832.056  67
   0  -2   8 26860.0 657.805  22
   0   2  -8 28348.7 810.154  24
   0   2  -7 58645.4 1332.46   5
   0  -2   7 58626.2 1373.60   3
   0   2  -7 61575.7 1383.86  13
   0   2  -7 52453.8 1241.66  14
   0   2  -7 61768.2 1478.35  85
   0  -2   7 57071.2 1315.18  78
   0  -2   7 59237.7 1401.86  81
   0   2  -7 59769.7 1438.57  41
   0   2  -7 64023.1 1451.99  37
   0   2  -7 61736.6 1429.45  34
   0   2  -7 56653.4 1309.85  50
   0  -2   7 61333.7 1452.69  46
   0   2  -7 61021.6 1413.01  24
   0  -2   7 57608.9 1312.44  25
   0  -2   7 59904.7 1285.92  22
   0  -2   6 12769.4 441.812  16
   0   2  -6 11496.9 339.616  14
   0   2  -6 12582.6 393.334   5
   0   2  -6 12157.4 384.669   7
   0   2  -6 13582.0 424.086  13
   0  -2   6 12099.7 410.372   3
   0  -2   6 13151.2 472.241  46
   0   2  -6 13797.2 475.284  85
   0  -2   6 12761.4 436.083  81
   0   2  -6 13436.9 467.161  34
   0   2  -6 13865.4 487.316  37
   0   2  -6 13382.9 477.961  70
   0   2  -6 13997.6 485.136  67
   0  -2   6 13795.1 444.440  61
   0  -2   6 13457.4 405.091  65
   0  -2   6 13349.5 399.060  25
   0   2  -5 14393.8 394.891   7
   0  -2   5 15394.6 348.589   9
   0   2  -5 14403.9 402.812   5
   0  -2   5 14933.3 399.681  15
   0  -2   5 12600.6 412.217   3
   0   2  -5 12924.8 363.923  14
   0  -2   5 15109.3 400.914  17
   0   2  -5 14010.0 412.125  51
   0   2  -5 15358.6 405.257  50
   0  -2   5 13751.4 464.799  46
   0   2  -5 14699.5 413.678  80
   0   2  -5 15381.8 470.308  85
   0  -2   5 13105.3 434.000  81
   0   2  -5 14754.2 457.871  41
   0   2  -5 16334.5 468.781  70
   0  -2   5 16245.3 434.877  65
   0  -2   5 13519.0 442.246  61
   0   2  -5 16623.3 478.480  67
   0  -2   5 13186.3 437.232  21
   0   2  -5 16108.0 468.916  26
   0  -2   5 15129.2 413.109  25
   0  -2   4 22633.8 604.031  23
   0  -2   4 25612.1 582.976  25
   0  -2   4 24122.7 591.290  31
   0   2  -4 22077.5 559.106  33
   0   2  -4 25661.0 617.487  26
   0   2  -4 24048.7 505.656  87
   0   2  -4 24202.2 580.136  80
   0   2  -4 24760.0 572.423   5
   0   2  -4 21873.0 545.766  14
   0  -2   4 25295.2 566.451  17
   0  -2   4 24189.6 514.485   9
   0  -2   4 21920.0 567.009  15
   0  -2   4 23782.3 612.778  61
   0  -2   4 25509.9 610.537  65
   0   2  -4 23309.9 570.924  51
   0  -2   4 23371.4 636.047  46
   0   2  -4 26837.8 579.261  50
   0   2  -3 54920.3 1133.60  89
   0  -2   3 50585.8 1069.31  91
   0   2  -3 50998.8 1098.61  80
   0  -2   3 51387.9 1082.27  10
   0   2  -3 50640.8 1106.51   3
   0  -2   3 51308.9 1087.33  17
   0  -2   3 50609.5 1090.84  15
   0   2  -3 53619.0 1088.04   5
   0   2  -3 51984.9 1122.91  16
   0   2  -3 52705.8 1085.38  14
   0   2  -3 47328.0 1090.57  35
   0   2  -3 57107.1 1102.40  50
   0  -2   3 49624.2 1129.82  23
   0  -2   3 52827.2 1123.03  31
   0   2  -3 51626.7 1122.68  26
   0   2  -3 50529.6 1088.36  33
   0   2  -3 47091.1 1090.32  28
   0  -2   3 50852.1 1114.47  18
   0  -2   2 32468.7 710.773  30
   0   2  -2 32544.5 719.824  31
   0  -2   2 30793.1 717.067  18
   0  -2   2 33215.3 716.502  27
   0   2  -2 30850.7 717.732  21
   0   2  -2 29883.3 688.682  33
   0   2  -2 30869.3 699.636  28
   0  -2   2 32480.1 723.100  31
   0  -2   2 33779.8 683.761   8
   0  -2   2 32251.5 722.913  12
   0  -2   2 32032.0 696.508  10
   0   2  -2 36414.0 705.730  14
   0   2  -2 33223.8 725.095  89
   0   2  -2 31119.1 701.051  80
   0  -2   2 32377.6 691.866  38
   0   2  -2 29777.4 694.163  35
   0  -2   2 30235.2 718.821  62
   0  -2   2 31655.9 666.514  60
   0  -2   2 32616.0 735.714  54
   0   2  -2 33428.3 697.137  50
   0   2  -1 51871.9 1061.30  10
   0   2  -1 55676.8 1064.21  14
   0  -2   1 48957.9 1075.58  12
   0  -2   1 49273.2 1067.45   2
   0  -2   1 49441.3 1085.64  54
   0   2  -1 54504.9 1053.28  50
   0  -2   1 51291.0 1054.26  47
   0  -2   1 56238.2 1054.43  50
   0  -2   1 50235.6 1088.82  82
   0  -2   1 50517.3 1044.32  83
   0  -2   1 51913.6 1051.33  35
   0   2  -1 61146.7 1083.99  42
   0   2  -1 47948.7 1077.41  75
   0   2  -1 47556.7 1076.50  56
   0   2  -1 53245.1 1075.98  27
   0   2  -1 52071.7 1073.01  30
   0  -2   1 55870.9 1053.13  33
   0  -2   1 51525.6 1071.51  30
   0   2  -1 48747.0 1052.50  28
   0  -2   1 51461.3 1070.70  19
   0   2   0 53299.7 1162.67   2
   0  -2   0 48224.9 1162.32   2
   0  -2   0 62735.2 1184.41  52
   0  -2   0 61592.4 1155.81  50
   0   2   0 55647.4 1194.50  56
   0   2   0 62636.9 1177.24  77
   0  -2   0 61553.3 1213.83  84
   0  -2   0 55498.7 1154.97  83
   0  -2   0 53753.4 1146.40  35
   0   2   0 59999.6 1166.84  42
   0  -2   0 48461.8 1122.69  43
   0   2   0 58298.2 1201.47  75
   0  -2   0 51663.5 1138.79  64
   0  -2   0 59702.1 1151.51  22
   0   2   0 59806.4 1172.55  29
   0   2   0 58395.5 1185.80  30
   0   2   0 61658.3 1181.15  32
   0  -2   0 56764.6 1183.93  19
   0   2   0 52843.3 1156.73  28
   0  -2   0 56958.9 1141.60  33
   0  -2   0 62177.3 1163.22  28
   0   2   1 1257.85 111.065  32
   0  -2  -1 1875.13 105.116  25
   0  -2  -1 1633.88 92.5974  22
   0  -2  -1 1448.56 83.7680  28
   0   2   1 1248.52 98.0675  29
   0  -2  -1 1576.74 114.426  14
   0  -2  -1 1591.09 124.243  17
   0   2   1 1121.14 81.1623   2
   0  -2  -1 1924.24 117.423   9
   0   2   1 1265.56 109.920  90
   0  -2  -1 1163.77 77.1271  86
   0  -2  -1 1216.38 118.851  84
   0  -2  -1 1572.58 82.4556  42
   0   2   1 1203.52 63.8785  43
   0   2   1 1185.17 78.7641  66
   0  -2  -1 1230.14 80.3052  64
   0   2   1 1185.77 113.641  56
   0   2   1 1283.44 102.132  49
   0  -2  -1 1258.81 93.0574  48
   0   2   2 25282.6 582.325  22
   0  -2  -2 21736.2 586.324  25
   0   2   2 26434.7 626.395  20
   0  -2  -2 23409.7 552.518  28
   0  -2  -2 29896.6 588.949  29
   0   2   2 27364.0 630.025  90
   0  -2  -2 23767.5 540.088  42
   0  -2  -2 24384.3 562.804  36
   0  -2  -2 25039.1 570.375  14
   0  -2  -2 24647.0 591.981  17
   0  -2  -2 25646.7 595.551   1
   0  -2  -2 28256.2 609.343   9
   0  -2  -2 26463.2 634.840  72
   0   2   2 27421.5 596.128  66
   0  -2  -2 24237.0 549.051  48
   0   2   2 28877.3 618.164  49
   0  -2  -3 46004.1 1104.39  17
   0  -2  -3 56278.8 1106.66  15
   0  -2  -3 51899.3 1110.60   8
   0   2   3 48972.0 1125.26   4
   0  -2  -3 47581.2 1072.00  14
   0  -2  -3 49813.7 1110.35   1
   0  -2  -3 57627.0 1153.85   9
   0  -2  -3 48608.4 1065.04  36
   0  -2  -3 49321.8 1086.70  38
   0  -2  -3 43582.8 1038.06  42
   0  -2  -3 53703.1 1169.46  41
   0  -2  -3 52810.1 1095.40  40
   0   2   3 54847.5 1163.38  90
   0  -2  -3 51738.3 1064.18  88
   0  -2  -3 52327.5 1177.61  85
   0  -2  -3 56966.9 1137.45  68
   0   2   3 52760.9 1159.35  71
   0  -2  -3 53580.9 1170.56  72
   0   2   3 54300.3 1114.66  22
   0   2   3 53052.2 1154.37  20
   0   2   3 53293.2 1167.36  24
   0  -2  -3 54522.0 1112.61  45
   0  -2  -4 34568.4 787.793   8
   0  -2  -4 30859.4 815.018   9
   0  -2  -4 33003.7 802.671  17
   0  -2  -4 33204.5 758.096   5
   0  -2  -4 36352.0 810.715  15
   0   2   4 32916.1 785.820   4
   0   2   4 34972.5 856.505  13
   0  -2  -4 29177.1 725.535  14
   0   2   4 34973.8 843.300  90
   0  -2  -4 33265.2 726.759  88
   0  -2  -4 34636.9 866.728  85
   0   2   4 35522.5 878.991  39
   0  -2  -4 28294.0 775.270  40
   0  -2  -4 32160.2 767.567  38
   0  -2  -4 35104.2 857.269  72
   0  -2  -4 38407.2 827.570  68
   0   2   4 34047.2 838.485  71
   0   2   4 37313.2 799.376  22
   0  -2  -4 37634.8 823.790  45
   0  -2  -4 33686.6 715.519  55
   0  -2  -4 32289.6 772.454  51
   0   2   5 887.353 162.721  13
   0   2   5 950.780 150.784   7
   0  -2  -5 1232.01 135.962   5
   0  -2  -5 1196.19 200.193   8
   0  -2  -5 1043.33 221.043  15
   0  -2  -5 736.371 104.208  14
   0   2   5 990.559 106.224   4
   0  -2  -5 1121.64 82.4990  88
   0  -2  -5 1161.83 171.611  85
   0   2   5 1216.68 155.580  90
   0   2   5 1126.09 126.341  78
   0  -2  -5 1245.03 165.485  41
   0  -2  -5 1136.52 160.667  72
   0   2   5 1055.72 157.640  71
   0  -2  -5 1288.67 186.340  68
   0   2   5 1145.54 130.957  22
   0  -2  -5 1123.28 127.286  32
   0  -2  -5 1343.35 200.377  51
   0   2   6 41492.0 1028.19  90
   0  -2  -6 43802.2 1092.42  85
   0   2   6 39569.4 1049.51  39
   0  -2  -6 38093.0 969.417  40
   0  -2  -6 40196.5 932.471  38
   0  -2  -6 41961.4 1062.02  41
   0  -2  -6 39557.2 1003.07  15
   0   2   6 38685.9 1019.24  13
   0  -2  -6 39367.2 921.370   5
   0   2   6 41556.3 1031.70   7
   0  -2  -6 41416.7 950.934   8
   0  -2  -6 31741.2 825.623  14
   0  -2  -6 42194.0 944.765  51
   0   2   6 40219.5 1060.70  53
   0  -2  -6 36175.3 997.415  45
   0  -2  -6 40464.7 907.363  32
   0   2   6 44927.1 966.906  22
   0   2   7 1203.77 155.611  22
   0   2   7 1082.40 176.399  90
   0  -2  -7 1104.73 191.065  41
   0   2   7 1018.87 191.234  44
   0  -2  -7 784.059 212.766  38
   0  -2  -7 1150.76 227.131   8
   0  -2  -7 1186.19 165.942   5
   0   2   7 969.682 158.662   7
   0  -2  -7 1022.48 207.186  68
   0  -2  -7 940.908 178.051  72
   0   2   7 955.301 181.483  71
   0   2   7 1143.32 151.900  66
   0  -2  -7 904.284 215.092  51
   0   2   7 1086.06 189.174  53
   0   2   8 30496.3 825.157  22
   0  -2  -8 31007.9 993.683  85
   0   2   8 34747.4 948.940  90
   0  -2  -8 31062.6 972.937  41
   0   2   8 31888.2 910.063   7
   0  -2  -8 31103.3 824.888   5
   0  -2  -8 30901.3 971.064  72
   0  -2  -8 34842.2 889.115  68
   0   2   8 31662.5 923.840  71
   0   2   8 34166.7 900.031  66
   0   2   8 32672.3 958.003  44
   0  -2  -8 31227.9 819.502  51
   0   2   8 33368.2 980.160  53
   0  -2  -9 2457.09 283.460  41
   0  -2  -9 2533.57 294.683  85
   0   2   9 2634.68 252.390  90
   0  -2  -9 2568.09 280.092  72
   0  -2  -9 2771.22 260.541  68
   0   2   9 3085.98 264.925  71
   0   2   9 2750.97 236.962  66
   0   2   9 2642.46 271.907  53
   0   2   9 2888.07 288.615  44
   0  -2 -10 29726.4 1094.01  72
   0   2  10 33443.5 1050.45  71
   0  -2 -10 35519.6 986.589  68
   0   2  10 34368.2 1045.32  90
   0  -2 -10 33029.3 1144.17  85
   0   2  10 32715.4 994.771  66
   0   2  10 33686.8 1095.63  44
   0  -2 -10 31500.1 1110.07  41
   0   2  11 10654.4 472.308  19
   0  -2 -11 11047.1 626.786  41
   0   2  11 12654.8 631.386  44
   0   2  11 12757.6 578.390  90
   0  -2 -11 13215.6 685.623  85
   0  -2 -11 11584.5 643.268  72
   0   2  11 12203.1 587.554  71
   0   2  11 11498.4 539.816  66
   0   2  11 13498.8 644.499  46
   0   2  12 10164.9 461.842  19
   0   2  12 11765.9 565.530  90
   0  -2 -12 10776.1 656.015  85
   0  -2 -12 11036.4 635.663  41
   0  -2 -12 10978.2 640.069  72
   0   2  12 11040.7 544.827  66
   0   2  12 12938.1 648.265  46
   0   2  12 11010.0 584.113  56
   0   2  13 12933.8 596.522  90
   0   2  13 12727.8 513.287  77
   0  -2 -13 12001.8 686.029  41
   0   2  13 12908.7 608.711  66
   0  -2 -13 13560.3 710.830  72
   0   2  13 13461.2 641.268  56
   0   2  13 14688.4 702.463  46
   0   2  14 584.833 210.903  56
   0   2  14 788.745 268.968  46
   0  -2 -14 626.242 226.854  41
   0  -2 -15 17733.3 769.559  72
   0  -2 -15 17733.2 780.597  41
   0   2  15 19686.3 735.185  56
   0  -2 -15 18387.1 785.056  84
   0   2  16 41.0498 139.627  56
   0  -2 -16-41.9489 145.355  84
   0   2  17 6470.47 317.662  56
   0  -2 -17 6004.67 328.531  84
   0   3 -18 8371.19 428.685  72
   0  -3  18 9834.75 414.031  56
   0   3 -18 8965.34 454.748  85
   0  -3  17 3010.46 263.824  90
   0   3 -17 3427.05 327.949  85
   0  -3  17 3520.02 301.042  71
   0   3 -17 2917.76 294.772  72
   0  -3  16 3146.01 299.576  90
   0   3 -16 2683.46 331.084  85
   0  -3  16 3261.29 313.528  71
   0   3 -16 2816.11 319.801  72
   0  -3  15-55.6637 200.421  66
   0   3 -15 288.064 212.732  85
   0  -3  14 5625.67 382.032  66
   0   3 -14 6005.10 474.462  85
   0  -3  14 6559.84 439.778  71
   0   3 -14 5833.62 466.152  72
   0  -3  13 4308.66 372.226  81
   0  -3  13 4471.99 334.913  66
   0   3 -13 4004.06 395.320  85
   0   3 -13 4256.33 398.461  72
   0  -3  13 4461.92 359.068  71
   0  -3  12 3365.61 249.213  78
   0  -3  12 4276.11 347.577  81
   0   3 -12 4449.39 311.246  79
   0   3 -12 3971.61 374.901  72
   0  -3  12 3993.38 333.037  71
   0  -3  12 4190.85 315.162  66
   0   3 -12 4054.50 391.380  85
   0   3 -11 29540.8 900.797  24
   0   3 -11 26761.7 959.016  85
   0  -3  11 27725.0 890.024  81
   0  -3  11 21761.7 710.717  78
   0   3 -11 28025.6 807.110  79
   0   3 -11 27701.5 835.258  42
   0   3 -11 31216.5 971.927  34
   0   3 -11 27325.7 967.490  72
   0  -3  11 26498.0 867.710  71
   0  -3  11 27018.0 822.868  66
   0   3 -11 19574.6 673.150  50
   0   3 -10 816.039 199.392  85
   0  -3  10 672.775 127.512  78
   0  -3  10 786.732 170.048  81
   0   3 -10 721.516 164.196  42
   0   3 -10 614.314 136.256  50
   0   3 -10 1161.26 298.321  34
   0  -3  10 785.867 141.736  22
   0   3 -10 776.305 210.218  24
   0  -3   9 55361.7 1328.09  22
   0   3  -9 60947.4 1510.64  24
   0   3  -9 59464.3 1457.96  13
   0   3  -9 56874.6 1400.78   5
   0   3  -9 62337.3 1591.29  85
   0  -3   9 60453.1 1506.51  81
   0  -3   9 54761.0 1365.68  78
   0   3  -9 68555.0 1581.54  37
   0   3  -9 62649.3 1462.02  42
   0   3  -9 65809.5 1545.34  34
   0   3  -9 61719.0 1580.54  70
   0   3  -9 65180.7 1562.75  67
   0  -3   9 61037.4 1573.98  46
   0   3  -9 52184.6 1355.01  50
   0  -3   8 1081.58 122.523  10
   0   3  -8 1132.60 174.900  13
   0   3  -8 862.692 146.375  14
   0   3  -8 1012.49 165.049   5
   0   3  -8 1097.45 153.956  50
   0  -3   8 1358.78 242.429  46
   0  -3   8 1196.44 136.164  78
   0  -3   8 1200.61 186.133  81
   0   3  -8 1494.90 180.427  42
   0   3  -8 1511.82 326.654  37
   0   3  -8 1416.40 211.768  70
   0   3  -8 1413.24 313.818  67
   0  -3   8 1223.08 186.100  61
   0  -3   8 1078.89 119.348  22
   0   3  -8 1153.71 272.170  34
   0   3  -7 40997.5 1051.86   7
   0   3  -7 43797.2 1067.39   5
   0  -3   7 43984.7 1025.64  10
   0   3  -7 45401.2 1104.91  13
   0   3  -7 43172.8 1027.62  14
   0   3  -7 43886.8 1062.07  50
   0  -3   7 45374.7 1198.84  46
   0   3  -7 50796.7 1228.38  85
   0   3  -7 52498.8 1157.65  42
   0   3  -7 49988.2 1193.68  37
   0  -3   7 46009.9 1160.16  61
   0   3  -7 50162.0 1197.64  67
   0  -3   7 47151.9 1114.80  18
   0  -3   7 45616.4 1014.29  22
   0  -3   7 44289.3 1055.84  25
   0   3  -6 40706.3 956.983   7
   0  -3   6 39675.4 932.401  10
   0  -3   6 45099.2 969.381  15
   0   3  -6 39627.9 957.814   5
   0   3  -6 38328.5 940.412  14
   0   3  -6 42320.6 975.583  50
   0   3  -6 43181.9 1078.57  85
   0  -3   6 36758.1 1032.83  81
   0   3  -6 41657.3 988.831  80
   0   3  -6 46111.8 1067.64  37
   0   3  -6 42871.2 1066.11  70
   0  -3   6 44378.8 1023.76  65
   0   3  -6 45479.8 1067.92  26
   0  -3   6 40582.9 957.274  25
   0  -3   6 41827.1 1001.49  18
   0   3  -5 39054.3 966.192  85
   0  -3   5 36142.2 946.132  81
   0   3  -5 38526.7 897.526  80
   0  -3   5 37485.3 861.824  10
   0   3  -5 36668.3 869.380   5
   0  -3   5 38329.2 883.410  15
   0   3  -5 36601.5 874.192  14
   0   3  -5 39938.8 961.184  70
   0  -3   5 43148.8 953.492  65
   0  -3   5 37371.6 948.719  61
   0   3  -5 41462.4 950.317  26
   0  -3   5 37743.0 915.143  18
   0  -3   5 39330.4 878.236  25
   0   3  -4 162276. 3250.93  23
   0   3  -4 155211. 3229.46  26
   0   3  -4 160884. 3239.76  21
   0  -3   4 164056. 3179.24  25
   0  -3   4 156564. 3230.82  18
   0   3  -4 153862. 3244.20  89
   0  -3   4 149845. 3165.04  91
   0   3  -4 154047. 3199.39  80
   0  -3   4 153027. 3257.18  81
   0  -3   4 163099. 3154.86  17
   0  -3   4 159352. 3240.45  12
   0  -3   4 156076. 3181.53  10
   0   3  -4 155217. 3214.89   3
   0  -3   4 143908. 3176.47  15
   0   3  -4 160090. 3234.88  16
   0   3  -4 146791. 3162.93   5
   0   3  -4 151258. 3187.94  14
   0   3  -4 157778. 3261.52  70
   0  -3   4 159907. 3255.48  62
   0  -3   4 144564. 3240.63  65
   0   3  -4 167430. 3200.11  50
   0   3  -3 35379.2 826.353  23
   0  -3   3 35736.7 814.456  30
   0   3  -3 36155.6 824.244  21
   0  -3   3 36661.1 818.886  27
   0  -3   3 38300.4 830.993  18
   0   3  -3 34177.0 814.094  16
   0  -3   3 36444.6 756.060  17
   0   3  -3 36513.2 794.852  14
   0   3  -3 32639.8 745.150   5
   0  -3   3 36541.9 828.167  12
   0   3  -3 35850.8 829.452  89
   0  -3   3 34933.0 836.485  81
   0   3  -3 34478.3 793.142  80
   0  -3   3 35094.9 829.222  62
   0  -3   3 32249.3 729.752  60
   0  -3   3 29922.3 819.984  65
   0   3  -3 38503.9 791.305  50
   0  -3   3 36506.7 844.444  54
   0  -3   2 58058.9 1189.31  19
   0   3  -2 47891.1 1166.86  29
   0   3  -2 56612.9 1201.94  31
   0   3  -2 51007.4 1168.55  28
   0  -3   2 58799.3 1195.09  30
   0  -3   2 54805.8 1191.04   2
   0  -3   2 54587.0 1200.60  12
   0   3  -2 59789.8 1182.88  14
   0   3  -2 57196.3 1174.20  10
   0   3  -2 58294.3 1205.50  89
   0  -3   2 59130.1 1229.17  82
   0   3  -2 61288.9 1207.88  42
   0  -3   2 55095.1 1137.08  38
   0   3  -2 52806.1 1206.26  75
   0  -3   2 57767.0 1216.12  65
   0  -3   2 54446.6 1196.71  62
   0  -3   2 56379.7 1163.37  47
   0   3  -2 59220.3 1164.08  50
   0  -3   2 55859.0 1215.43  54
   0  -3   1 1380.14 116.289  19
   0   3  -1 1186.72 100.075  28
   0   3  -1 1285.76 113.438  32
   0   3  -1 1059.72 108.696  29
   0   3  -1 1424.90 119.362  10
   0  -3   1 1608.26 89.0890  86
   0  -3   1 1165.10 85.4917  83
   0  -3   1 1270.86 121.117  82
   0  -3   1 1456.73 96.1629  35
   0   3  -1 1460.69 111.541  42
   0   3  -1 1270.82 121.220  75
   0   3  -1 1184.79 121.977  56
   0  -3   1 1481.58 107.496  52
   0  -3   1 1362.26 86.5793  51
   0  -3   0 121314. 2259.73  14
   0  -3   0 119496. 2254.03   9
   0  -3   0 112421. 2232.56  86
   0  -3   0 108880. 2318.11  82
   0  -3   0 98431.0 2232.88  83
   0   3   0 112075. 2266.12  77
   0  -3   0 104290. 2229.47  35
   0   3   0 106999. 2254.95  42
   0   3   0 103569. 2299.12  75
   0  -3   0 112131. 2273.03  52
   0   3   0 100553. 2293.58  56
   0  -3   0 115281. 2235.95  22
   0  -3   0 109772. 2222.84  33
   0   3   0 97352.9 2258.00  29
   0  -3   0 113941. 2187.77  25
   0   3   0 101161. 2271.24  18
   0   3   0 108183. 2280.91  19
   0   3   0 106965. 2273.40  32
   0   3   0 105284. 2282.04  30
   0   3   1 177.286 85.9319  29
   0   3   1 147.723 72.6069  19
   0   3   1 128.598 98.8539  32
   0  -3  -1 285.124 75.4113  22
   0  -3  -1 137.480 92.4198  25
   0  -3  -1 200.198 51.0003  33
   0   3   1 179.371 73.4028   6
   0  -3  -1 240.011 89.5234   9
   0   3   1 196.448 66.4191   2
   0  -3  -1 193.279 118.201  17
   0  -3  -1 323.321 105.911  14
   0   3   1 197.767 100.149  90
   0  -3  -1 220.362 56.8247  86
   0   3   1 202.549 94.8231  77
   0  -3  -1 170.481 102.728  84
   0   3   1 133.903 36.7795  43
   0  -3  -1 167.001 53.1574  35
   0   3   1 129.622 94.1782  75
   0   3   1 151.131 61.0308  66
   0  -3  -1 141.460 59.0755  64
   0   3   1 172.743 87.6239  49
   0   3   1 116.037 107.200  56
   0  -3  -1 163.330 82.4344  48
   0   3   2 46791.3 1049.18  19
   0   3   2 49623.6 1084.50  20
   0  -3  -2 53543.4 1016.84  14
   0  -3  -2 55639.8 1061.83   9
   0   3   2 42384.5 990.708   2
   0  -3  -2 37689.2 985.398  17
   0  -3  -2 41733.5 987.143   8
   0  -3  -2 51465.4 1063.41   1
   0  -3  -2 47790.3 997.864  86
   0   3   2 49987.4 1082.07  90
   0  -3  -2 46730.0 1088.69  84
   0   3   2 40958.1 974.377  43
   0  -3  -2 45855.5 1005.77  36
   0  -3  -2 44754.2 946.531  74
   0  -3  -2 43549.1 984.086  64
   0   3   2 47723.1 1016.13  66
   0   3   2 56194.9 1071.09  49
   0   3   2 47258.1 1079.53  56
   0  -3  -2 44316.8 961.947  48
   0   3   3 5607.21 240.030  19
   0   3   3 5745.93 267.026  20
   0   3   3 5961.24 270.320  90
   0  -3  -3 5362.27 215.909  40
   0  -3  -3 5202.89 188.858  36
   0  -3  -3 4997.01 208.701  38
   0  -3  -3 5705.28 233.633   1
   0  -3  -3 5529.00 256.419   9
   0  -3  -3 6174.42 217.683  14
   0  -3  -3 4502.26 264.309  17
   0  -3  -3 5916.84 188.769   5
   0  -3  -3 5054.75 240.700   8
   0  -3  -3 5961.26 227.421  15
   0  -3  -3 5614.06 268.607  72
   0  -3  -3 5724.53 253.932  68
   0   3   3 5899.12 223.871  66
   0  -3  -3 6153.13 225.848  45
   0   3   3 5632.11 265.176  56
   0   3   4 35340.3 886.469  20
   0   3   4 34189.3 883.180  90
   0   3   4 36167.5 943.357  39
   0  -3  -4 32817.5 775.634  38
   0  -3  -4 33926.7 890.820  41
   0  -3  -4 32529.8 761.076  14
   0  -3  -4 34269.7 799.315   8
   0  -3  -4 35631.4 826.328  15
   0  -3  -4 33172.8 768.919   5
   0  -3  -4 30718.0 854.552   9
   0   3   4 31662.3 834.531   4
   0  -3  -4 31689.4 824.971  17
   0  -3  -4 35566.9 910.327  72
   0  -3  -4 37115.5 862.088  68
   0   3   4 35920.1 840.510  66
   0   3   4 32354.5 875.896  56
   0  -3  -4 32636.7 779.538  51
   0   3   5 49161.1 1120.57  90
   0  -3  -5 39725.7 1020.04  40
   0  -3  -5 46404.1 1130.27  41
   0   3   5 49230.8 1187.31  39
   0   3   5 49210.0 1148.21  13
   0   3   5 42862.2 1037.17   4
   0  -3  -5 43235.5 1057.79  15
   0  -3  -5 45619.8 1012.97   8
   0  -3  -5 41848.3 938.546  14
   0  -3  -5 43569.1 980.739   5
   0  -3  -5 41066.7 1062.54  45
   0  -3  -5 38952.0 912.346  28
   0   3   6 54264.1 1334.54  90
   0  -3  -6 51608.9 1187.37  38
   0  -3  -6 52044.6 1244.88  40
   0  -3  -6 52300.4 1347.91  41
   0   3   6 52714.4 1381.85  39
   0  -3  -6 53644.9 1220.66   8
   0  -3  -6 51672.9 1288.33  15
   0  -3  -6 50034.0 1192.92   5
   0   3   6 51012.5 1334.13   7
   0  -3  -6 56269.1 1389.92  72
   0  -3  -6 54702.0 1286.65  68
   0   3   6 55498.4 1283.53  66
   0  -3  -6 48874.1 1289.32  45
   0  -3  -6 52390.6 1194.06  51
   0   3   6 49304.1 1313.18  56
   0   3   6 51910.1 1374.66  53
   0  -3  -7 11840.4 534.658  85
   0   3   7 11269.6 506.884  39
   0  -3  -7 11556.7 503.923  41
   0   3   7 10718.2 472.413   7
   0  -3  -7 10052.4 407.261   8
   0  -3  -7 9406.99 373.706   5
   0  -3  -7 11331.4 453.926  68
   0  -3  -7 12273.4 527.773  72
   0   3   7 11332.5 436.258  66
   0  -3  -7 10025.6 388.757  51
   0   3   7 10242.5 465.649  56
   0   3   7 11487.9 516.159  53
   0   3   8 7433.13 395.422  90
   0  -3  -8 7038.41 415.434  41
   0  -3  -8 6335.07 312.726   5
   0  -3  -8 7636.90 386.273  68
   0  -3  -8 6797.14 427.081  72
   0   3   8 7277.06 361.069  66
   0   3   8 6597.54 383.759  56
   0   3   8 6869.20 418.755  53
   0   3   8 7527.67 421.714  44
   0  -3  -9 57196.5 1674.08  41
   0   3   9 65025.1 1626.61  90
   0  -3  -9 58383.5 1691.28  72
   0   3   9 59679.1 1555.23  66
   0   3   9 63087.8 1701.95  53
   0   3   9 63346.2 1673.89  44
   0   3   9 59427.1 1617.74  56
   0   3  10 451.709 145.952  19
   0   3  10 588.511 218.616  44
   0  -3 -10 564.886 217.940  41
   0   3  10 462.134 180.104  90
   0  -3 -10 497.972 200.717  72
   0   3  10 642.458 167.809  66
   0   3  10 466.739 199.778  53
   0   3  10 651.323 201.951  56
   0   3  11 22249.9 756.192  19
   0   3  11 24466.6 854.150  90
   0  -3 -11 22382.8 940.900  41
   0   3  11 23098.3 913.466  44
   0  -3 -11 23211.8 951.202  72
   0   3  11 22126.4 811.300  66
   0   3  11 21878.5 856.131  56
   0   3  12 61.1561 126.101  19
   0   3  12 35.5425 152.146  90
   0   3  12 114.807 152.015  77
   0  -3 -12 25.2399 190.571  72
   0   3  12-51.9688 163.961  66
   0   3  12 38.9850 171.455  56
   0  -3 -13 12300.6 688.412  41
   0   3  13 13047.6 510.822  77
   0  -3 -13 13070.4 702.344  84
   0  -3 -14 2213.35 313.659  41
   0   3  14 1866.22 197.448  77
   0   3  14 2563.83 331.752  46
   0   3  14 2249.98 278.780  56
   0  -3 -15 10590.0 556.654  41
   0   3  15 10605.4 494.399  56
   0   3  15 12018.4 549.817  46
   0  -3 -15 10592.9 541.947  84
   0   3  16 5500.51 317.847  75
   0  -3 -16 5917.21 359.594  84
   0   3  17 1033.69 141.091  56
   0  -3 -17 801.684 141.966  83
   0   4 -18 1879.92 227.769  85
   0   4 -18 1772.07 209.040  72
   0  -4  18 2103.65 218.584  71
   0   4 -17 6396.15 420.647  85
   0  -4  17 5905.23 358.269  90
   0  -4  17 6969.73 402.231  71
   0   4 -17 6666.04 418.984  72
   0   4 -16 214.648 194.439  85
   0  -4  16 214.866 176.426  71
   0   4 -16 179.935 179.833  72
   0  -4  15 8332.01 439.430  66
   0   4 -15 8763.57 554.432  85
   0  -4  14 5943.51 428.228  81
   0  -4  14 5534.19 366.193  66
   0   4 -14 5381.00 449.170  85
   0  -4  14 6337.71 425.771  71
   0   4 -14 5558.73 445.657  72
   0  -4  13 27529.9 984.556  81
   0   4 -13 26616.2 777.450  79
   0   4 -13 25849.2 1026.47  72
   0  -4  13 28735.8 972.073  71
   0  -4  13 25947.3 866.530  66
   0   4 -13 27761.1 1055.14  85
   0   4 -12 9445.09 566.550  85
   0  -4  12 7571.09 367.894  78
   0  -4  12 10798.5 538.678  81
   0   4 -12 10399.2 460.926  79
   0   4 -12 11644.1 535.679  42
   0  -4  12 9899.31 518.879  71
   0   4 -12 8995.73 555.451  72
   0  -4  12 9081.84 448.557  66
   0  -4  12 9689.34 478.028  54
   0   4 -11 17425.9 758.166  85
   0  -4  11 18636.8 714.166  81
   0   4 -11 18409.4 675.422  42
   0  -4  11 16957.1 613.273  66
   0   4 -11 18924.1 694.982  24
   0   4 -10 21169.3 724.109  24
   0   4 -10 19514.6 774.459  85
   0  -4  10 16434.7 564.916  78
   0  -4  10 20565.4 729.123  81
   0   4 -10 22347.4 804.195  37
   0   4 -10 21094.6 755.122  34
   0   4 -10 19392.5 681.663  42
   0   4 -10 19889.7 769.768  70
   0   4 -10 21669.2 792.706  67
   0  -4  10 20596.5 647.165  66
   0   4 -10 16123.4 569.018  50
   0   4  -9 10953.2 423.605  50
   0  -4   9 11747.5 418.699  78
   0  -4   9 13096.4 544.926  81
   0   4  -9 12101.5 562.223  85
   0   4  -9 13756.2 573.572  34
   0   4  -9 14129.2 609.383  37
   0   4  -9 13318.0 511.751  42
   0   4  -9 13376.0 575.678  70
   0  -4   9 14313.0 555.225  61
   0   4  -9 13867.5 605.380  67
   0   4  -9 11809.1 468.593  13
   0   4  -9 10975.9 433.129   5
   0   4  -8 7028.01 316.621  50
   0  -4   8 7496.68 391.961  81
   0  -4   8 6800.95 294.480  78
   0   4  -8 8607.69 434.678  85
   0   4  -8 8503.93 416.182  70
   0   4  -8 8559.48 461.913  37
   0   4  -8 8780.13 390.208  42
   0  -4   8 8024.22 404.310  61
   0   4  -8 8589.30 460.686  67
   0  -4   8 8009.18 281.670  10
   0   4  -8 6955.75 314.490   5
   0   4  -8 7403.18 340.848  13
   0   4  -7 9670.76 351.761  50
   0   4  -7 10212.6 468.747  37
   0   4  -7 10517.7 422.480  42
   0   4  -7 9764.91 431.789  70
   0  -4   7 9548.97 422.607  61
   0  -4   7 9815.85 397.314  65
   0   4  -7 11065.9 484.008  67
   0  -4   7 9084.75 310.877  10
   0   4  -7 8725.66 335.444   5
   0   4  -7 8796.13 318.548   7
   0   4  -7 8746.97 346.341  14
   0  -4   7 9551.22 390.910  12
   0   4  -6 59187.3 1340.83  50
   0  -4   6 60433.6 1425.17  54
   0  -4   6 58116.3 1439.18  81
   0   4  -6 59983.1 1357.66  80
   0   4  -6 60035.3 1446.20  85
   0   4  -6 64767.3 1438.92  42
   0  -4   6 56357.7 1300.35  25
   0  -4   6 62820.3 1397.71  18
   0   4  -6 64611.4 1430.82  26
   0   4  -6 53042.6 1299.87   5
   0  -4   6 62202.2 1407.49  12
   0  -4   6 61898.9 1317.99  15
   0   4  -6 55208.3 1327.04  14
   0  -4   5 5804.02 269.619  12
   0   4  -5 5139.74 249.773   3
   0   4  -5 5386.31 298.268  16
   0  -4   5 4576.71 251.773  15
   0   4  -5 4635.55 201.505   5
   0   4  -5 4873.77 260.666  14
   0  -4   5 4737.93 190.500  91
   0  -4   5 5502.48 285.224  81
   0   4  -5 5445.75 267.307  80
   0   4  -5 6242.21 292.413  42
   0   4  -5 5032.25 287.976  70
   0  -4   5 5351.64 285.484  54
   0   4  -5 4660.45 229.001  50
   0  -4   5 5563.33 239.719  25
   0   4  -5 5326.84 298.461  26
   0  -4   5 5506.60 262.348  18
   0   4  -5 5589.90 287.581  21
   0   4  -4 138196. 2862.26  89
   0   4  -4 132690. 2802.34  80
   0  -4   4 135501. 2879.82  81
   0  -4   4 129604. 2761.58  15
   0   4  -4 141219. 2812.48  14
   0  -4   4 136445. 2854.57  12
   0  -4   4 136860. 2850.08   2
   0   4  -4 127663. 2810.57   3
   0   4  -4 134098. 2835.53  16
   0   4  -4 132562. 2875.16  70
   0  -4   4 140996. 2869.29  62
   0  -4   4 119320. 2843.41  65
   0  -4   4 142461. 2858.56  18
   0   4  -4 135337. 2858.07  23
   0   4  -4 137300. 2845.27  21
   0   4  -3 12814.0 411.790  21
   0   4  -3 13796.0 417.281  31
   0  -4   3 14167.1 406.368  19
   0  -4   3 12652.0 326.306  25
   0   4  -3 13452.9 421.634  23
   0  -4   3 13552.9 420.423  12
   0  -4   3 13349.3 410.015   2
   0   4  -3 14340.5 401.379  14
   0  -4   3 13272.0 308.899   9
   0   4  -3 13206.6 411.648  89
   0   4  -3 12989.0 389.455  80
   0  -4   3 13360.8 417.324  62
   0  -4   3 13571.1 344.894  60
   0  -4   3 11506.9 414.862  65
   0  -4   3 14025.4 373.090  47
   0  -4   3 10522.8 364.512  52
   0   4  -2 17729.1 489.842  18
   0   4  -2 18337.9 496.462  31
   0  -4   2 18774.7 487.680  19
   0   4  -2 18076.5 484.887  27
   0  -4   2 15321.9 363.279  25
   0  -4   2 16751.4 475.261   2
   0   4  -2 18565.5 470.955  10
   0  -4   2 17490.8 407.423   9
   0  -4   2 17568.6 433.884  86
   0  -4   2 18273.4 523.335  82
   0  -4   2 14791.0 407.850  38
   0  -4   2 16092.7 445.419  35
   0   4  -2 18761.7 484.415  42
   0   4  -2 17511.7 502.354  75
   0  -4   2 17705.4 487.818  62
   0  -4   2 17137.4 492.308  65
   0  -4   2 19354.7 471.735  52
   0   4  -1 16034.7 456.972  27
   0  -4   1 15357.2 374.338  22
   0   4  -1 15709.4 456.600  31
   0   4  -1 16089.3 455.483  30
   0   4  -1 14905.4 445.497  18
   0  -4   1 16810.6 454.966  19
   0  -4   1 15455.6 406.761  33
   0   4  -1 15956.1 439.743  10
   0  -4   1 14131.1 429.369   2
   0  -4   1 16520.5 400.361   9
   0   4  -1 15820.2 456.251  12
   0  -4   1 17524.7 401.714  86
   0  -4   1 16894.1 487.367  82
   0  -4   1 15273.2 384.554  83
   0  -4   1 15527.0 352.347  38
   0   4  -1 16279.8 438.880  42
   0  -4   1 12976.2 340.644  43
   0   4  -1 15636.9 469.346  75
   0   4  -1 15325.8 470.896  56
   0  -4   1 18156.5 468.150  65
   0  -4   1 17047.6 442.929  52
   0  -4   1 15457.2 355.256  51
   0   4   0 72962.6 1556.50  27
   0   4   0 67289.6 1529.85  18
   0  -4   0 78479.8 1482.02  22
   0   4   0 74944.3 1559.82  30
   0  -4   0 77909.1 1476.70  86
   0  -4   0 65226.8 1475.64  83
   0   4   0 73758.8 1525.53  77
   0  -4   0 69567.3 1591.30  82
   0  -4   0 76532.0 1501.31   9
   0   4   0 66439.1 1536.21  12
   0  -4   0 81759.0 1527.27  14
   0  -4   0 54636.3 1415.57  17
   0   4   0 69455.1 1570.41  75
   0  -4   0 91704.9 1543.42  65
   0   4   0 69071.1 1568.99  56
   0  -4   0 74363.1 1536.65  52
   0   4   1 230525. 4511.33  30
   0   4   1 229567. 4489.56  18
   0   4   1 241901. 4515.10  19
   0   4   1 219129. 4443.66   6
   0  -4  -1 184111. 4371.89   8
   0  -4  -1 236346. 4470.94   9
   0   4   1 228017. 4507.87  12
   0  -4  -1 173234. 4375.56  17
   0  -4  -1 269066. 4473.83  14
   0  -4  -1 260090. 4431.19  86
   0  -4  -1 212342. 4441.77  83
   0   4   1 250988. 4489.68  77
   0  -4  -1 234689. 4560.45  84
   0   4   1 238654. 4561.70  75
   0  -4  -1 246218. 4436.44  65
   0   4   1 226397. 4540.02  56
   0  -4  -1 207854. 4381.49  48
   0  -4  -2 8788.50 228.105  33
   0   4   2 8930.41 360.515  20
   0   4   2 8884.04 329.142  19
   0  -4  -2 9478.44 277.731  28
   0   4   2 8121.41 266.830   2
   0   4   2 7349.64 251.713   6
   0  -4  -2 9191.35 328.743   1
   0  -4  -2 9119.37 334.841   9
   0  -4  -2 10064.6 306.428  14
   0  -4  -2 7012.21 293.508  17
   0  -4  -2 7721.43 264.480   8
   0   4   2 9106.07 350.320  90
   0  -4  -2 9410.58 263.035  86
   0  -4  -2 8945.82 355.525  84
   0   4   2 9430.76 315.717  77
   0  -4  -2 8877.98 245.583  35
   0  -4  -2 8676.71 255.195  40
   0  -4  -2 6898.53 228.995  38
   0   4   2 6933.06 209.289  43
   0   4   2 8732.83 356.062  75
   0  -4  -2 8038.79 219.608  74
   0  -4  -2 7573.94 238.532  64
   0  -4  -2 8922.11 242.038  65
   0  -4  -2 8196.59 241.275  48
   0   4   2 8220.17 342.193  56
   0  -4  -3 40426.9 883.359  33
   0  -4  -3 46818.6 961.318  28
   0   4   3 44889.6 1056.23  19
   0   4   3 47569.2 1093.92  90
   0  -4  -3 45267.8 958.303  86
   0  -4  -3 44624.9 1105.54  84
   0   4   3 48632.0 1036.17  77
   0  -4  -3 41601.0 954.313   8
   0  -4  -3 40255.0 1050.96   9
   0  -4  -3 40181.6 911.433   5
   0   4   3 42560.3 963.179   2
   0  -4  -3 47358.8 984.448  15
   0  -4  -3 49397.3 989.440  14
   0  -4  -3 47716.8 1065.12   1
   0  -4  -3 41660.1 976.992  36
   0  -4  -3 40039.3 917.386  38
   0  -4  -3 43867.2 1092.85  41
   0  -4  -3 36651.7 949.781  40
   0  -4  -3 42816.8 923.732  35
   0   4   3 42878.1 1003.37  66
   0  -4  -3 39542.2 949.396  64
   0  -4  -3 39064.5 921.185  51
   0   4   3 51141.0 1113.23  49
   0   4   4 2284.11 201.855  19
   0  -4  -4 2158.76 143.654   5
   0   4   4 2022.42 135.429   2
   0  -4  -4 2284.20 180.083  14
   0   4   4 2289.01 195.143   4
   0  -4  -4 2036.70 179.015   1
   0  -4  -4 2128.01 216.191   8
   0  -4  -4 2222.42 247.166  15
   0  -4  -4 1840.21 246.490   9
   0  -4  -4 2140.48 137.484  86
   0   4   4 2647.07 228.403  90
   0  -4  -4 2254.63 228.609  84
   0  -4  -4 2268.48 184.060  38
   0  -4  -4 1750.58 103.757  35
   0  -4  -4 2142.54 214.420  41
   0   4   4 2390.18 175.078  66
   0  -4  -4 2303.08 163.081  64
   0   4   4 2400.91 233.227  56
   0  -4  -4 2546.38 225.145  45
   0  -4  -4 2384.33 186.971  51
   0   4   5 31060.7 777.269   2
   0  -4  -5 31574.5 779.206   5
   0  -4  -5 32495.7 811.102   8
   0  -4  -5 32269.8 877.362  15
   0   4   5 33144.7 889.237   4
   0   4   5 36425.4 950.510  90
   0  -4  -5 31486.3 772.719  86
   0  -4  -5 35645.7 964.409  41
   0   4   5 36676.2 1027.02  39
   0  -4  -5 31674.3 835.568  40
   0  -4  -5 36578.5 983.909  72
   0  -4  -5 29807.5 870.070  45
   0   4   5 33829.5 943.967  56
   0   4   5 35708.8 908.372  19
   0  -4  -6 3988.06 217.268   5
   0  -4  -6 4069.03 266.617   8
   0  -4  -6 4489.27 316.859  45
   0   4   6 4998.98 320.302  56
   0  -4  -6 5176.32 349.416  84
   0  -4  -6 5020.06 334.271  72
   0   4   6 4996.94 289.568  19
   0   4   6 4723.01 269.539  66
   0   4   6 5117.31 357.286  39
   0  -4  -6 5196.39 334.552  41
   0   4   7 63008.2 1505.50  19
   0   4   7 59351.4 1544.10  90
   0  -4  -7 63405.1 1633.10  72
   0   4   7 58454.7 1626.64  39
   0  -4  -7 58393.1 1588.70  41
   0   4   7 58011.3 1482.73  66
   0   4   7 57892.7 1552.58  56
   0   4   7 59228.1 1620.73  53
   0   4   8 25279.0 843.921  90
   0  -4  -8 23932.3 888.533  41
   0   4   8 24175.8 901.778  39
   0  -4  -8 25676.7 917.541  72
   0   4   8 24134.3 792.168  66
   0   4   8 23990.2 853.301  56
   0   4   8 25457.8 916.515  53
   0   4   8 26616.3 890.705  44
   0   4   9 3723.65 282.486  19
   0   4   9 3667.71 313.335  90
   0  -4  -9 3462.83 365.076  84
   0   4   9 3666.70 286.043  77
   0  -4  -9 3243.15 351.929  41
   0  -4  -9 3542.91 351.823  72
   0   4   9 3635.67 286.666  66
   0   4   9 3797.60 361.846  53
   0   4   9 3813.95 347.601  44
   0   4   9 3661.54 335.708  56
   0   4  10 1409.57 201.533  19
   0   4  10 1575.22 235.848  90
   0   4  10 1558.42 211.801  77
   0  -4 -10 1514.68 283.210  84
   0   4  10 1704.24 273.380  44
   0  -4 -10 1618.27 284.542  41
   0  -4 -10 1546.15 266.049  72
   0   4  10 1455.58 214.399  66
   0   4  10 1877.40 295.172  53
   0   4  10 1760.05 270.400  56
   0   4  11 10888.5 546.197  90
   0  -4 -11 10429.4 622.328  84
   0   4  11 12014.1 498.923  77
   0   4  11 12047.0 520.116  19
   0   4  11 10705.1 575.594  56
   0  -4 -11 10421.9 630.143  41
   0   4  12 26563.0 815.135  77
   0  -4 -12 25299.9 1019.19  84
   0   4  12 27953.7 1025.36  44
   0  -4 -12 24608.2 1019.65  41
   0   4  12 29874.3 1016.10  46
   0   4  12 25668.4 830.666  30
   0   4  12 23745.4 814.940  19
   0   4  13 4530.87 391.250  46
   0   4  13 3737.54 344.506  56
   0  -4 -13 4229.59 408.223  41
   0   4  14 9454.37 489.104  75
   0  -4 -14 9699.20 551.135  41
   0   4  14 10503.1 509.722  56
   0   4  14 9133.07 367.831  77
   0  -4 -14 10069.9 546.600  84
   0   4  15 57.3774 121.122  75
   0  -4 -15 190.248 144.456  41
   0   4  15 277.631 150.697  56
   0   4  15 202.476 166.091  46
   0  -4 -15 212.964 144.950  84
   0  -4 -16 2620.63 212.038  84
   0  -4 -16 2776.36 224.496  83
   0   4  16 2208.90 184.006  75
   0   5 -18 2017.67 213.749  72
   0  -5  18 1513.51 164.522  90
   0   5 -18 1877.48 218.730  85
   0   5 -17 1317.41 216.672  72
   0  -5  17 1562.30 223.896  71
   0   5 -17 1308.64 228.387  85
   0  -5  17 1507.38 205.553  90
   0   5 -16 15371.3 717.574  72
   0   5 -16 16192.2 733.242  85
   0   5 -15 3652.58 372.714  72
   0  -5  15 4397.35 373.289  71
   0  -5  14 16539.0 707.008  71
   0   5 -14 15098.3 745.240  72
   0  -5  14 16667.6 732.532  81
   0   5 -14 14266.9 739.642  85
   0  -5  13 1005.25 243.091  71
   0   5 -13 727.098 238.054  72
   0  -5  13 995.541 248.100  81
   0   5 -13 732.879 214.456  79
   0   5 -13 893.219 266.301  85
   0  -5  12 16252.5 702.879  81
   0   5 -12 17694.2 702.140  42
   0   5 -12 19266.4 762.790  34
   0   5 -12 14610.6 720.961  72
   0  -5  12 16427.6 688.422  71
   0   5 -12 14742.8 733.159  85
   0  -5  12 16774.8 646.845  54
   0   5 -11 3979.31 374.041  85
   0  -5  11 4539.89 359.325  81
   0  -5  11 3206.82 221.864  78
   0   5 -11 4709.87 354.968  42
   0   5 -11 4847.01 430.893  34
   0   5 -11 4977.81 471.908  37
   0   5 -11 3781.70 362.383  70
   0   5 -11 4399.49 469.136  67
   0  -5  11 3292.79 230.189  47
   0  -5  11 4385.46 336.748  54
   0  -5  10 64172.4 1578.30  54
   0  -5  10 61946.7 1624.42  81
   0   5 -10 59151.1 1662.67  85
   0   5 -10 67612.3 1668.61  37
   0   5 -10 62578.5 1589.90  42
   0   5 -10 64562.0 1613.20  34
   0   5 -10 57282.2 1639.50  70
   0   5 -10 67568.7 1675.67  67
   0  -5  10 65974.8 1641.03  61
   0   5 -10 58013.5 1545.73  24
   0  -5   9 11291.8 490.999  54
   0  -5   9 9310.13 475.681  81
   0  -5   9 8045.12 349.309  78
   0   5  -9 9973.98 509.325  85
   0   5  -9 10421.3 477.573  42
   0   5  -9 10354.6 502.126  34
   0   5  -9 10826.6 549.302  37
   0   5  -9 9926.87 508.861  70
   0  -5   9 10811.5 500.732  61
   0   5  -9 10766.9 556.601  67
   0  -5   9 11711.0 479.002   2
   0  -5   8 42759.0 1135.57  54
   0  -5   8 38091.0 1003.44  47
   0  -5   8 37796.1 1149.96  81
   0  -5   8 35045.1 979.758  78
   0   5  -8 41082.5 1059.47  80
   0   5  -8 39275.1 1161.51  85
   0   5  -8 46360.1 1178.52  37
   0   5  -8 45080.1 1158.39  42
   0   5  -8 40397.3 1155.80  70
   0  -5   8 40431.8 1159.38  61
   0   5  -8 46197.8 1195.21  67
   0  -5   8 47852.6 1150.15   2
   0  -5   7 33347.7 901.318   2
   0  -5   7 31428.8 912.674  54
   0  -5   7 30373.8 805.256  47
   0   5  -7 29310.4 820.907  50
   0   5  -7 31444.8 844.381  80
   0  -5   7 29780.1 927.103  81
   0   5  -7 31552.2 937.927  85
   0   5  -7 33932.8 925.833  42
   0   5  -7 30251.2 924.795  70
   0  -5   7 28871.5 924.974  61
   0  -5   7 33735.5 901.122  65
   0   5  -7 36524.6 946.856  26
   0  -5   6 32523.3 912.699  54
   0  -5   6 29654.7 787.327  52
   0  -5   6 30146.6 799.773  47
   0   5  -6 35067.8 921.382  42
   0  -5   6 31394.9 778.108  15
   0   5  -6 34475.3 897.212  16
   0  -5   6 33268.6 893.259   2
   0   5  -6 31667.6 913.987  70
   0  -5   6 33939.1 937.263  61
   0  -5   6 32820.0 896.912  65
   0   5  -6 33405.3 891.004  21
   0   5  -6 34204.3 897.734  26
   0   5  -5 29790.8 794.599  21
   0   5  -5 28517.8 785.438  26
   0   5  -5 29530.5 812.773  23
   0   5  -5 27974.8 788.282  89
   0  -5   5 29384.2 803.124  12
   0   5  -5 27381.0 749.459   3
   0  -5   5 28508.1 787.007   2
   0   5  -5 28968.5 787.017  16
   0   5  -5 30305.0 810.007  42
   0  -5   5 29465.7 810.079  65
   0  -5   5 28494.7 815.231  62
   0  -5   5 29039.6 719.669  52
   0  -5   5 28650.5 816.413  54
   0  -5   5 27827.6 710.635  47
   0  -5   4 13214.9 462.319   2
   0  -5   4 12797.4 392.917  15
   0   5  -4 13182.5 462.599  16
   0  -5   4 13807.6 479.062  12
   0   5  -4 13465.8 472.765  89
   0  -5   4 13130.2 493.396  81
   0   5  -4 13741.3 447.298  80
   0   5  -4 14600.3 479.139  42
   0  -5   4 14353.4 407.153  47
   0  -5   4 13974.0 498.726  54
   0  -5   4 13364.7 413.638  52
   0   5  -4 13331.2 468.616  21
   0  -5   4 13997.7 462.136  19
   0   5  -4 13596.3 480.378  23
   0  -5   3 43478.0 1054.36   2
   0   5  -3 45110.0 1025.55  10
   0  -5   3 42586.2 917.286   9
   0   5  -3 44692.4 1062.88  89
   0  -5   3 46641.2 1117.55  82
   0   5  -3 44486.1 1049.69  42
   0   5  -3 42862.0 1081.58  75
   0  -5   3 40756.1 1059.22  65
   0  -5   3 44241.6 1063.06  62
   0   5  -3 44721.9 1078.98  23
   0  -5   3 46454.3 1060.62  19
   0  -5   3 38041.3 901.443  22
   0   5  -3 46088.3 1076.43  31
   0   5  -2 1797.52 175.313  18
   0   5  -2 1774.68 175.204  31
   0   5  -2 1667.35 174.634  27
   0  -5   2 1717.68 167.495  19
   0  -5   2 1489.84 99.3646  22
   0  -5   2 1488.78 178.455  82
   0  -5   2 1190.50 79.9857  43
   0   5  -2 1552.53 182.702  75
   0  -5   2 1443.47 205.257  65
   0  -5   2 1473.76 151.116  62
   0  -5   2 1632.40 136.897   9
   0  -5   2 1558.09 168.189   2
   0   5  -2 1899.17 178.514  10
   0   5  -1 68820.5 1652.09  18
   0   5  -1 76922.2 1678.80  30
   0  -5   1 74317.1 1554.54  22
   0   5  -1 75547.8 1681.13  27
   0   5  -1 76310.9 1685.53  31
   0  -5   1 82703.3 1606.04   9
   0   5  -1 71559.8 1672.03  12
   0   5  -1 77138.9 1653.58  10
   0  -5   1 77564.1 1581.36  86
   0  -5   1 69076.6 1548.92  83
   0  -5   1 79076.8 1725.62  82
   0  -5   1 67392.0 1596.26  35
   0   5  -1 74243.5 1701.93  75
   0  -5   1 65530.1 1637.37  65
   0  -5   1 75465.5 1642.00  52
   0   5   0 989.850 148.378  18
   0   5   0 1138.96 161.344  30
   0   5   0 1005.67 156.118  27
   0  -5   0 917.218 156.743   9
   0   5   0 1045.31 141.280   6
   0   5   0 1099.78 156.968  12
   0   5   0 1141.68 162.882  10
   0  -5   0 1181.32 110.824  86
   0  -5   0 779.607 151.641  82
   0  -5   0 805.514 106.763  83
   0  -5   0 1049.13 125.160  35
   0   5   0 968.269 174.210  75
   0  -5   0 786.565 156.122  65
   0   5   0 1051.82 150.737  49
   0   5   1 33165.4 867.777  27
   0   5   1 34095.0 864.411  19
   0   5   1 30980.7 829.062  18
   0   5   1 35015.2 876.087  30
   0  -5  -1 31482.9 825.377   9
   0   5   1 30444.4 784.994   6
   0  -5  -1 38359.1 895.561   1
   0   5   1 32094.2 850.955  12
   0  -5  -1 37684.4 761.552  86
   0   5   1 34298.6 838.637  77
   0  -5  -1 32097.1 897.841  82
   0  -5  -1 28955.3 772.646  83
   0  -5  -1 34208.2 767.151  35
   0  -5  -1 33728.3 837.281  36
   0  -5  -1 30615.2 714.495  40
   0   5   1 30418.8 880.317  75
   0  -5  -1 27817.7 756.185  65
   0   5   1 37263.8 867.142  49
   0  -5  -2 25486.4 802.753   9
   0   5   2 29666.1 821.595  12
   0  -5  -2 33206.7 852.374   1
   0   5   2 26343.7 729.635   6
   0  -5  -2 32354.6 728.062  15
   0  -5  -2 29384.9 689.335   8
   0  -5  -2 35605.7 724.669  86
   0  -5  -2 29311.5 767.990  83
   0   5   2 34219.9 819.660  77
   0  -5  -2 34308.6 901.091  84
   0   5   2 35061.5 856.015  49
   0   5   2 31761.7 878.022  56
   0   5   2 32459.4 842.037  30
   0   5   2 30873.9 804.243  18
   0   5   2 32407.4 842.162  19
   0  -5  -2 32546.2 722.180  35
   0  -5  -2 24934.9 702.398  40
   0  -5  -2 30274.0 789.471  36
   0  -5  -3 75286.2 1594.01  15
   0  -5  -3 77011.6 1713.21   1
   0  -5  -3 60823.8 1667.94   9
   0  -5  -3 63459.6 1531.00   8
   0  -5  -3 78559.2 1548.88  86
   0   5   3 75953.4 1732.53  90
   0  -5  -3 66326.4 1602.68  36
   0  -5  -3 70492.1 1731.79  41
   0   5   3 74180.9 1760.75  75
   0   5   3 77606.9 1706.33  19
   0   5   3 73338.7 1696.71  30
   0   5   3 70698.6 1648.38  18
   0   5   3 84935.1 1763.59  49
   0   5   3 71098.1 1729.93  56
   0  -5  -3 77348.0 1615.81  45
   0  -5  -4 42434.0 1079.31   1
   0  -5  -4 38492.3 996.331  15
   0   5   4 40488.9 1088.47   4
   0  -5  -4 34804.3 925.440   8
   0  -5  -4 41784.6 910.900  86
   0   5   4 45126.1 1054.42  77
   0  -5  -4 37917.8 962.317  40
   0  -5  -4 42461.3 1130.95  41
   0   5   4 45001.2 1160.18  75
   0   5   4 42506.3 1126.09  56
   0  -5  -4 40351.5 1015.18  45
   0   5   4 44518.6 1093.24  19
   0   5   5 48180.0 1221.53  19
   0   5   5 47006.1 1249.73  90
   0   5   5 48020.9 1177.67  77
   0  -5  -5 46825.6 1294.12  84
   0   5   5 46040.7 1219.23   4
   0   5   5 50112.4 1369.04  39
   0  -5  -5 48619.9 1285.70  41
   0   5   5 42770.2 1150.23  66
   0  -5  -5 40785.3 1161.50  45
   0   5   5 45656.2 1257.07  56
   0   5   6 37734.1 1052.11  19
   0  -5  -6 38085.7 1138.55  84
   0   5   6 38677.3 1014.32  77
   0   5   6 37310.2 1082.66  90
   0  -5  -6 37392.7 1117.96  41
   0   5   6 37607.9 1186.68  39
   0   5   6 34216.4 997.851  66
   0   5   6 34771.5 1080.05  56
   0   5   7 3545.50 271.422  77
   0  -5  -7 3398.93 323.315  84
   0   5   7 3730.74 302.460  90
   0  -5  -7 3355.58 307.233  41
   0   5   7 3577.68 344.435  39
   0   5   7 3131.99 250.954  66
   0   5   7 3488.54 333.407  53
   0   5   7 3596.25 311.202  56
   0   5   8 43430.0 1263.88  90
   0   5   8 41300.3 1356.00  39
   0  -5  -8 41545.2 1327.03  41
   0   5   8 44459.9 1190.22  77
   0  -5  -8 43153.2 1356.69  84
   0   5   8 44412.6 1227.39  19
   0   5   8 44409.7 1312.98  44
   0   5   8 40887.2 1280.32  56
   0   5   8 43693.7 1365.43  53
   0   5   9 12323.9 577.223  90
   0   5   9 13167.3 534.539  77
   0  -5  -9 12661.9 659.416  84
   0   5   9 13148.6 557.980  19
   0   5   9 12217.5 659.908  53
   0   5   9 12504.4 610.815  56
   0   5   9 12437.7 618.021  44
   0  -5  -9 12258.1 651.302  41
   0  -5 -10 11353.0 645.340  84
   0   5  10 13041.7 535.869  77
   0   5  10 12192.9 540.844  30
   0   5  10 12917.6 551.515  19
   0   5  10 12438.8 674.432  53
   0   5  10 11508.0 600.644  56
   0  -5 -10 10634.4 629.418  41
   0   5  10 13396.7 656.248  44
   0  -5 -11 144.545 208.744  84
   0   5  11 408.270 170.700  77
   0   5  11 272.160 214.652  44
   0  -5 -11 285.869 214.554  41
   0   5  11 196.324 140.381  30
   0   5  11 262.373 146.304  19
   0   5  11 136.885 175.906  56
   0  -5 -12 13409.4 703.444  41
   0   5  12 14433.0 655.185  75
   0   5  12 13954.9 565.511  30
   0   5  12 13245.2 548.877  19
   0   5  12 15536.1 673.087  56
   0   5  12 16012.7 682.562  46
   0   5  13 433.820 172.784  75
   0  -5 -13 338.231 177.511  41
   0   5  13 422.570 206.532  46
   0   5  13 337.991 173.949  56
   0  -5 -13 390.924 190.507  84
   0   5  13 361.954 130.618  77
   0   5  14 88.2010 128.882  75
   0  -5 -14 130.762 145.090  41
   0   5  14 102.651 133.307  56
   0  -5 -14 166.477 160.027  83
   0  -5 -14 320.301 166.163  84
   0   5  15 4406.95 261.564  75
   0  -5 -15 5808.93 338.385  41
   0   5  15 6305.50 312.906  56
   0  -5 -15 4605.50 279.050  83
   0  -6  18 4613.52 274.062  71
   0   6 -18 3656.55 260.814  72
   0  -6  18 3427.37 215.745  90
   0   6 -18 4421.23 289.284  85
   0   6 -17 32.7730 147.881  85
   0  -6  17 80.4795 138.016  71
   0   6 -17 16.1398 141.432  72
   0   6 -16 11785.8 600.755  72
   0   6 -16 12015.9 605.182  85
   0  -6  15 814.262 222.214  81
   0   6 -15 508.858 217.102  72
   0  -6  15 555.019 209.247  71
   0  -6  14 16726.7 736.123  81
   0   6 -14 15222.9 757.247  85
   0   6 -13 425.903 222.149  85
   0  -6  13 467.825 199.474  81
   0   6 -13 494.323 217.983  79
   0  -6  13 440.379 208.113  71
   0   6 -13 418.527 223.932  72
   0   6 -12 619.030 252.410  70
   0   6 -12 387.708 203.532  42
   0  -6  12 398.812 107.726  78
   0   6 -12 731.746 247.725  85
   0  -6  12 903.839 234.069  81
   0  -6  12 687.838 203.987  54
   0   6 -11 13979.7 695.240  85
   0  -6  11 15001.8 672.620  81
   0   6 -11 16384.2 694.708  34
   0   6 -11 15894.9 678.256  42
   0   6 -11 17196.6 747.045  37
   0   6 -11 13972.4 682.469  70
   0   6 -11 15410.3 747.195  67
   0  -6  11 16287.3 641.492  54
   0  -6  10 102.037 172.268  54
   0  -6  10 43.0475 91.7208  78
   0   6 -10 30.4384 190.191  85
   0  -6  10 156.024 182.007  81
   0   6 -10 83.0261 325.368  37
   0   6 -10 136.657 181.005  42
   0   6 -10 107.554 201.218  70
   0  -6  10 115.189 186.804  61
   0   6 -10 352.636 366.184  67
   0   6 -10 23.2195 276.636  34
   0   6  -9 47795.2 1378.56  85
   0  -6   9 46447.0 1360.07  81
   0  -6   9 38312.2 1094.81  78
   0   6  -9 53968.9 1374.10  37
   0   6  -9 51890.2 1355.42  42
   0   6  -9 48506.8 1372.10  70
   0  -6   9 50903.6 1383.45  61
   0   6  -9 54106.8 1401.71  67
   0  -6   9 43057.8 1116.40  47
   0  -6   9 53187.0 1350.14  54
   0  -6   8 1323.75 143.664  47
   0  -6   8 1449.60 222.986  54
   0  -6   8 1253.88 134.414  78
   0   6  -8 1521.14 230.923  80
   0   6  -8 1481.27 225.857  85
   0  -6   8 1551.68 241.630  81
   0   6  -8 1702.63 312.941  37
   0   6  -8 1398.29 219.180  42
   0   6  -8 1417.90 219.417  70
   0   6  -8 1869.04 329.457  67
   0  -6   8 1474.29 232.724  61
   0  -6   8 1427.69 199.715   2
   0  -6   7 5186.73 315.914   2
   0  -6   7 4868.44 237.356  47
   0  -6   7 5032.25 339.222  54
   0  -6   7 5193.64 362.082  81
   0   6  -7 5311.56 350.911  85
   0   6  -7 5202.72 313.105  80
   0   6  -7 5531.13 347.828  42
   0   6  -7 5237.44 341.770  70
   0  -6   7 5693.85 368.771  61
   0  -6   7 5174.83 322.221  65
   0   6  -7 5963.33 371.071  26
   0   6  -6 14544.4 538.904  16
   0  -6   6 13923.8 533.999   2
   0   6  -6 14327.7 502.104   3
   0  -6   6 14903.1 570.452  54
   0  -6   6 14332.0 578.282  81
   0   6  -6 14392.0 505.356  80
   0   6  -6 15448.1 566.701  42
   0   6  -6 13729.7 564.348  70
   0  -6   6 14761.3 542.397  65
   0   6  -6 14383.5 537.805  21
   0   6  -6 14829.0 545.242  26
   0   6  -5 11152.6 445.998  16
   0  -6   5 10724.7 442.205   2
   0  -6   5 10306.1 367.453  52
   0  -6   5 10529.9 468.077  54
   0   6  -5 10777.5 419.931  80
   0  -6   5 11325.0 490.152  81
   0   6  -5 11188.9 456.100  42
   0   6  -5 10760.1 469.914  70
   0  -6   5 11053.8 467.302  62
   0  -6   5 10899.6 453.778  65
   0   6  -5 10876.3 444.554  26
   0   6  -5 11102.7 443.518  21
   0   6  -5 10986.2 464.869  23
   0  -6   4 55116.1 1301.48  52
   0   6  -4 59173.8 1403.95  42
   0   6  -4 53437.5 1349.62  16
   0  -6   4 55652.5 1387.96   2
   0  -6   4 58256.7 1409.35  62
   0  -6   4 60182.4 1406.05  65
   0   6  -4 56411.2 1373.04  21
   0   6  -4 56321.5 1409.36  23
   0   6  -3 59809.9 1440.59  21
   0   6  -3 64245.8 1500.23  31
   0   6  -3 61256.2 1497.14  23
   0   6  -3 61089.2 1478.55  89
   0   6  -3 63928.3 1479.27  42
   0   6  -3 61894.0 1441.17  10
   0  -6   3 57716.1 1457.68   2
   0   6  -3 57599.3 1499.87  75
   0  -6   3 61324.3 1482.18  62
   0  -6   3 63259.0 1418.85  52
   0   6  -2 29476.9 825.690  89
   0   6  -2 29196.0 797.069  42
   0   6  -2 28736.7 848.947  75
   0   6  -2 31315.5 844.921  31
   0   6  -2 30042.7 827.038  27
   0  -6   2 28887.6 814.848  62
   0  -6   2 26508.5 711.429   9
   0   6  -2 31581.2 806.638  10
   0   6  -1 838.361 151.568   6
   0   6  -1 651.560 153.822  12
   0  -6   1 531.436 158.265   9
   0   6  -1 771.904 169.727  10
   0   6  -1 721.095 154.746  49
   0   6  -1 587.025 173.954  56
   0   6  -1 740.331 168.068  75
   0  -6   1 677.421 166.245  65
   0  -6   1 752.293 148.263  62
   0   6  -1 736.939 160.357  18
   0   6  -1 664.593 156.894  31
   0   6  -1 748.335 159.781  27
   0   6   0 98343.4 2308.48  18
   0   6   0 111026. 2353.57  30
   0   6   0 106236. 2349.36  31
   0   6   0 110726. 2355.85  27
   0  -6   0 104428. 2184.50  86
   0   6   0 98725.3 2269.94   6
   0   6   0 101997. 2335.80  12
   0  -6   0 125720. 2408.59   1
   0   6   0 102301. 2316.32  10
   0  -6   0 86187.5 2240.69   9
   0   6   0 105776. 2382.95  75
   0  -6   0 101977. 2243.92  65
   0   6   0 104715. 2378.17  56
   0   6   0 120073. 2348.34  49
   0  -6  -1 2627.24 222.006   1
   0  -6  -1 1736.71 214.305   9
   0   6   1 2319.42 210.208  12
   0   6   1 1982.07 168.365   6
   0  -6  -1 3021.34 146.135  86
   0  -6  -1 2429.60 192.078  36
   0   6   1 2437.01 234.523  75
   0   6   1 2546.88 229.532  27
   0   6   1 2358.00 213.876  18
   0   6   1 2793.81 230.891  30
   0   6   1 2858.52 227.472  49
   0   6   1 2544.56 250.307  56
   0  -6  -2 30858.7 890.288   1
   0   6   2 27946.8 845.726  12
   0  -6  -2 33407.3 714.763  86
   0   6   2 31027.1 844.285  77
   0  -6  -2 28101.3 915.611  82
   0  -6  -2 28866.2 821.991  36
   0   6   2 30770.0 923.578  75
   0   6   2 32345.9 893.835  30
   0   6   2 29092.4 875.313  27
   0   6   2 26501.3 821.135  18
   0   6   2 33231.7 897.347  49
   0   6   2 29142.9 902.687  56
   0   6   3 11452.5 497.073   4
   0  -6  -3 11188.3 473.189   1
   0  -6  -3 10889.9 299.363  86
   0  -6  -3 10453.2 485.772  84
   0   6   3 11292.7 441.092  77
   0  -6  -3 11116.4 489.002  41
   0   6   3 10991.6 500.452  75
   0   6   3 11352.0 460.798  19
   0   6   3 10248.8 423.919  18
   0   6   3 11224.7 469.238  27
   0   6   3 11443.3 469.176  30
   0  -6  -3 10588.4 396.164  45
   0   6   3 10979.8 495.719  56
   0   6   4 17122.4 648.536  56
   0  -6  -4 14449.9 542.052  45
   0   6   4 18450.7 588.235  77
   0  -6  -4 16594.3 649.518  84
   0   6   4 17810.2 716.262  39
   0  -6  -4 15821.9 639.853  41
   0   6   4 17647.2 668.248  75
   0   6   4 16795.0 608.058  30
   0   6   4 16856.2 603.612  19
   0   6   4 15228.9 548.908  18
   0  -6  -4 15976.5 598.501   1
   0   6   4 15525.4 611.311   4
   0   6   5 41039.8 1225.80  56
   0   6   5 43297.1 1137.14  77
   0  -6  -5 43640.9 1261.28  84
   0   6   5 45170.2 1341.69  39
   0  -6  -5 41342.7 1237.68  41
   0   6   5 42211.1 1256.57  75
   0   6   5 42773.1 1184.40  30
   0   6   5 41006.3 1109.47  18
   0   6   5 42022.3 1152.70  12
   0   6   6 22994.1 771.540  12
   0   6   6 23962.4 827.929  90
   0  -6  -6 23551.5 872.466  84
   0   6   6 24108.1 767.981  77
   0  -6  -6 23518.1 862.924  41
   0   6   6 23699.9 929.971  39
   0   6   6 22900.1 860.993  75
   0   6   6 24543.8 814.261  30
   0   6   6 25872.5 823.914  19
   0   6   6 22552.9 842.369  56
   0   6   7 22130.3 768.681  12
   0   6   7 23838.7 838.878  90
   0  -6  -7 23860.5 907.078  84
   0   6   7 24219.0 779.282  77
   0   6   7 23861.4 953.203  39
   0  -6  -7 23233.6 883.495  41
   0   6   7 22697.3 882.246  75
   0   6   7 25282.6 827.867  19
   0   6   7 22563.7 908.752  53
   0   6   7 22258.7 856.086  56
   0   6   8 3587.67 286.558  12
   0   6   8 3460.63 316.933  90
   0  -6  -8 3698.70 360.569  84
   0   6   8 3866.36 296.581  77
   0   6   8 3292.63 359.180  39
   0  -6  -8 3098.78 341.288  41
   0   6   8 3556.14 344.911  56
   0   6   8 3795.26 344.219  44
   0   6   8 3501.34 363.172  53
   0   6   8 3783.29 309.033  19
   0   6   8 3526.42 304.057  30
   0   6   8 3176.93 330.961  75
   0   6   9 10658.6 485.680  77
   0  -6  -9 9921.67 583.817  84
   0   6   9 10155.5 565.815  75
   0   6   9 10069.4 559.630  56
   0   6   9 9418.64 480.568  27
   0   6   9 10819.1 511.593  30
   0   6   9 10385.4 500.104  19
   0  -6 -10 4193.95 399.531  84
   0   6  10 4914.82 327.193  77
   0  -6 -10 4268.30 412.072  41
   0   6  10 4753.74 399.298  44
   0   6  10 4273.49 405.418  53
   0   6  10 5093.87 344.373  19
   0   6  10 4745.59 331.746  27
   0   6  10 5201.83 353.410  30
   0   6  10 4682.63 386.334  75
   0   6  11 40467.1 1260.70  44
   0  -6 -11 36378.6 1281.98  41
   0   6  11 38863.0 1227.77  75
   0   6  11 41996.6 1246.52  56
   0   6  11 35771.6 1079.03  27
   0   6  11 40208.1 1135.23  30
   0  -6 -12 138.457 177.302  84
   0   6  12 397.491 170.746  75
   0   6  12 353.060 180.514  56
   0   6  12 328.720 195.551  46
   0   6  12 214.790 129.487  30
   0  -6 -12 273.622 189.342  41
   0   6  13 8788.82 435.956  75
   0  -6 -13 8573.86 490.281  41
   0   6  13 9630.89 458.054  56
   0   6  14 3867.52 256.464  56
   0   6  14 3120.09 224.547  75
   0  -6 -14 3603.82 278.855  41
   0   7 -18 6177.19 324.001  85
   0  -7  18 6757.06 311.156  71
   0   7 -18 6056.93 314.386  72
   0   7 -17 8198.80 438.449  85
   0  -7  17 9488.29 426.051  71
   0   7 -17 8065.03 432.848  72
   0   7 -16 136.829 163.501  85
   0   7 -16 145.470 156.335  72
   0  -7  16 283.448 166.489  71
   0  -7  15 1361.31 241.695  81
   0   7 -15 1289.27 250.207  85
   0  -7  15 1502.95 250.728  71
   0   7 -15 1323.62 257.818  72
   0   7 -14 1750.79 296.291  72
   0  -7  14 2242.28 295.245  71
   0  -7  13 32367.7 1086.71  81
   0   7 -13 27195.7 831.924  79
   0   7 -13 29458.1 1113.04  85
   0   7 -13 28882.1 1099.71  72
   0  -7  13 33109.1 1073.03  71
   0  -7  12 3331.78 342.242  81
   0   7 -12 3365.38 382.415  70
   0   7 -12 3996.77 476.912  67
   0   7 -12 3520.56 378.607  85
   0  -7  11 12076.8 633.529  81
   0   7 -11 10994.7 638.488  85
   0   7 -11 12118.3 618.804  42
   0   7 -11 13168.4 690.065  37
   0   7 -11 11317.8 636.925  70
   0   7 -11 12561.1 700.964  67
   0  -7  11 11369.7 563.245  54
   0  -7  10 10377.9 565.308  81
   0   7 -10 10546.2 583.404  85
   0   7 -10 12358.2 626.922  37
   0   7 -10 11471.3 576.363  34
   0   7 -10 11694.1 581.270  42
   0   7 -10 11003.1 594.417  70
   0  -7  10 12084.0 591.068  61
   0   7 -10 12317.0 666.009  67
   0  -7  10 11336.7 543.314  54
   0   7  -9 2265.55 292.336  85
   0  -7   9 2398.60 309.588  81
   0  -7   9 1948.05 156.044  78
   0   7  -9 2589.75 373.871  37
   0   7  -9 2924.36 310.406  42
   0   7  -9 2835.11 305.903  70
   0   7  -9 2967.01 407.268  67
   0  -7   9 2748.72 314.753  61
   0  -7   9 3066.89 305.138  54
   0   7  -8 19417.9 754.714  85
   0   7  -8 18764.7 645.672  80
   0  -7   8 18833.6 759.608  81
   0   7  -8 21153.6 743.687  37
   0   7  -8 20888.6 771.824  42
   0   7  -8 19124.7 736.632  70
   0  -7   8 18991.9 750.301  61
   0   7  -8 21953.9 786.451  67
   0  -7   8 18887.5 714.821  54
   0   7  -7 36811.6 1001.43  26
   0   7  -7 32492.6 1030.63  85
   0  -7   7 34606.9 1062.85  81
   0   7  -7 34597.6 927.943  80
   0   7  -7 36382.6 1043.12  42
   0   7  -7 33583.7 1037.78  70
   0  -7   7 36010.2 1065.48  61
   0  -7   7 34116.6 997.422   2
   0   7  -6 22621.1 745.488  21
   0   7  -6 24033.7 752.863  26
   0  -7   6 23243.1 824.383  81
   0   7  -6 22609.6 713.658  80
   0   7  -6 24861.2 814.769  42
   0   7  -6 22215.0 796.515  70
   0  -7   6 23316.5 755.558  65
   0  -7   6 22680.3 770.857   2
   0   7  -6 23793.7 749.121  16
   0   7  -6 22642.2 707.896   3
   0   7  -5 8343.87 395.834  16
   0  -7   5 8145.60 408.358   2
   0   7  -5 7737.17 365.253   3
   0   7  -5 8251.17 414.880  89
   0  -7   5 8671.60 454.503  81
   0   7  -5 8528.50 391.189  80
   0   7  -5 8589.57 424.706  42
   0   7  -5 8433.20 442.478  70
   0  -7   5 8363.64 408.772  65
   0  -7   5 8387.68 423.023  62
   0   7  -5 8407.73 432.824  23
   0   7  -5 8321.36 402.880  26
   0   7  -5 8874.75 411.741  21
   0   7  -4 43119.6 1196.74   6
   0  -7   4 42369.8 1173.23   2
   0   7  -4 42556.6 1129.97  16
   0   7  -4 42746.3 1180.68  89
   0   7  -4 44362.7 1123.63  80
   0  -7   4 43891.0 1230.53  81
   0   7  -4 44968.2 1188.75  42
   0  -7   4 46499.0 1176.36  65
   0  -7   4 44439.0 1198.61  62
   0   7  -4 44911.7 1212.89  23
   0   7  -4 43931.5 1148.76  21
   0   7  -3 18946.4 643.677  89
   0  -7   3 19428.1 699.394  82
   0   7  -3 18808.9 603.610  80
   0   7  -3 18859.5 645.419   6
   0   7  -3 17922.0 671.495  75
   0  -7   3 18496.5 642.167  62
   0  -7   3 19543.6 629.877  65
   0   7  -3 18342.4 612.913  21
   0   7  -3 19930.2 672.090  31
   0   7  -3 18465.8 660.399  23
   0   7  -2 24837.9 788.911  31
   0   7  -2 24020.6 783.112  23
   0   7  -2 24194.7 767.522  89
   0  -7   2 25460.8 827.350  82
   0   7  -2 26289.6 764.495  49
   0   7  -2 23467.6 799.377  75
   0  -7   2 23820.0 762.384  62
   0  -7   2 24079.6 728.881  65
   0   7  -2 24260.9 748.816   6
   0  -7   1 12241.7 494.833   1
   0   7  -1 10205.1 419.007   6
   0   7  -1 11608.7 451.572  49
   0  -7   1 10831.5 488.188  82
   0   7  -1 10562.9 485.350  75
   0   7  -1 10824.9 494.324  56
   0  -7   1 10173.1 439.462  62
   0   7  -1 10963.6 465.335  27
   0   7  -1 10768.0 467.334  31
   0   7   0 10140.1 417.622   6
   0  -7   0 13204.2 523.300   1
   0   7   0 12417.6 479.310  49
   0  -7   0 11243.7 505.856  82
   0  -7   0 11502.5 467.064  36
   0   7   0 10770.8 500.401  75
   0   7   0 11706.8 522.219  56
   0   7   0 11620.8 490.759  31
   0   7   0 11879.4 490.508  27
   0   7   0 11825.2 484.811  18
   0   7   0 12420.2 495.658  30
   0   7   1 17069.6 596.291  49
   0   7   1 15420.7 620.558  56
   0  -7  -1 14911.6 606.822  82
   0  -7  -1 15763.7 564.222  36
   0   7   1 14798.4 608.924  75
   0  -7  -1 16647.6 614.943   1
   0   7   1 15316.0 583.735  30
   0   7   1 14742.6 571.786  18
   0   7   1 16138.4 592.699  31
   0   7   1 15397.3 583.475  27
   0   7   2 8498.06 453.499  56
   0   7   2 9092.28 443.080  49
   0  -7  -2 8556.13 452.605  82
   0  -7  -2 7893.06 371.690  36
   0   7   2 8277.51 447.780  75
   0   7   2 8391.09 409.884  12
   0  -7  -2 9336.39 449.536   1
   0   7   2 8986.78 429.751  30
   0   7   2 8402.77 421.747  27
   0   7   3 7842.68 449.382  56
   0  -7  -3 7429.03 435.910  82
   0   7   3 8385.03 402.180  77
   0  -7  -3 7936.59 440.121  41
   0   7   3 8434.41 460.030  75
   0   7   3 8152.85 405.608  12
   0  -7  -3 8064.56 427.662   1
   0   7   3 7884.84 418.149  27
   0   7   3 8409.76 433.092  30
   0   7   4 246.530 185.759  56
   0   7   4 290.678 155.533  77
   0  -7  -4 275.386 154.614  82
   0   7   4 231.151 183.533  39
   0  -7  -4 215.403 159.459  41
   0   7   4 390.832 187.452  75
   0   7   4 253.050 145.913  12
   0   7   4 893.866 255.760  18
   0   7   4 241.884 151.779  27
   0   7   4 296.187 151.233  30
   0   7   5 25639.0 925.165  56
   0   7   5 26994.5 842.312  77
   0   7   5 26660.6 1013.80  39
   0  -7  -5 26280.6 930.737  41
   0   7   5 26243.8 940.220  75
   0   7   5 26233.8 848.295  12
   0   7   5 25091.5 823.624  18
   0   7   5 26404.7 887.401  30
   0   7   5 27024.9 895.389  27
   0   7   6 2163.94 244.520  77
   0  -7  -6 2372.82 284.617  41
   0   7   6 2458.55 315.787  39
   0   7   6 2466.75 294.678  75
   0   7   6 2177.36 236.783  12
   0   7   6 2294.24 303.008  53
   0   7   6 2484.83 304.123  56
   0   7   7 23595.7 902.253  56
   0   7   7 23698.2 945.775  53
   0   7   7 23127.7 866.240  44
   0  -7  -7 23636.6 924.422  84
   0   7   7 24118.9 798.291  77
   0   7   7 22386.5 960.111  39
   0  -7  -7 22643.3 907.365  41
   0   7   7 22956.9 902.268  75
   0   7   7 23239.3 793.569  12
   0   7   7 24076.8 840.477  27
   0   7   7 25478.3 866.431  30
   0   7   8 5014.81 333.640  77
   0  -7  -8 4071.93 385.761  84
   0   7   8 3899.00 364.484  75
   0   7   8 4485.95 378.568  56
   0   7   8 4610.97 340.991  30
   0   7   8 4059.13 325.424  27
   0   7   9 3989.70 301.569  77
   0  -7  -9 3073.54 345.667  41
   0   7   9 3270.15 359.855  53
   0   7   9 3779.26 347.641  44
   0   7   9 4039.91 319.733  30
   0   7   9 3985.84 306.341  27
   0   7   9 3530.53 345.712  75
   0   7  10 11066.3 566.313  44
   0  -7 -10 9101.99 568.178  41
   0   7  10 10755.7 552.160  75
   0   7  10 11503.8 571.047  56
   0   7  10 11241.6 615.346  53
   0   7  10 11396.3 509.660  30
   0   7  10 10377.1 475.612  27
   0  -7 -11 576.284 188.067  82
   0   7  11 401.929 179.324  44
   0  -7 -11 700.340 205.241  41
   0   7  11 654.277 175.593  75
   0   7  11 981.773 208.554  56
   0   7  11 823.917 161.418  30
   0   7  11 552.981 135.596  27
   0  -7 -12 17952.1 732.172  82
   0   7  12 21973.2 734.555  75
   0  -7 -12 21197.4 804.150  41
   0  -7 -12 25978.3 899.585  60
   0   7  12 23850.1 773.302  56
   0   7  13 1334.97 158.015  75
   0  -7 -13 1766.66 209.543  41
   0  -7 -13 1988.07 226.212  60
   0   7  13 1814.21 194.870  56
   0   8 -17 6018.75 346.832  85
   0   8 -17 6380.36 351.563  72
   0  -8  17 6933.54 335.642  71
   0   8 -16 3901.63 317.830  72
   0  -8  16 4076.64 298.332  71
   0   8 -16 4101.75 326.320  85
   0  -8  16 4375.43 315.952  81
   0  -8  15 1376.87 222.945  71
   0   8 -15 1467.54 246.261  72
   0   8 -15 1256.76 247.922  85
   0  -8  15 1358.06 233.800  81
   0  -8  14 10159.0 530.851  71
   0   8 -14 9269.53 554.953  72
   0   8 -14 9239.41 558.173  85
   0  -8  14 10348.0 544.405  81
   0   8 -13 1017.14 261.772  85
   0  -8  13 1282.27 201.815  36
   0   8 -12 19053.6 856.165  70
   0  -8  12 21297.2 860.415  81
   0   8 -12 19662.9 876.075  85
   0   8 -11 58.4679 222.789  70
   0   8 -11 45.6185 369.267  37
   0   8 -11-133.310 211.587  85
   0  -8  11 21.8888 192.531  81
   0   8 -11 188.754 370.265  67
   0  -8  11 72.0898 201.791  61
   0   8 -10 21127.5 880.517  70
   0  -8  10 23918.0 889.787  61
   0   8 -10 21777.1 897.835  67
   0  -8  10 18742.9 842.882  81
   0   8 -10 19184.9 864.178  85
   0   8  -9 2889.78 333.508  70
   0   8  -9 2673.97 396.172  37
   0   8  -9 3041.26 424.408  67
   0  -8   9 2772.02 333.692  61
   0   8  -9 2565.00 310.901  80
   0  -8   9 3036.62 348.536  81
   0   8  -9 3192.47 341.704  85
   0   8  -8 4769.39 393.324  70
   0   8  -8 5215.87 434.421  37
   0   8  -8 4438.42 375.378  42
   0  -8   8 4755.74 407.129  61
   0   8  -8 5427.58 462.496  67
   0  -8   8 4973.33 413.867  81
   0   8  -8 4533.61 390.035  85
   0   8  -8 4827.87 362.659  80
   0   8  -7 3358.13 334.649  26
   0  -8   7 3242.56 332.956  81
   0   8  -7 2683.93 299.835  85
   0   8  -7 2832.59 301.733  80
   0   8  -7 3153.42 308.446  42
   0   8  -7 3045.38 328.738  70
   0  -8   7 3009.37 326.415  61
   0  -8   7 3171.02 257.753   1
   0   8  -6 40221.2 1254.68  70
   0   8  -6 39750.7 1128.42  80
   0  -8   6 41351.1 1282.91  81
   0   8  -6 41750.5 1158.06  26
   0   8  -5 26023.3 888.100  89
   0   8  -5 27413.8 842.557  80
   0  -8   5 27822.5 961.447  81
   0   8  -5 27768.4 949.301  70
   0  -8   5 27800.6 932.020  62
   0   8  -5 28485.3 940.089  23
   0   8  -5 27398.4 846.830  26
   0   8  -5 28964.3 873.162  21
   0   8  -4 16761.9 602.485  26
   0   8  -4 18567.6 696.210  23
   0   8  -4 17326.5 618.690  21
   0   8  -4 17130.0 661.987  89
   0   8  -4 16557.1 608.518  80
   0  -8   4 17050.2 697.192  81
   0   8  -4 17560.5 617.730  16
   0  -8   4 20531.4 705.683   1
   0   8  -4 16729.5 701.625  70
   0  -8   4 18032.0 675.069  62
   0   8  -4 19107.2 655.177  49
   0   8  -3 40877.5 1164.50  31
   0   8  -3 38126.9 1071.91  21
   0   8  -3 38231.3 1144.66  23
   0   8  -3 37446.2 1119.64  89
   0   8  -3 39303.2 1064.84  80
   0  -8   3 38108.4 1122.26  62
   0   8  -3 41104.2 1116.80  49
   0   8  -2 102.672 163.271  23
   0   8  -2 26.9094 152.711  21
   0   8  -2 58.1447 132.585  31
   0  -8   2 75.9910 145.249   1
   0   8  -2 47.1696 145.735  89
   0  -8   2 57.7713 139.627  82
   0   8  -2 175.638 167.426  75
   0  -8   2 13.3434 123.396  62
   0   8  -2 104.438 140.573  49
   0   8  -1 75459.3 1885.83  31
   0  -8   1 82230.9 1936.91   1
   0   8  -1 74082.0 1858.51  89
   0  -8   1 70219.5 1900.88  82
   0  -8   1 74456.1 1870.41  36
   0   8  -1 73485.2 1917.27  75
   0  -8   1 70683.4 1828.04  62
   0   8  -1 81312.4 1860.97  49
   0  -8   0 232.129 151.128   1
   0   8   0 315.735 157.183  49
   0   8   0 396.544 181.391  56
   0  -8   0 231.271 143.758  82
   0  -8   0 236.489 130.493  36
   0   8   0 287.801 169.769  75
   0  -8   0 348.497 137.265  62
   0   8   0 306.254 158.279  27
   0   8   0 192.504 141.620  31
   0   8   1 63046.7 1644.76  12
   0  -8  -1 68464.0 1729.39   1
   0  -8  -1 59932.2 1685.48  82
   0  -8  -1 60392.2 1604.97  36
   0   8   1 63219.9 1707.42  75
   0  -8  -1 61550.2 1617.30  62
   0   8   1 63210.8 1720.27  56
   0   8   1 63010.1 1660.18  31
   0   8   1 64327.7 1658.69  27
   0   8   2 12761.0 556.143  27
   0   8   2 13021.5 563.282  18
   0   8   2 11397.5 533.987  31
   0   8   2 12497.2 557.061  30
   0  -8  -2 12114.7 580.630  82
   0  -8  -2 11629.5 572.755  41
   0   8   2 12035.6 580.836  75
   0   8   2 12418.1 591.670  56
   0   8   2 12101.9 536.881  12
   0  -8  -2 12094.6 569.827   1
   0   8   3 28039.6 980.960  56
   0  -8  -3 28065.1 987.083  82
   0   8   3 28960.2 1065.53  39
   0  -8  -3 26946.4 967.006  41
   0   8   3 27381.5 972.453  75
   0   8   3 28466.2 911.399  12
   0  -8  -3 27304.5 953.498   1
   0   8   3 28463.7 930.784  31
   0   8   3 28463.4 899.420  18
   0   8   4 5821.16 420.136  56
   0  -8  -4 5696.05 409.691  82
   0   8   4 4948.46 437.195  39
   0  -8  -4 5214.97 398.232  41
   0   8   4 5711.18 414.284  75
   0   8   4 5957.78 371.466  12
   0   8   4 6278.04 415.893  18
   0   8   5 3779.38 354.607  56
   0  -8  -5 3130.47 335.397  82
   0   8   5 3917.10 388.320  39
   0  -8  -5 3504.81 332.850  41
   0   8   5 3274.78 335.565  75
   0   8   5 4052.01 307.857  12
   0   8   5 3716.70 320.461  30
   0   8   5 3277.46 302.599  31
   0   8   5 3612.80 318.801  27
   0   8   6 9050.39 527.860  56
   0   8   6 8420.65 479.031  44
   0  -8  -6 7640.36 507.055  82
   0   8   6 8709.39 515.398  75
   0   8   6 8306.52 438.129  12
   0   8   6 8957.20 483.234  30
   0   8   6 8236.43 459.243  31
   0   8   6 9096.19 480.571  27
   0   8   7 2162.93 295.485  53
   0   8   7 1985.29 285.986  56
   0   8   7 1792.47 255.830  44
   0  -8  -7 1528.09 269.422  82
   0  -8  -7 2011.29 276.062  41
   0   8   7 2167.40 315.684  39
   0   8   7 1683.28 268.491  75
   0   8   7 1482.72 212.160  12
   0   8   7 2033.99 240.938  31
   0   8   7 2018.49 254.572  30
   0   8   7 2105.41 249.232  27
   0  -8  -8 13781.3 688.280  82
   0  -8  -8 15036.6 713.229  41
   0   8   8 15380.5 724.408  53
   0   8   8 14831.5 657.958  44
   0   8   8 15417.7 693.353  56
   0   8   8 16456.5 650.204  30
   0   8   8 15986.2 631.603  27
   0   8   8 15064.3 601.217  31
   0  -8  -9 845.939 207.334  82
   0   8   9 1269.93 232.371  44
   0  -8  -9 864.219 222.748  41
   0   8   9 1122.42 216.462  75
   0   8   9 1298.07 247.707  53
   0   8   9 1161.02 230.673  56
   0   8   9 1294.11 203.149  30
   0   8   9 1153.55 175.367  31
   0   8   9 1244.38 183.642  27
   0  -8 -10 1311.95 218.722  82
   0   8  10 1607.72 227.779  44
   0  -8 -10 1671.09 253.911  41
   0   8  10 1877.76 229.900  75
   0   8  10 2267.83 257.046  56
   0   8  10 1840.47 195.939  27
   0   8  10 1840.47 210.980  30
   0  -8 -11 917.204 172.884  82
   0  -8 -11 906.043 188.592  41
   0  -8 -11 1211.08 246.267  60
   0   8  11 993.283 182.121  56
   0   8  11 919.469 159.094  75
   0   8  12 6507.58 317.576  56
   0  -8 -12 6950.71 385.795  60
   0   9 -17 388.299 113.760  85
   0   9 -16 1343.45 194.938  72
   0  -9  16 1808.30 197.226  71
   0   9 -16 2034.66 222.900  85
   0  -9  16 1898.21 203.311  81
   0   9 -15 59.8313 143.424  72
   0  -9  15 108.218 147.724  71
   0  -9  15 14.2289 141.086  81
   0   9 -15 59.5678 161.612  85
   0   9 -14 12132.4 618.611  72
   0  -9  14 13646.5 589.895  71
   0   9 -14 12469.3 626.055  85
   0  -9  14 13385.2 598.181  81
   0  -9  13 8645.68 445.311  36
   0  -9  13 7797.21 476.923  81
   0   9 -13 7349.83 498.008  85
   0   9 -12 1895.56 316.005  70
   0  -9  12 2095.66 251.100  36
   0   9 -12 2112.89 405.669  67
   0  -9  11 15417.6 675.688  36
   0   9 -11 16115.0 725.220  37
   0   9 -11 13406.1 717.613  85
   0  -9  11 15329.8 728.738  81
   0   9 -10 1033.74 263.050  85
   0  -9  10 1530.24 291.408  81
   0   9 -10 1450.58 377.599  37
   0   9 -10 1555.03 399.501  67
   0  -9  10 1542.46 273.258  61
   0   9 -10 851.889 198.043  49
   0   9 -10 1492.90 285.126  70
   0   9  -9 18728.4 808.220  70
   0  -9   9 17419.2 772.363  61
   0   9  -9 19906.0 818.878  67
   0   9  -9 17417.9 798.530  85
   0   9  -9 17852.8 685.791  80
   0  -9   9 17816.3 817.705  81
   0   9  -8 898.005 256.483  80
   0  -9   8 953.492 273.435  81
   0   9  -8 812.065 238.158  85
   0   9  -8 867.689 319.478  37
   0   9  -8 1376.58 368.477  67
   0  -9   8 891.996 254.419  61
   0   9  -8 1137.61 211.449  49
   0   9  -8 1223.42 262.650  70
   0  -9   7 26547.6 1000.18  81
   0   9  -7 27144.4 1000.05  85
   0   9  -7 26632.4 858.182  80
   0   9  -7 27851.3 996.485  70
   0  -9   7 26643.9 973.054  61
   0   9  -7 25661.9 869.245  49
   0  -9   6 3939.84 379.502  81
   0   9  -6 3632.50 329.653  80
   0  -9   6 3814.22 312.083   1
   0   9  -6 3764.73 359.824  70
   0  -9   6 3354.93 335.349  61
   0   9  -6 3806.92 309.249  49
   0   9  -5 13220.3 597.945  89
   0  -9   5 14134.3 658.420  81
   0   9  -5 13838.2 573.388  80
   0  -9   5 15047.7 630.841   1
   0   9  -5 14202.6 671.530  70
   0   9  -5 13592.8 579.721  49
   0   9  -5 14698.6 654.367  23
   0   9  -5 13849.0 573.386  21
   0  -9   4 10929.8 526.424   1
   0   9  -4 9293.86 492.578  89
   0  -9   4 9173.10 526.905  81
   0   9  -4 9478.40 469.458  80
   0   9  -4 10028.3 549.562  70
   0  -9   4 9335.01 491.612  62
   0   9  -4 10202.1 485.544  49
   0  -9   3 25781.5 888.003   1
   0   9  -3 22854.3 828.967  89
   0   9  -3 23460.8 781.202  80
   0  -9   3 23215.9 873.970  81
   0  -9   3 24224.9 870.573  36
   0  -9   3 23600.9 828.358  62
   0   9  -3 25265.6 830.964  49
   0  -9   2 13459.3 609.192   1
   0   9  -2 12778.8 570.803  89
   0   9  -2 11920.7 526.030  80
   0  -9   2 12517.2 579.057  36
   0   9  -2 12207.6 605.539  75
   0  -9   2 12251.9 549.873  62
   0   9  -2 14008.5 576.357  49
   0  -9   1 21692.0 819.222   1
   0   9  -1 19168.8 734.801  89
   0  -9   1 19526.3 794.238  82
   0  -9   1 20768.7 780.882  36
   0   9  -1 19918.8 805.878  75
   0  -9   1 20439.2 737.093  62
   0   9  -1 22357.5 769.779  49
   0  -9   0 11350.8 571.293   1
   0   9   0 10507.3 516.116  89
   0  -9   0 10391.4 553.472  82
   0  -9   0 10278.7 509.077  36
   0   9   0 10918.1 570.992  75
   0  -9   0 10282.2 495.181  62
   0  -9  -1 2050.33 264.350  82
   0   9   1 2239.86 283.341  75
   0  -9  -1 2111.26 235.676  62
   0   9   1 2453.03 303.726  56
   0   9   1 1840.73 253.169  89
   0  -9  -2 22203.4 861.518  82
   0  -9  -2 21787.8 867.839  41
   0   9   2 24780.4 988.884  39
   0   9   2 23104.6 885.294  75
   0   9   2 24245.1 907.505  56
   0  -9  -2 21938.7 793.162  62
   0   9   2 24302.9 854.331  27
   0   9   2 24111.9 857.606  31
   0  -9  -3-10.0118 149.642  82
   0   9   3 74.1553 172.795  39
   0  -9  -3 154.522 172.859  41
   0   9   3 40.1556 173.257  75
   0   9   3 41.0307 196.063  56
   0   9   3 146.246 163.908  27
   0   9   3 129.823 164.372  31
   0  -9  -4 22390.1 887.024  82
   0   9   4 22733.7 891.066  75
   0   9   4 24320.1 920.762  56
   0   9   4 24815.4 865.395  27
   0   9   4 23834.1 851.587  31
   0   9   5 5367.63 433.806  53
   0  -9  -5 5565.09 411.242  82
   0   9   5 5924.87 471.797  39
   0  -9  -5 5557.05 414.781  41
   0   9   5 5349.93 406.381  75
   0   9   5 6011.80 435.077  56
   0   9   5 6142.80 394.901  31
   0   9   5 5994.90 392.793  27
   0  -9  -6 18967.1 796.835  82
   0  -9  -6 19043.8 798.974  41
   0   9   6 17694.8 837.002  39
   0   9   6 18778.3 726.865  44
   0   9   6 18546.0 805.616  53
   0   9   6 19279.4 731.539  27
   0   9   6 20189.0 731.913  31
   0   9   7 7764.46 512.562  39
   0  -9  -7 7994.24 492.158  41
   0   9   7 7878.96 463.684  75
   0   9   7 8093.76 479.043  56
   0   9   7 7745.77 493.572  53
   0   9   7 7958.62 442.441  44
   0   9   7 8311.28 424.810  31
   0   9   7 8753.87 443.744  27
   0  -9  -8 3954.88 333.879  82
   0   9   8 4358.35 325.845  44
   0  -9  -8 5169.34 385.420  41
   0   9   8 5010.66 351.383  75
   0   9   8 4622.59 371.461  53
   0   9   8 4577.85 353.411  56
   0   9   8 5082.02 318.496  27
   0   9   8 4147.45 286.732  31
   0   9   9 8652.09 476.360  53
   0   9   9 8940.79 434.135  75
   0  -9  -9 8957.29 489.887  41
   0   9   9 8626.32 422.523  44
   0   9   9 9491.12 461.913  56
   0   9   9 9197.55 400.526  27
   0  -9 -10 188.732 141.546  41
   0   9  10 110.976 106.690  75
   0  -9 -10 426.943 195.989  60
   0   9  10 128.969 128.149  56
   0   9  11 6640.90 315.569  56
   0  -9 -11 7064.61 385.277  60
   0 -10  16 610.943 116.223  71
   0  10 -16 560.748 129.037  72
   0  10 -16 647.693 132.976  85
   0  10 -15 6335.20 363.739  72
   0 -10  15 6760.37 335.345  71
   0  10 -15 6465.73 369.373  85
   0 -10  15 6689.70 346.502  81
   0  10 -14-84.6830 159.260  85
   0 -10  14 54.9476 131.280  81
   0  10 -14 111.158 158.141  72
   0 -10  14 79.1015 136.396  71
   0 -10  13 19271.9 749.999  81
   0  10 -13 19498.9 806.829  85
   0  10 -12 652.712 241.309  70
   0 -10  12 876.005 184.109  36
   0  10 -12 775.056 229.976  85
   0 -10  12 539.948 206.142  81
   0  10 -11 16538.6 768.123  70
   0  10 -11 16916.3 746.482  67
   0 -10  11 15049.9 707.805  81
   0 -10  11 17559.9 708.827  36
   0  10 -10 2567.37 333.397  85
   0 -10  10 2760.99 323.508  61
   0  10 -10 2975.18 427.367  67
   0  10 -10 2031.12 227.790  49
   0  10  -9 8326.45 525.338  70
   0 -10   9 9311.51 521.939  36
   0 -10   9 7826.24 520.195  81
   0  10  -9 8042.78 528.456  85
   0  10  -9 6723.52 392.057  49
   0  10  -8 11916.0 640.600  85
   0 -10   8 11832.8 643.155  81
   0  10  -8 12199.7 544.301  80
   0 -10   8 13835.1 653.390  36
   0  10  -8 12609.4 651.233  70
   0  10  -8 13581.0 647.546  67
   0 -10   8 11704.2 611.855  61
   0  10  -8 11095.4 522.506  49
   0  10  -7 5637.06 453.196  70
   0 -10   7 6563.08 444.081  36
   0 -10   7 4722.85 404.103  61
   0  10  -7 6228.74 469.262  67
   0  10  -7 5500.79 445.827  85
   0 -10   7 5659.79 443.499  81
   0  10  -7 5816.18 392.125  80
   0  10  -6 9192.67 565.928  70
   0 -10   6 10151.0 553.105  36
   0 -10   6 9615.63 538.513  61
   0 -10   6 8961.93 547.450  81
   0  10  -6 9138.19 473.847  80
   0  10  -5 694.224 244.205  70
   0 -10   5 588.359 194.588  36
   0  10  -5 617.917 258.888  80
   0 -10   5 791.910 243.040  81
   0  10  -5 726.125 198.651  49
   0  10  -4 26713.7 957.363  23
   0  10  -4 25501.5 896.495  89
   0 -10   4 26569.3 971.825  81
   0  10  -4 24906.7 838.728  80
   0 -10   4 27193.5 967.938  36
   0  10  -4 25883.1 985.179  70
   0 -10   4 25754.4 925.257  62
   0  10  -4 26757.4 895.181  49
   0  10  -3 1475.49 261.138  23
   0 -10   3 1389.29 255.996  81
   0  10  -3 1562.49 275.667  80
   0  10  -3 1361.26 236.196  89
   0  10  -3 1460.16 292.849  70
   0 -10   3 1622.12 235.999  62
   0  10  -3 1814.57 250.697  49
   0  10  -2 16069.4 658.125  49
   0  10  -2 14447.3 596.356  80
   0 -10   2 14125.7 617.458  62
   0  10  -2 15197.0 669.307  23
   0  10  -1 1235.82 234.755  49
   0  10  -1 1023.66 251.494  80
   0 -10   1 945.001 191.339  62
   0  10  -1 1051.19 225.438  31
   0  10  -1 1475.01 254.666  23
   0  10  -1 1073.87 244.183  75
   0  10   0 833.338 231.945  75
   0  10   0 1000.98 213.736  31
   0  10   0 1032.08 228.687  23
   0 -10   0 927.739 217.977  82
   0  10   1 16652.7 741.107  75
   0 -10  -1 16258.2 727.391  82
   0  10   1 17051.0 700.116  23
   0  10   1 17350.6 713.970  31
   0  10   2 7297.35 474.210  75
   0  10   2 6734.61 509.215  39
   0 -10  -2 6734.76 456.560  41
   0 -10  -2 7186.74 462.165  82
   0  10   2 7924.86 459.779  31
   0  10   2 7575.78 441.702  23
   0  10   3 12432.9 615.519  75
   0 -10  -3 12675.7 637.319  41
   0  10   3 13462.3 698.787  39
   0 -10  -3 12647.6 619.118  82
   0  10   3 12774.2 589.154  31
   0  10   4 2643.13 306.992  53
   0 -10  -4 2613.05 298.816  41
   0  10   4 2831.05 346.432  39
   0  10   4 2770.34 313.644  56
   0  10   4 2821.28 272.698  31
   0  10   5 8600.16 505.131  53
   0 -10  -5 9167.19 506.870  82
   0 -10  -5 9602.49 523.507  41
   0  10   5 9204.51 561.650  39
   0  10   5 9460.58 504.302  75
   0  10   5 9599.53 524.376  56
   0  10   5 9576.79 472.027  31
   0 -10  -6 70.5402 139.809  82
   0 -10  -6 232.652 159.370  41
   0  10   6 96.2700 159.896  39
   0  10   6 49.5375 145.816  75
   0  10   6 324.444 172.627  53
   0  10   6 247.686 180.050  56
   0  10   6 137.917 120.430  31
   0  10   7 9689.09 499.900  53
   0 -10  -7 8505.54 457.455  82
   0  10   7 10112.6 472.911  75
   0  10   7 9697.72 426.318  31
   0 -10  -7 10806.7 592.317  60
   0  10   7 11132.3 510.904  56
   0 -10  -7 10264.6 521.031  41
   0  10   8 3385.51 247.597  75
   0 -10  -8 3100.90 280.046  41
   0 -10  -8 3809.75 350.438  60
   0  10   8 3478.18 279.737  56
   0  10   8 2777.17 263.463  53
   0 -10  -9 7677.93 425.972  60
   0  10   9 7617.87 353.611  56
   0 -10  -9 6907.77 375.138  41
   0 -10 -10 1262.88 183.864  91
   0 -10 -10 1209.58 180.426  60
   0 -11  15 431.043 98.7706  81
   0  11 -15 566.793 124.538  85
   0 -11  14 3019.92 224.881  71
   0  11 -14 3108.47 254.639  72
   0 -11  14 3325.09 231.806  81
   0  11 -14 3149.33 260.975  85
   0 -11  13 3604.38 267.985  71
   0  11 -13 2695.58 275.440  72
   0  11 -13 3558.25 301.230  85
   0 -11  13 3285.19 262.259  81
   0 -11  12 8178.46 437.375  81
   0 -11  12 9785.82 461.711  36
   0  11 -12 8630.40 489.626  70
   0  11 -12 7888.68 474.763  85
   0 -11  12 8950.34 425.079  55
   0  11 -11 1820.48 285.295  70
   0 -11  11 2078.99 245.043  36
   0 -11  11 1672.03 245.055  81
   0  11 -11 1810.66 271.078  85
   0  11 -10 12261.5 618.976  70
   0 -11  10 13480.2 599.653  36
   0  11 -10 12865.0 599.441  67
   0 -11  10 11725.9 547.303  61
   0  11 -10 11073.1 607.445  85
   0 -11  10 10976.6 571.755  81
   0  11  -9 1591.92 274.398  70
   0 -11   9 1985.41 259.892  36
   0  11  -9 1514.48 333.003  67
   0 -11   9 1514.54 243.453  61
   0 -11   9 1311.37 255.961  81
   0 -11   8 7629.45 467.076  36
   0  11  -8 6920.84 468.380  70
   0 -11   8 5944.04 417.542  61
   0  11  -8 6783.86 472.454  67
   0  11  -8 5575.11 352.326  49
   0  11  -7 2009.11 299.095  85
   0  11  -7 2183.70 283.279  80
   0 -11   7 1985.06 280.124  61
   0 -11   7 2305.29 282.583  36
   0  11  -7 1913.24 239.329  49
   0 -11   6 18293.9 767.664  36
   0  11  -6 16896.2 636.410  80
   0 -11   6 16683.8 750.657  81
   0  11  -6 17403.5 772.054  85
   0  11  -6 16559.0 655.518  49
   0 -11   5 17272.0 750.783  36
   0  11  -5 16354.4 657.023  49
   0  11  -5 15053.2 606.442  80
   0 -11   5 15950.2 730.140  81
   0  11  -4 1442.26 276.189  70
   0 -11   4 1501.00 244.465  36
   0  11  -4 1653.00 244.595  49
   0  11  -4 1417.89 263.653  80
   0 -11   4 1342.20 261.760  81
   0 -11   3 9225.93 530.882  81
   0  11  -3 8880.27 462.479  80
   0 -11   3 9927.97 542.295  36
   0  11  -3 9700.52 568.267  70
   0  11  -3 10710.1 530.884  49
   0  11  -3 10053.8 540.703  23
   0  11  -2 4163.95 392.003  70
   0 -11   2 4259.27 350.817  36
   0 -11   2 3996.00 355.804  81
   0  11  -2 4127.71 331.901  80
   0  11  -2 3746.58 343.232  23
   0  11  -1 20748.8 878.219  39
   0 -11   1 20312.6 808.780  81
   0  11  -1 19651.9 707.115  80
   0  11  -1 21335.6 799.447  23
   0  11   0 1369.32 270.442  39
   0 -11   0 1970.26 280.143  41
   0  11   0 1655.77 250.432  23
   0  11   0 1757.40 261.222  80
   0  11   1 26422.0 943.968  75
   0  11   1 26193.3 891.739  23
   0 -11  -1 26310.6 962.974  41
   0  11   1 25540.1 1006.08  39
   0 -11  -2 1404.81 219.092  82
   0 -11  -2 1399.15 236.567  41
   0  11   2 1192.13 245.331  39
   0  11   2 1472.11 229.892  75
   0  11   2 1037.12 217.578  53
   0  11   2 1344.07 213.476  31
   0  11   2 1207.11 210.677  23
   0  11   3 12266.2 579.689  53
   0  11   3 12082.2 491.794  80
   0 -11  -3 12228.6 575.385  82
   0 -11  -3 12573.8 602.079  41
   0  11   3 12239.5 636.899  39
   0  11   3 12510.1 577.231  75
   0 -11  -3 13245.8 623.505  60
   0  11   3 11812.3 522.818  23
   0  11   3 12527.6 550.977  31
   0  11   4 6645.61 412.683  53
   0  11   4 6380.66 341.428  80
   0 -11  -4 6533.49 402.074  82
   0  11   4 7064.46 459.319  39
   0 -11  -4 7345.32 439.624  41
   0  11   4 6573.57 396.904  75
   0 -11  -4 7330.67 460.111  60
   0  11   4 7097.89 382.927  31
   0  11   5 5970.22 375.570  53
   0  11   5 6620.14 318.149  80
   0 -11  -5 6218.39 376.200  82
   0  11   5 6890.65 428.490  39
   0 -11  -5 6800.51 404.793  41
   0  11   5 6145.73 367.194  75
   0 -11  -5 7168.59 445.033  60
   0  11   5 7148.61 362.925  31
   0  11   6 8803.26 337.667  80
   0 -11  -6 9771.92 471.777  41
   0  11   6 8970.76 407.993  75
   0 -11  -6 9766.13 500.872  60
   0  11   6 9032.97 440.085  53
   0  11   7 2157.01 183.807  75
   0 -11  -7 2610.56 238.336  41
   0 -11  -7 2636.36 266.127  60
   0  11   7 2304.98 152.899  80
   0 -11  -8 9602.37 427.253  60
   0 -12  13 932.128 130.149  81
   0  12 -13 1014.32 158.805  85
   0 -12  13 881.235 134.222  71
   0  12 -13 1138.23 158.419  72
   0 -12  13 1228.40 148.079  74
   0 -12  12 2345.81 209.587  74
   0  12 -12 2018.86 221.331  85
   0 -12  12 2022.97 196.898  81
   0 -12  11 4565.29 304.503  81
   0 -12  11 6139.29 347.788  36
   0  12 -11 5152.88 356.100  70
   0  12 -11 4621.09 340.520  85
   0 -12  11 5590.57 326.472  55
   0  12 -10 2068.52 262.929  70
   0 -12  10 2691.09 255.630  36
   0  12 -10 1819.17 251.505  85
   0 -12  10 2000.68 234.574  81
   0  12  -9 11115.7 547.596  70
   0 -12   9 9741.42 454.270  61
   0 -12   9 9649.64 491.482  81
   0  12  -9 10233.0 538.245  85
   0  12  -8 979.855 224.494  70
   0 -12   8 937.816 199.747  36
   0 -12   8 971.649 184.938  61
   0  12  -8 882.534 213.412  85
   0 -12   8 1036.41 217.286  81
   0  12  -7 1691.18 260.342  70
   0 -12   7 1937.31 253.055  36
   0 -12   7 1615.18 222.309  61
   0  12  -7 1555.81 256.808  85
   0 -12   7 1614.75 253.808  81
   0  12  -7 1587.57 227.024  80
   0  12  -6 1543.43 265.830  70
   0 -12   6 1814.71 249.423  36
   0  12  -6 1382.61 252.014  85
   0  12  -6 1330.61 226.775  80
   0 -12   6 1394.10 243.732  81
   0  12  -5 19640.9 782.445  70
   0 -12   5 19376.2 774.714  36
   0  12  -5 17635.0 753.581  85
   0  12  -5 18521.8 632.281  80
   0 -12   5 18763.5 752.628  81
   0  12  -4 6648.37 439.537  70
   0 -12   4 6655.80 421.895  36
   0  12  -4 5318.42 398.424  39
   0 -12   4 5304.97 391.366  81
   0  12  -4 5631.95 347.959  80
   0  12  -3 10160.6 541.026  70
   0 -12   3 10349.7 519.264  36
   0  12  -3 9995.74 540.783  39
   0  12  -3 9397.94 437.757  80
   0 -12   3 9325.92 506.825  81
   0  12  -2 3758.60 339.678  70
   0  12  -2 3288.63 329.539  39
   0 -12   2 3796.86 347.126  41
   0  12  -2 3627.19 312.566  23
   0 -12   2 3514.36 314.488  81
   0  12  -2 3575.66 287.861  80
   0 -12   1 1271.12 228.091  81
   0  12  -1 1270.14 219.970  80
   0 -12   1 1835.57 250.307  41
   0  12  -1 1313.31 238.662  39
   0  12  -1 1317.27 236.392  70
   0  12  -1 1489.53 221.364  23
   0 -12   1 1361.82 236.315  55
   0  12   0 4382.71 347.346  70
   0 -12   0 4934.02 366.150  41
   0  12   0 4054.99 358.687  39
   0  12   0 4150.87 307.163  23
   0  12   0 4180.67 294.105  80
   0 -12   0 4172.22 326.798  81
   0  12   1 175.975 161.918  70
   0 -12  -1 364.557 166.714  41
   0  12   1 117.520 148.690  39
   0  12   1 188.656 138.627  23
   0 -12  -1 173.535 156.166  81
   0  12   1 201.088 170.183  80
   0  12   2 26242.2 875.020  70
   0 -12  -2 27523.9 872.034  81
   0  12   2 26222.3 753.391  80
   0 -12  -2 29702.7 940.973  41
   0  12   2 27597.3 952.828  39
   0  12   3 1337.54 176.481  80
   0  12   3 1814.51 233.842  39
   0 -12  -3 1758.64 216.434  41
   0  12   4 6275.04 265.121  80
   0 -12  -4 7040.77 376.595  41
   0 -12  -5 984.613 159.818  41
   0 -12  -6 4324.57 314.482  91
   0 -12  -7 2768.46 219.421  91
   0  13 -11 4106.01 250.714  85
   0 -13  11 3705.03 212.166  81
   0 -13  10 1388.27 163.375  81
   0  13 -10 1643.07 195.032  85
   0  13 -10 1375.28 185.627  70
   0 -13  10 1681.84 179.458  55
   0  13  -9 3161.42 267.098  70
   0  13  -9 2852.35 250.911  85
   0 -13   9 2901.87 230.761  81
   0  13  -8 3837.80 296.247  70
   0  13  -8 3446.12 286.387  85
   0 -13   8 3461.94 258.299  81
   0  13  -7 16403.6 623.678  70
   0 -13   7 18210.9 652.695  36
   0 -13   7 18561.9 684.470  55
   0 -13   7 13900.0 568.234  81
   0  13  -7 14630.4 606.779  85
   0  13  -6 7577.29 404.158  70
   0 -13   6 7280.59 395.091  36
   0 -13   6 8295.34 448.635  55
   0  13  -6 6186.03 381.617  85
   0 -13   6 6325.95 366.189  81
   0  13  -5 162.104 146.311  70
   0 -13   5 350.252 137.142  36
   0 -13   5 334.050 173.403  55
   0  13  -5 235.233 150.520  85
   0 -13   5 264.427 157.607  81
   0  13  -5 155.747 136.458  80
   0  13  -4 3355.93 285.345  70
   0 -13   4 3775.79 309.460  41
   0 -13   4 4135.41 327.788  55
   0  13  -4 2977.36 272.000  85
   0  13  -4 2784.16 215.198  80
   0 -13   4 3329.73 275.004  81
   0  13  -3 75.4112 147.177  70
   0 -13   3 194.768 140.082  41
   0 -13   3 129.353 150.560  55
   0 -13   3 171.327 143.945  81
   0  13  -3 170.083 143.033  85
   0  13  -3 114.642 137.044  80
   0  13  -2 12648.7 517.953  70
   0 -13   2 13438.2 565.328  41
   0  13  -2 11019.6 509.140  39
   0 -13   2 12196.6 528.898  55
   0  13  -2 10938.8 396.779  80
   0 -13   2 11487.5 490.812  81
   0  13  -1 1194.19 185.886  70
   0 -13   1 1390.31 204.099  41
   0  13  -1 1114.48 179.935  39
   0  13  -1 1018.73 159.121  80
   0  13   0 4744.70 292.459  70
   0  13   0 4659.58 316.552  39
   0 -13   0 3936.96 302.634  91
   0  13   0 4613.72 226.126  80
   0  13   1 1583.10 181.619  70
   0 -13  -1 1613.51 216.748  91
   0  13   1 1549.53 142.363  80
   0 -13  -1 1873.15 200.884  41
   0  13   1 1529.29 187.899  39
   0 -13  -2 2751.32 260.127  91
   0 -13  -2 3470.83 244.007  41
   0 -13  -3 3553.15 270.278  91
   0 -13  -4 1641.37 180.342  91
   0 -14   6 6652.61 328.235  55
   0 -14   5 7463.06 338.451  55
   0  14  -5 5132.42 271.250  85
   0  14  -4 631.161 118.350  85
   1 -14  -1 1390.27 144.205  81
  -1  14   0 7504.61 336.161  70
   1 -14   0 8572.01 352.109  81
  -1  14  -1 336.053 122.629  70
   1 -14   1 681.821 141.537  81
  -1  14  -2 2687.32 221.063  70
   1 -14   2 2424.07 219.818  81
  -1  14  -3 1985.02 205.347  70
   1 -14   3 1951.00 201.970  81
  -1  14  -3 1593.11 192.564  85
  -1  14  -4 4096.61 276.858  70
  -1  14  -4 3842.63 270.555  85
   1 -14   4 3844.39 266.829  81
  -1  14  -5 2513.93 227.880  70
  -1  14  -5 2074.70 213.705  85
   1 -14   5 2377.49 216.749  81
  -1  14  -6 2588.02 230.609  70
   1 -14   6 2319.75 210.968  81
  -1  14  -6 2276.81 215.309  85
  -1  14  -7 5905.46 317.471  70
  -1  14  -7 5088.72 301.198  85
   1 -14   7 5036.64 287.573  81
  -1  14  -8 375.884 130.500  70
  -1  14  -8 194.885 121.749  85
   1 -14   8 388.267 116.354  81
  -1  14  -9 4962.07 270.114  85
   1 -14   9 4931.75 245.888  81
  -1  13   4 8204.22 344.475  70
   1 -13  -4 8478.28 355.529  81
  -1  13   3 1682.43 187.267  70
   1 -13  -3 1800.76 195.668  41
   1 -13  -3 1590.11 187.209  81
  -1  13   2 7064.48 373.852  70
   1 -13  -2 7864.01 397.413  41
   1 -13  -2 6922.09 367.640  81
  -1  13   1 6876.18 389.048  70
   1 -13  -1 6445.96 371.288  81
  -1  13   0 6154.30 380.571  70
   1 -13   0 6914.64 402.623  41
   1 -13   0 6422.47 379.999  81
  -1  13  -1 13236.1 588.688  70
   1 -13   1 14524.1 618.935  41
   1 -13   1 13328.6 529.479  62
   1 -13   1 13790.8 584.970  81
  -1  13  -2 1507.41 238.246  70
   1 -13   2 1751.20 236.988  41
   1 -13   2 1511.25 230.358  81
  -1  13  -3 8978.13 485.720  70
   1 -13   3 9679.58 508.569  41
   1 -13   3 8123.50 458.757  81
  -1  13  -4 768.089 209.252  70
   1 -13   4 680.326 188.561  41
   1 -13   4 797.612 191.919  61
   1 -13   4 561.806 175.303  81
  -1  13  -5 8878.37 482.307  70
   1 -13   5 8996.30 497.281  41
   1 -13   5 8552.96 424.350  36
   1 -13   5 8249.18 436.850  61
  -1  13  -5 8173.08 466.359  85
   1 -13   5 7911.48 447.883  81
  -1  13  -6 269.506 178.881  70
   1 -13   6 266.961 129.152  36
   1 -13   6 273.587 161.495  61
   1 -13   6 232.441 171.688  81
  -1  13  -6 305.888 170.561  85
  -1  13  -7 13321.6 581.098  70
   1 -13   7 14222.8 555.404  36
   1 -13   7 11728.2 522.571  61
  -1  13  -7 12141.5 566.703  85
   1 -13   7 11490.6 545.383  81
  -1  13  -8 3235.10 291.306  70
   1 -13   8 3268.72 258.712  36
   1 -13   8 2758.74 255.982  61
  -1  13  -8 2493.02 265.098  85
   1 -13   8 2930.38 275.821  81
   1 -13   9 1500.46 190.901  61
  -1  13  -9 1563.80 228.475  70
   1 -13   9 1182.12 189.481  81
  -1  13  -9 1371.36 211.754  85
  -1  13 -10 1083.16 195.733  70
   1 -13  10 1254.01 182.445  81
  -1  13 -10 1209.89 202.613  85
  -1  13 -11 1836.73 205.206  70
  -1  13 -11 1751.05 197.976  85
   1 -13  11 1729.59 174.005  81
  -1  13 -12 3948.02 243.913  85
   1 -13  12 3973.40 217.729  81
  -1  12   6 2473.26 199.583  75
   1 -12  -6 2355.54 209.037  82
  -1  12   5 4545.54 287.555  75
   1 -12  -5 4495.81 306.094  41
   1 -12  -5 3797.74 275.740  60
   1 -12  -5 4267.15 295.388  82
  -1  12   4 161.763 138.240  75
   1 -12  -4 15.7775 126.223  41
   1 -12  -4 138.608 132.908  82
  -1  12   3 16208.2 654.828  75
   1 -12  -3 17444.8 695.978  41
   1 -12  -3 16736.8 613.790  62
   1 -12  -3 17897.9 694.647  82
   1 -12  -2 2378.61 263.170  41
   1 -12  -2 2218.29 223.349  62
  -1  12   2 1840.66 219.251  89
  -1  12   2 2151.09 254.638  75
   1 -12  -1 8021.19 419.823  62
  -1  12   1 7011.64 407.124  89
   1 -12  -1 8474.01 490.617  41
   1 -12   0 775.584 170.147  62
  -1  12   0 556.953 181.753  89
   1 -12   0 1004.74 219.497  41
  -1  12   0 919.507 195.989  39
   1 -12   1 4529.42 373.044  81
   1 -12   1 4962.17 396.504  41
   1 -12   1 4566.44 334.278  62
  -1  12  -1 4422.02 346.417  89
   1 -12   2 15493.2 705.764  81
   1 -12   2 17208.3 689.720  62
  -1  12  -2 16564.7 686.275  89
  -1  12  -2 16978.1 751.951  70
   1 -12   3 12932.3 596.270  62
  -1  12  -3 12281.9 585.619  89
  -1  12  -3 13737.7 666.188  70
  -1  12  -4 13788.4 676.549  70
   1 -12   4 12258.5 596.901  62
   1 -12   4 14503.8 608.240  36
  -1  12  -5 1983.17 305.747  70
   1 -12   5 2057.77 243.324  36
   1 -12   5 2143.83 300.306  81
  -1  12  -6 16375.7 726.590  70
   1 -12   6 16666.6 669.371  36
   1 -12   6 15447.3 682.996  61
   1 -12   6 14955.9 692.632  81
  -1  12  -6 14525.5 701.721  85
  -1  12  -7-39.6356 183.882  70
   1 -12   7 59.6402 121.223  36
   1 -12   7 65.3027 195.117  61
  -1  12  -7-72.1894 186.796  85
   1 -12   7 29.8921 184.905  81
  -1  12  -8 13968.5 656.188  70
   1 -12   8 12810.2 612.042  61
  -1  12  -8 13195.1 642.489  85
   1 -12   8 12269.8 624.465  81
  -1  12  -9 864.518 231.886  70
   1 -12   9 898.958 178.730  36
   1 -12   9 820.887 215.120  61
  -1  12  -9 614.615 210.815  85
   1 -12   9 644.998 218.331  81
  -1  12 -10 6966.93 439.604  70
   1 -12  10 8232.14 415.924  36
   1 -12  10 7515.74 421.411  61
   1 -12  10 6259.79 405.117  81
  -1  12 -10 6226.10 430.441  85
  -1  12 -11 1851.86 254.385  70
   1 -12  11 2158.51 212.984  36
  -1  12 -11 1995.26 262.170  85
   1 -12  11 1776.36 230.258  81
  -1  12 -12 5720.24 358.762  70
  -1  12 -12 5313.12 352.683  85
   1 -12  12 5559.30 327.213  81
   1 -12  13 2263.78 195.657  71
  -1  12 -13 1802.35 204.015  72
   1 -12  13 2172.57 198.550  81
  -1  12 -13 2005.96 211.744  85
   1 -12  14 928.437 121.182  81
  -1  12 -14 1045.29 139.559  85
   1 -11  -9 4765.01 248.243  82
  -1  11   8-19.7328 102.355  75
   1 -11  -8-25.2900 116.135  41
   1 -11  -8-58.2161 103.563  82
  -1  11   7 11645.0 481.797  75
   1 -11  -7 12019.1 524.979  41
   1 -11  -7 10273.8 487.304  82
  -1  11   6 334.089 144.669  75
   1 -11  -6 416.820 148.921  41
   1 -11  -6 125.151 118.938  62
   1 -11  -6 200.805 135.158  82
   1 -11  -5 9246.66 505.223  82
   1 -11  -5 10192.4 520.391  41
  -1  11   5 9390.81 487.415  75
   1 -11  -5 8848.38 445.473  62
   1 -11  -4 2024.90 265.784  82
   1 -11  -4 2620.24 290.455  41
  -1  11   4 2151.31 271.390  75
   1 -11  -4 2253.36 246.824  62
  -1  11   4 1922.92 240.533  89
  -1  11   3 3886.04 240.488  80
   1 -11  -3 4671.39 377.660  41
   1 -11  -3 4559.38 337.038  62
  -1  11   3 4022.87 332.177  89
  -1  11   3 4390.85 364.373  75
   1 -11  -2 1670.45 229.292  62
  -1  11   2 1603.28 262.973  39
   1 -11  -2 1940.59 277.836  41
  -1  11   1 178.893 175.605  39
   1 -11  -1 89.3486 190.484  41
  -1  11   1 38.1105 159.414  80
   1 -11  -1 193.255 184.573  82
  -1  11   1 36.1963 166.227  89
  -1  11   0 1164.30 248.815  75
  -1  11   0 1164.23 245.581  39
   1 -11   0 1431.62 252.390  41
   1 -11   0 890.801 223.495  82
  -1  11   0 1027.38 199.751  80
  -1  11   0 1361.74 238.865  89
  -1  11  -1 1682.33 278.492  75
  -1  11  -1 1727.27 223.338  80
  -1  11  -1 2292.23 288.602  89
   1 -11   1 2032.37 296.749  41
  -1  11  -1 1703.65 269.936  39
  -1  11  -2 8193.16 382.843  80
   1 -11   2 9050.50 498.787  62
  -1  11  -2 9304.37 525.293  89
   1 -11   3 4540.24 397.345  81
  -1  11  -3 3961.89 283.217  80
   1 -11   3 4923.64 352.378  36
   1 -11   3 4611.03 371.426  62
  -1  11  -3 4415.01 378.679  89
  -1  11  -3 4831.88 422.945  70
  -1  11  -4 13869.0 500.785  80
   1 -11   4 14655.2 705.913  81
   1 -11   4 15400.3 688.123  62
  -1  11  -4 15285.0 694.287  89
  -1  11  -4 15085.1 738.753  70
  -1  11  -5 1828.05 217.381  80
   1 -11   5 2368.86 318.529  81
  -1  11  -5 2381.38 298.669  89
  -1  11  -5 2726.42 341.716  70
   1 -11   6 3093.59 349.092  81
  -1  11  -6 3142.79 367.293  70
   1 -11   7 15071.3 732.466  81
  -1  11  -7 14679.7 723.321  85
  -1  11  -8 2652.29 343.153  85
   1 -11   8 3139.72 362.375  61
  -1  11  -9 39713.1 1290.20  70
   1 -11   9 39957.3 1284.90  61
  -1  11 -10 457.445 217.028  70
   1 -11  10 563.696 226.712  81
  -1  11 -10 314.532 202.800  85
   1 -11  10 389.883 216.647  61
  -1  11 -11 7310.29 478.356  70
   1 -11  11 7812.42 458.449  61
  -1  11 -11 6662.32 466.831  85
   1 -11  11 6705.08 444.320  81
  -1  11 -12 363.147 191.868  85
   1 -11  12 348.995 182.512  81
   1 -11  12 373.455 134.459  36
  -1  11 -12 331.296 193.627  70
   1 -11  13 8742.44 434.099  81
  -1  11 -13 7843.69 449.171  85
  -1  11 -14 1003.02 181.416  85
   1 -11  14 931.580 159.200  81
   1 -11  14 939.880 160.219  71
  -1  11 -14 805.094 167.077  72
   1 -11  15 3028.15 202.210  81
  -1  11 -15 3037.16 220.675  85
   1 -11  15 3117.71 200.408  71
  -1  10  10 4469.86 249.126  75
  -1  10  10 4899.42 265.551  56
  -1  10   9 1541.25 184.504  75
   1 -10  -9 1520.71 206.343  41
  -1  10   9 1721.50 200.145  56
   1 -10  -9 1106.76 184.535  82
  -1  10   8 11538.7 513.016  75
   1 -10  -8 11028.0 551.815  41
   1 -10  -8 10144.4 521.612  82
  -1  10   7 2018.83 253.225  75
   1 -10  -7 1479.46 232.911  41
  -1  10   7 1625.26 234.520  56
   1 -10  -7 1770.55 253.597  82
   1 -10  -6 15678.5 715.138  82
   1 -10  -6 16848.1 724.032  41
  -1  10   6 16118.3 695.613  56
  -1  10   6 15730.8 666.917  53
  -1  10   6 16430.0 699.258  75
  -1  10   5 553.174 214.019  75
  -1  10   5 654.305 192.446  53
  -1  10   5 558.247 220.154  56
   1 -10  -5 609.588 205.655  41
  -1  10   4 9602.76 568.005  39
   1 -10  -4 9515.62 546.702  41
  -1  10   4 8659.17 384.992  80
   1 -10  -4 9405.20 547.670  82
  -1  10   3 3873.11 364.735  75
   1 -10  -3 4337.75 381.424  41
  -1  10   3 3994.28 377.556  39
   1 -10  -3 3757.02 362.364  82
  -1  10   3 3200.97 262.597  80
   1 -10  -3 3649.42 321.193  62
  -1  10   3 3918.06 374.271  56
  -1  10   2 20529.3 839.491  75
   1 -10  -2 19624.8 778.407  62
  -1  10   2 20156.9 837.070  56
   1 -10  -2 19315.9 823.056  82
  -1  10   2 18455.3 631.009  80
  -1  10   1 20970.1 858.980  75
  -1  10   1 21173.7 884.426  39
   1 -10  -1 20810.2 803.632  62
  -1  10   1 19759.4 662.531  80
   1 -10  -1 20690.2 853.816  82
   1 -10   0 30214.2 1098.42  82
  -1  10   0 29950.5 888.946  80
   1 -10   0 32876.0 1142.23  41
  -1  10   0 32632.6 1140.29  39
  -1  10   0 31750.2 1120.31  75
   1 -10   0 31602.6 1054.28  62
  -1  10   0 32203.9 1074.63  89
  -1  10  -1 5933.65 419.376  89
   1 -10   1 4436.94 391.071  82
  -1  10  -1 5302.33 334.212  80
  -1  10  -1 5429.84 424.177  39
  -1  10  -1 5261.09 426.875  75
   1 -10   1 5254.81 384.970  62
  -1  10  -1 5212.27 365.376  23
  -1  10  -2 2507.98 302.531  89
  -1  10  -2 2298.63 323.938  75
   1 -10   2 2163.96 272.431  62
  -1  10  -2 2233.62 266.023  23
   1 -10   2 2562.16 311.023  82
  -1  10  -2 2405.61 258.762  80
  -1  10  -3 11971.3 497.862  80
   1 -10   3 13238.3 627.447  62
  -1  10  -3 13043.1 631.594  89
   1 -10   4 53.5846 209.357  81
  -1  10  -4 115.214 198.399  80
   1 -10   4 204.248 175.551  62
   1 -10   4-14.8080 201.408  65
  -1  10  -4 135.162 213.926  89
  -1  10  -4-11.0764 227.944  70
   1 -10   5 21811.8 902.267  81
  -1  10  -5 21140.8 685.702  80
   1 -10   5 22573.8 890.781  62
   1 -10   5 23975.9 816.463  65
  -1  10  -5 22445.1 870.954  89
  -1  10  -5 23111.5 926.298  70
   1 -10   6 456.155 239.861  81
  -1  10  -6 237.271 187.054  80
   1 -10   6 421.960 199.138  62
   1 -10   6 149.351 211.886  65
  -1  10  -6 395.610 221.357  89
  -1  10  -6 321.629 235.718  70
   1 -10   7 11092.7 541.110  65
   1 -10   7 10890.8 624.927  81
  -1  10  -7 11713.3 634.340  70
   1 -10   8 2267.12 324.454  61
  -1  10  -8 1653.49 290.657  85
   1 -10   8 1910.08 329.438  81
  -1  10  -8 1836.47 316.227  70
   1 -10   9 7953.75 544.423  81
  -1  10  -9 7263.50 504.376  85
  -1  10  -9 7576.85 504.405  70
   1 -10  10 4436.98 406.543  61
  -1  10 -10 3774.29 379.976  85
   1 -10  10 3927.07 401.538  81
   1 -10  11 8632.84 527.814  61
  -1  10 -11 7789.75 521.109  70
  -1  10 -12 7280.27 499.397  70
   1 -10  12 8347.48 502.922  81
  -1  10 -12 7396.21 497.294  85
  -1  10 -13 1500.96 265.524  70
   1 -10  13 1920.40 266.101  81
  -1  10 -13 1699.97 263.081  85
   1 -10  14 7967.48 410.809  71
  -1  10 -14 6724.10 420.515  72
   1 -10  14 7983.19 420.649  81
  -1  10 -14 6973.59 432.008  85
  -1  10 -15 170.578 134.930  85
   1 -10  15 103.039 123.209  81
  -1  10 -15 143.270 130.426  72
   1 -10  15 135.951 123.903  71
  -1  10 -16 4830.92 278.330  85
   1  -9 -12 3493.70 216.125  82
  -1   9  11 5.19129 96.9859  75
   1  -9 -11 38.9440 113.321  41
   1  -9 -11 82.3980 114.399  82
  -1   9  11-20.9877 114.316  56
  -1   9  10 6844.15 376.701  75
   1  -9 -10 6507.87 409.481  41
   1  -9 -10 5913.09 389.132  82
  -1   9   9 648.885 179.496  75
   1  -9  -9 881.617 209.829  41
  -1   9   9 822.908 191.048  56
   1  -9  -9 706.413 197.985  82
  -1   9   8 8932.09 496.348  75
   1  -9  -8 8547.59 512.877  41
   1  -9  -8 7943.89 510.145  82
  -1   9   8 8955.69 495.640  56
  -1   9   7 8841.00 508.535  53
  -1   9   7 8864.95 510.112  56
   1  -9  -7 8518.82 521.219  41
  -1   9   6 9689.17 549.742  75
   1  -9  -6 9487.28 552.863  41
   1  -9  -6 9165.27 566.262  82
  -1   9   6 9369.22 532.757  53
  -1   9   5 17840.7 775.803  75
  -1   9   5 17066.2 756.102  56
   1  -9  -5 17161.2 790.544  82
   1  -9  -4 849.783 223.073  82
   1  -9  -4 881.424 214.581  41
  -1   9   4 744.893 224.985  39
  -1   9   4 864.050 227.899  75
  -1   9   4 926.055 210.383  53
  -1   9   4 978.258 247.576  56
  -1   9   4 935.644 193.676  31
  -1   9   3 42916.1 1201.33  31
   1  -9  -3 38511.6 958.028  86
   1  -9  -3 38714.3 1289.60  82
  -1   9   3 39400.0 1329.50  39
   1  -9  -3 38832.5 1276.70  41
  -1   9   3 39798.1 1285.48  75
  -1   9   3 42044.6 1300.78  56
  -1   9   3 38123.8 1214.42  53
   1  -9  -2 218.200 175.108  82
  -1   9   2 161.348 180.183  39
   1  -9  -2 157.914 187.316  41
  -1   9   2 297.944 196.406  75
   1  -9  -2 186.137 103.075  86
  -1   9   2 191.507 198.727  56
   1  -9  -1 54491.2 1285.72  86
  -1   9   1 49834.0 1326.15  80
   1  -9  -1 51177.1 1543.17  82
   1  -9  -1 54488.0 1580.32  41
   1  -9  -1 51869.4 1314.95  35
  -1   9   1 52186.1 1587.67  39
  -1   9   1 50921.8 1545.37  75
  -1   9   1 53574.0 1557.14  56
   1  -9   0 2499.76 190.537  86
  -1   9   0 2195.76 258.729  80
   1  -9   0 2501.13 290.508  82
  -1   9   0 2962.48 316.822  39
   1  -9   0 2627.12 219.647  35
  -1   9   0 2452.03 306.520  75
   1  -9   0 2584.38 273.428  62
  -1   9  -1 22808.3 764.386  23
   1  -9   1 21344.2 635.695  86
  -1   9  -1 21851.4 690.296  80
   1  -9   1 21771.8 851.791  82
  -1   9  -1 23558.4 874.821  39
   1  -9   1 21165.4 677.777  35
  -1   9  -1 22773.8 867.873  75
   1  -9   1 22579.8 811.557  62
  -1   9  -2 11119.2 556.452  89
  -1   9  -2 10353.9 452.504  80
   1  -9   2 11328.2 589.079  82
  -1   9  -2 12543.0 594.018  39
  -1   9  -2 10891.9 581.098  75
   1  -9   2 9523.87 482.274  65
   1  -9   2 11106.4 546.525  62
  -1   9  -2 11692.1 526.836  23
  -1   9  -3 32010.5 1016.20  89
  -1   9  -3 28735.0 1032.61  75
   1  -9   3 25621.4 904.887  65
   1  -9   3 30064.1 999.780  62
   1  -9   3 33501.6 941.439  52
  -1   9  -3 28780.8 847.534  80
  -1   9  -4 6859.13 432.025  89
  -1   9  -4 6100.55 347.269  80
   1  -9   4 6678.20 449.367  81
   1  -9   4 6718.71 430.074  62
   1  -9   4 5889.52 394.931  65
   1  -9   4 6186.06 362.663  52
  -1   9  -5 7645.05 471.093  89
  -1   9  -5 7788.66 502.961  70
  -1   9  -5 7444.27 374.218  80
   1  -9   5 7641.56 492.068  81
   1  -9   5 7128.48 436.914  65
   1  -9   5 7894.35 483.239  62
  -1   9  -5 6871.47 381.965  49
   1  -9   5 7422.82 390.741  52
  -1   9  -6 26706.1 952.167  89
  -1   9  -6 26329.2 977.963  70
   1  -9   6 28686.8 1019.93  81
  -1   9  -6 24546.0 764.597  80
   1  -9   6 26436.3 979.782  62
   1  -9   6 27980.1 920.209  65
   1  -9   6 26734.5 821.387  52
   1  -9   7 1268.35 253.097  65
   1  -9   7 1507.24 296.614  81
  -1   9  -7 1670.99 283.331  70
   1  -9   8 33714.0 1164.05  61
   1  -9   8 32013.8 1027.45  65
  -1   9  -8 29348.0 1089.84  85
   1  -9   8 32824.0 1159.82  81
  -1   9  -8 29499.7 1092.65  70
   1  -9   9 107.014 213.923  65
   1  -9   9 468.821 256.678  61
   1  -9   9 539.151 266.800  81
  -1   9  -9 216.133 216.814  85
  -1   9  -9 403.195 223.717  70
   1  -9  10 3798.98 393.915  61
   1  -9  10 2715.50 213.287  78
  -1   9 -10 3755.24 383.419  85
   1  -9  10 3739.84 396.290  81
  -1   9 -10 3958.94 387.368  70
   1  -9  11 456.166 245.551  81
   1  -9  11 405.246 115.443  78
  -1   9 -11 411.424 228.481  85
  -1   9 -11 606.679 259.267  70
  -1   9 -12 14732.5 724.541  70
  -1   9 -12 13111.7 703.496  85
  -1   9 -13 6814.69 484.436  70
   1  -9  13 7599.35 479.490  81
  -1   9 -13 7009.06 486.850  85
  -1   9 -14 5265.29 395.709  72
   1  -9  14 6146.19 398.683  71
   1  -9  14 5987.30 399.627  81
  -1   9 -14 5408.77 407.997  85
  -1   9 -15 6987.75 425.922  72
   1  -9  15 8038.83 422.541  81
  -1   9 -15 7503.28 442.851  85
  -1   9 -16 792.944 154.999  72
   1  -9  16 1021.21 162.736  71
   1  -9  16 1002.49 168.264  81
  -1   9 -16 817.299 164.101  85
  -1   9 -16 979.519 160.722  88
  -1   9 -17 1525.01 155.683  85
   1  -8 -13 2077.33 182.943  82
  -1   8  13 2373.25 175.721  75
  -1   8  12 4102.18 273.955  75
   1  -8 -12 4223.51 307.638  41
   1  -8 -12 3870.45 299.313  82
  -1   8  11 7716.28 411.436  75
   1  -8 -11 6973.29 438.893  41
  -1   8  11 7939.06 409.168  56
  -1   8  10 3178.31 298.689  75
   1  -8 -10 2649.49 313.649  41
   1  -8 -10 2811.30 324.275  82
  -1   8  10 3101.24 293.890  56
  -1   8   9 22243.0 856.878  75
  -1   8   9 22952.7 854.460  56
   1  -8  -9 21538.9 892.017  41
   1  -8  -8 4653.93 398.947  41
   1  -8  -8 4455.67 421.700  82
   1  -8  -7 7280.19 522.453  82
  -1   8   7 7067.42 481.355  75
  -1   8   7 7976.25 416.133  27
  -1   8   7 7434.37 481.393  56
   1  -8  -6 5951.38 473.050  82
   1  -8  -6 6652.26 463.329  41
  -1   8   6 6298.47 455.830  75
  -1   8   6 6834.03 397.000  27
   1  -8  -6 5568.01 409.020  45
  -1   8   6 5995.60 432.785  53
  -1   8   6 6649.22 454.615  56
   1  -8  -5 18072.7 553.289  86
   1  -8  -5 19551.6 851.252  82
  -1   8   5 19432.3 856.477  39
   1  -8  -5 19972.4 822.862  41
  -1   8   5 19034.7 812.852  75
  -1   8   5 20150.9 738.212  27
  -1   8   5 19743.8 810.888  56
  -1   8   5 19280.6 790.220  53
   1  -8  -5 22509.9 736.754  45
   1  -8  -4 3635.64 217.880  86
   1  -8  -4 3500.46 347.547  82
  -1   8   4 3629.69 366.499  39
   1  -8  -4 3886.16 346.742  41
  -1   8   4 3603.06 348.995  75
  -1   8   4 4242.91 307.329  31
   1  -8  -4 4416.20 294.358  45
  -1   8   4 3108.38 307.707  53
  -1   8   4 3934.09 359.287  56
   1  -8  -3 23708.4 774.770   1
   1  -8  -3 21986.1 624.909  86
   1  -8  -3 18640.9 811.190  82
   1  -8  -3 19752.5 805.099  41
  -1   8   3 19681.6 848.773  39
  -1   8   3 19745.5 814.520  75
   1  -8  -3 22599.6 670.219  45
  -1   8   3 19769.2 806.323  56
  -1   8   3 19317.8 768.292  53
   1  -8  -3 21773.1 579.040  48
  -1   8   3 20710.8 738.131  31
  -1   8   2 31016.0 964.632  31
   1  -8  -2 32325.9 837.269  86
   1  -8  -2 27781.4 1020.51  82
   1  -8  -2 32727.2 845.712  35
  -1   8   2 30967.4 1086.48  39
   1  -8  -2 30503.2 1041.29  41
  -1   8   2 30763.5 1048.64  75
  -1   8   2 29849.9 1031.34  56
   1  -8  -2 31018.5 780.045  48
  -1   8   2 28148.1 968.906  53
  -1   8   1 11885.3 501.292  23
  -1   8   1 13402.1 549.892  31
   1  -8  -1 13684.9 449.753  86
   1  -8  -1 13176.3 610.342  82
   1  -8  -1 13214.5 452.740  35
  -1   8   1 13131.3 626.000  39
  -1   8   1 12816.1 600.927  75
  -1   8   1 12413.9 593.758  56
   1  -8  -1 11978.2 403.654  48
   1  -8   0 11354.1 406.206  86
   1  -8   0 10481.6 536.455  82
  -1   8   0 10577.8 434.958  80
   1  -8   0 11734.1 421.571  35
  -1   8   0 11915.0 573.593  39
  -1   8   0 10104.0 533.465  75
  -1   8   0 10574.1 537.838  56
  -1   8   0 11167.3 472.802  23
   1  -8   0 11475.1 398.728  33
  -1   8   0 10922.0 501.539  31
  -1   8  -1 13362.7 534.653  23
   1  -8   1 13039.3 452.982  33
   1  -8   1 14033.3 467.028  86
  -1   8  -1 13390.6 494.057  80
   1  -8   1 13243.1 609.237  82
   1  -8   1 13669.7 478.151  35
  -1   8  -1 14591.1 625.881  39
  -1   8  -1 13763.7 615.660  75
   1  -8   1 13443.5 573.158  62
   1  -8   2 48249.7 1231.41  33
  -1   8  -2 50114.8 1344.29  23
   1  -8   2 47928.6 1228.18  86
  -1   8  -2 49760.2 1250.90  80
   1  -8   2 53234.4 1463.79  82
   1  -8   2 49895.5 1253.84  35
  -1   8  -2 48597.9 1423.93  75
   1  -8   2 56141.8 1344.21  65
   1  -8   2 53006.9 1410.96  62
   1  -8   2 55876.8 1361.82  52
  -1   8  -3 4909.81 327.552  23
   1  -8   3 4470.62 270.117  33
   1  -8   3 4422.52 278.447   2
  -1   8  -3 4369.55 324.419  89
   1  -8   3 3957.87 244.798  86
   1  -8   3 4491.74 349.579  82
  -1   8  -3 4287.50 286.118  80
   1  -8   3 4466.56 269.013  35
  -1   8  -3 4386.99 348.263  75
   1  -8   3 5015.50 332.094  65
   1  -8   3 4623.88 335.457  62
  -1   8  -3 5077.63 308.082  49
   1  -8   3 5012.76 323.355  52
   1  -8   4 35044.4 1019.02   2
  -1   8  -4 36403.0 962.857  80
  -1   8  -4 36933.1 1099.81  89
   1  -8   4 33194.1 1033.09  65
   1  -8   4 37783.5 1127.42  62
  -1   8  -4 35008.1 1002.81  49
   1  -8   4 40268.6 1053.11  52
   1  -8   5 8546.42 414.746   2
  -1   8  -5 9009.89 470.209  89
  -1   8  -5 8800.01 492.244  70
   1  -8   5 8741.81 495.869  81
  -1   8  -5 7952.28 380.766  80
   1  -8   5 9049.39 487.798  62
   1  -8   5 7148.36 435.407  65
  -1   8  -5 8090.83 391.512  49
  -1   8  -6 15177.2 637.180  89
  -1   8  -6 15036.2 666.051  70
   1  -8   6 15981.9 699.677  81
  -1   8  -6 15028.6 528.672  80
  -1   8  -6 14801.4 618.594  67
   1  -8   6 15864.5 692.734  62
   1  -8   6 11984.1 587.953  65
  -1   8  -6 12767.8 522.518  49
  -1   8  -7 9538.68 506.054  89
  -1   8  -7 9954.06 554.659  70
   1  -8   7 10114.1 578.586  81
  -1   8  -7 10242.7 549.787  67
   1  -8   7 9731.97 513.864  65
   1  -8   7 8924.89 515.554  54
   1  -8   7 9779.26 422.685  47
  -1   8  -8 1287.45 252.138  70
  -1   8  -8 1329.45 257.297  85
   1  -8   8 1143.18 253.215  81
   1  -8   8 1485.84 296.605  61
   1  -8   8 1389.02 254.356  65
  -1   8  -8 1284.66 354.883  67
   1  -8   8 1124.93 172.645  47
   1  -8   8 1420.59 253.687  54
  -1   8  -9 21055.3 851.116  70
   1  -8   9 22152.7 903.387  81
  -1   8  -9 20493.6 861.511  85
  -1   8  -9 22657.7 859.438  67
   1  -8   9 23042.5 819.333  65
   1  -8   9 21066.0 889.747  61
   1  -8   9 20959.0 684.456  47
   1  -8   9 22252.9 848.806  54
  -1   8 -10 2302.57 313.637  70
  -1   8 -10 2049.27 311.683  85
   1  -8  10 2256.45 322.507  81
   1  -8  10 2366.37 331.127  61
   1  -8  10 1887.03 272.161  65
   1  -8  10 2096.31 293.163  54
   1  -8  10 1669.42 197.111  47
   1  -8  11 10730.8 607.982  61
  -1   8 -11 8956.87 565.611  85
   1  -8  11 10277.9 586.578  81
  -1   8 -11 9949.88 579.366  70
   1  -8  12 324.668 205.584  54
  -1   8 -12 314.221 228.813  85
   1  -8  12 283.113 202.796  81
   1  -8  12 161.849 119.310  78
  -1   8 -12 128.325 205.268  70
  -1   8 -13 8338.40 556.159  85
  -1   8 -13 9154.93 564.273  70
   1  -8  14 3339.32 336.182  81
  -1   8 -14 3510.69 349.094  85
   1  -8  14 3639.07 310.044  54
   1  -8  14 3921.11 336.292  71
  -1   8 -14 3114.16 331.609  72
  -1   8 -15 9289.31 513.028  85
   1  -8  15 10281.8 510.403  81
   1  -8  15 10843.0 503.416  71
  -1   8 -15 8378.05 491.651  72
  -1   8 -16 2049.91 238.393  85
   1  -8  16 1730.05 217.337  81
   1  -8  16 2342.37 233.616  71
  -1   8 -16 1948.31 232.061  72
  -1   8 -17 1331.99 174.825  85
  -1   8 -17 1102.14 162.872  72
   1  -8  17 1341.14 160.546  71
  -1   7  14 128.863 83.5817  75
  -1   7  14 85.9806 89.6517  56
   1  -7 -14 137.295 102.048  82
  -1   7  13 6561.21 346.642  75
   1  -7 -13 6653.11 385.397  41
  -1   7  13 7508.71 360.825  56
   1  -7 -13 6261.46 385.355  82
  -1   7  12 695.218 175.135  75
  -1   7  12 856.259 185.305  56
   1  -7 -12 834.703 201.166  41
  -1   7  11 10257.3 526.116  75
   1  -7 -11 9144.07 544.718  41
  -1   7  11 10207.9 514.015  56
  -1   7  10 5153.98 402.940  75
   1  -7 -10 5015.05 428.646  41
  -1   7  10 5232.71 393.098  56
   1  -7 -10 4897.91 434.526  84
  -1   7   9 6484.07 458.595  75
   1  -7  -9 5948.46 456.584  41
  -1   7   9 5813.01 415.168  90
   1  -7  -9 5774.76 472.895  84
   1  -7  -8 13043.9 698.213  84
  -1   7   8 11939.5 638.057  75
  -1   7   8 11884.4 603.369  90
  -1   7   8 11616.2 613.348  56
   1  -7  -7 1085.17 137.471  86
  -1   7   7 1206.79 243.014  90
   1  -7  -7 1357.53 270.433  84
  -1   7   7 1163.36 219.150  44
   1  -7  -7 1031.42 234.786  41
  -1   7   7 1396.99 272.336  75
  -1   7   7 1242.38 212.467  30
  -1   7   7 1121.01 191.910  27
   1  -7  -7 1234.11 285.017  45
  -1   7   7 1224.80 250.664  53
  -1   7   7 1232.87 253.036  56
   1  -7  -6 27165.2 801.393  86
  -1   7   6 31435.9 1049.15  90
   1  -7  -6 31529.8 1112.68  84
  -1   7   6 29045.2 963.409  44
  -1   7   6 30882.7 1121.84  39
   1  -7  -6 31194.1 1076.88  41
  -1   7   6 30028.7 1073.46  75
  -1   7   6 30891.4 958.610  27
  -1   7   6 30072.4 1054.67  53
  -1   7   6 30693.8 1050.52  56
   1  -7  -5 1196.72 146.798  86
   1  -7  -5 1246.92 245.408  84
  -1   7   5 1065.98 230.776  75
  -1   7   5 1328.61 244.052  56
   1  -7  -5 1567.81 218.124  45
  -1   7   5 1378.25 227.070  53
  -1   7   5 1567.18 209.144  27
  -1   7   5 1364.70 212.119  30
  -1   7   5 1259.00 188.337  31
   1  -7  -5 1493.72 236.357  41
   1  -7  -5 1336.68 224.173  40
  -1   7   5 1091.74 236.348  39
   1  -7  -4 62492.6 1531.78   1
   1  -7  -4 60771.5 1427.68  86
   1  -7  -4 65374.2 1415.99  40
   1  -7  -4 55558.0 1618.36  41
  -1   7   4 56125.2 1683.49  39
  -1   7   4 57499.5 1639.52  75
  -1   7   4 58318.5 1539.92  27
   1  -7  -4 60502.3 1423.00  28
  -1   7   4 57167.7 1514.86  31
  -1   7   4 56372.9 1610.99  56
  -1   7   4 54405.8 1589.22  53
   1  -7  -4 59962.1 1358.00  48
   1  -7  -4 64270.2 1469.09  45
   1  -7  -3 4956.82 298.627   1
   1  -7  -3 3819.07 226.556  86
   1  -7  -3 3337.47 306.505  82
   1  -7  -3 3562.48 305.119  41
   1  -7  -3 3793.00 213.925  35
  -1   7   3 3658.54 338.463  39
  -1   7   3 3439.45 318.141  75
  -1   7   3 3424.93 273.777  27
   1  -7  -3 4431.62 243.639  28
  -1   7   3 3890.80 272.901  31
  -1   7   3 3610.92 312.455  56
  -1   7   3 3222.30 285.571  53
   1  -7  -3 3706.77 221.562  48
   1  -7  -2 34593.5 842.957  86
   1  -7  -2 29664.9 999.156  82
   1  -7  -2 29576.2 982.627  41
   1  -7  -2 29976.9 802.544  35
  -1   7   2 30560.6 1026.59  39
  -1   7   2 30962.7 997.666  75
  -1   7   2 31241.5 927.503  27
   1  -7  -2 36302.4 865.458  28
   1  -7  -2 31914.4 773.108  33
  -1   7   2 29787.9 906.688  31
   1  -7  -2 28501.5 764.691  48
  -1   7   2 31211.7 986.018  56
   1  -7  -1 23891.3 661.869  86
   1  -7  -1 20907.0 790.545  82
  -1   7   1 23003.1 831.375  39
   1  -7  -1 23090.5 648.338  35
  -1   7   1 22125.9 798.113  75
  -1   7   1 22785.0 795.120  56
   1  -7  -1 24309.3 746.021  52
   1  -7  -1 27064.6 696.170  28
  -1   7   1 21284.3 694.759  23
   1  -7  -1 23987.5 619.793  33
  -1   7   1 23329.7 745.500  31
  -1   7   0 21481.3 718.218  31
   1  -7   0 24562.6 667.458  28
   1  -7   0 22197.3 603.341  33
  -1   7   0 21758.5 688.968  23
  -1   7   0 23048.2 795.611   7
  -1   7   0 20891.6 796.625   4
   1  -7   0 22554.1 633.287  86
   1  -7   0 20847.4 771.081  82
   1  -7   0 22357.3 634.765  35
  -1   7   0 22600.7 797.369  39
  -1   7   0 21077.2 770.477  75
  -1   7   0 21388.7 773.885  56
   1  -7   0 24108.7 730.294  52
   1  -7   1 1541.63 147.001  33
   1  -7   1 1572.77 170.795  28
  -1   7  -1 1313.58 182.870  23
  -1   7  -1 1348.25 228.254   7
  -1   7  -1 1410.45 223.535   4
   1  -7   1 1274.35 141.396  86
  -1   7  -1 1348.30 190.968  80
   1  -7   1 1287.14 190.552  82
   1  -7   1 1514.10 153.433  35
  -1   7  -1 1096.02 193.535  75
  -1   7  -1 1102.80 206.103  56
   1  -7   1 1619.37 211.327  52
  -1   7  -2 42886.1 1152.96  23
   1  -7   2 44131.2 1055.52  33
   1  -7   2 41446.8 1089.63   2
  -1   7  -2 48856.9 1367.38   4
   1  -7   2 41993.0 1064.40  86
  -1   7  -2 43917.0 1083.97  80
   1  -7   2 45136.7 1257.65  82
   1  -7   2 44727.9 1082.88  35
  -1   7  -2 42660.2 1226.66  75
   1  -7   2 42197.9 1201.18  62
  -1   7  -2 48409.4 1160.03  49
   1  -7   2 46750.5 1171.67  52
  -1   7  -3 22754.8 727.798  23
   1  -7   3 23239.0 639.036  33
  -1   7  -3 20525.8 730.555   6
   1  -7   3 22595.1 675.589   2
  -1   7  -3 22196.4 749.566  89
   1  -7   3 21894.8 638.636  86
   1  -7   3 23123.9 801.911  82
  -1   7  -3 21969.5 645.768  80
   1  -7   3 22315.3 647.698  35
  -1   7  -3 22030.6 770.048  75
   1  -7   3 22632.2 756.075  62
  -1   7  -3 23969.7 694.898  49
   1  -7   3 21137.9 733.481  52
   1  -7   4 2920.52 214.716  33
   1  -7   4 3419.54 234.866   2
  -1   7  -4 3146.61 280.391   6
  -1   7  -4 3536.64 356.552   4
  -1   7  -4 3252.72 272.673  89
   1  -7   4 2992.39 211.654  86
  -1   7  -4 3212.45 238.046  80
   1  -7   4 2916.96 215.239  35
   1  -7   4 3633.71 283.795  62
   1  -7   4 3503.00 228.568  47
   1  -7   4 3059.27 277.809  54
  -1   7  -4 3161.41 233.713  49
   1  -7   5 39693.9 1069.59  33
  -1   7  -5 47298.9 1326.68   4
   1  -7   5 44943.4 1159.19   2
   1  -7   5 46582.5 1274.99  81
  -1   7  -5 43745.7 1070.61  80
  -1   7  -5 44624.1 1214.87  89
  -1   7  -5 44146.1 1241.27  70
   1  -7   5 47363.9 1262.45  62
  -1   7  -5 43255.0 1146.18  67
   1  -7   5 42912.5 1163.99  65
  -1   7  -5 42115.8 1107.40  49
   1  -7   5 46552.2 1114.46  47
   1  -7   5 45157.4 1230.05  54
   1  -7   6 1176.78 191.182   2
   1  -7   6 945.526 207.571  81
  -1   7  -6 979.334 189.590  80
  -1   7  -6 972.167 197.889  89
  -1   7  -6 940.946 195.272  70
   1  -7   6 1034.12 201.276  62
  -1   7  -6 918.692 275.238  67
   1  -7   6 933.370 224.077  65
   1  -7   6 895.102 158.885  47
   1  -7   6 899.491 205.461  54
  -1   7  -6 753.815 161.625  49
   1  -7   7 34720.8 1086.88  81
  -1   7  -7 32679.9 996.825  89
  -1   7  -7 34103.6 1044.79  70
  -1   7  -7 34987.2 1014.32  67
   1  -7   7 31826.3 901.141  47
   1  -7   7 31318.2 1014.65  54
  -1   7  -8 5476.61 391.237  85
   1  -7   8 5543.81 413.350  81
   1  -7   8 5106.34 308.307  47
   1  -7   8 5225.36 377.493  54
  -1   7  -8 4962.71 377.349  70
   1  -7   8 5565.91 425.291  61
  -1   7  -8 5901.52 450.690  67
   1  -7   8 5342.06 384.736  65
   1  -7   8 5011.26 341.015  15
  -1   7  -9 26103.4 979.289  85
   1  -7   9 27794.4 1019.90  81
   1  -7   9 27965.5 851.549  47
   1  -7   9 28631.4 977.571  54
  -1   7  -9 27083.2 972.486  70
  -1   7  -9 29792.5 995.038  67
   1  -7   9 30465.5 954.127  65
   1  -7   9 30009.0 1046.41  61
   1  -7   9 30023.7 850.312  15
  -1   7 -10 14861.9 699.115  85
   1  -7  10 14058.4 700.185  81
   1  -7  10 16784.9 705.075  54
   1  -7  10 14219.2 555.855  47
  -1   7 -10 15007.0 694.377  70
   1  -7  10 16036.2 652.857  65
   1  -7  10 15432.6 719.092  61
   1  -7  10 16239.3 558.800  15
  -1   7 -11 3777.55 380.690  70
  -1   7 -11 3399.61 375.237  85
   1  -7  11 3806.19 271.272  78
   1  -7  11 4162.35 382.925  81
   1  -7  11 4376.26 398.889  61
   1  -7  11 4181.34 357.909  54
   1  -7  11 3512.52 266.495  47
  -1   7 -12 20374.8 870.352  85
   1  -7  12 22155.3 865.225  81
  -1   7 -12 20321.3 860.264  70
   1  -7  13 299.185 132.790  47
   1  -7  13 320.990 203.673  54
  -1   7 -13 470.243 225.511  85
   1  -7  13 285.729 127.796  78
   1  -7  13 473.526 191.791  81
   1  -7  14 19228.4 722.378  54
   1  -7  14 18329.5 741.688  71
   1  -7  15 214.626 166.963  54
  -1   7 -15 98.7091 175.619  85
   1  -7  15 163.943 152.390  81
   1  -7  15 172.749 179.686  71
  -1   7 -15 88.7650 167.556  72
  -1   7 -16 7170.48 428.973  85
   1  -7  16 8425.02 423.496  71
  -1   7 -16 6912.49 421.411  72
   1  -7  16 7660.99 380.088  54
  -1   7 -17 417.198 135.856  72
   1  -7  17 355.185 132.819  71
  -1   7 -17 320.840 139.661  85
  -1   6  15 490.396 103.555  75
   1  -6 -15 446.296 117.799  82
  -1   6  14 4200.75 281.469  75
  -1   6  14 4872.76 290.486  56
   1  -6 -14 3993.41 302.490  41
  -1   6  13 5288.27 351.624  75
   1  -6 -13 4056.19 349.496  41
  -1   6  13 5287.76 342.186  56
   1  -6 -13 4920.10 391.464  84
   1  -6 -12 18049.5 815.387  84
   1  -6 -12 19523.9 817.099  41
  -1   6  12 18944.3 756.936  75
  -1   6  12 17773.2 699.140  90
  -1   6  12 19428.5 741.833  56
   1  -6 -11 2618.12 338.327  41
  -1   6  11 2333.06 291.726  56
   1  -6 -11 2466.38 346.534  84
   1  -6 -10 10422.5 644.909  84
   1  -6 -10 10435.0 621.409  41
  -1   6  10 11233.2 605.738  75
  -1   6  10 11673.7 581.191  90
  -1   6  10 11743.1 594.823  56
  -1   6   9 4483.94 372.549  90
   1  -6  -9 2986.84 195.073  86
   1  -6  -9 4472.63 432.715  84
   1  -6  -9 4424.18 409.981  41
  -1   6   9 4482.45 395.765  75
  -1   6   9 4817.39 330.338  30
  -1   6   9 4243.52 371.007  56
   1  -6  -8 789.372 252.561  84
   1  -6  -8 724.661 211.902  41
   1  -6  -8 963.455 272.695  40
  -1   6   8 1255.43 229.541  44
  -1   6   8 768.760 220.265  75
   1  -6  -8 670.041 135.171  86
  -1   6   8 1079.17 218.696  90
  -1   6   8 1031.24 222.665  56
   1  -6  -8 990.278 288.592  45
  -1   6   8 939.120 237.381  53
  -1   6   7 5401.52 394.699  90
   1  -6  -7 4476.61 269.741  86
   1  -6  -7 5790.68 437.376  84
   1  -6  -7 5450.44 413.168  41
   1  -6  -7 5113.98 365.354  40
  -1   6   7 5522.91 383.495  44
  -1   6   7 5485.58 417.765  75
  -1   6   7 6176.03 365.533  30
  -1   6   7 6024.67 350.352  27
  -1   6   7 5680.93 420.301  53
   1  -6  -7 6111.11 395.864  45
  -1   6   7 5607.19 399.905  56
  -1   6   6 55100.4 1530.72  90
   1  -6  -6 48087.1 1322.65  86
   1  -6  -6 56500.0 1605.77  84
  -1   6   6 52721.8 1595.20  39
   1  -6  -6 54815.2 1355.00  40
   1  -6  -6 54138.9 1550.13  41
  -1   6   6 53898.6 1553.95  75
  -1   6   6 56976.7 1441.59  27
  -1   6   6 57206.6 1466.19  30
   1  -6  -6 61960.8 1431.28  45
  -1   6   6 54467.9 1523.59  56
  -1   6   6 56208.2 1564.60  53
  -1   6   6 53659.0 1473.11  44
   1  -6  -5 30955.7 859.410  86
  -1   6   5 29610.3 988.787  90
   1  -6  -5 29865.7 1026.59  84
   1  -6  -5 30565.5 1010.07  41
  -1   6   5 31611.5 1075.79  39
   1  -6  -5 35642.8 857.915  40
  -1   6   5 29776.2 1011.69  75
  -1   6   5 31271.5 927.488  27
   1  -6  -5 30967.3 823.047  28
  -1   6   5 29525.0 891.733  31
  -1   6   5 32998.0 959.223  30
  -1   6   5 29941.8 943.885  44
   1  -6  -5 32244.2 801.291  48
  -1   6   5 30606.2 1011.33  53
  -1   6   5 31309.6 1002.62  56
   1  -6  -5 34231.7 894.783  45
  -1   6   4 843.645 142.320  12
   1  -6  -4 847.606 145.820   1
   1  -6  -4 923.054 136.907  86
  -1   6   4 1296.18 203.928  90
   1  -6  -4 1172.36 207.966  84
  -1   6   4 1022.07 206.434  39
  -1   6   4 890.643 166.717  44
   1  -6  -4 988.623 192.715  41
  -1   6   4 979.847 194.829  75
  -1   6   4 884.199 147.932  31
  -1   6   4 912.500 163.926  27
  -1   6   4 964.287 174.096  30
   1  -6  -4 883.404 131.317  28
  -1   6   4 1038.03 201.128  53
   1  -6  -4 1032.24 164.319  48
  -1   6   4 1021.49 196.417  56
  -1   6   3 18577.4 705.460   4
   1  -6  -3 20499.5 598.843  86
  -1   6   3 19686.4 706.605  90
   1  -6  -3 19576.9 719.155  84
  -1   6   3 19410.9 721.025  75
  -1   6   3 19911.2 638.410  44
   1  -6  -3 19257.4 540.801  48
  -1   6   3 19291.7 696.172  56
  -1   6   3 19286.4 694.638  53
  -1   6   3 19788.3 634.170  31
  -1   6   3 20351.0 665.732  30
   1  -6  -3 21647.2 596.487  28
  -1   6   3 20242.6 654.325  27
   1  -6  -3 19912.1 711.763  41
  -1   6   3 19369.4 749.591  39
  -1   6   2 3184.31 276.013   4
  -1   6   2 3558.00 283.795   7
   1  -6  -2 2952.52 195.920  86
   1  -6  -2 2703.55 255.285  41
  -1   6   2 3093.82 284.631  39
  -1   6   2 2738.20 255.155  75
  -1   6   2 2869.29 260.601  56
   1  -6  -2 3436.94 241.311  52
  -1   6   2 2789.40 215.428  31
   1  -6  -2 3421.35 213.096  28
  -1   6   2 3406.31 242.671  27
  -1   6   1 74118.9 1832.94  56
   1  -6  -1 83252.4 1788.83  52
   1  -6  -1 71531.4 1855.09  82
  -1   6   1 74574.5 1880.27  39
  -1   6   1 74841.9 1848.25  75
   1  -6  -1 81085.5 1715.18  28
  -1   6   1 72798.9 1778.44  27
  -1   6   1 73572.2 1768.24  31
  -1   6   1 80824.2 1895.08   7
  -1   6   1 72795.3 1877.69   4
  -1   6   0 1769.15 239.519   7
  -1   6   0 1646.76 223.622   4
  -1   6   0 1385.07 194.237  10
   1  -6   0 1800.74 200.929  52
   1  -6   0 1444.46 200.092  82
  -1   6   0 1751.36 209.350  75
   1  -6   0 1692.43 168.012  28
  -1   6   0 1355.55 165.315  23
  -1   6   0 1499.70 180.987  31
  -1   6   0 1331.86 209.422  56
  -1   6   0 1674.29 210.878  39
   1  -6   1 34441.1 890.129   2
  -1   6  -1 40143.7 1138.63   4
   1  -6   1 37650.8 905.429  35
  -1   6  -1 41853.7 990.838  49
   1  -6   1 32148.5 973.264  52
  -1   6  -1 35804.0 1026.06  75
  -1   6  -1 36262.8 1028.74  56
  -1   6  -1 35682.0 954.571  23
  -1   6  -1 38652.7 1003.44  31
   1  -6   1 36103.3 876.389  33
   1  -6   1 42320.8 940.026  28
   1  -6   2 49302.6 1096.18   5
  -1   6  -2 48966.0 1293.90   6
  -1   6  -2 65017.7 1600.71   4
   1  -6   2 54942.5 1227.45   2
   1  -6   2 55545.0 1213.20  35
  -1   6  -2 59502.6 1281.59  49
  -1   6  -2 53178.4 1337.74  75
   1  -6   2 53837.7 1331.22  62
  -1   6  -2 53072.8 1274.30  23
   1  -6   2 55945.1 1189.89  33
   1  -6   2 59406.6 1244.95  28
  -1   6  -3 8650.22 416.458   6
   1  -6   3 9109.25 358.734   2
   1  -6   3 9300.48 342.946  35
   1  -6   3 9380.09 360.343  47
  -1   6  -3 9018.45 363.036  49
   1  -6   3 8849.58 407.710  54
  -1   6  -3 9311.93 427.219  75
   1  -6   3 10060.3 427.556  62
  -1   6  -3 9428.70 397.111  23
   1  -6   3 9667.08 334.367  33
  -1   6  -4 22524.0 765.975   6
   1  -6   4 23232.7 662.821  47
  -1   6  -4 21891.4 654.307  49
   1  -6   4 22907.3 733.200  54
   1  -6   4 22532.2 639.957  35
   1  -6   4 23810.5 745.433  62
   1  -6   4 22590.0 620.881  33
   1  -6   5 7038.53 309.650  33
  -1   6  -5 7158.87 399.382   4
  -1   6  -5 7162.50 445.571   6
   1  -6   5 7701.98 283.392   8
  -1   6  -5 6765.98 362.752  89
   1  -6   5 6824.50 307.728  86
  -1   6  -5 7220.87 316.634  80
   1  -6   5 7229.12 400.747  81
   1  -6   5 6696.78 307.112  35
  -1   6  -5 6299.21 371.017  70
   1  -6   5 7015.63 378.061  62
  -1   6  -5 6661.75 318.136  49
   1  -6   5 6995.99 374.924  54
   1  -6   5 6766.63 322.142  47
   1  -6   6 26930.4 781.381  33
  -1   6  -6 35239.1 1141.96   6
   1  -6   6 28713.4 756.899  17
   1  -6   6 27777.9 741.360   8
  -1   6  -6 30867.3 889.412   4
  -1   6  -6 30017.3 885.057  89
   1  -6   6 32033.9 952.197  81
  -1   6  -6 28642.9 768.664  80
  -1   6  -6 30010.9 837.712  37
  -1   6  -6 29628.1 903.567  70
  -1   6  -6 30059.7 885.622  67
   1  -6   6 28977.7 863.578  65
   1  -6   6 33345.0 955.980  62
   1  -6   6 28277.8 817.982  47
   1  -6   6 29553.9 906.645  54
  -1   6  -6 29240.3 826.290  49
   1  -6   7 619.717 239.160  17
   1  -6   7 1091.79 165.843  10
  -1   6  -7 1082.26 166.792  49
   1  -6   7 1058.21 209.820  54
   1  -6   7 1360.67 220.051  81
  -1   6  -7 1192.22 205.288  85
  -1   6  -7 1129.51 270.318  37
  -1   6  -7 1214.51 199.387  70
   1  -6   7 1353.96 232.788  65
  -1   6  -7 1229.19 297.410  67
   1  -6   8 36053.7 1096.56  54
  -1   6  -8 35153.4 1091.71  85
   1  -6   8 36618.3 1132.31  81
   1  -6   8 39746.5 990.184  10
   1  -6   8 32809.1 973.074  15
  -1   6  -8 35813.3 1086.38  70
   1  -6   8 39711.6 1155.22  61
  -1   6  -8 39148.2 1116.77  67
   1  -6   8 33449.5 1046.04  65
   1  -6   8 35809.7 949.941  25
   1  -6   9 1164.61 224.833  54
   1  -6   9 1166.58 242.953  81
  -1   6  -9 1198.21 224.855  85
   1  -6   9 1223.69 241.739  15
   1  -6   9 1210.53 177.040  10
  -1   6  -9 1063.98 215.748  70
   1  -6   9 1399.19 242.903  65
   1  -6   9 1217.19 241.565  61
   1  -6   9 1193.79 257.825  25
   1  -6  10 21451.2 807.958  54
   1  -6  10 19991.7 811.516  81
  -1   6 -10 18707.1 799.151  85
   1  -6  10 20973.6 674.250  15
  -1   6 -10 19364.8 802.680  70
   1  -6  10 21585.2 755.339  65
   1  -6  10 21364.2 840.673  61
   1  -6  10 22253.9 703.171  25
  -1   6 -11 8478.50 538.892  85
  -1   6 -11 9576.65 559.291  70
   1  -6  11 8827.58 421.410  78
   1  -6  11 9773.70 543.214  81
   1  -6  11 10328.0 564.408  61
   1  -6  11 10848.7 548.709  54
   1  -6  12 42222.4 1289.37  81
   1  -6  12 35320.4 1065.98  78
  -1   6 -12 37211.1 1290.09  85
   1  -6  12 45560.2 1271.95  54
  -1   6 -12 39771.9 1305.41  70
   1  -6  13 11654.4 596.616  81
  -1   6 -13 11533.2 632.074  85
   1  -6  13 12937.7 587.261  54
   1  -6  13 11749.3 590.221  71
  -1   6 -13 10875.1 611.848  72
   1  -6  14 18291.4 635.638  78
   1  -6  14 18650.3 626.682  47
   1  -6  15 5883.06 299.876  78
   1  -6  15 7041.34 445.905  81
  -1   6 -15 6625.18 455.248  85
   1  -6  15 7522.51 417.143  54
  -1   6 -15 6294.49 440.565  72
   1  -6  15 8240.61 454.476  71
  -1   6 -16 1626.36 241.311  85
   1  -6  16 1585.84 208.282  54
   1  -6  16 1558.97 221.984  71
  -1   6 -16 1394.17 225.884  72
  -1   6 -17 9121.24 450.486  72
  -1   6 -17 9226.41 461.520  85
  -1   6 -18-19.1915 99.8141  85
   1  -5 -16 6118.68 292.913  82
  -1   5  15 487.236 135.940  75
   1  -5 -15 431.744 136.480  41
  -1   5  15 618.603 140.535  56
   1  -5 -15 570.870 164.426  84
   1  -5 -14 8955.79 509.709  84
   1  -5 -14 8374.73 482.121  41
  -1   5  14 8556.51 444.428  75
  -1   5  14 8370.40 405.336  90
  -1   5  14 9164.14 441.975  56
   1  -5 -13 7793.61 519.298  84
   1  -5 -13 6885.46 476.408  41
  -1   5  13 6596.67 429.833  75
  -1   5  13 6886.01 408.603  90
  -1   5  13 7193.14 426.318  56
  -1   5  12 10057.6 533.849  56
   1  -5 -12 9420.14 607.591  84
   1  -5 -12 9905.36 593.131  41
   1  -5 -11 16741.7 837.108  84
  -1   5  11 16984.2 725.818  90
  -1   5  11 18231.1 750.642  56
   1  -5 -11 16294.3 803.898  41
   1  -5 -10 28602.3 1081.67  84
   1  -5 -10 26942.5 1037.39  41
  -1   5  10 30387.6 974.510  90
  -1   5  10 29545.2 966.552  56
  -1   5   9 8063.80 377.095  77
   1  -5  -9 8571.29 565.948  84
  -1   5   9 7984.08 494.548  44
   1  -5  -9 7841.06 524.321  41
   1  -5  -9 9276.92 484.825  40
   1  -5  -9 8992.44 495.111  68
  -1   5   9 8244.80 485.502  90
  -1   5   9 9098.31 511.774  56
   1  -5  -9 8460.64 521.032  45
  -1   5   8 6474.16 417.284  90
   1  -5  -8 6022.06 466.587  84
  -1   5   8 6152.95 323.745  77
   1  -5  -8 5508.32 417.783  41
  -1   5   8 5611.80 393.558  44
   1  -5  -8 5984.60 353.340  38
   1  -5  -8 4742.50 376.728  40
   1  -5  -8 5700.51 398.539  68
  -1   5   8 5856.40 348.267  30
   1  -5  -8 5070.59 399.460  45
  -1   5   8 5636.06 422.923  53
  -1   5   8 5667.21 405.856  56
   1  -5  -8 6031.67 356.379  51
  -1   5   7 59297.6 1610.21  90
  -1   5   7 59600.9 1457.84  77
   1  -5  -7 60906.7 1712.38  84
   1  -5  -7 55167.2 1459.13  40
   1  -5  -7 58200.2 1638.96  41
  -1   5   7 55802.3 1580.22  44
   1  -5  -7 57570.8 1421.61  38
   1  -5  -7 57838.8 1529.23  68
  -1   5   7 62534.3 1538.47  30
   1  -5  -7 66870.0 1522.02  32
  -1   5   7 58306.4 1497.53  27
  -1   5   7 56983.7 1591.19  56
   1  -5  -7 58215.3 1445.23  51
   1  -5  -7 67973.4 1548.38  45
  -1   5   7 57762.2 1639.27  53
  -1   5   6 1861.54 233.549  90
   1  -5  -6 2198.54 272.389  84
  -1   5   6 2069.42 202.269  77
   1  -5  -6 2197.97 255.230  38
   1  -5  -6 2069.97 226.139  40
   1  -5  -6 2314.45 256.060  41
   1  -5  -6 2061.39 248.173  68
  -1   5   6 1840.83 208.500  30
   1  -5  -6 2114.12 190.536  29
  -1   5   6 1643.92 192.640  27
   1  -5  -6 1334.56 149.551  28
   1  -5  -6 2056.97 217.055  32
  -1   5   6 1698.99 221.270  44
   1  -5  -6 2247.55 224.621  45
  -1   5   6 1922.27 242.572  53
  -1   5   6 1894.38 238.114  56
  -1   5   5 71766.9 1677.59  12
  -1   5   5 73767.1 1832.11  90
   1  -5  -5 70740.4 1866.17  84
  -1   5   5 75269.7 1705.30  77
   1  -5  -5 73214.7 1843.95  41
  -1   5   5 70680.5 1893.20  39
   1  -5  -5 76210.1 1759.99  68
   1  -5  -5 65928.8 1646.25  28
  -1   5   5 78705.2 1786.62  30
   1  -5  -5 76550.4 1699.81  29
   1  -5  -5 81063.4 1764.06  32
  -1   5   5 76250.6 1756.20  27
   1  -5  -5 75852.6 1625.91  48
  -1   5   5 71987.7 1844.93  53
  -1   5   5 70678.5 1788.26  44
  -1   5   5 70923.7 1811.49  56
   1  -5  -4 305.125 105.386   1
  -1   5   4 176.726 153.934  10
  -1   5   4 219.441 106.747  12
   1  -5  -4 785.989 194.679   9
  -1   5   4 267.296 145.344   7
  -1   5   4 217.716 152.222  90
   1  -5  -4 357.660 155.014  84
   1  -5  -4 344.524 178.722  68
  -1   5   4 137.017 151.056  39
  -1   5   4 295.876 145.852  44
   1  -5  -4 286.198 138.670  41
  -1   5   4 280.178 136.000  30
   1  -5  -4 338.712 152.132  32
   1  -5  -4 277.602 137.292  29
  -1   5   4 244.541 126.228  27
   1  -5  -4 293.879 153.397  48
  -1   5   4 319.075 150.911  53
  -1   5   4 329.115 155.546  56
  -1   5   3 13003.1 465.690  44
   1  -5  -3 13214.1 461.227  52
  -1   5   3 11675.8 487.667  53
   1  -5  -3 11568.1 380.732  48
  -1   5   3 12620.3 504.104  56
   1  -5  -3 12203.6 496.730  41
  -1   5   3 11837.2 528.815  39
  -1   5   3 12688.0 512.702  75
   1  -5  -3 12990.2 461.319  68
   1  -5  -3 14671.7 456.522  29
  -1   5   3 12342.3 433.932  31
  -1   5   3 12390.2 451.346  27
  -1   5   3 13261.8 472.291  30
   1  -5  -3 15244.8 489.259  32
  -1   5   3 12300.4 418.081  12
  -1   5   3 12496.7 467.887  10
  -1   5   3 11467.6 501.326   4
  -1   5   3 12645.8 516.147   7
  -1   5   2 25191.0 775.954   7
  -1   5   2 23794.0 742.338  13
  -1   5   2 24578.5 708.479  10
  -1   5   2 23004.0 759.895   4
   1  -5  -2 22963.6 749.977  84
   1  -5  -2 23492.3 743.083  41
  -1   5   2 23927.7 782.748  39
  -1   5   2 23082.5 742.350  90
  -1   5   2 22887.1 673.714  31
   1  -5  -2 23804.2 655.775  28
  -1   5   2 24419.7 697.364  27
   1  -5  -2 28126.8 698.919  29
   1  -5  -2 28357.3 719.547  32
  -1   5   2 24182.8 708.126  30
  -1   5   2 24109.4 740.963  56
   1  -5  -2 26403.2 705.638  52
  -1   5   1 15649.7 576.354   4
  -1   5   1 16401.2 580.097   7
  -1   5   1 15357.1 516.846  10
  -1   5   1 15584.1 545.274  13
  -1   5   1 16099.5 558.642  90
  -1   5   1 16263.8 580.969  39
   1  -5  -1 18196.2 510.547  29
   1  -5  -1 15462.7 472.695  28
   1  -5  -1 17857.5 523.181  32
  -1   5   1 14978.7 497.959  31
  -1   5   1 15879.6 514.107  27
   1  -5  -1 16362.2 515.272  52
   1  -5   0 28272.5 713.060   2
   1  -5   0 29815.5 782.144  14
  -1   5   0 32263.4 838.879  13
  -1   5   0 30503.8 816.364  10
  -1   5   0 31796.4 906.579   4
  -1   5   0 35070.3 918.184   7
   1  -5   0 31769.9 876.037  82
   1  -5   0 32565.6 771.317  86
  -1   5   0 29557.2 772.067  23
  -1   5   0 31227.7 810.913  31
   1  -5   0 36178.1 799.493  29
   1  -5   0 36634.6 819.257  32
   1  -5   0 32121.7 771.329  28
  -1   5  -1 1359.49 213.965   7
   1  -5   1 1237.62 120.820   2
   1  -5   1 1078.45 183.216  14
  -1   5  -1 1401.17 217.033   4
   1  -5   1 723.385 122.187  86
   1  -5   1 868.244 168.609  82
  -1   5  -1 969.019 169.721  80
  -1   5  -1 804.014 169.434  75
   1  -5   1 1155.25 143.852  47
  -1   5  -1 1039.69 160.599  49
   1  -5   1 1194.14 142.480  28
   1  -5   1 1570.31 171.472  29
  -1   5  -1 1132.42 151.761  23
  -1   5  -1 1170.07 175.371  20
   1  -5   2 86799.9 1837.33  18
  -1   5  -2 85282.7 1840.92  23
  -1   5  -2 83508.6 1864.25  20
   1  -5   2 91095.5 1803.92  28
  -1   5  -2 101159. 2105.02   4
   1  -5   2 82924.1 1833.91  12
   1  -5   2 86313.5 1806.49  14
   1  -5   2 75939.6 1710.34   5
  -1   5  -2 78364.5 1874.12   6
  -1   5  -2 80247.7 1840.53   7
   1  -5   2 87650.6 1793.93  86
   1  -5   2 91657.4 1935.54  82
  -1   5  -2 85006.4 1776.37  80
   1  -5   2 82778.2 1780.67  35
  -1   5  -2 81760.7 1889.22  75
  -1   5  -2 74970.7 1682.83  64
   1  -5   2 89514.2 1814.54  47
   1  -5   2 82062.7 1858.94  54
   1  -5   3 105.278 113.233  33
   1  -5   3 165.869 114.583  18
   1  -5   3 258.095 124.742  28
  -1   5  -3 167.364 141.803  20
   1  -5   3 39.4911 104.770  86
   1  -5   3 49.9003 139.769  82
  -1   5  -3 138.327 161.149  80
   1  -5   3 223.473 159.135  14
  -1   5  -3 171.909 215.894   4
   1  -5   3 312.487 103.068   5
   1  -5   3 186.025 121.230  12
  -1   5  -3 161.300 169.535   6
  -1   5  -3 177.844 89.3380   7
   1  -5   3 98.6253 111.248  35
  -1   5  -3 126.536 215.251  67
   1  -5   3 150.289 126.039  47
   1  -5   3 80.2752 155.644  54
   1  -5   4 98901.8 2019.47  33
   1  -5   4 92185.1 2100.08  12
  -1   5  -4 104324. 2226.17   4
  -1   5  -4 90073.6 1994.27  11
   1  -5   4 88186.3 2007.62  14
   1  -5   4 92650.7 2070.94  10
  -1   5  -4 100300. 2249.90   6
   1  -5   4 99175.2 2042.44  86
  -1   5  -4 96900.3 2115.77  89
  -1   5  -4 93862.2 2013.55  80
   1  -5   4 93036.3 2027.40  35
   1  -5   4 95967.5 2154.60  62
  -1   5  -4 91410.4 2068.19  67
   1  -5   4 91529.3 2128.63  54
   1  -5   5 5856.30 258.125  33
   1  -5   5 5217.31 250.331   8
   1  -5   5 4529.91 259.707  10
  -1   5  -5 5107.61 291.021   4
  -1   5  -5 6620.65 593.759   6
   1  -5   5 4690.05 252.188  86
  -1   5  -5 5170.92 258.943  80
   1  -5   5 5085.02 249.579  35
  -1   5  -5 5163.79 303.469  70
   1  -5   5 5514.90 307.224  62
   1  -5   5 5127.61 318.731  54
  -1   5  -5 4661.62 266.374  49
  -1   5  -6 19102.9 585.161   4
   1  -5   6 18718.3 526.881   8
  -1   5  -6 21188.5 935.581   6
   1  -5   6 17098.8 563.560  10
  -1   5  -6 17235.2 618.981  49
   1  -5   6 19572.2 661.036  81
  -1   5  -6 18059.3 606.073  37
  -1   5  -6 18397.4 629.284  70
   1  -5   6 19147.8 650.137  62
  -1   5  -6 18831.6 655.215  67
   1  -5   6 17525.5 540.598  33
  -1   5  -7 15734.6 586.803  70
  -1   5  -7 16372.5 662.209   6
   1  -5   7 17304.6 570.792  15
   1  -5   7 15233.7 532.693  17
   1  -5   7 17833.1 642.482  61
  -1   5  -7 17116.4 642.715  67
   1  -5   7 13710.5 550.995  65
  -1   5  -7 15127.8 584.324  85
   1  -5   7 16394.3 619.470  81
  -1   5  -8 2547.79 252.050  85
   1  -5   8 2481.07 265.125  81
   1  -5   8 2168.92 279.498  17
  -1   5  -8 2232.50 255.428   6
  -1   5  -8 2749.65 249.375  70
   1  -5   8 2342.38 251.690  65
   1  -5   8 2740.13 284.110  61
   1  -5   8 2194.78 285.499  25
   1  -5   9 31446.3 1042.45  81
  -1   5  -9 33076.2 1075.38  85
   1  -5   9 35545.7 963.940  15
   1  -5   9 36199.3 948.054  10
  -1   5  -9 34496.0 1077.01  70
   1  -5   9 38674.1 1043.53  65
   1  -5   9 32990.0 1067.16  61
   1  -5   9 34753.8 938.878  25
   1  -5  10 21127.9 793.429  81
  -1   5 -10 19537.2 809.242  85
   1  -5  10 20101.4 653.729  10
   1  -5  10 21987.2 690.247  15
  -1   5 -10 20520.7 807.867  70
   1  -5  10 23151.7 747.183  65
   1  -5  10 23455.7 825.867  61
   1  -5  10 20764.8 684.601  25
  -1   5 -11 4212.68 378.686  85
  -1   5 -11 4176.10 381.934  70
   1  -5  11 4609.08 297.065  78
   1  -5  11 4817.18 369.163  81
  -1   5 -12 1193.38 249.857  72
   1  -5  12 1212.74 236.939  71
   1  -5  12 1000.30 174.719  78
   1  -5  12 1405.68 246.101  81
  -1   5 -12 862.758 252.364  85
  -1   5 -13 2894.83 341.729  85
   1  -5  13 3287.82 329.871  71
  -1   5 -13 2545.60 322.639  72
   1  -5  13 3277.14 326.426  81
   1  -5  13 2872.39 250.322  78
   1  -5  14 5432.63 321.317  78
   1  -5  14 6579.06 447.664  81
  -1   5 -14 5809.36 449.604  85
   1  -5  15 14542.0 617.727  71
  -1   5 -15 12840.8 633.037  72
   1  -5  15 12509.2 524.179  66
   1  -5  15 13641.9 577.509  54
  -1   5 -16 1472.41 250.567  85
   1  -5  16 1034.28 181.395  66
   1  -5  16 1517.50 211.317  54
  -1   5 -16 1503.58 236.670  72
   1  -5  16 1774.24 237.994  71
  -1   5 -17 1578.04 220.757  85
   1  -5  17 2129.31 225.480  71
  -1   5 -17 1926.75 226.824  72
   1  -5  18 2367.58 198.824  71
  -1   5 -18 2363.97 209.741  85
  -1   4  16 2222.92 199.142  75
  -1   4  16 2281.34 192.674  56
   1  -4 -16 2328.96 232.024  84
   1  -4 -15 12273.2 578.740  84
   1  -4 -15 11477.3 540.857  41
  -1   4  15 10759.7 494.924  75
  -1   4  15 10431.0 454.049  90
  -1   4  15 12082.9 491.945  56
   1  -4 -14 55.9277 183.008  84
  -1   4  14 325.077 153.463  90
  -1   4  14 139.126 150.568  56
   1  -4 -14 143.092 177.113  41
  -1   4  13 14485.0 642.582  56
   1  -4 -13 14162.7 714.126  41
   1  -4 -12 7709.37 535.093  41
  -1   4  12 8184.32 481.107  90
   1  -4 -12 7440.99 562.426  84
   1  -4 -11 22543.1 998.536  84
  -1   4  11 19805.9 646.330  77
   1  -4 -11 21698.3 950.486  41
   1  -4 -11 22584.7 983.276  72
   1  -4 -11 26001.9 860.599  68
  -1   4  11 24106.6 881.586  90
  -1   4  11 25125.5 895.225  56
  -1   4  10 10477.3 433.690  77
   1  -4 -10 10079.7 641.483  84
   1  -4 -10 10736.6 623.118  41
   1  -4 -10 12172.7 500.214  38
   1  -4 -10 12823.7 580.798  68
   1  -4 -10 10395.6 644.675  72
  -1   4  10 12137.7 589.006  90
  -1   4  10 11997.5 589.129  56
   1  -4 -10 12088.5 509.682  51
  -1   4   9 22262.5 703.216  77
   1  -4  -9 24964.9 747.159  38
   1  -4  -9 22376.5 784.175  40
   1  -4  -9 21172.9 895.146  41
   1  -4  -9 22528.1 941.289  72
   1  -4  -9 24722.8 831.562  68
  -1   4   9 23690.8 857.917  90
   1  -4  -9 21800.3 840.229  45
  -1   4   9 23378.6 856.922  56
  -1   4   9 24568.1 818.321  46
   1  -4  -9 24558.8 756.313  51
  -1   4   8 18447.7 720.902  90
  -1   4   8 18075.4 603.071  77
   1  -4  -8 18224.6 759.992  41
   1  -4  -8 18903.2 632.242  38
  -1   4   8 17843.8 724.293  44
   1  -4  -8 16209.6 642.201  40
   1  -4  -8 20396.4 706.270  68
   1  -4  -8 20162.7 818.494  72
  -1   4   8 20149.6 651.805  19
   1  -4  -8 20970.5 650.576  32
  -1   4   8 19791.4 652.150  30
  -1   4   8 18116.0 763.431  53
  -1   4   8 18052.3 715.685  56
   1  -4  -8 19754.7 724.846  45
   1  -4  -8 19374.2 655.444  51
  -1   4   7 3542.95 287.415  90
  -1   4   7 3109.54 231.637  77
   1  -4  -7 3318.59 299.953  38
  -1   4   7 2995.65 276.054  44
   1  -4  -7 3409.19 305.108  41
   1  -4  -7 3811.15 292.443  40
   1  -4  -7 3289.23 291.019  68
   1  -4  -7 3807.02 327.312  72
   1  -4  -7 3195.72 214.952  29
  -1   4   7 3700.71 240.180  27
  -1   4   7 3534.82 247.808  19
   1  -4  -7 3713.92 258.995  32
  -1   4   7 3430.66 247.255  30
   1  -4  -7 4013.92 294.957  45
  -1   4   7 3084.15 295.967  53
  -1   4   7 2819.88 277.210  56
  -1   4   6 18141.2 626.516  10
  -1   4   6 17202.6 654.217  90
  -1   4   6 18369.3 578.984  77
   1  -4  -6 18577.8 689.515  41
  -1   4   6 17998.0 661.349  44
   1  -4  -6 19495.9 723.091  72
   1  -4  -6 18128.0 630.057  68
  -1   4   6 19324.2 618.412  30
  -1   4   6 19696.3 605.824  27
   1  -4  -6 19295.4 616.826  32
   1  -4  -6 18660.9 566.418  29
  -1   4   6 19364.0 615.495  19
   1  -4  -6 21015.0 617.326  45
  -1   4   6 17477.9 654.824  56
  -1   4   6 18056.4 689.671  53
   1  -4  -6 19532.9 544.350  48
  -1   4   5 15537.9 570.155  56
  -1   4   5 15418.9 566.971  44
   1  -4  -5 16163.7 464.664  48
  -1   4   5 15301.5 587.603  53
  -1   4   5 15839.4 504.150  77
   1  -4  -5 15387.1 589.464  41
  -1   4   5 14918.7 609.972  39
   1  -4  -5 15068.1 544.779  68
   1  -4  -5 16542.0 617.987  72
  -1   4   5 16632.2 540.442  30
   1  -4  -5 15141.7 499.507  29
   1  -4  -5 15510.8 534.981  32
  -1   4   5 16262.2 521.450  27
  -1   4   5 15338.1 586.110   7
  -1   4   5 15461.7 467.355  12
  -1   4   5 15318.5 537.653  10
  -1   4   4 78932.4 1784.33   7
  -1   4   4 73749.0 1609.44  12
  -1   4   4 75160.7 1622.95  16
   1  -4  -4 56887.8 1616.29   9
  -1   4   4 75651.8 1683.51  10
  -1   4   4 74388.6 1756.70  13
  -1   4   4 70495.2 1734.12  90
   1  -4  -4 70828.3 1770.17  84
   1  -4  -4 73206.9 1753.67  41
  -1   4   4 68642.2 1781.38  39
   1  -4  -4 75050.7 1686.26  68
  -1   4   4 77026.4 1673.17  27
   1  -4  -4 76321.6 1660.22  29
  -1   4   4 80233.2 1700.19  30
   1  -4  -4 82401.0 1709.76  32
   1  -4  -4 72002.4 1580.15  48
  -1   4   4 72355.3 1714.05  44
  -1   4   4 70422.9 1724.26  56
  -1   4   4 72731.0 1751.09  53
  -1   4   3 25750.7 738.294   7
  -1   4   3 22704.0 702.932  13
  -1   4   3 22555.5 707.360   4
  -1   4   3 23156.8 603.248  12
  -1   4   3 24571.1 660.186  10
  -1   4   3 24438.8 710.064  90
   1  -4  -3 24562.9 730.324  84
  -1   4   3 22468.5 734.764  39
   1  -4  -3 23830.4 706.335  41
  -1   4   3 21500.2 559.145  43
   1  -4  -3 25036.1 649.437  29
  -1   4   3 24522.6 659.910  30
  -1   4   3 24578.2 648.512  27
  -1   4   3 23549.8 576.562  26
   1  -4  -3 27681.8 693.429  32
  -1   4   3 19909.8 527.305  21
  -1   4   3 23402.1 701.311  53
   1  -4  -3 27451.4 665.640  52
  -1   4   2 65880.9 1552.01   7
  -1   4   2 63016.9 1520.37  13
  -1   4   2 66680.6 1481.42  10
  -1   4   2 63465.6 1430.21  12
  -1   4   2 60330.5 1539.55   4
  -1   4   2 66973.6 1534.58  90
   1  -4  -2 64538.1 1546.04  84
  -1   4   2 58286.8 1360.75  43
  -1   4   2 62708.5 1561.44  39
  -1   4   2 68168.8 1549.64  75
   1  -4  -2 65387.9 1455.86  68
   1  -4  -2 68717.1 1472.78  29
  -1   4   2 65128.2 1450.75  31
   1  -4  -2 72866.3 1500.26  32
  -1   4   2 66908.5 1473.21  27
  -1   4   2 64169.2 1358.15  26
  -1   4   2 68999.0 1491.98  30
  -1   4   2 64702.6 1517.14  56
  -1   4   2 67978.8 1479.94  44
   1  -4  -2 72873.4 1492.15  52
  -1   4   1 46696.9 1080.77   7
  -1   4   1 43529.3 1085.66   4
   1  -4  -1 38307.2 893.440   2
  -1   4   1 44139.8 1011.49  10
  -1   4   1 42082.1 1034.37  13
  -1   4   1 40826.0 1040.22  90
   1  -4  -1 39240.5 1044.58  84
  -1   4   1 38034.7 903.399  37
  -1   4   1 43598.9 1060.03  75
   1  -4  -1 42510.7 969.713  68
  -1   4   1 42017.6 1035.30  56
  -1   4   1 43747.4 971.716  44
   1  -4  -1 45882.1 1001.47  29
  -1   4   1 42892.0 1004.44  27
  -1   4   1 41593.0 1044.11  20
   1  -4  -1 42953.9 999.694  19
   1  -4  -1 48080.4 1024.21  32
  -1   4   1 44095.3 992.387  31
  -1   4   0 93657.1 2052.63  56
  -1   4   0 85101.4 1917.64  44
   1  -4   0 97942.5 2090.11  82
  -1   4   0 86845.2 1953.66  34
  -1   4   0 97383.7 2085.58  39
   1  -4   0 92241.3 1965.41  68
  -1   4   0 96229.0 2065.94  75
  -1   4   0 96689.1 2117.89   4
  -1   4   0 101399. 2077.47   7
  -1   4   0 93037.9 2022.74  10
  -1   4   0 95617.1 2034.25  13
   1  -4   0 98801.5 2025.00  19
   1  -4   0 103904. 2011.47  29
  -1   4   0 89307.6 2042.64  20
  -1   4   0 90749.2 1974.55  23
   1  -4   0 103453. 2020.55  32
  -1   4   0 96430.4 2018.15  31
  -1   4   0 88552.5 2000.10  24
   1  -4   1 14499.3 388.874  29
  -1   4  -1 12709.0 379.249  23
   1  -4   1 13157.9 404.801  19
   1  -4   1 13021.9 379.351  28
  -1   4  -1 14009.4 423.100  20
   1  -4   1 14684.2 400.710  32
  -1   4  -1 12490.8 379.774  24
   1  -4   1 12889.0 381.095  18
   1  -4   1 12725.3 367.617  86
   1  -4   1 13510.7 449.526  82
  -1   4  -1 12558.0 356.550  80
  -1   4  -1 13561.0 406.241   7
  -1   4  -1 13997.2 405.256  13
   1  -4   1 12735.9 380.823  12
  -1   4  -1 14026.6 478.800   4
  -1   4  -1 12632.9 423.282  75
  -1   4  -1 11419.6 291.537  64
  -1   4  -1 12797.4 425.167  56
   1  -4   1 12492.0 401.667  54
   1  -4   2 182341. 3513.00  29
  -1   4  -2 154706. 3526.76  20
   1  -4   2 160931. 3527.11  18
   1  -4   2 178492. 3509.64  28
  -1   4  -2 191946. 3671.04   4
  -1   4  -2 157226. 3569.29   6
   1  -4   2 176961. 3536.96  10
   1  -4   2 168947. 3532.25  12
  -1   4  -2 165483. 3486.32   7
   1  -4   2 179808. 3505.28  86
   1  -4   2 180336. 3611.70  82
  -1   4  -2 170541. 3472.46  80
  -1   4  -2 169927. 3567.86  75
  -1   4  -2 164498. 3481.25  67
  -1   4  -2 169462. 3435.63  58
  -1   4  -2 166552. 3511.64  49
   1  -4   3 116188. 2153.67  28
  -1   4  -3 92246.4 2151.06  20
   1  -4   3 103803. 2187.85  18
   1  -4   3 95525.8 2125.48  14
  -1   4  -3 109527. 2270.75   4
   1  -4   3 103925. 2190.48  12
   1  -4   3 111730. 2191.31  10
  -1   4  -3 105847. 2255.17   6
  -1   4  -3 106583. 2157.85  11
   1  -4   3 103458. 2106.73   5
   1  -4   3 107609. 2139.55  86
  -1   4  -3 91929.8 2047.97  83
   1  -4   3 110672. 2252.09  82
  -1   4  -3 104304. 2112.84  80
  -1   4  -3 96146.7 2107.43  37
   1  -4   3 102646. 2135.81  35
  -1   4  -3 102309. 2207.84  75
  -1   4  -3 98651.5 2128.06  69
  -1   4  -3 97779.0 2153.48  67
   1  -4   3 110124. 2233.73  62
  -1   4  -3 100916. 2135.48  49
   1  -4   4 1194.66 131.458  28
   1  -4   4 995.737 122.586  33
  -1   4  -4 1216.16 213.483   6
   1  -4   4 1186.06 130.129   5
   1  -4   4 1271.03 157.666  10
   1  -4   4 951.908 145.563  14
  -1   4  -4 1328.64 149.189   4
  -1   4  -4 935.082 144.962  89
   1  -4   4 771.264 117.661  86
   1  -4   4 976.144 166.926  81
  -1   4  -4 870.986 150.799  80
   1  -4   4 990.168 116.641  35
  -1   4  -4 1230.06 213.409  37
  -1   4  -4 885.196 153.530  70
  -1   4  -4 880.373 93.0949  69
   1  -4   4 1013.52 148.472  62
  -1   4  -4 853.965 246.747  67
  -1   4  -4 946.431 124.446  49
   1  -4   5 142732. 2781.29  33
  -1   4  -5 136532. 2834.98   4
  -1   4  -5 161491. 3110.33   6
   1  -4   5 123442. 2813.91  10
   1  -4   5 117054. 2734.39  14
   1  -4   5 137942. 2760.25   8
   1  -4   5 135056. 2800.78  86
  -1   4  -5 137333. 2861.47  89
   1  -4   5 139392. 2898.76  81
   1  -4   5 135808. 2784.76  35
  -1   4  -5 130719. 2760.32  34
  -1   4  -5 134142. 2871.78  70
  -1   4  -5 135423. 2870.10  67
  -1   4  -5 124705. 2796.23  49
  -1   4  -6 11831.0 462.403  49
   1  -4   6 10178.0 441.851  81
  -1   4  -6 11647.2 446.242  85
   1  -4   6 10847.4 376.915  33
  -1   4  -6 11289.7 509.655   6
   1  -4   6 10278.7 391.094  10
   1  -4   6 11709.3 396.166   8
  -1   4  -6 11508.6 371.623   4
   1  -4   7 22903.1 741.233  46
  -1   4  -7 24521.4 687.552  34
  -1   4  -7 24119.8 739.385  70
   1  -4   7 21689.3 700.643  65
   1  -4   7 24156.3 756.520  61
  -1   4  -7 23701.6 760.478   6
   1  -4   7 23252.4 669.299  10
   1  -4   7 23163.6 681.595  17
   1  -4   7 24823.4 712.477  15
   1  -4   8 134.696 182.006  46
  -1   4  -8 72.5165 136.422  85
   1  -4   8 31.2383 139.430  81
  -1   4  -8 90.3775 112.824  79
   1  -4   8 136.485 253.508  17
  -1   4  -8 147.306 141.558   6
  -1   4  -8 44.1704 144.715  70
   1  -4   8 219.882 170.544  65
   1  -4   8 191.579 152.175  61
   1  -4   8-4.49114 255.056  25
   1  -4   9 34499.8 1075.74  46
  -1   4  -9 34193.0 1080.71  85
   1  -4   9 36464.7 1065.42  81
   1  -4   9 37653.4 987.115  15
   1  -4   9 34197.7 944.352  10
  -1   4  -9 35629.1 1085.55  70
   1  -4   9 38188.2 1016.03  65
   1  -4   9 35973.6 1064.16  61
   1  -4   9 38230.0 982.473  25
   1  -4  10 6209.68 370.706  25
  -1   4 -10 5657.45 403.727  85
   1  -4  10 6674.93 395.936  81
   1  -4  10 5788.59 307.962  10
   1  -4  10 6229.91 347.330  15
  -1   4 -10 5573.82 394.447  70
   1  -4  10 6566.36 393.051  61
   1  -4  10 5966.32 340.630  65
   1  -4  10 6300.91 418.764  46
   1  -4  11 19911.3 677.604  78
   1  -4  11 22592.3 804.981  81
  -1   4 -11 21207.5 838.396  85
   1  -4  12 487.284 186.438  81
   1  -4  12 497.270 155.798  78
  -1   4 -12 331.004 208.081  85
   1  -4  12 101.667 160.788  22
   1  -4  12 714.195 196.407  71
  -1   4 -12 440.026 202.639  72
   1  -4  13 499.162 194.333  71
  -1   4 -13 247.797 185.982  72
   1  -4  13 374.755 196.083  81
  -1   4 -13 235.874 197.722  85
   1  -4  13 423.696 154.010  78
   1  -4  14 10559.1 533.474  71
  -1   4 -14 8699.24 544.278  72
   1  -4  14 8843.37 425.774  78
   1  -4  14 9905.92 537.582  81
  -1   4 -14 9124.52 557.680  85
   1  -4  15 251.822 173.204  66
   1  -4  15 72.4159 174.452  54
   1  -4  15-34.5670 175.387  71
  -1   4 -15 116.898 166.909  72
  -1   4 -16 8673.64 501.853  85
   1  -4  16 9429.51 476.896  71
  -1   4 -16 8765.80 491.664  72
   1  -4  16 8735.96 433.184  66
   1  -4  16 8568.66 434.288  54
   1  -4  17-155.990 155.031  66
   1  -4  17 94.7386 136.929  71
  -1   4 -17 87.9953 137.906  72
  -1   4 -17 192.705 150.117  85
  -1   4 -18 3027.68 269.099  64
   1  -3 -17 4970.93 282.882  84
  -1   3  17 4283.00 245.473  75
   1  -3 -16 1264.62 213.205  84
  -1   3  16 1151.34 160.767  90
  -1   3  16 1141.65 168.222  56
   1  -3 -15 6012.22 440.019  84
   1  -3 -15 5570.06 402.444  41
  -1   3  15 5605.44 355.299  56
  -1   3  15 5688.84 351.475  90
   1  -3 -14 3523.72 361.040  41
  -1   3  14 3851.82 328.620  56
  -1   3  14 3755.58 322.391  90
  -1   3  13 6319.17 423.825  90
   1  -3 -13 5960.21 472.525  41
   1  -3 -12 9661.62 500.851  68
   1  -3 -12 8502.55 583.793  72
  -1   3  12 8532.93 494.242  90
  -1   3  12 8239.68 496.153  56
  -1   3  11 455.439 143.651  77
   1  -3 -11 486.755 211.107  41
   1  -3 -11 629.784 249.752  68
   1  -3 -11 533.953 248.790  72
  -1   3  11 673.244 202.274  90
  -1   3  11 682.060 217.627  56
  -1   3  11 604.610 231.855  46
   1  -3 -11 416.359 258.610  51
  -1   3  10 27615.8 831.451  77
   1  -3 -10 32448.7 918.482  38
   1  -3 -10 31835.0 979.794  40
   1  -3 -10 29659.1 1103.86  41
   1  -3 -10 27994.4 1118.55  72
   1  -3 -10 34626.6 1013.06  68
  -1   3  10 30500.3 1022.86  90
   1  -3 -10 33286.7 932.026  51
  -1   3  10 31995.5 1003.21  46
  -1   3  10 28492.2 1008.89  56
  -1   3   9 56.6239 150.629  90
  -1   3   9 36.6527 125.227  77
   1  -3  -9 91.0790 167.697  41
   1  -3  -9 273.849 247.745  38
   1  -3  -9 263.247 243.526  40
   1  -3  -9 19.7797 208.075  68
   1  -3  -9 21.7802 173.441  72
   1  -3  -9 208.163 150.000  32
  -1   3   9 63.9212 177.699  46
   1  -3  -9 76.4874 237.403  45
   1  -3  -9 259.797 253.386  51
  -1   3   9 7.72888 151.909  56
  -1   3   8 40045.5 1116.20   3
  -1   3   8 39419.1 1140.04  90
  -1   3   8 37998.7 998.901  77
  -1   3   8 36785.2 1138.84  44
   1  -3  -8 36970.5 1173.30  41
   1  -3  -8 37633.1 1026.40  38
   1  -3  -8 35328.1 1033.99  40
   1  -3  -8 39783.1 1226.86  72
   1  -3  -8 40793.8 1101.02  68
   1  -3  -8 36814.3 960.084  29
  -1   3   8 38701.9 1021.91  30
   1  -3  -8 39182.6 1034.80  32
  -1   3   8 41274.9 1038.70  19
  -1   3   8 41902.8 1109.66  46
   1  -3  -8 39212.6 1093.95  45
   1  -3  -8 37823.8 1051.84  51
  -1   3   8 36543.3 1111.45  56
  -1   3   7 6492.78 357.991   3
  -1   3   7 5733.30 358.634  90
  -1   3   7 6567.31 311.129  77
   1  -3  -7 6404.99 366.167  68
   1  -3  -7 6304.54 401.302  72
  -1   3   7 6227.38 376.500  44
   1  -3  -7 8415.46 397.592  38
   1  -3  -7 6047.30 380.695  41
   1  -3  -7 7293.32 346.660  40
  -1   3   7 6720.46 320.904  19
   1  -3  -7 7304.80 396.278  20
   1  -3  -7 6025.07 295.153  29
   1  -3  -7 7266.78 360.211  32
  -1   3   7 6593.74 317.933  30
  -1   3   7 5746.25 348.082  56
  -1   3   7 6296.05 392.795  53
   1  -3  -7 7385.87 357.559  45
  -1   3   6 16840.1 623.606  53
  -1   3   6 15639.3 576.371  56
   1  -3  -6 17550.8 489.904  48
   1  -3  -6 18821.0 549.793  45
   1  -3  -6 15567.7 599.682  41
  -1   3   6 16365.6 600.593  44
   1  -3  -6 18726.4 659.815  72
   1  -3  -6 15188.9 557.254  68
  -1   3   6 16111.4 520.801  30
   1  -3  -6 17443.1 615.215  20
   1  -3  -6 13455.3 492.417  29
   1  -3  -6 15897.7 557.360  32
  -1   3   6 16976.6 531.314  19
  -1   3   6 16765.2 571.882  10
   1  -3  -6 17076.5 526.597   9
  -1   3   6 15800.0 534.708  16
  -1   3   6 15493.6 595.112   7
  -1   3   5 45754.5 1212.85   7
  -1   3   5 45468.4 1049.91  12
   1  -3  -5 45519.3 1034.87   1
  -1   3   5 45227.7 1127.76  10
  -1   3   5 47243.1 1119.92  16
   1  -3  -5 40370.5 1047.67   6
  -1   3   5 45285.7 1186.81  90
  -1   3   5 45372.5 1091.34  77
   1  -3  -5 46561.8 1209.95  41
  -1   3   5 45837.3 1196.79  44
   1  -3  -5 53180.4 1231.06  20
  -1   3   5 48471.1 1125.90  19
  -1   3   5 46095.0 1115.50  30
  -1   3   5 46247.9 1217.57  53
   1  -3  -5 46280.2 1054.42  48
  -1   3   4 14034.8 507.661   7
  -1   3   4 13905.6 501.641  13
   1  -3  -4 12940.4 402.941   6
  -1   3   4 14151.8 445.390  10
  -1   3   4 13863.7 385.473  12
  -1   3   4 14588.8 440.351  16
  -1   3   4 15152.3 499.206  90
  -1   3   4 15656.7 435.616  77
  -1   3   4 14011.8 524.252  39
   1  -3  -4 14354.4 500.586  41
   1  -3  -4 15028.5 522.913  72
   1  -3  -4 16324.1 518.454  20
  -1   3   4 14506.3 430.989  27
  -1   3   4 13651.2 421.237  26
  -1   3   4 12808.1 378.558  21
  -1   3   4 14664.7 443.081  19
  -1   3   4 15089.9 451.212  30
   1  -3  -4 13809.9 401.445  48
  -1   3   4 13859.9 503.641  53
  -1   3   4 14548.9 486.394  56
  -1   3   3 31398.1 839.198  13
  -1   3   3 32419.5 852.873   7
  -1   3   3 30823.1 726.072  12
   1  -3  -3 29984.0 755.752   6
  -1   3   3 32656.0 780.573  10
  -1   3   3 30270.3 737.456  16
  -1   3   3 31356.3 828.238  90
  -1   3   3 34270.3 759.763  77
   1  -3  -3 29106.3 691.570  36
   1  -3  -3 31648.8 851.191  72
   1  -3  -3 36539.6 855.217  20
  -1   3   3 32943.6 773.341  27
  -1   3   3 34818.9 795.430  30
  -1   3   3 31718.8 817.332  56
  -1   3   3 32321.3 816.925  44
  -1   3   2 204.511 123.340  13
  -1   3   2 251.339 112.856   7
  -1   3   2 274.371 90.4647  16
   1  -3  -2 230.459 92.1101   6
  -1   3   2 275.748 106.278  10
  -1   3   2 220.061 101.903  90
   1  -3  -2 199.663 110.069  84
  -1   3   2 194.905 117.432  39
  -1   3   2 205.964 69.9177  43
   1  -3  -2 148.425 96.4933  41
  -1   3   2 198.864 100.695  44
  -1   3   2 172.640 88.7871  30
  -1   3   2 210.403 82.1361  27
   1  -3  -2 236.787 107.120  20
   1  -3  -2 134.209 93.5156  52
  -1   3   2 238.082 101.972  53
  -1   3   2 196.995 111.798  56
  -1   3   1 39552.6 920.384   7
  -1   3   1 36775.5 896.289  13
   1  -3  -1 35261.4 868.387   6
  -1   3   1 38435.1 878.214  10
  -1   3   1 37182.2 940.971   4
  -1   3   1 41150.1 919.688  90
   1  -3  -1 39390.9 929.368  84
  -1   3   1 34364.7 842.081  34
  -1   3   1 35961.4 832.749  43
  -1   3   1 34868.6 831.964  44
  -1   3   1 37971.9 934.449  39
  -1   3   1 39936.0 922.304  75
  -1   3   1 38573.6 888.165  53
  -1   3   1 39543.0 905.124  56
   1  -3  -1 39932.3 874.781  19
  -1   3   1 37701.3 891.779  24
   1  -3   0 6553.60 233.976  19
  -1   3   0 6208.56 236.209  24
   1  -3   0 6197.65 206.836  18
  -1   3   0 6317.82 255.805  20
   1  -3   0 6530.33 231.044  27
   1  -3   0 6882.68 250.912  32
  -1   3   0 6629.64 244.792   7
  -1   3   0 6211.20 237.608  13
   1  -3   0 6488.22 211.306  12
   1  -3   0 6826.24 248.582   6
  -1   3   0 6642.43 282.734   4
  -1   3   0 6245.48 259.290  90
  -1   3   0 6671.98 200.694  80
  -1   3   0 6091.28 204.315  34
  -1   3   0 6202.53 259.138  39
  -1   3   0 6324.79 200.599  43
   1  -3   0 6059.76 214.836  68
  -1   3   0 6816.67 261.648  75
  -1   3   0 6041.85 190.213  73
  -1   3   0 6068.44 173.080  64
  -1   3   0 5345.73 167.402  46
   1  -3   0 6236.95 228.555  54
   1  -3   0 6707.63 218.424  47
  -1   3   0 6378.21 217.549  53
  -1   3   0 6696.76 256.975  56
  -1   3  -1 1596.58 149.966   4
  -1   3  -1 1705.73 110.795   7
   1  -3   1 1706.95 116.816  12
  -1   3  -1 1559.33 110.629  13
   1  -3   1 1958.49 136.901  10
   1  -3   1 1835.06 132.409   6
  -1   3  -1 1600.94 83.7271  53
   1  -3   1 1797.05 137.505  54
   1  -3   1 2005.36 147.209  82
  -1   3  -1 1725.33 108.355  80
  -1   3  -1 1597.85 126.771  39
  -1   3  -1 1483.98 86.8616  34
  -1   3  -1 1767.57 137.568  75
   1  -3   1 1769.95 106.637  68
  -1   3  -1 1600.23 138.078  56
  -1   3  -1 1819.41 128.598  67
  -1   3  -1 1704.32 103.540  64
   1  -3   1 1767.35 117.141  31
  -1   3  -1 1530.15 113.596  24
   1  -3   1 1536.25 123.591  29
  -1   3  -1 1429.62 128.242  20
   1  -3   1 1736.68 135.543  32
  -1   3  -2 3514.50 196.153   4
  -1   3  -2 3079.28 117.864  13
  -1   3  -2 3404.73 172.893  11
   1  -3   2 3482.07 179.416  10
   1  -3   2 3636.75 153.860  86
  -1   3  -2 3773.39 130.140  83
   1  -3   2 4329.24 200.228  82
  -1   3  -2 3903.56 142.118  80
  -1   3  -2 3517.99 145.004  39
  -1   3  -2 3644.34 181.984  75
  -1   3  -2 3625.37 140.312  58
   1  -3   2 3696.35 193.197  62
  -1   3  -2 3782.55 196.504  67
  -1   3  -2 3025.28 125.125  24
   1  -3   2 3352.63 156.158  29
  -1   3  -2 2977.34 155.799  20
  -1   3  -3 112537. 2274.28  20
   1  -3   3 106955. 2284.59  21
   1  -3   3 113205. 2321.55  23
   1  -3   3 115688. 2279.73  28
  -1   3  -3 124422. 2361.67   4
  -1   3  -3 117862. 2380.66   6
  -1   3  -3 117425. 2289.94  11
   1  -3   3 113304. 2274.14   5
   1  -3   3 123284. 2286.10  86
  -1   3  -3 123762. 2337.97  89
  -1   3  -3 117214. 2223.97  34
  -1   3  -3 89758.8 2204.89  39
  -1   3  -3 114988. 2286.85  69
   1  -3   3 126576. 2363.30  62
  -1   3  -3 117573. 2317.48  67
  -1   3  -3 98799.3 2222.71  49
   1  -3   3 114633. 2310.18  46
  -1   3  -4 87152.9 1821.32  20
   1  -3   4 95951.2 1845.27  28
   1  -3   4 93958.6 1846.88  33
  -1   3  -4 84423.9 1772.91  24
   1  -3   4 86512.6 1883.85  21
  -1   3  -4 101026. 1983.17   6
   1  -3   4 85222.6 1848.82  16
  -1   3  -4 97575.7 1900.92   4
   1  -3   4 100827. 1861.23   5
   1  -3   4 86049.0 1823.19  14
  -1   3  -4 100660. 1921.72  89
   1  -3   4 100812. 1864.39  86
   1  -3   4 98574.6 1938.93  81
  -1   3  -4 97294.5 1830.84  34
   1  -3   4 96873.2 1858.59  35
  -1   3  -4 95251.9 1923.46  70
   1  -3   4 100462. 1940.54  62
  -1   3  -4 92325.0 1922.75  67
   1  -3   4 86820.5 1904.23  46
   1  -3   5 39480.6 815.305  16
  -1   3  -5 43597.7 934.013   6
   1  -3   5 41687.8 797.031   5
   1  -3   5 40802.6 790.182   8
   1  -3   5 35094.3 726.307  14
   1  -3   5 39264.6 796.103  86
  -1   3  -5 39952.1 853.839  89
  -1   3  -5 41235.2 880.205  85
   1  -3   5 40036.8 876.108  81
  -1   3  -5 41615.0 801.553  34
   1  -3   5 38706.0 775.375  35
  -1   3  -5 38996.8 740.427  76
  -1   3  -5 40196.6 870.867  70
   1  -3   5 42706.8 783.542  33
  -1   3  -5 36039.9 711.427  24
  -1   3  -6 46569.0 1062.64  87
  -1   3  -6 48691.0 1156.73  85
  -1   3  -6 48624.6 1154.27   6
   1  -3   6 45821.0 1085.60  16
   1  -3   6 50030.8 1063.06   8
  -1   3  -6 48510.9 1139.28  70
   1  -3   6 47911.0 1151.74  46
   1  -3   6 48252.2 1044.01  33
  -1   3  -7 1710.10 150.177  87
  -1   3  -7 842.694 108.605  79
  -1   3  -7 1484.15 199.823  85
   1  -3   7 1269.93 138.782   3
  -1   3  -7 1268.87 183.210   6
   1  -3   7 1442.93 252.739  15
   1  -3   7 1624.05 319.983  17
   1  -3   7 1658.72 219.410  65
   1  -3   7 1314.88 195.667  61
   1  -3   7 1499.82 214.480  46
   1  -3   8 66589.2 1565.36  46
   1  -3   8 68239.2 1549.07  81
   1  -3   8 50851.8 1361.78   9
   1  -3   8 61688.0 1433.69  17
   1  -3   8 60729.8 1456.60  15
  -1   3  -8 68094.3 1584.91  70
   1  -3   8 70167.1 1552.64  61
   1  -3   8 59377.3 1457.26  65
   1  -3   8 61389.6 1479.67  25
   1  -3   9 7441.08 377.243  25
  -1   3  -9 6785.63 405.935  85
   1  -3   9 6980.18 376.475  81
   1  -3   9 7405.81 357.566  15
   1  -3   9 6379.74 356.497  17
  -1   3  -9 7114.83 408.992  70
   1  -3   9 7105.05 336.214  65
   1  -3   9 7776.93 387.443  61
   1  -3   9 7091.05 409.544  46
   1  -3  10 90783.5 2154.12  78
   1  -3  10 97848.6 2284.20  81
  -1   3 -10 93302.1 2346.28  85
   1  -3  10 96353.7 2267.37  71
  -1   3 -10 88825.2 2336.89  72
   1  -3  10 102520. 2188.18  25
   1  -3  10 97090.8 2335.75  46
   1  -3  11 12814.4 562.355  71
  -1   3 -11 11654.9 596.879  72
  -1   3 -11 12655.1 613.046  85
   1  -3  11 13697.8 635.964  46
   1  -3  11 12600.2 496.113  78
   1  -3  11 13450.6 579.070  81
   1  -3  12 16940.2 619.164  78
   1  -3  12 18230.5 725.572  81
  -1   3 -12 17407.3 763.102  85
   1  -3  12 18224.1 706.706  71
  -1   3 -12 16805.6 755.044  72
   1  -3  12 17592.5 605.136  22
   1  -3  12 19562.0 796.201  46
   1  -3  13 2293.63 290.400  81
   1  -3  13 2657.03 245.156  78
  -1   3 -13 2566.29 328.086  85
  -1   3 -13 2292.35 305.878  72
   1  -3  13 2977.55 307.283  71
   1  -3  13 2747.24 351.440  46
   1  -3  13 2370.42 252.103  22
   1  -3  14 7711.10 400.411  78
   1  -3  14 8115.98 473.390  71
  -1   3 -14 7234.33 499.621  72
  -1   3 -14 7515.25 509.865  85
   1  -3  14 8706.71 426.242  22
   1  -3  15 5385.79 366.773  66
   1  -3  15 4962.13 371.469  71
  -1   3 -16 2448.48 294.636  85
   1  -3  16 2162.21 247.271  66
   1  -3  16 2416.19 256.192  54
  -1   3 -16 2185.39 268.565  72
   1  -3  16 2962.23 282.783  71
   1  -3  17 7413.78 375.977  66
  -1   3 -17 7269.13 416.787  85
  -1   3 -17 6862.72 397.128  72
   1  -3  17 7794.07 390.715  71
  -1   3 -18 1765.02 222.505  64
   1  -3  18 1596.64 178.717  56
   1  -2 -17 444.757 148.889  84
  -1   2  17 435.041 117.405  56
  -1   2  17 403.171 109.228  90
   1  -2 -16 9251.66 512.674  84
  -1   2  16 9276.09 426.498  90
  -1   2  16 9323.55 437.796  56
   1  -2 -15 139.256 203.414  84
  -1   2  15 309.409 159.221  90
  -1   2  15 125.771 149.332  56
   1  -2 -15 183.905 196.062  72
  -1   2  14 15870.8 670.688  56
   1  -2 -14 15070.6 732.600  41
   1  -2 -14 14564.0 776.548  72
   1  -2 -13 472.788 219.124  41
   1  -2 -13 612.519 234.782  72
   1  -2 -13 615.009 238.477  68
  -1   2  13 589.072 197.911  90
  -1   2  13 410.610 190.210  56
   1  -2 -12 13474.8 705.466  41
   1  -2 -12 14843.3 609.704  68
   1  -2 -12 14156.3 745.833  72
  -1   2  12 14025.6 634.798  90
  -1   2  12 13834.6 642.823  46
  -1   2  12 13756.5 621.777  56
  -1   2  11 17405.4 598.524  77
   1  -2 -11 20547.2 875.299  41
   1  -2 -11 22971.9 740.669  38
   1  -2 -11 24135.4 793.783  68
   1  -2 -11 19787.4 907.037  72
  -1   2  11 20662.7 803.076  90
   1  -2 -11 20858.4 934.500  85
  -1   2  11 20024.1 788.612  56
  -1   2  11 21570.7 815.698  46
   1  -2 -11 22115.0 741.591  51
  -1   2  10 12645.9 578.941  90
   1  -2 -10 10862.9 647.851  85
  -1   2  10 11051.3 430.073  77
   1  -2 -10 12995.3 535.627  38
   1  -2 -10 10914.6 607.509  41
   1  -2 -10 12828.1 564.713  40
  -1   2  10 12139.9 576.063  71
   1  -2 -10 10987.3 623.214  72
   1  -2 -10 12907.1 560.816  68
   1  -2 -10 13659.7 603.689  20
  -1   2  10 12473.3 573.144  46
   1  -2 -10 12507.9 532.881  51
  -1   2   9 18319.8 694.093  90
   1  -2  -9 18145.4 777.369  85
  -1   2   9 17030.7 560.043  77
   1  -2  -9 17548.9 651.252  40
   1  -2  -9 18740.0 640.853  38
   1  -2  -9 17068.4 738.074  41
  -1   2   9 18820.1 699.286  71
   1  -2  -9 15978.3 735.507  72
   1  -2  -9 18959.1 670.394  68
   1  -2  -9 16890.7 682.175  45
   1  -2  -9 18756.4 651.878  51
  -1   2   9 19676.1 694.518  46
   1  -2  -9 20470.9 729.541  20
   1  -2  -9 18324.4 622.969  32
  -1   2   8 1223.77 149.312  19
   1  -2  -8 991.904 201.233  20
  -1   2   8 1248.24 201.776   3
  -1   2   8 998.810 180.185  90
   1  -2  -8 702.520 201.318  85
   1  -2  -8 856.690 209.814  79
  -1   2   8 942.474 154.658  77
   1  -2  -8 1032.53 271.023  38
   1  -2  -8 1115.29 247.015  40
   1  -2  -8 1057.77 214.308  41
  -1   2   8 1006.89 183.136  71
   1  -2  -8 943.492 194.692  72
  -1   2   8 837.850 177.491  66
   1  -2  -8 1251.36 286.702  51
   1  -2  -8 1218.36 243.763  45
  -1   2   8 1185.93 216.319  46
  -1   2   7 27367.9 717.766  19
   1  -2  -7 25732.0 805.117  20
  -1   2   7 24924.0 771.810   3
   1  -2  -7 24753.5 711.136   9
   1  -2  -7 24415.1 848.578  85
  -1   2   7 23643.3 773.538  90
   1  -2  -7 23006.7 727.182  79
  -1   2   7 24648.9 691.986  77
   1  -2  -7 23427.3 805.937  41
   1  -2  -7 28195.3 730.704  40
  -1   2   7 22996.8 791.352  44
   1  -2  -7 25384.4 844.466  72
  -1   2   7 23595.5 768.294  71
  -1   2   7 23956.9 800.278  66
   1  -2  -7 28022.7 757.969  45
  -1   2   7 25573.9 768.701  46
  -1   2   6 16309.4 490.439  19
   1  -2  -6 15719.0 568.395  20
  -1   2   6 15591.0 545.604   3
  -1   2   6 14684.5 523.480  16
   1  -2  -6 16152.5 492.603   9
  -1   2   6 15620.7 553.313  90
   1  -2  -6 17214.3 620.326  85
  -1   2   6 16298.9 486.503  77
   1  -2  -6 15088.2 570.692  41
  -1   2   6 15182.3 570.489  44
  -1   2   6 16054.5 573.982  66
   1  -2  -6 17119.3 518.216  45
   1  -2  -6 16323.4 469.831  48
  -1   2   5 156124. 3262.77   3
   1  -2  -5 147828. 3092.06   1
  -1   2   5 152813. 3222.40  16
  -1   2   5 156971. 3190.95  10
   1  -2  -5 161226. 3343.80  85
  -1   2   5 148379. 3269.04  90
   1  -2  -5 138469. 3206.14  79
  -1   2   5 160902. 3183.20  77
   1  -2  -5 153944. 3297.33  41
  -1   2   5 146445. 3297.56  44
  -1   2   5 150873. 3268.30  71
   1  -2  -5 163655. 3332.38  72
   1  -2  -5 155936. 3145.16  48
  -1   2   5 145509. 3309.16  53
  -1   2   5 155390. 3184.57  30
   1  -2  -5 149597. 3286.18  20
  -1   2   5 160154. 3194.14  19
   1  -2  -5 151927. 3283.34  24
  -1   2   4 21169.7 545.973  30
   1  -2  -4 22772.4 638.386  20
   1  -2  -4 21985.5 624.752  24
  -1   2   4 22470.5 553.759  19
   1  -2  -4 21863.1 619.136   4
  -1   2   4 23526.6 614.222   3
  -1   2   4 22090.6 544.037  10
  -1   2   4 20300.3 563.518  16
  -1   2   4 21260.3 610.598  90
   1  -2  -4 22966.7 651.044  85
  -1   2   4 22716.9 543.322  77
   1  -2  -4 21318.4 586.106  79
   1  -2  -4 21978.1 623.930  41
  -1   2   4 20779.6 622.486  44
   1  -2  -4 21166.5 634.116  72
  -1   2   4 21420.0 614.739  71
  -1   2   4 20255.5 498.947  74
  -1   2   4 19964.5 475.763  57
  -1   2   4 20087.8 589.699  56
   1  -2  -4 23649.9 555.146  52
  -1   2   3 2409.26 181.139   7
  -1   2   3 2614.14 165.203   3
  -1   2   3 2341.07 97.1079  12
  -1   2   3 2556.46 142.557  10
  -1   2   3 2134.77 149.864  16
   1  -2  -3 2428.46 170.491   4
  -1   2   3 1945.45 158.022  90
   1  -2  -3 2003.04 172.366  85
   1  -2  -3 2207.45 177.243  79
  -1   2   3 2268.41 127.216  77
  -1   2   3 1828.68 160.827  44
   1  -2  -3 2037.04 88.0959  36
   1  -2  -3 2339.24 161.380  41
   1  -2  -3 2137.89 167.169  72
   1  -2  -3 1315.56 121.783  22
   1  -2  -3 2548.33 175.776  20
  -1   2   3 2392.08 125.801  27
   1  -2  -3 2715.78 191.402  24
  -1   2   3 2411.51 178.599  53
   1  -2  -3 2424.66 131.374  52
  -1   2   3 2302.79 161.623  56
  -1   2   2 164795. 3581.30   7
  -1   2   2 175657. 3517.62  10
   1  -2  -2 177767. 3595.82   4
  -1   2   2 167519. 3525.22   3
  -1   2   2 167132. 3477.27  88
  -1   2   2 179299. 3568.43  90
   1  -2  -2 175593. 3522.91  79
   1  -2  -2 173340. 3567.74  41
  -1   2   2 166591. 3541.01  43
   1  -2  -2 169378. 3506.11  36
   1  -2  -2 174574. 3580.71  72
  -1   2   2 177065. 3504.65  27
   1  -2  -2 181956. 3581.84  20
   1  -2  -2 167277. 3507.47  19
   1  -2  -2 184970. 3561.38  24
  -1   2   2 170302. 3482.05  31
  -1   2   2 171432. 3476.76  46
  -1   2   2 168534. 3569.51  53
  -1   2   2 176031. 3549.39  56
  -1   2   1 59528.2 1204.77  90
   1  -2  -1 55048.8 1152.67  79
  -1   2   1 56152.6 1099.70  80
   1  -2  -1 56393.3 1206.94  84
   1  -2  -1 52176.5 1185.62  41
  -1   2   1 51566.7 1172.92  43
  -1   2   1 56075.2 1180.10  56
   1  -2  -1 54722.3 1142.91  47
  -1   2   1 50868.6 1173.56  53
   1  -2  -1 46842.3 1144.60  19
   1  -2  -1 51904.4 1153.24  30
  -1   2   1 54074.8 1096.69  23
   1  -2  -1 52303.0 1120.23  18
   1  -2  -1 56304.1 1195.44  20
   1  -2   0 41826.4 965.166  27
   1  -2   0 41861.0 971.115  30
   1  -2   0 46945.6 986.476  20
   1  -2   0 43411.9 954.858  31
   1  -2   0 46916.5 977.466  10
   1  -2   0 47368.5 1026.23   4
  -1   2   0 46126.9 996.023  90
   1  -2   0 46654.4 1008.65  84
  -1   2   0 46731.2 968.390  83
   1  -2   0 42372.9 950.030  79
  -1   2   0 42866.8 985.437  43
  -1   2   0 47098.4 998.050  75
  -1   2   0 43309.9 961.843  64
   1  -2   0 44959.0 965.002  54
  -1   2   0 44588.2 980.529  56
  -1   2  -1 170368. 3498.17  11
   1  -2   1 178171. 3491.58   4
   1  -2   1 163148. 3400.57  46
  -1   2  -1 169278. 3438.87  83
   1  -2   1 181984. 3478.20  82
  -1   2  -1 175355. 3477.04  43
  -1   2  -1 174707. 3459.52  75
  -1   2  -1 173617. 3455.80  73
  -1   2  -1 177538. 3463.71  64
   1  -2   1 167866. 3428.76  23
   1  -2   1 160166. 3393.57  26
   1  -2   1 177677. 3458.30  31
   1  -2   2 158354. 3083.18  46
  -1   2  -2 170256. 3102.42  83
   1  -2   2 173460. 3132.95   6
  -1   2  -2 159597. 3116.79  11
  -1   2  -2 159790. 3114.89  69
  -1   2  -2 166234. 3106.66  75
   1  -2   2 159706. 3121.72  62
  -1   2  -2 167268. 3101.30  58
   1  -2   2 154104. 3095.59  23
   1  -2   2 162956. 3070.64  26
   1  -2   2 171531. 3083.01  32
   1  -2   3 57089.7 1286.33  29
   1  -2   3 66141.5 1333.84  26
   1  -2   3 57666.0 1272.86  32
  -1   2  -3 67884.7 1344.49  89
   1  -2   3 56977.4 1294.11  86
   1  -2   3 65987.5 1353.87  81
   1  -2   3 60228.6 1266.50   3
   1  -2   3 62396.7 1321.65   5
  -1   2  -3 65955.5 1353.36  70
   1  -2   3 63749.7 1350.99  62
  -1   2  -3 65026.9 1341.88  59
   1  -2   3 66387.5 1296.88  44
   1  -2   4 4314.15 164.924  33
   1  -2   4 4744.60 220.411  26
   1  -2   4 4894.23 193.396   5
   1  -2   4 4089.90 153.792  14
   1  -2   4 4273.25 166.296  86
  -1   2  -4 4841.79 214.067  87
  -1   2  -4 5233.37 210.263  89
  -1   2  -4 4777.87 213.676  85
   1  -2   4 4965.66 217.626  81
  -1   2  -4 4749.92 176.773  76
  -1   2  -4 4669.72 213.643  70
  -1   2  -4 4728.60 184.000  59
   1  -2   4 4815.72 182.354  44
   1  -2   5 496.850 68.1275  11
   1  -2   5 554.175 92.4532   3
   1  -2   5 636.732 119.330   5
   1  -2   5 448.549 149.115   8
  -1   2  -5 443.045 108.223  87
  -1   2  -5 394.219 114.012  85
   1  -2   5 345.845 109.677  81
   1  -2   5 449.850 100.456  44
   1  -2   5 430.900 79.3558  35
  -1   2  -5 453.190 119.135  70
   1  -2   5 552.824 131.292  61
  -1   2  -5 516.272 84.6567  59
   1  -2   5 534.330 93.0885  33
   1  -2   6 52761.5 1243.12  33
   1  -2   6 58327.6 1331.53  15
   1  -2   6 61534.8 1298.40   8
   1  -2   6 59520.9 1330.90  16
   1  -2   6 51552.3 1220.65  11
   1  -2   6 59493.3 1285.92   3
  -1   2  -6 62184.7 1314.66  87
  -1   2  -6 64193.0 1403.80  85
   1  -2   6 56922.9 1346.66  81
  -1   2  -6 56357.4 1371.56  41
  -1   2  -6 62136.1 1389.68  70
   1  -2   6 56204.3 1348.63  61
  -1   2  -6 56745.1 1268.10  60
   1  -2   6 57847.8 1317.70  44
  -1   2  -7 1111.54 136.990  87
  -1   2  -7 998.869 180.181  85
   1  -2   7 1131.21 164.791  81
  -1   2  -7 897.781 160.829  41
   1  -2   7 1073.31 148.845  44
   1  -2   7 1210.96 206.555  46
  -1   2  -7 886.627 168.567  57
   1  -2   7 1090.88 183.067  65
   1  -2   7 1190.02 143.350   3
   1  -2   7 816.859 162.128   9
   1  -2   7 1227.41 317.381  17
   1  -2   7 860.317 228.999  15
   1  -2   8 43577.2 1157.04  46
   1  -2   8 40272.4 1078.94  44
  -1   2  -8 38299.0 1125.32  41
   1  -2   8 43016.1 1091.86  25
   1  -2   8 46236.4 1072.88  17
   1  -2   8 41572.8 1034.88   3
   1  -2   8 40281.5 1004.94   9
   1  -2   8 42284.8 1055.75  15
   1  -2   9 12200.1 456.763  25
   1  -2   9 10501.9 408.838   3
  -1   2  -9 10782.3 506.245  85
   1  -2   9 9888.76 444.790  81
  -1   2  -9 9937.36 481.299  41
   1  -2   9 10114.3 441.342  44
  -1   2  -9 10381.9 492.184  72
   1  -2   9 10583.5 452.589  71
   1  -2   9 10414.0 383.484  65
   1  -2   9 11305.9 514.540  46
  -1   2 -10 6099.00 399.922  85
   1  -2  10 5984.24 307.041  78
   1  -2  10 5405.72 340.461  81
   1  -2  10 5297.89 267.949   9
   1  -2  10 5749.24 345.477  71
  -1   2 -10 5744.76 384.972  72
   1  -2  10 6097.65 344.493  25
   1  -2  10 5545.95 393.575  46
   1  -2  11 24244.0 820.712  71
  -1   2 -11 23077.3 882.641  72
  -1   2 -11 23817.9 889.325  85
   1  -2  11 25985.6 913.801  46
   1  -2  11 24512.9 834.038  81
   1  -2  11 23103.1 735.446  78
   1  -2  12 3926.87 276.048  78
  -1   2 -12 3654.50 356.626  85
   1  -2  12 4338.47 339.769  71
  -1   2 -12 3853.89 363.952  72
   1  -2  12 3777.60 277.999  22
   1  -2  12 4387.71 403.470  46
   1  -2  13 25109.4 815.044  78
  -1   2 -13 25171.4 989.029  85
   1  -2  13 25931.4 906.314  71
  -1   2 -13 25034.9 976.619  72
   1  -2  13 25600.3 801.410  22
   1  -2  14 853.218 172.545  78
  -1   2 -14 720.533 227.036  85
   1  -2  14 727.443 206.944  71
  -1   2 -14 818.486 232.254  72
   1  -2  14 818.367 280.990  46
   1  -2  14 2271.89 305.476  66
   1  -2  14 1912.12 274.980  22
   1  -2  15 17786.9 698.375  66
   1  -2  15 18720.5 726.997  71
  -1   2 -15 16720.7 748.254  72
   1  -2  16 3391.19 294.284  66
  -1   2 -16 3329.45 327.123  85
  -1   2 -16 3464.55 315.377  72
   1  -2  16 3193.99 292.623  71
   1  -2  17 6328.99 356.422  66
   1  -2  17 7191.09 379.559  56
  -1   2 -18 4327.61 291.254  64
  -1   2 -18 4207.62 272.266  83
   1  -1 -18 1665.08 171.893  84
   1  -1 -17 2547.60 262.725  84
  -1   1  17 2236.87 201.776  90
  -1   1  17 2337.85 209.875  56
  -1   1  16 4123.24 306.729  90
  -1   1  16 4254.31 306.346  56
   1  -1 -16 4328.57 375.367  72
  -1   1  15 7922.67 458.554  90
  -1   1  15 7782.14 448.113  56
   1  -1 -15 8473.43 552.102  72
  -1   1  14 710.568 206.834  90
   1  -1 -14 612.471 220.220  41
   1  -1 -13 2713.38 305.763  68
   1  -1 -13 2318.78 350.723  72
  -1   1  13 2346.35 298.733  71
  -1   1  13 2497.20 305.970  90
   1  -1 -13 2358.92 368.335  85
  -1   1  13 2088.83 276.803  56
  -1   1  12 1651.03 163.996  77
   1  -1 -12 2029.30 298.072  41
   1  -1 -12 2438.07 300.208  68
   1  -1 -12 2197.10 329.571  72
  -1   1  12 2493.24 312.785  71
  -1   1  12 2290.14 278.368  90
   1  -1 -12 2417.07 365.191  85
   1  -1 -12 2515.05 329.433  51
  -1   1  12 2341.64 324.886  46
   1  -1 -12 1780.50 210.988  50
  -1   1  11 17929.5 720.230  90
   1  -1 -11 17942.4 839.912  85
   1  -1 -11 19395.1 670.887  38
   1  -1 -11 17556.6 777.883  41
   1  -1 -11 18996.9 685.803  68
   1  -1 -11 16234.1 791.139  72
  -1   1  11 17501.3 716.615  71
  -1   1  11 18814.0 749.269  46
   1  -1 -11 19249.5 674.027  51
   1  -1 -11 18445.4 724.432  20
   1  -1 -10 3821.15 381.867  85
  -1   1  10 3932.87 314.207  90
   1  -1 -10 4225.25 331.080  79
  -1   1  10 3492.92 228.416  77
   1  -1 -10 4838.55 359.962  38
   1  -1 -10 3901.93 355.158  41
   1  -1 -10 4400.27 353.761  40
   1  -1 -10 3715.76 353.344  72
  -1   1  10 4390.23 336.528  71
  -1   1  10 4182.56 329.598  66
   1  -1 -10 4988.59 372.486  51
  -1   1  10 4514.17 352.476  46
   1  -1  -9 49853.8 1344.67  20
  -1   1   9 48877.2 1328.07   3
  -1   1   9 47459.8 1290.86  11
   1  -1  -9 46168.9 1419.08  85
   1  -1  -9 50314.2 1264.09  79
  -1   1   9 46085.9 1161.57  77
   1  -1  -9 51123.2 1246.02  38
   1  -1  -9 45855.9 1371.20  41
   1  -1  -9 45626.8 1240.23  40
  -1   1   9 48117.9 1310.93  71
   1  -1  -9 44899.9 1402.83  72
  -1   1   9 50137.6 1355.45  66
  -1   1   9 50730.3 1338.44  46
   1  -1  -9 47486.5 1304.48  45
   1  -1  -9 50229.2 1256.80  51
   1  -1  -8 12283.3 522.226  20
   1  -1  -8 13691.2 557.706  24
  -1   1   8 12962.1 511.264   3
   1  -1  -8 8834.77 414.123   9
   1  -1  -8 11357.7 545.159  85
   1  -1  -8 12539.8 491.835  79
  -1   1   8 11645.6 413.617  77
  -1   1   8 12024.2 485.946  71
   1  -1  -8 11146.5 543.040  72
   1  -1  -8 12795.4 516.425  51
  -1   1   8 12521.0 511.833  46
   1  -1  -8 11326.4 490.236  45
  -1   1   8 12673.6 544.364  66
   1  -1  -8 11628.6 530.234  41
   1  -1  -8 10863.2 470.202  40
   1  -1  -8 12995.3 505.435  38
   1  -1  -7 22605.2 726.723   4
   1  -1  -7 25464.5 714.536   9
  -1   1   7 26679.6 802.295   3
   1  -1  -7 29459.4 772.906  45
  -1   1   7 28507.0 815.092  46
   1  -1  -7 27576.7 836.175  34
   1  -1  -7 26244.5 834.356  41
   1  -1  -7 30740.6 753.398  40
   1  -1  -7 23990.2 846.406  72
  -1   1   7 27397.2 796.471  71
  -1   1   7 29000.5 896.786  66
  -1   1   7 26861.7 710.838  19
   1  -1  -7 26416.3 822.828  20
   1  -1  -7 28039.2 851.357  24
  -1   1   6 60291.0 1431.19   3
  -1   1   6 58213.9 1293.19  10
   1  -1  -6 67045.3 1375.52  15
   1  -1  -6 58387.8 1329.12   9
   1  -1  -6 53355.3 1374.54   4
   1  -1  -6 64183.6 1504.99  85
  -1   1   6 57706.9 1332.12  77
   1  -1  -6 57013.6 1392.13  79
   1  -1  -6 57188.6 1456.69  41
   1  -1  -6 55762.7 1429.53  34
   1  -1  -6 63753.4 1368.84  45
   1  -1  -6 59863.5 1307.87  48
   1  -1  -6 60391.0 1466.27  24
  -1   1   6 58442.8 1316.75  23
   1  -1  -6 55389.4 1435.19  20
  -1   1   6 61961.9 1329.22  19
   1  -1  -5 1259.65 198.475  24
  -1   1   5 1316.70 109.269  19
  -1   1   5 1368.70 111.785  23
  -1   1   5 1596.76 181.121   3
  -1   1   5 1308.48 105.736  10
   1  -1  -5 1057.06 138.693   4
   1  -1  -5 1244.47 177.147  13
   1  -1  -5 1062.76 162.808  85
  -1   1   5 1104.46 126.810  77
   1  -1  -5 1149.83 235.087  34
  -1   1   5 1104.73 154.303  71
   1  -1  -5 984.222 164.243  72
  -1   1   5 923.497 148.703  66
  -1   1   5 1122.18 172.839  46
   1  -1  -4 236811. 4935.76  24
  -1   1   4 243969. 4816.19  19
  -1   1   4 256476. 4818.55  30
  -1   1   4 243368. 4806.88  23
   1  -1  -4 256242. 4960.00   7
   1  -1  -4 238194. 4923.20   4
   1  -1  -4 243483. 4941.72  13
  -1   1   4 242053. 4909.73   3
  -1   1   4 246769. 4805.63  10
   1  -1  -4 265806. 4962.28  85
  -1   1   4 245292. 4817.95  77
   1  -1  -4 226987. 4893.53  34
   1  -1  -4 249941. 4928.40  41
   1  -1  -4 232238. 4864.65  37
  -1   1   4 247998. 4906.19  71
   1  -1  -4 270647. 4963.82  72
  -1   1   4 240092. 4852.95  74
   1  -1  -4 227051. 4827.69  67
   1  -1  -4 244840. 4812.05  48
  -1   1   4 254850. 4889.22  46
  -1   1   3 827.866 58.7119  23
   1  -1  -3 549.667 87.4319  22
  -1   1   3 851.181 71.1204  30
  -1   1   3 695.021 56.8308  27
   1  -1  -3 802.188 143.389  24
   1  -1  -3 892.770 118.519   7
   1  -1  -3 820.107 132.806  13
   1  -1  -3 761.198 110.124   4
  -1   1   3 926.109 82.5054  10
  -1   1   3 870.641 119.806   3
  -1   1   3 656.613 61.9862  88
  -1   1   3 734.299 69.7486  77
   1  -1  -3 618.159 111.840  85
   1  -1  -3 799.673 105.910  41
   1  -1  -3 845.477 155.526  37
   1  -1  -3 774.766 64.2815  36
  -1   1   3 604.929 90.4584  74
  -1   1   3 649.349 110.909  71
   1  -1  -3 745.414 113.282  72
   1  -1  -3 686.236 122.774  67
  -1   1   3 686.244 72.4064  57
  -1   1   3 701.024 114.074  46
  -1   1   3 554.001 50.0653  54
   1  -1  -3 624.705 71.3306  52
  -1   1   3 755.165 87.9104  55
   1  -1  -2 224299. 4520.26  19
   1  -1  -2 223596. 4523.92  26
   1  -1  -2 222976. 4506.67  21
   1  -1  -2 211533. 4590.39  13
   1  -1  -2 223153. 4498.68   2
  -1   1   2 234153. 4648.41  11
  -1   1   2 223704. 4574.39   3
   1  -1  -2 214773. 4528.93  16
   1  -1  -2 232857. 4609.51   7
  -1   1   2 229137. 4536.07  88
   1  -1  -2 229938. 4591.13  85
   1  -1  -2 224231. 4550.34  36
   1  -1  -2 229283. 4572.87  41
  -1   1   2 221454. 4572.80  74
  -1   1   2 223111. 4571.33  71
   1  -1  -2 240303. 4589.03  72
  -1   1   2 224689. 4553.36  57
  -1   1   2 235121. 4583.70  55
  -1   1   2 233247. 4556.22  56
   1  -1  -1 2633.98 110.617  30
   1  -1  -1 2620.83 101.889  27
   1  -1  -1 2628.40 90.0859  31
   1  -1  -1 2748.29 148.124  13
   1  -1  -1 2606.03 149.412   7
  -1   1   1 3021.64 176.969  11
   1  -1  -1 3072.11 125.271  10
   1  -1  -1 3120.27 133.041   3
  -1   1   1 3611.34 151.742  88
  -1   1   1 3814.76 145.683  90
  -1   1   1 3866.90 174.066  83
   1  -1  -1 3154.45 125.004  41
   1  -1  -1 2889.21 146.638  36
  -1   1   1 3263.02 165.112  43
   1  -1  -1 3301.46 142.452  72
  -1   1   1 3450.89 165.848  74
  -1   1   1 3441.17 157.514  57
  -1   1   1 3685.80 164.718  64
  -1   1   1 3416.73 168.193  55
   1  -1  -1 3258.00 99.3493  54
  -1   1   1 3303.01 128.075  56
  -1   1   0 34689.8 812.619  11
   1  -1   0 33003.8 732.150   3
  -1   1   0 34776.5 750.391  90
  -1   1   0 37652.0 827.297  91
  -1   1   0 35585.0 786.150  83
   1  -1   0 35046.3 755.612  84
   1  -1   0 33999.7 808.448  36
  -1   1   0 35213.5 804.948  43
   1  -1   0 32406.3 728.725  41
  -1   1   0 36392.2 747.092  75
  -1   1   0 36632.2 817.339  59
  -1   1   0 36249.1 790.105  64
  -1   1   0 32491.4 729.638  56
  -1   1   0 35738.6 816.164  55
  -1   1  -1 6361.11 238.407  91
  -1   1  -1 6573.87 233.380  83
   1  -1   1 6293.17 183.580  82
   1  -1   1 6831.22 168.610  41
  -1   1  -1 7147.26 243.380  43
  -1   1  -1 6269.66 179.772  75
  -1   1  -1 6460.36 231.416  73
  -1   1  -1 6140.01 229.893  69
  -1   1  -1 7012.85 247.343  64
  -1   1  -1 6244.85 219.863  58
  -1   1  -1 6539.79 235.607  59
   1  -1   1 7291.73 245.935  11
  -1   1  -2 90608.9 1843.26  91
  -1   1  -2 92823.5 1796.49  89
   1  -1   2 86315.5 1797.56  81
   1  -1   2 84446.9 1771.62  34
  -1   1  -2 93602.3 1850.83  73
  -1   1  -2 89299.6 1798.82  70
   1  -1   2 85096.1 1801.26  62
  -1   1  -2 88147.2 1850.90  59
  -1   1  -2 91485.4 1837.95  58
   1  -1   2 80661.1 1810.28   4
   1  -1   2 84834.5 1850.26  11
   1  -1   2 82857.1 1823.23   6
   1  -1   3 93208.7 1957.04  13
   1  -1   3 99653.6 2055.45  11
   1  -1   3 106860. 2035.87   6
   1  -1   3 98003.8 2016.95   5
   1  -1   3 97175.9 1993.19   4
   1  -1   3 84858.6 1967.11  86
  -1   1  -3 109731. 2043.15  91
  -1   1  -3 111580. 2025.80  89
  -1   1  -3 108172. 2078.30  87
  -1   1  -3 110405. 2044.45  85
   1  -1   3 98030.1 2022.81  81
  -1   1  -3 105996. 2041.88  41
   1  -1   3 97989.6 1995.87  34
  -1   1  -3 108401. 2034.34  70
  -1   1  -3 103963. 2033.16  76
  -1   1  -3 102918. 2090.63  63
  -1   1  -3 106287. 2060.19  60
   1  -1   3 83311.4 1947.74  32
   1  -1   4 1399.62 72.7745  28
   1  -1   4 1151.43 72.6338  14
   1  -1   4 1709.51 135.158   8
   1  -1   4 1742.80 84.0747  13
   1  -1   4 1929.86 125.360   5
  -1   1  -4 1889.40 121.330  91
  -1   1  -4 2034.32 145.657  87
   1  -1   4 1750.18 96.9972  86
  -1   1  -4 1920.38 141.412  85
   1  -1   4 1830.26 128.164  81
   1  -1   4 1668.96 85.4578  35
  -1   1  -4 1956.56 134.707  41
  -1   1  -4 2069.78 129.508  76
  -1   1  -4 2012.16 142.374  70
  -1   1  -4 2041.67 136.761  60
   1  -1   4 1773.93 129.984  61
  -1   1  -4 1689.00 157.655  57
   1  -1   4 1860.72 114.370  53
   1  -1   5 59142.5 1238.55  33
   1  -1   5 51123.4 1229.75   7
   1  -1   5 62473.5 1289.02   8
   1  -1   5 61893.5 1292.86   5
   1  -1   5 57059.0 1313.87  15
  -1   1  -5 59077.6 1278.28  91
  -1   1  -5 64065.9 1340.13  87
  -1   1  -5 61406.6 1361.43  85
   1  -1   5 59497.8 1325.00  81
  -1   1  -5 59697.9 1354.57  70
  -1   1  -5 61884.2 1335.12  60
   1  -1   5 60831.2 1324.88  61
  -1   1  -5 54593.2 1344.82  57
   1  -1   5 57866.3 1296.46  53
  -1   1  -6 38774.9 872.298  87
  -1   1  -6 35377.4 807.350  91
  -1   1  -6 36218.7 924.232  85
   1  -1   6 34846.3 880.268  81
   1  -1   6 34823.1 856.593   8
   1  -1   6 32843.9 776.131   7
   1  -1   6 34695.9 875.516  17
   1  -1   6 31447.4 864.317  15
  -1   1  -6 35370.9 915.916  41
   1  -1   6 34418.1 829.404  65
  -1   1  -6 37236.3 889.229  60
  -1   1  -6 33976.0 891.060  57
   1  -1   6 34309.9 852.537  53
   1  -1   7 26182.2 799.468  25
   1  -1   7 30378.5 778.009  15
   1  -1   7 26020.3 787.004  17
   1  -1   7 27416.9 751.011   9
  -1   1  -7 31446.5 769.905  87
  -1   1  -7 29665.9 849.358  85
   1  -1   7 29812.4 806.515  81
   1  -1   7 30679.4 824.898  44
  -1   1  -7 29429.3 789.814  57
  -1   1  -7 30903.8 805.193  60
   1  -1   7 29470.6 734.161  65
  -1   1  -7 30020.3 844.341  41
   1  -1   8 230.769 141.367  44
  -1   1  -8 203.172 140.612  41
   1  -1   8 145.763 130.746  71
  -1   1  -8 92.8097 140.678  72
   1  -1   8 508.199 229.724  25
   1  -1   8 330.528 238.341  17
   1  -1   8 142.757 166.314  15
  -1   1  -9 20127.7 728.747  85
   1  -1   9 18595.2 664.303  81
   1  -1   9 20982.3 619.510  78
  -1   1  -9 18409.8 712.547  41
   1  -1   9 20447.3 696.922  44
   1  -1   9 20777.5 672.703  71
  -1   1  -9 19404.0 716.967  72
   1  -1   9 21624.9 641.487  25
   1  -1   9 20541.0 647.859   3
   1  -1   9 20726.6 592.108   9
   1  -1  10 28148.8 824.197   3
  -1   1 -10 26807.8 918.392  85
   1  -1  10 25578.5 762.554  78
   1  -1  10 27061.9 861.589  81
  -1   1 -10 25507.1 905.167  41
   1  -1  10 26595.2 866.974  44
   1  -1  10 27050.8 840.079  71
  -1   1 -10 24488.9 884.535  72
   1  -1  10 27297.2 773.171  25
   1  -1  10 24342.2 746.585  22
   1  -1  10 28237.6 935.335  46
  -1   1 -11 22962.8 864.735  85
   1  -1  11 21102.8 699.702  78
   1  -1  11 22655.5 817.957  44
  -1   1 -11 20764.2 842.557  41
  -1   1 -11 22336.6 855.619  72
   1  -1  11 22225.5 778.669  71
   1  -1  11 23630.3 714.763  22
   1  -1  11 23450.8 876.863  46
   1  -1  12 1843.82 206.939  78
  -1   1 -12 1909.60 278.111  85
   1  -1  12 2516.77 276.754  71
  -1   1 -12 1838.35 274.487  72
   1  -1  12 2094.31 323.611  46
   1  -1  12 1798.97 220.555  22
   1  -1  13 5773.15 349.133  78
  -1   1 -13 5639.74 439.090  72
   1  -1  13 6955.44 429.384  71
   1  -1  13 7579.84 453.035  66
  -1   1 -13 5965.09 461.749  85
   1  -1  13 6904.65 384.410  22
  -1   1 -14 12619.4 672.090  85
   1  -1  14 15025.8 726.047  46
  -1   1 -15 2010.81 299.796  85
  -1   1 -15 1877.40 276.804  72
   1  -1  15 2527.02 280.638  71
   1  -1  15 2491.34 349.343  46
   1  -1  15 1889.34 251.857  66
  -1   1 -16 10191.4 528.621  72
   1  -1  16 11772.6 519.406  66
   1  -1  16 11569.1 529.128  56
   1  -1  17 335.075 142.798  66
  -1   1 -17 877.827 213.417  64
   1  -1  17 548.226 113.035  77
   1  -1  17 749.918 163.045  56
  -1   1 -18 7700.19 362.530  83
  -1   0  18-34.3077 86.2470  90
   1   0 -18 63.0822 119.304  84
  -1   0  17 8104.35 389.317  90
  -1   0  17 8052.66 385.144  56
   1   0 -17 8278.94 463.103  72
  -1   0  16 116.639 147.244  90
  -1   0  16 218.251 148.933  56
   1   0 -16 267.874 193.428  72
  -1   0  15 19113.7 735.370  56
   1   0 -15 18507.3 859.698  72
  -1   0  14 13313.4 634.824  90
   1   0 -14 13251.5 745.277  85
   1   0 -14 13513.7 732.266  72
  -1   0  14 14472.5 661.493  71
   1   0 -13 3656.86 382.722  41
  -1   0  13 4062.96 372.604  71
   1   0 -13 4697.53 440.548  72
   1   0 -13 4662.88 357.706  68
   1   0 -13 4407.74 450.610  85
  -1   0  13 4548.46 376.442  90
   1   0 -13 3595.62 254.521  50
  -1   0  12 22386.1 860.477  90
   1   0 -12 23965.5 1010.78  85
   1   0 -12 25075.6 803.600  79
   1   0 -12 23199.9 938.588  41
  -1   0  12 24202.3 879.755  71
   1   0 -12 25010.6 815.864  68
   1   0 -12 24388.9 991.786  72
   1   0 -12 24476.5 816.555  51
   1   0 -12 22921.0 844.343  20
   1   0 -11 2705.87 293.101  20
   1   0 -11 3301.27 375.365  85
   1   0 -11 3203.19 320.867  79
  -1   0  11 2463.91 184.806  77
   1   0 -11 2722.76 314.347  41
   1   0 -11 2733.96 322.111  38
  -1   0  11 2870.70 293.612  71
   1   0 -11 3579.35 371.783  72
  -1   0  11 2521.89 281.470  66
   1   0 -11 3275.46 335.403  51
  -1   0  11 2840.07 327.100  46
   1   0 -10 16816.8 677.505  20
   1   0 -10 19802.3 749.010  24
   1   0 -10 18000.0 786.256  85
   1   0 -10 19170.3 659.893  79
  -1   0  10 15318.9 517.706  77
   1   0 -10 19983.8 648.758  38
   1   0 -10 17377.1 734.288  41
  -1   0  10 17286.8 671.180  71
   1   0 -10 18152.1 771.723  72
  -1   0  10 17411.4 691.703  66
   1   0 -10 19810.9 659.717  51
  -1   0  10 19350.7 741.778  46
  -1   0   9 6.80246 146.378   3
  -1   0   9 21.6022 198.321  46
   1   0  -9 217.180 251.277  51
   1   0  -9 8.99065 162.848  85
   1   0  -9 27.1489 206.234  79
   1   0  -9 217.259 250.690  38
   1   0  -9-31.9172 145.041  41
   1   0  -9 64.0587 209.116  40
  -1   0   9-24.7893 133.691  71
   1   0  -9 17.8355 160.378  72
  -1   0   9-106.870 175.052  66
   1   0  -9-66.2824 195.551  24
   1   0  -9 193.524 263.150  34
   1   0  -9-28.0901 157.071  20
   1   0  -8 34875.7 980.748  24
   1   0  -8 30397.4 981.761  85
   1   0  -8 31154.7 872.646  38
   1   0  -8 32952.2 961.006  34
   1   0  -8 28528.7 846.945  40
   1   0  -8 32102.5 961.313  41
   1   0  -8 26983.5 811.149   4
   1   0  -8 36930.3 993.755  13
  -1   0   8 32673.2 935.658   3
   1   0  -8 29541.3 880.871   8
  -1   0   8 31097.5 867.550  11
  -1   0   8 31348.8 902.708  71
   1   0  -8 31162.9 987.570  72
  -1   0   8 35702.5 1066.22  66
   1   0  -8 28957.4 880.637  45
  -1   0   8 34776.1 964.121  46
   1   0  -8 32217.9 892.406  51
   1   0  -7 2463.43 283.425  24
  -1   0   7 2358.91 158.891  19
   1   0  -7 2328.57 192.229   9
  -1   0   7 2846.98 195.497   2
  -1   0   7 2451.16 193.360  11
   1   0  -7 2030.83 178.324   4
   1   0  -7 2847.34 260.281  13
  -1   0   7 2490.68 239.162   3
   1   0  -7 2818.68 286.833  15
   1   0  -7 2016.38 245.200  85
   1   0  -7 2726.02 261.679  40
   1   0  -7 2836.17 329.803  37
   1   0  -7 2262.95 229.739  41
   1   0  -7 2774.66 320.288  34
   1   0  -7 2986.57 320.520  38
  -1   0   7 2506.00 345.121  66
  -1   0   7 2448.99 261.174  46
   1   0  -7 2349.74 252.767  45
   1   0  -6 53472.1 1239.50  24
  -1   0   6 52614.9 1104.04  23
  -1   0   6 48784.8 1048.36  19
  -1   0   6 39724.7 1012.68  31
   1   0  -6 50645.0 1214.43   7
   1   0  -6 54500.2 1233.87  13
  -1   0   6 56403.7 1198.92  11
   1   0  -6 55080.7 1123.14  17
  -1   0   6 53183.9 1209.95   3
   1   0  -6 53764.5 1074.22   9
   1   0  -6 61030.4 1151.72  15
   1   0  -6 48325.9 1224.22  85
  -1   0   6 55431.5 1193.04  81
  -1   0   6 50007.0 1029.02  36
   1   0  -6 50179.6 1185.65  37
   1   0  -6 60654.0 1128.07  40
   1   0  -6 51101.5 1209.30  34
  -1   0   6 52485.8 1171.87  71
   1   0  -6 48635.6 1226.72  72
   1   0  -6 52455.1 1155.24  67
   1   0  -6 58812.5 1152.25  45
  -1   0   6 46388.0 1027.06  55
  -1   0   5 6680.13 232.768  23
  -1   0   5 5287.19 169.801  31
   1   0  -5 6923.72 291.917  26
   1   0  -5 6949.30 302.250   7
   1   0  -5 6513.77 304.635  13
  -1   0   5 6537.43 283.889  11
  -1   0   5 6443.29 296.095   3
   1   0  -5 5977.87 295.492  85
  -1   0   5 5957.71 207.451  77
  -1   0   5 6428.03 275.306  81
   1   0  -5 6219.84 323.234  34
  -1   0   5 6506.74 205.275  36
   1   0  -5 6912.24 296.139  41
   1   0  -5 6334.15 310.438  37
  -1   0   5 6369.95 270.608  71
   1   0  -5 6026.24 297.027  72
  -1   0   5 6254.82 292.435  66
   1   0  -5 6288.79 293.022  67
  -1   0   5 6368.69 214.090  55
  -1   0   5 6386.31 301.096  46
   1   0  -4 112893. 2325.37  13
  -1   0   4 112986. 2325.49  11
   1   0  -4 115197. 2275.38  16
   1   0  -4 122362. 2341.46   7
  -1   0   4 106955. 2160.58  12
   1   0  -4 123529. 2345.77  85
  -1   0   4 100081. 2170.41  77
  -1   0   4 115677. 2295.17  81
   1   0  -4 115722. 2311.70  41
  -1   0   4 113451. 2232.35  36
  -1   0   4 112515. 2279.63  71
   1   0  -4 121560. 2341.81  72
   1   0  -4 114756. 2268.34  26
  -1   0   4 102267. 2158.86  30
   1   0  -4 114759. 2246.29  21
   1   0  -4 84022.4 2207.01  22
  -1   0   4 112974. 2249.73  55
   1   0  -4 110457. 2201.98  48
   1   0  -3 4825.36 205.042   3
   1   0  -3 4521.02 203.898  16
  -1   0   3 4770.97 216.611  11
   1   0  -3 5825.82 219.662  85
  -1   0   3 5602.11 251.733  91
   1   0  -3 5172.18 181.293  80
  -1   0   3 4888.85 195.014  81
  -1   0   3 4772.00 175.159  36
   1   0  -3 4953.75 194.168  41
  -1   0   3 4777.44 188.547  71
   1   0  -3 5421.08 212.153  72
  -1   0   3 5017.03 193.556  55
   1   0  -3 3299.82 125.044  52
   1   0  -3 3174.12 145.546  22
   1   0  -3 4625.22 181.057  21
   1   0  -2 92893.6 1878.41  23
  -1   0   2 91098.0 1987.08  11
   1   0  -2 92336.5 1946.32   3
   1   0  -2 85200.2 1869.12  10
   1   0  -2 97771.1 1911.85   2
  -1   0   2 99368.1 2015.46  91
   1   0  -2 97002.6 1936.56  85
  -1   0   2 97751.1 1936.90  88
   1   0  -2 92088.9 1879.39  80
  -1   0   2 87035.7 1920.32  81
   1   0  -2 91095.2 1937.00  36
  -1   0   2 93543.0 1946.71  36
   1   0  -2 97151.7 1919.54  41
  -1   0   2 91785.6 1925.43  41
  -1   0   2 91930.8 1916.99  71
  -1   0   2 95572.0 1978.82  74
   1   0  -2 100687. 1942.45  72
  -1   0   2 95074.2 1938.63  57
  -1   0   2 100849. 1994.15  63
  -1   0   2 92094.3 1963.62  55
  -1   0   1 34459.7 759.586  88
   1   0  -1 30996.1 704.518  85
  -1   0   1 37531.1 798.432  83
   1   0  -1 34530.8 769.645  36
  -1   0   1 35870.1 774.944  36
  -1   0   1 33209.8 706.717  41
  -1   0   1 34957.8 796.044  43
  -1   0   1 29888.0 697.411  71
  -1   0   1 34960.4 786.213  74
   1   0  -1 29977.4 700.829  72
  -1   0   1 34452.1 779.696  69
  -1   0   1 36893.0 789.315  64
  -1   0   1 35168.9 801.597  63
  -1   0   1 34680.5 765.306  57
  -1   0   1 33900.2 781.152  55
   1   0   0 17849.6 491.344  36
  -1   0   0 18534.5 498.671  36
  -1   0   0 19089.1 507.514  43
  -1   0   0 21077.1 512.658  83
  -1   0   0 18965.6 494.076  57
  -1   0   0 20408.2 508.614  64
  -1   0   0 20272.3 517.691  91
  -1   0   0 18160.3 484.035  87
  -1   0   0 19978.2 495.220  88
  -1   0  -1 75378.1 1549.30  91
  -1   0  -1 71284.3 1422.08  89
  -1   0  -1 76272.3 1540.39  83
  -1   0  -1 70583.1 1426.13  41
  -1   0  -1 70754.6 1534.15  43
  -1   0  -1 69116.3 1530.04  60
  -1   0  -1 73985.7 1563.31  63
   1   0   1 67546.8 1428.15  62
  -1   0  -1 71821.0 1541.38  55
  -1   0  -2 1788.87 138.653  87
  -1   0  -2 1623.48 85.1538  85
  -1   0  -2 1603.79 150.266  88
  -1   0  -2 1848.20 150.321  91
   1   0   2 1401.46 80.6221  81
  -1   0  -2 1769.92 90.6063  41
   1   0   2 1448.83 81.3517  71
  -1   0  -2 1801.44 85.1105  72
  -1   0  -2 1842.16 126.432  76
  -1   0  -2 1755.73 148.446  57
  -1   0  -2 1841.91 147.698  60
  -1   0  -2 1751.74 159.485  63
   1   0   2 1646.07 83.2644  61
  -1   0  -2 1774.42 147.540  55
   1   0   3 9232.68 241.887  20
   1   0   3 10531.3 296.944   5
   1   0   3 10980.4 289.035   6
  -1   0  -3 12461.0 360.647  87
  -1   0  -3 11566.1 307.337  85
   1   0   3 10559.5 273.120  90
  -1   0  -3 11193.6 367.481  88
   1   0   3 10062.7 289.030  81
  -1   0  -3 10857.3 306.619  41
   1   0   3 10238.3 286.840  71
  -1   0  -3 11587.9 305.690  72
  -1   0  -3 11996.4 329.627  76
  -1   0  -3 11156.9 349.980  57
  -1   0  -3 12206.3 368.086  60
  -1   0  -3 11324.9 371.265  63
  -1   0  -3 11820.0 360.028  55
   1   0   3 8731.35 253.123  49
   1   0   4 35928.6 851.890  24
   1   0   4 37110.5 785.151  33
   1   0   4 40507.2 850.887   5
   1   0   4 38919.1 846.008   8
   1   0   4 36992.7 869.456  15
  -1   0  -4 43053.9 925.295  87
  -1   0  -4 37582.3 931.178  88
  -1   0  -4 35544.6 873.890  85
   1   0   4 34161.4 853.322  81
  -1   0  -4 38127.7 887.160  41
   1   0   4 35696.4 852.282  71
  -1   0  -4 38412.6 881.817  72
  -1   0  -4 35424.0 899.000  57
  -1   0  -4 37830.1 919.931  63
  -1   0  -4 37842.8 905.343  55
  -1   0  -5 17505.1 537.998  88
  -1   0  -5 16775.2 501.000  85
  -1   0  -5 19214.0 512.410  87
   1   0   5 16194.2 475.459  81
   1   0   5 15547.3 450.296  39
   1   0   5 17308.8 476.349  71
  -1   0  -5 16365.7 500.288  72
  -1   0  -5 16418.1 498.663  63
  -1   0  -5 15944.2 496.662  57
   1   0   5 16502.6 457.475  13
   1   0   5 17216.3 478.653   8
   1   0   5 17611.0 502.019  17
   1   0   5 15263.7 481.278  15
  -1   0  -6 31297.3 851.596  85
  -1   0  -6 29926.2 856.398  88
   1   0   6 32205.4 828.345  81
  -1   0  -6 31886.1 859.615  41
   1   0   6 29856.1 774.476  39
   1   0   6 32540.9 818.050  71
  -1   0  -6 31606.4 852.404  72
  -1   0  -6 30221.8 806.822  63
   1   0   6 31924.4 734.686  65
  -1   0  -6 32412.3 825.073  57
   1   0   6 30056.6 779.564  13
   1   0   6 30933.4 801.155   9
   1   0   6 30488.0 822.957  17
   1   0   6 31257.8 824.144   8
   1   0   7 1278.37 133.308   7
   1   0   7 1289.14 132.608   1
   1   0   7 1558.41 269.035  17
   1   0   7 1248.04 190.010  15
  -1   0  -7 1040.71 176.280  88
  -1   0  -7 1185.58 171.571  85
   1   0   7 1059.56 132.264  78
   1   0   7 1451.72 175.915  81
  -1   0  -7 1312.78 174.977  41
  -1   0  -7 1185.75 150.579  57
   1   0   7 1208.94 162.283  53
   1   0   8 38374.5 908.350   9
   1   0   8 36772.9 895.102  17
   1   0   8 32066.4 873.465   1
  -1   0  -8 32953.3 969.027  88
  -1   0  -8 34623.3 1018.88  41
  -1   0  -8 32614.7 996.759  72
   1   0   8 35045.3 958.575  71
   1   0   8 39428.1 935.695  25
   1   0   8 36407.0 1008.93  44
   1   0   8 34128.2 967.921  53
   1   0   9 75.6472 112.970  53
   1   0   9 26.3311 96.7858  78
  -1   0  -9 45.9070 135.612  85
   1   0   9 48.3735 136.229  44
  -1   0  -9 122.991 141.687  41
   1   0   9 75.8789 123.055  71
  -1   0  -9 52.4894 129.919  72
   1   0   9-4.06023 174.744  25
   1   0   9 166.733 117.573  22
   1   0   9 51.6814 120.987   9
  -1   0 -10 39590.8 1213.90  85
   1   0  10 39529.9 1046.15  78
  -1   0 -10 39015.6 1214.19  41
   1   0  10 40549.7 1132.47  71
  -1   0 -10 37731.3 1186.86  72
   1   0  10 38087.0 1018.52  25
   1   0  10 41660.8 1192.89  44
   1   0  11 745.336 154.931  78
  -1   0 -11 741.011 218.966  85
  -1   0 -11 831.712 219.340  41
   1   0  11 781.823 212.229  44
   1   0  11 859.346 205.595  71
  -1   0 -11 707.699 209.394  72
   1   0  11 703.072 163.617  22
   1   0  11 950.873 264.992  46
  -1   0 -12 23058.9 927.306  85
   1   0  12 22497.1 752.289  78
   1   0  12 25881.2 866.692  71
  -1   0 -12 22082.5 890.966  72
   1   0  12 25184.1 955.010  46
   1   0  12 22938.2 750.830  22
  -1   0 -12 21647.5 904.398  41
   1   0  12 23093.6 885.699  44
  -1   0 -13 3595.25 368.497  72
   1   0  13 3844.83 344.678  71
   1   0  13 4642.47 362.293  66
  -1   0 -13 3803.98 390.045  85
   1   0  13 4810.88 338.161  22
  -1   0 -14 16564.7 784.506  85
   1   0  14 19746.5 842.105  46
  -1   0 -15 1662.60 252.141  72
   1   0  15 1834.89 256.392  56
   1   0  15 2058.09 330.941  46
   1   0  15 1740.52 235.255  66
   1   0  16 2087.22 245.182  56
   1   0  16 1671.67 220.262  66
   1   0  17 5245.28 302.957  56
  -1   0 -17 5805.86 343.142  64
  -1   0 -17 6299.86 375.527  83
  -1   0 -18 533.275 134.731  83
   1   1 -18 3291.09 257.128  72
  -1  -1  18 3143.83 218.173  90
   1   1 -17 703.993 195.045  72
  -1  -1  17 673.716 153.913  56
  -1  -1  17 787.655 168.145  90
   1   1 -16 18011.9 781.650  72
  -1  -1  16 16593.5 650.616  56
  -1  -1  16 17394.0 690.498  90
   1   1 -16 17306.7 792.481  85
   1   1 -15 1331.42 284.079  72
  -1  -1  15 1592.32 261.639  71
  -1  -1  14 19309.6 772.337  71
   1   1 -14 17600.3 849.213  72
   1   1 -14 17934.5 867.335  85
  -1  -1  14 17741.4 761.419  90
  -1  -1  13 356.055 187.606  71
   1   1 -13 300.214 224.514  72
   1   1 -13 420.458 160.526  50
   1   1 -13 421.179 229.482  68
   1   1 -13 523.537 236.087  79
   1   1 -13 292.083 235.432  85
   1   1 -12 21127.1 904.628  85
   1   1 -12 20769.3 724.804  79
  -1  -1  12 19935.4 764.398  71
   1   1 -12 19318.0 867.130  72
   1   1 -12 18560.8 738.862  20
   1   1 -11 13979.4 603.885  20
   1   1 -11 13627.9 686.296  85
  -1  -1  11 10285.2 383.295  77
   1   1 -11 14560.7 583.206  79
   1   1 -11 16390.6 702.077  34
   1   1 -11 12605.8 625.983  41
  -1  -1  11 13653.1 594.952  71
   1   1 -11 12925.8 667.345  72
  -1  -1  11 12520.6 591.126  66
   1   1 -11 15139.3 577.072  51
   1   1 -10 32741.7 1032.73  24
   1   1 -10 33046.9 1093.76  85
   1   1 -10 31566.6 941.814  79
   1   1 -10 32315.8 1028.31  34
   1   1 -10 28483.7 1002.86  41
   1   1 -10 31567.1 899.100  38
  -1  -1  10 30535.2 950.542  71
   1   1 -10 30358.6 1065.98  72
  -1  -1  10 29645.6 986.706  66
   1   1 -10 32662.5 917.582  51
   1   1  -9 33576.7 996.185  24
   1   1  -9 29874.3 995.339  85
  -1  -1   9 27161.7 886.538  81
   1   1  -9 31796.9 863.817  38
   1   1  -9 30460.2 858.670  40
   1   1  -9 27095.3 930.816  41
   1   1  -9 29984.5 943.442  37
   1   1  -9 30735.0 957.427  34
  -1  -1   9 28071.8 878.104  71
   1   1  -9 28659.8 990.209  72
   1   1  -9 30444.5 905.488  67
  -1  -1   9 32271.4 1006.03  66
   1   1  -9 32151.8 872.998  51
  -1  -1   8 6231.60 390.316   2
   1   1  -8 4759.03 322.297  13
   1   1  -8 4781.98 333.235   8
  -1  -1   8 5006.56 248.009  11
   1   1  -8 4152.25 244.423   4
   1   1  -8 5050.53 354.357  51
  -1  -1   8 4703.27 296.324  81
   1   1  -8 5435.04 359.789  38
   1   1  -8 4795.15 368.564  34
   1   1  -8 4930.77 392.618  37
   1   1  -8 4647.00 316.126  41
   1   1  -8 4493.09 315.700  40
  -1  -1   8 4779.14 295.481  71
   1   1  -8 4793.53 348.162  72
   1   1  -8 5100.22 361.979  67
  -1  -1   8 5283.15 456.910  66
   1   1  -8 4856.16 351.230  24
   1   1  -7 64099.0 1574.16  85
  -1  -1   7 61648.6 1476.25  81
   1   1  -7 61291.3 1516.02  41
   1   1  -7 64196.1 1502.31  37
   1   1  -7 60716.2 1509.18  34
   1   1  -7 62655.0 1447.29  38
   1   1  -7 53363.5 1399.58  40
   1   1  -7 57052.4 1438.30  45
   1   1  -7 62598.4 1460.37  51
   1   1  -7 63495.5 1523.89  13
  -1  -1   7 61447.8 1351.96  12
   1   1  -7 64985.9 1517.71   7
  -1  -1   7 64636.4 1435.68  11
   1   1  -7 57351.6 1438.28  15
   1   1  -6 4769.02 296.501  26
   1   1  -6 4345.92 255.883   7
   1   1  -6 4045.01 273.634  15
   1   1  -6 4576.17 271.266  13
  -1  -1   6 4462.24 220.208  11
   1   1  -6 4810.15 308.402  17
  -1  -1   6 4405.47 172.552  12
  -1  -1   6 5149.10 248.840   2
   1   1  -6 4439.69 179.296   9
   1   1  -6 3787.93 274.711  85
  -1  -1   6 4029.25 232.386  81
   1   1  -6 3946.20 312.926  37
   1   1  -6 4855.86 265.052  40
   1   1  -6 4227.09 283.552  72
  -1  -1   6 3942.92 233.849  71
  -1  -1   6 4321.67 262.345  66
  -1  -1   6 4066.75 186.498  55
   1   1  -5 136212. 2672.09  21
   1   1  -5 133867. 2689.16  26
   1   1  -5 133180. 2733.35   7
  -1  -1   5 135845. 2603.01  12
  -1  -1   5 137095. 2674.20   2
  -1  -1   5 130161. 2695.72  11
   1   1  -5 118016. 2578.64   9
   1   1  -5 135688. 2701.68  16
   1   1  -5 140961. 2648.21  15
  -1  -1   5 124878. 2543.69  87
   1   1  -5 123749. 2753.18  85
  -1  -1   5 100825. 2554.19  77
   1   1  -5 130634. 2650.73  80
  -1  -1   5 136750. 2708.23  81
   1   1  -5 135228. 2729.92  41
  -1  -1   5 132675. 2695.69  71
   1   1  -5 122081. 2758.13  72
  -1  -1   5 130744. 2706.38  66
  -1  -1   5 130478. 2666.52  55
  -1  -1   5 136141. 2604.78  54
   1   1  -5 141767. 2653.97  45
   1   1  -4 1822.77 100.855  22
   1   1  -4 2084.41 160.344  21
   1   1  -4 2095.51 179.985  16
   1   1  -4 2130.77 160.342   3
  -1  -1   4 2421.86 183.368  91
   1   1  -4 2142.55 169.755  85
  -1  -1   4 2490.63 97.9147  87
  -1  -1   4 2281.59 151.900  81
   1   1  -4 2283.71 150.813  80
  -1  -1   4 2229.18 143.430  36
   1   1  -4 2284.41 148.133  41
   1   1  -4 1877.28 155.741  70
  -1  -1   4 2269.02 145.040  63
   1   1  -4 2462.55 131.728  45
  -1  -1   4 2113.37 104.561  54
  -1  -1   4 2300.04 150.063  55
   1   1  -4 2226.75 130.761  48
   1   1  -3 3282.40 129.174  22
   1   1  -3 4720.60 149.357  18
   1   1  -3 4017.95 197.183   3
  -1  -1   3 4471.85 226.630  91
  -1  -1   3 4978.85 158.388  87
   1   1  -3 3917.73 192.443  85
  -1  -1   3 4764.83 183.995  81
   1   1  -3 4482.65 159.732  80
  -1  -1   3 5071.58 205.094  36
  -1  -1   3 4561.10 194.327  69
   1   1  -3 3838.09 191.549  70
  -1  -1   3 4577.46 207.839  63
  -1  -1   3 4636.72 210.093  55
   1   1  -3 3918.58 139.412  48
   1   1  -2 54814.3 1206.17  27
   1   1  -2 65794.4 1241.27  12
   1   1  -2 63380.9 1334.23  11
   1   1  -2 64484.3 1282.61   2
   1   1  -2 61357.2 1261.33   1
  -1  -1   2 65993.5 1301.48  88
  -1  -1   2 62767.2 1270.47  87
  -1  -1   2 60303.4 1342.69  91
   1   1  -2 52849.8 1262.85  85
  -1  -1   2 62726.3 1258.19  81
  -1  -1   2 64392.8 1322.38  36
  -1  -1   2 60333.6 1262.48  41
   1   1  -2 52920.1 1260.69  70
  -1  -1   2 61260.4 1299.53  69
  -1  -1   2 60940.6 1331.80  59
  -1  -1   2 60638.1 1340.49  63
   1   1  -2 52927.6 1229.18  54
  -1  -1   2 62144.4 1333.43  55
  -1  -1   1 73652.2 1509.77  87
  -1  -1   1 77744.3 1528.84  88
  -1  -1   1 74887.2 1448.65  81
   1   1  -1 64721.8 1450.04  85
  -1  -1   1 74356.0 1546.14  36
  -1  -1   1 69050.9 1451.67  41
  -1  -1   1 75096.1 1558.21  43
  -1  -1   1 78176.2 1533.17  69
   1   1  -1 62325.3 1447.27  70
  -1  -1   1 75625.1 1553.89  59
   1   1  -1 70470.1 1497.30   1
   1   1  -1 75347.9 1566.55  11
  -1  -1   0 50176.1 1059.10  87
  -1  -1   0 48855.6 948.350  81
   1   1   0 44706.3 950.149  70
  -1  -1   0 49161.6 1076.49  43
  -1  -1   0 49993.0 1077.78  36
  -1  -1   0 48115.5 1045.39  58
   1   1   0 44684.3 959.363  56
  -1  -1  -1 159454. 3349.90  88
  -1  -1  -1 162622. 3355.76  43
  -1  -1  -1 169572. 3374.26  74
   1   1   1 158143. 3251.52  75
  -1  -1  -1 164824. 3333.63  58
  -1  -1  -1 175617. 3369.28  57
  -1  -1  -1 171273. 3374.83  64
  -1  -1  -1 160961. 3369.88  55
   1   1   1 157718. 3276.98  56
  -1  -1  -2 4739.10 205.571  87
  -1  -1  -2 4251.42 209.649  88
  -1  -1  -2 4352.44 156.689  41
   1   1   2 3657.85 176.608   1
  -1  -1  -2 5038.78 203.192  76
  -1  -1  -2 4332.00 195.340  73
  -1  -1  -2 4031.85 149.233  72
  -1  -1  -2 4579.35 227.718  64
  -1  -1  -2 4612.53 228.671  60
  -1  -1  -2 4681.13 208.399  57
  -1  -1  -2 4188.14 209.801  55
   1   1   3 19676.7 430.320  20
   1   1   3 19592.4 402.770  90
  -1  -1  -3 20750.8 453.569  85
  -1  -1  -3 24258.8 527.705  87
  -1  -1  -3 21447.6 516.694  88
   1   1   3 17367.4 375.951  42
  -1  -1  -3 22531.9 463.600  41
   1   1   3 20300.1 480.711   1
   1   1   3 21127.2 428.852   5
   1   1   3 19373.4 444.187  15
   1   1   3 21459.4 428.936   8
   1   1   3 20848.8 368.429  14
  -1  -1  -3 20575.8 445.793  72
   1   1   3 20533.0 445.701  71
  -1  -1  -3 23382.4 519.098  57
  -1  -1  -3 21575.1 512.630  55
   1   1   3 19495.2 399.237  49
   1   1   4 106417. 2209.60  20
   1   1   4 115954. 2279.31  24
   1   1   4 114080. 2272.86   1
   1   1   4 120359. 2218.64   5
   1   1   4 113845. 2230.40  17
   1   1   4 119832. 2226.83   8
   1   1   4 99566.0 2249.35   9
   1   1   4 119036. 2242.09  15
  -1  -1  -4 122699. 2286.76  41
   1   1   4 107275. 2218.46  90
  -1  -1  -4 114799. 2278.46  85
  -1  -1  -4 131795. 2333.70  87
  -1  -1  -4 116186. 2318.12  88
  -1  -1  -4 117780. 2271.90  72
   1   1   4 115024. 2256.04  71
  -1  -1  -4 112703. 2294.86  57
  -1  -1  -4 116843. 2296.88  55
   1   1   5 2250.60 287.796  17
   1   1   5 1940.21 249.321   8
   1   1   5 1971.47 189.903   9
   1   1   5 1989.80 190.573  15
   1   1   5 1902.40 157.397   1
  -1  -1  -5 2803.05 212.615  87
   1   1   5 1928.84 151.931  90
  -1  -1  -5 1947.91 194.298  88
  -1  -1  -5 2300.11 184.396  85
   1   1   5 2166.95 176.777  39
   1   1   5 2074.20 170.459  71
  -1  -1  -5 2159.17 173.435  72
  -1  -1  -5 1926.48 174.640  57
  -1  -1  -5 1892.72 156.972  55
  -1  -1  -6 64620.1 1635.17  88
   1   1   6 62885.3 1590.60  90
  -1  -1  -6 73684.5 1680.54  85
   1   1   6 72050.2 1577.43  78
  -1  -1  -6 67064.0 1664.12  41
  -1  -1  -6 71200.7 1663.32  72
   1   1   6 67338.4 1620.22  71
   1   1   6 86895.5 1636.56  25
   1   1   6 68487.2 1626.16  13
   1   1   6 68311.2 1592.74   1
   1   1   6 74654.1 1603.64   9
   1   1   6 80332.0 1598.80  17
   1   1   7 2787.39 213.208  13
   1   1   7 2965.55 188.149   1
   1   1   7 3229.77 259.540  17
   1   1   7 3448.58 218.865   9
  -1  -1  -7 2939.81 226.679  88
  -1  -1  -7 3158.13 250.647  85
   1   1   7 3417.19 194.685  78
   1   1   7 2852.45 207.484  39
  -1  -1  -7 2815.99 247.301  41
   1   1   7 3969.72 256.950  25
   1   1   7 2980.06 248.661  53
   1   1   8 13050.8 527.162  53
   1   1   8 13637.1 446.140  78
  -1  -1  -8 11711.0 527.129  41
   1   1   8 13245.2 502.552  71
  -1  -1  -8 11765.8 513.537  72
   1   1   8 12932.5 443.770  22
   1   1   8 13279.6 443.024  25
   1   1   8 13111.0 444.202   9
   1   1   8 10531.6 398.939   1
  -1  -1  -9 12452.4 570.814  85
   1   1   9 13213.5 473.772  78
  -1  -1  -9 13042.9 582.639  41
   1   1   9 13123.5 533.476  71
  -1  -1  -9 12548.6 561.921  72
   1   1   9 13080.9 468.365  22
   1   1   9 12428.3 450.445  25
   1   1   9 14031.2 571.174  53
   1   1   9 13961.7 587.627  44
   1   1  10 15303.7 557.600  78
  -1  -1 -10 15586.9 692.149  41
  -1  -1 -10 15140.9 664.593  72
   1   1  10 17539.2 653.839  71
  -1  -1 -10 15204.3 684.743  85
   1   1  10 16737.9 670.361  53
   1   1  10 17324.7 701.160  44
   1   1  11 49746.1 1322.09  78
  -1  -1 -11 46870.6 1485.36  41
   1   1  11 52767.3 1509.54  44
  -1  -1 -11 46768.3 1465.94  72
   1   1  11 53999.5 1439.64  71
  -1  -1 -11 47563.0 1494.42  85
   1   1  11 52573.0 1315.11  22
   1   1  12 593.839 278.377  46
  -1  -1 -12 413.733 219.850  85
  -1  -1 -12 450.360 204.045  72
   1   1  12 374.022 203.151  44
  -1  -1 -12 205.938 193.768  41
   1   1  12 527.191 191.885  66
   1   1  12 733.289 198.496  22
  -1  -1 -13 4643.95 424.229  41
  -1  -1 -13 4748.11 409.115  72
   1   1  13 5562.84 377.111  66
  -1  -1 -14 94.2177 163.653  72
   1   1  14 225.294 183.420  56
   1   1  14 228.480 251.709  46
   1   1  14 71.5074 170.129  66
   1   1  15 11862.5 599.713  46
   1   1  15 9616.00 491.414  56
  -1  -1 -15 7890.04 481.367  84
  -1  -1 -15 12109.9 592.085  64
   1   1  15 8947.10 464.865  66
   1   1  16 504.624 220.115  46
   1   1  16 343.257 148.815  56
   1   1  16 510.587 128.097  77
  -1  -1 -16 429.803 182.709  64
   1   1  16 55.7593 151.645  66
   1   1  17 7165.85 328.172  56
   1   1  17 5925.32 224.368  77
  -1  -2  18 3680.28 242.717  90
   1   2 -18 3696.89 275.077  72
   1   2 -17 355.639 165.272  72
   1   2 -17 482.516 195.342  85
  -1  -2  17 585.058 160.554  90
  -1  -2  17 503.727 146.079  56
  -1  -2  16 1330.83 233.394  90
  -1  -2  16 1145.57 219.829  71
   1   2 -16 1346.43 259.001  72
   1   2 -16 1407.61 270.656  85
  -1  -2  15 18424.8 745.937  71
   1   2 -15 16985.0 806.659  72
  -1  -2  14 2091.97 283.722  71
   1   2 -14 2049.99 322.919  72
   1   2 -14 2321.80 283.302  79
   1   2 -14 1965.51 326.899  85
   1   2 -14 1543.30 189.242  50
  -1  -2  13 14101.4 635.268  71
   1   2 -13 13304.6 715.210  72
   1   2 -13 14712.4 596.191  79
   1   2 -13 12785.8 708.187  85
   1   2 -13 11570.8 487.719  50
   1   2 -12 447.407 246.565  79
   1   2 -12 578.854 231.358  85
  -1  -2  12 253.799 181.294  71
   1   2 -12 421.475 210.387  72
   1   2 -12 395.026 163.286  50
   1   2 -12 142.895 253.066  24
   1   2 -12 700.079 351.209  34
   1   2 -12 410.132 183.643  20
   1   2 -11 32430.4 1052.11  24
   1   2 -11 32177.2 1109.10  85
  -1  -2  11 30393.7 1000.09  81
   1   2 -11 33665.8 1069.60  34
  -1  -2  11 30733.2 976.200  71
   1   2 -11 29865.8 1089.34  72
  -1  -2  11 29026.9 965.166  66
   1   2 -11 27457.4 863.054  50
   1   2 -11 31088.0 919.408  51
   1   2 -10 4641.61 371.331  24
   1   2 -10 4876.29 358.514  13
   1   2 -10 4120.08 364.077  85
  -1  -2  10 4025.10 303.386  81
   1   2 -10 4366.65 410.837  37
   1   2 -10 4202.42 320.113  38
   1   2 -10 4603.68 401.323  34
  -1  -2  10 3772.59 290.242  71
   1   2 -10 4101.55 359.015  72
   1   2 -10 4397.41 380.981  67
  -1  -2  10 3346.35 301.261  66
   1   2 -10 4311.34 331.392  51
   1   2  -9 19587.1 738.718  24
  -1  -2   9 21829.8 688.803   2
   1   2  -9 19816.3 778.173  85
  -1  -2   9 20523.6 696.504  81
   1   2  -9 19122.0 726.565  34
   1   2  -9 20530.3 642.588  38
   1   2  -9 20037.8 737.352  37
   1   2  -9 20577.0 778.299  72
  -1  -2   9 19111.1 672.576  71
  -1  -2   9 20407.5 725.392  66
   1   2  -9 20111.8 706.796  67
   1   2  -9 20660.7 654.319  51
   1   2  -8 8053.76 404.769  13
   1   2  -8 8738.51 371.865   8
   1   2  -8 7831.15 433.244  85
  -1  -2   8 7701.57 377.787  81
   1   2  -8 7549.14 433.403  34
   1   2  -8 8072.21 447.375  37
   1   2  -8 8394.04 394.068  38
   1   2  -8 8012.23 360.785  40
  -1  -2   8 8423.10 321.483  36
  -1  -2   8 7158.76 368.325  71
   1   2  -8 7971.90 444.497  72
   1   2  -8 7703.12 423.917  67
  -1  -2   8 7999.52 425.200  66
   1   2  -8 8942.53 401.306  51
  -1  -2   7 1192.79 188.464   2
   1   2  -7 1209.00 192.075  13
   1   2  -7 1081.19 164.752   7
  -1  -2   7 1254.64 129.945  12
   1   2  -7 1475.80 257.506   8
   1   2  -7 1605.76 226.481  85
   1   2  -7 1514.63 281.256  37
   1   2  -7 1497.67 272.481  38
  -1  -2   7 1322.10 143.233  36
   1   2  -7 1222.84 219.081  40
  -1  -2   7 1376.32 139.119  55
  -1  -2   7 1451.81 145.417  54
   1   2  -7 1532.80 279.910  51
   1   2  -7 1451.64 246.659  26
   1   2  -6 59450.1 1376.00  26
   1   2  -6 61534.8 1357.87  21
  -1  -2   6 62728.7 1304.43  12
  -1  -2   6 62272.1 1379.74   2
   1   2  -6 52691.7 1305.04  17
   1   2  -6 57307.7 1383.43   7
   1   2  -6 57616.2 1322.04  15
   1   2  -6 60584.9 1386.00  16
   1   2  -6 61823.5 1457.14  85
   1   2  -6 56207.2 1316.74  80
  -1  -2   6 59054.7 1375.85  81
  -1  -2   6 62183.5 1379.52  36
   1   2  -6 54353.7 1329.96  38
   1   2  -6 59995.8 1451.65  70
  -1  -2   6 52776.5 1276.44  69
  -1  -2   6 57915.9 1354.86  66
  -1  -2   6 58679.3 1349.25  55
   1   2  -6 54624.1 1340.22  51
  -1  -2   6 60286.0 1299.03  54
   1   2  -5 16943.8 516.966  21
   1   2  -5 16447.9 528.150  26
  -1  -2   5 17483.5 516.510   2
   1   2  -5 18454.5 483.305  17
   1   2  -5 17044.7 536.805  16
   1   2  -5 15662.6 481.694  15
   1   2  -5 18961.1 580.868  85
  -1  -2   5 18561.2 554.225  91
   1   2  -5 17773.2 485.003  80
  -1  -2   5 18603.1 531.721  81
  -1  -2   5 19293.4 550.794  36
   1   2  -5 22036.9 536.442  38
   1   2  -5 15549.0 468.553  40
  -1  -2   5 16620.4 463.500  69
   1   2  -5 18783.7 574.771  70
  -1  -2   5 17121.5 493.454  63
  -1  -2   5 18445.1 474.311  54
   1   2  -4 123372. 2467.25  23
   1   2  -4 101373. 2420.01  25
   1   2  -4 116013. 2497.36  11
   1   2  -4 116342. 2509.41   3
   1   2  -4 118159. 2504.48  16
   1   2  -4 107495. 2414.59  15
  -1  -2   4 119717. 2538.87  91
   1   2  -4 129898. 2546.19  85
   1   2  -4 119964. 2433.82  80
  -1  -2   4 117231. 2487.90  81
  -1  -2   4 127479. 2544.30  36
   1   2  -4 139717. 2424.51  40
   1   2  -4 131478. 2543.93  70
  -1  -2   4 116182. 2451.09  69
  -1  -2   4 120688. 2513.85  63
   1   2  -4 104343. 2411.16  45
   1   2  -3 813.321 89.7719  18
   1   2  -3 915.042 107.111  23
   1   2  -3 952.132 98.7743  15
   1   2  -3 722.934 52.6339  10
   1   2  -3 656.769 103.977  11
  -1  -2   3 926.828 80.6515  87
  -1  -2   3 1011.12 142.814  91
  -1  -2   3 879.133 108.125  81
   1   2  -3 940.875 116.224  85
  -1  -2   3 1038.53 125.363  36
   1   2  -3 992.115 112.164  70
  -1  -2   3 962.082 103.607  61
  -1  -2   3 872.770 118.900  59
   1   2  -3 768.996 79.0354  45
   1   2  -2 32373.8 819.481  30
   1   2  -2 39747.5 843.666  27
   1   2  -2 39627.3 896.438   2
   1   2  -2 39807.5 868.760  12
   1   2  -2 37330.7 928.878  11
  -1  -2   2 42597.7 871.836  87
  -1  -2   2 39034.8 959.406  91
  -1  -2   2 36821.1 859.372  81
  -1  -2   2 43519.9 968.469  83
   1   2  -2 39393.8 878.252  85
  -1  -2   2 38840.7 941.694  43
   1   2  -2 37922.0 870.236  70
  -1  -2   2 36975.2 918.005  59
  -1  -2   2 40618.1 862.985  61
   1   2  -2 39875.7 796.471  45
   1   2  -1 83749.1 1788.79   2
  -1  -2   1 89712.0 1871.97  91
  -1  -2   1 92543.9 1783.49  87
  -1  -2   1 85540.5 1798.80  88
  -1  -2   1 87790.3 1840.88  83
  -1  -2   1 82941.3 1730.50  81
  -1  -2   1 81988.3 1811.83  43
   1   2  -1 80209.2 1736.73  70
  -1  -2   1 82936.5 1773.28  76
  -1  -2   1 78006.6 1769.23  58
  -1  -2   1 78961.1 1712.02  61
  -1  -2   1 87233.4 1823.55  64
  -1  -2   1 79417.2 1815.39  60
   1   2  -1 87771.0 1736.12  19
   1   2   0 97656.3 1956.08   1
  -1  -2   0 98985.9 1960.82  87
  -1  -2   0 91911.0 1961.79  88
  -1  -2   0 96724.6 2004.27  83
  -1  -2   0 91362.2 1884.39  82
  -1  -2   0 87425.0 1960.22  43
  -1  -2   0 90709.1 1983.94  74
   1   2   0 92925.3 1882.56  75
  -1  -2   0 99604.2 1953.94  76
  -1  -2   0 92531.2 1996.58  60
  -1  -2   0 92052.0 1975.95  64
  -1  -2   0 87348.3 1930.15  58
  -1  -2   0 93704.2 1844.66  61
  -1  -2   0 91631.4 2002.34  55
   1   2   0 91801.6 1894.26  56
   1   2   0 85605.0 1841.52  45
   1   2   1 103228. 2057.86   1
   1   2   1 91624.5 1948.53  15
  -1  -2  -1 97546.7 2061.78  87
  -1  -2  -1 91471.8 2054.63  88
  -1  -2  -1 97453.9 2094.62  83
  -1  -2  -1 96357.1 1993.96  82
  -1  -2  -1 113083. 2078.94  76
  -1  -2  -1 91319.4 2043.55  43
  -1  -2  -1 93541.4 2069.21  74
  -1  -2  -1 87220.7 2021.94  73
   1   2   1 99341.7 1988.50  75
  -1  -2  -1 92965.8 2066.74  64
  -1  -2  -1 99537.2 2120.59  60
  -1  -2  -1 97853.5 2097.02  55
   1   2   1 100116. 2011.29  56
   1   2   2 200541. 5115.29  28
   1   2   2 253191. 5150.72   5
   1   2   2 284158. 5255.85   1
   1   2   2 229873. 5197.12   9
   1   2   2 281807. 5146.43  15
   1   2   2 274486. 5148.62   8
   1   2   2 299716. 5150.58  14
  -1  -2  -2 275710. 5278.69  87
  -1  -2  -2 258591. 5250.33  88
   1   2   2 273159. 5135.73  78
  -1  -2  -2 278611. 5305.20  83
  -1  -2  -2 270817. 5202.59  84
  -1  -2  -2 274130. 5216.52  41
   1   2   2 227301. 5122.79  38
  -1  -2  -2 256896. 5279.94  36
  -1  -2  -2 259877. 5215.41  73
  -1  -2  -2 264312. 5273.17  64
   1   2   2 281009. 5228.09  56
  -1  -2  -2 268380. 5282.65  55
   1   2   3 35261.0 910.980  32
   1   2   3 38432.0 881.237  14
   1   2   3 45059.0 999.033   1
   1   2   3 46765.6 986.376   9
   1   2   3 39529.3 929.070  17
   1   2   3 40907.9 924.876   8
   1   2   3 43645.7 910.172   5
  -1  -2  -3 40464.7 995.804  88
   1   2   3 38557.4 908.194  90
   1   2   3 46323.0 913.871  78
  -1  -2  -3 43991.7 978.242  41
  -1  -2  -3 42666.4 971.274  72
  -1  -2  -3 42846.7 1032.58  64
   1   2   3 42766.9 987.806  56
  -1  -2  -3 41679.3 1011.04  55
   1   2   3 43223.4 927.514  49
   1   2   4 2013.14 158.146   1
   1   2   4 2326.03 174.127   9
   1   2   4 2177.16 263.915  17
   1   2   4 1443.13 129.760  90
  -1  -2  -4 1827.60 175.491  88
   1   2   4 1828.54 124.380  78
  -1  -2  -4 1782.50 154.339  72
   1   2   4 1550.37 112.085  29
   1   2   4 2047.81 165.430  20
   1   2   4 2180.33 221.416  25
   1   2   4 1375.47 138.676  32
  -1  -2  -4 2056.81 169.492  55
   1   2   4 1828.91 157.242  49
   1   2   5 28046.4 720.483   1
   1   2   5 27977.9 703.626   9
   1   2   5 29283.5 691.092  17
   1   2   5 23512.2 677.272  90
  -1  -2  -5 24732.8 737.916  85
  -1  -2  -5 24572.0 722.118  88
   1   2   5 26579.9 668.582  78
  -1  -2  -5 25904.1 742.591  41
  -1  -2  -5 25873.4 736.000  72
   1   2   5 33263.8 714.744  25
  -1  -2  -5 24060.0 696.258  55
  -1  -2  -6 12256.7 488.100  85
  -1  -2  -6 11712.2 441.483  88
   1   2   6 13458.3 418.630  78
  -1  -2  -6 13208.0 489.864  41
   1   2   6 12364.7 493.111  39
   1   2   6 13733.8 431.346  22
   1   2   6 14584.2 436.119  25
   1   2   6 13110.0 496.171  13
   1   2   6 12290.2 427.967   1
  -1  -2  -7 77382.8 1862.83  72
   1   2   7 75086.6 1819.33  71
   1   2   7 81078.6 1747.93  22
   1   2   7 79911.8 1708.45  25
  -1  -2  -7 70326.0 1845.61  41
   1   2   7 72857.2 1841.12  39
  -1  -2  -8 23885.9 826.147  85
   1   2   8 25165.5 712.866  78
  -1  -2  -8 22753.4 817.056  41
   1   2   8 23480.7 780.958  39
  -1  -2  -8 23463.4 807.590  72
   1   2   8 24871.0 706.857  22
   1   2   8 24204.2 836.438  53
   1   2   9 30085.5 857.803  78
  -1  -2  -9 27288.4 952.846  72
  -1  -2  -9 28301.1 980.047  85
  -1  -2  -9 28668.5 992.532  41
   1   2   9 31140.8 1000.31  53
   1   2   9 31345.3 1013.67  44
   1   2  10 7754.90 466.649  53
   1   2  10 7882.50 484.764  44
  -1  -2 -10 6801.04 446.883  72
  -1  -2 -10 6699.00 462.276  41
   1   2  10 7237.50 394.518  66
   1   2  10 7701.14 375.945  22
   1   2  11 28164.4 992.613  56
   1   2  11 30421.0 1057.88  44
   1   2  11 28648.7 1021.55  53
  -1  -2 -11 26959.2 1007.59  72
  -1  -2 -11 25626.0 1013.31  41
  -1  -2 -11 30899.3 1072.69  60
   1   2  11 26998.5 899.510  66
   1   2  11 28681.1 864.933  22
  -1  -2 -12 2829.75 332.268  72
   1   2  12 2692.00 269.568  66
   1   2  12 3123.45 321.993  56
   1   2  13 18411.9 799.927  46
  -1  -2 -13 14274.7 717.663  41
   1   2  13 17120.3 757.138  44
  -1  -2 -13 13768.4 686.726  84
  -1  -2 -13 16556.2 758.115  64
   1   2  13 13095.6 566.775  19
   1   2  14 15320.2 701.647  46
   1   2  14 12411.9 581.596  56
  -1  -2 -14 12252.4 633.415  41
   1   2  14 11407.3 532.026  66
  -1  -2 -14 14011.6 647.033  64
   1   2  14 10917.0 488.361  19
   1   2  15 2115.87 198.055  77
   1   2  15 2370.06 312.473  46
   1   2  15 1946.01 238.914  56
   1   2  15 1522.80 209.741  66
  -1  -2 -15 1907.13 254.084  64
   1   2  16 17727.6 647.837  46
   1   2  16 13561.3 525.409  56
   1   2  16 14252.6 455.426  77
  -1  -2 -16 16284.8 644.245  83
  -1  -2 -17 996.515 166.399  83
  -1  -3  18 584.846 140.238  90
  -1  -3  18 739.165 143.597  43
   1   3 -18 641.612 154.652  72
  -1  -3  17 6656.45 377.889  90
   1   3 -17 7034.52 443.396  85
  -1  -3  17 6302.86 342.275  56
  -1  -3  17 7101.43 393.606  71
   1   3 -17 6583.80 415.532  72
  -1  -3  16 1632.26 240.458  90
   1   3 -16 1465.62 263.012  85
   1   3 -16 1488.61 261.057  72
  -1  -3  16 1702.95 246.189  71
  -1  -3  15 12070.9 586.637  71
   1   3 -15 10491.6 618.581  72
   1   3 -14 5281.40 364.865  79
  -1  -3  14 5799.68 418.596  71
   1   3 -14 5316.47 450.514  72
   1   3 -14 5302.16 470.701  85
   1   3 -14 4662.00 292.755  50
   1   3 -13 8220.43 556.306  85
   1   3 -13 9074.83 484.755  79
   1   3 -13 8819.53 458.683  42
  -1  -3  13 8630.15 491.471  71
   1   3 -13 8290.77 560.904  72
   1   3 -13 9910.12 551.754  24
   1   3 -13 7195.18 383.436  50
   1   3 -12 6170.01 466.317  85
  -1  -3  12 5538.96 399.339  81
   1   3 -12 6250.43 382.487  42
  -1  -3  12 6054.31 399.363  71
   1   3 -12 5441.41 449.531  72
   1   3 -12 5579.91 335.241  50
   1   3 -12 6970.91 472.416  24
   1   3 -11 12675.1 585.275  13
   1   3 -11 12509.7 643.584  85
  -1  -3  11 11782.3 563.329  81
   1   3 -11 13796.0 664.523  37
   1   3 -11 12214.2 628.940  34
   1   3 -11 11862.6 633.619  72
  -1  -3  11 12505.8 553.696  71
   1   3 -11 12849.9 621.842  67
   1   3 -11 11169.1 480.341  50
   1   3 -10 21278.7 803.484  24
   1   3 -10 21111.3 774.459  13
   1   3 -10 22276.1 854.716  85
  -1  -3  10 20481.9 750.410  81
   1   3 -10 21692.2 815.132  34
   1   3 -10 23223.3 830.170  37
  -1  -3  10 21568.3 746.746  71
   1   3 -10 21017.8 847.273  72
   1   3 -10 23077.8 803.947  67
   1   3 -10 20902.7 677.394  50
   1   3 -10 21618.1 696.750  51
   1   3  -9 7628.26 391.458   7
  -1  -3   9 8025.31 404.702   2
   1   3  -9 8482.29 489.000  85
  -1  -3   9 8735.31 416.252  81
   1   3  -9 7890.82 465.962  37
   1   3  -9 8027.44 463.164  34
   1   3  -9 7851.80 376.033  38
  -1  -3   9 8265.42 357.720  36
  -1  -3   9 8316.22 409.867  71
   1   3  -9 9098.78 488.442  72
   1   3  -9 8448.52 459.374  67
   1   3  -9 7964.38 385.563  51
  -1  -3   8 96238.2 2100.16   2
   1   3  -8 86700.7 1901.42   8
   1   3  -8 86457.6 2139.60  85
  -1  -3   8 81318.1 2029.59  81
   1   3  -8 87283.5 2131.98  70
   1   3  -8 85200.0 1935.05  38
   1   3  -8 87312.0 2050.26  37
  -1  -3   8 87386.3 2007.04  36
   1   3  -8 83962.0 1940.88  51
   1   3  -8 94967.4 2069.86  26
   1   3  -7 10004.4 399.649  51
   1   3  -7 9975.55 394.304  38
  -1  -3   7 10730.8 433.275  36
   1   3  -7 9938.07 461.762  70
  -1  -3   7 9950.60 419.862   2
   1   3  -7 10402.8 441.745  16
   1   3  -7 10543.6 361.352   8
   1   3  -7 9826.68 411.257  21
   1   3  -7 10152.1 441.725  26
   1   3  -6 29745.2 806.376  21
   1   3  -6 29519.4 820.983  26
   1   3  -6 30372.0 724.228   8
   1   3  -6 29420.6 819.636   3
   1   3  -6 29207.1 822.536  16
  -1  -3   6 29301.0 813.615   2
   1   3  -6 29227.7 733.383  17
  -1  -3   6 29799.9 814.483  91
   1   3  -6 28123.9 751.851  80
   1   3  -6 31672.0 881.867  85
  -1  -3   6 28806.4 805.555  81
   1   3  -6 27955.5 748.768  38
  -1  -3   6 26899.0 740.938  63
   1   3  -6 29003.7 761.151  51
  -1  -3   6 30494.3 764.921  54
   1   3  -5 6371.60 292.496  17
  -1  -3   5 6223.81 296.372   2
   1   3  -5 6858.18 283.837   8
   1   3  -5 6314.66 324.070  16
  -1  -3   5 5997.12 298.360  91
  -1  -3   5 5471.40 281.196  81
   1   3  -5 6194.34 274.540  80
   1   3  -5 6390.50 314.127  85
   1   3  -5 5933.39 293.692  38
  -1  -3   5 7757.73 390.263  36
   1   3  -5 6175.60 314.111  70
  -1  -3   5 5327.30 195.864  76
  -1  -3   5 6493.62 296.561  61
   1   3  -5 6219.43 313.372  21
   1   3  -5 6459.84 276.653  23
   1   3  -4 17576.1 461.009  18
   1   3  -4 15684.9 466.062  23
   1   3  -4 14448.1 419.389  25
   1   3  -4 16052.8 432.975  31
   1   3  -4 14783.2 463.690  11
   1   3  -4 15701.3 411.586  17
  -1  -3   4 15218.2 509.577  91
   1   3  -4 17349.2 504.675  85
   1   3  -4 15500.7 431.485  80
  -1  -3   4 14751.9 469.308  81
  -1  -3   4 16735.0 547.660  36
  -1  -3   4 14255.2 397.840  76
   1   3  -4 16996.4 496.706  70
  -1  -3   4 16701.3 485.129  59
  -1  -3   4 16467.9 475.530  61
   1   3  -4 14375.9 436.131  51
   1   3  -3 48523.5 975.539  17
   1   3  -3 50235.6 1075.08  12
   1   3  -3 45419.7 1111.94  11
   1   3  -3 46160.8 1000.49  10
  -1  -3   3 48334.4 1110.93   1
  -1  -3   3 47339.1 1162.19  91
  -1  -3   3 46358.2 1079.39  81
   1   3  -3 43627.0 1013.18  38
  -1  -3   3 48756.4 1154.41  36
  -1  -3   3 44729.2 1034.71  76
   1   3  -3 48273.4 1093.73  70
  -1  -3   3 44273.6 1067.65  61
  -1  -3   3 47340.5 1112.27  59
   1   3  -3 51890.6 1090.27  18
   1   3  -3 43980.5 996.206  25
   1   3  -3 48815.1 1067.55  31
   1   3  -2 14904.8 415.625  12
   1   3  -2 13098.6 332.143   9
  -1  -3   2 14427.8 491.267  91
  -1  -3   2 14190.3 398.675  81
  -1  -3   2 15817.8 480.510  83
  -1  -3   2 13778.1 458.112  36
  -1  -3   2 13617.2 439.265  43
   1   3  -2 13729.8 404.401  70
  -1  -3   2 14564.1 395.463  76
  -1  -3   2 13501.5 440.471  60
  -1  -3   2 12773.0 388.069  58
  -1  -3   2 14126.3 387.665  61
   1   3  -2 15282.7 426.530  18
   1   3  -2 14147.2 389.773  27
   1   3  -1 12340.2 347.508  19
  -1  -3   1 12272.5 418.623  83
   1   3  -1 11170.6 318.434  77
  -1  -3   1 11656.8 383.007  43
  -1  -3   1 12372.1 420.676  36
   1   3  -1 12092.2 347.054  75
  -1  -3   1 11402.7 406.547  60
  -1  -3   1 12657.0 406.107  64
   1   3  -1 12050.4 349.352  56
  -1  -3   1 11491.3 349.049  58
   1   3  -1 11516.4 374.964   2
   1   3  -1 12167.4 321.939   9
   1   3   0 26069.6 606.073  19
   1   3   0 23256.1 524.473  22
   1   3   0 16378.8 513.613  33
   1   3   0 25317.9 567.523   9
   1   3   0 29841.9 588.547  14
   1   3   0 24309.8 503.189   8
   1   3   0 21350.9 527.482  89
  -1  -3   0 24138.0 634.145  88
  -1  -3   0 24304.9 664.752  83
  -1  -3   0 23817.7 582.797  82
  -1  -3   0 24731.5 672.006  36
  -1  -3   0 22105.8 606.812  43
  -1  -3   0 24757.5 660.833  74
   1   3   0 24084.1 578.911  75
  -1  -3   0 23792.2 532.292  62
  -1  -3   0 25302.1 685.532  60
  -1  -3   0 24279.0 638.466  64
   1   3   0 25190.7 528.635  50
   1   3   0 24790.5 595.554  56
   1   3   1 76993.7 1666.43  28
   1   3   1 94219.2 1689.67  22
   1   3   1 106160. 1709.35  14
   1   3   1 83437.1 1655.32  17
   1   3   1 101972. 1737.14   9
   1   3   1 83653.6 1649.10   5
   1   3   1 77771.2 1652.47   8
   1   3   1 78608.3 1666.01  89
  -1  -3  -1 94181.3 1802.33  88
  -1  -3  -1 93798.7 1846.63  83
  -1  -3  -1 92502.0 1748.89  82
  -1  -3  -1 86121.6 1755.10  43
  -1  -3  -1 89815.8 1830.70  36
   1   3   1 98123.3 1747.87  75
  -1  -3  -1 92439.7 1810.77  74
  -1  -3  -1 83033.7 1731.13  73
  -1  -3  -1 86135.1 1789.95  64
   1   3   1 95304.2 1767.64  56
  -1  -3  -1 96298.5 1870.13  55
   1   3   1 78612.8 1659.47  50
   1   3   2 2615.95 127.198  28
   1   3   2 4163.47 173.709  22
   1   3   2 4218.55 185.611  14
   1   3   2 4264.29 149.143   5
   1   3   2 4630.05 203.207   9
   1   3   2 4574.80 206.392  17
  -1  -3  -2 3630.67 218.802  88
  -1  -3  -2 3548.21 243.616  83
   1   3   2 3480.42 158.103  78
  -1  -3  -2 3851.94 198.777  84
   1   3   2 3012.33 116.845  42
  -1  -3  -2 3880.95 231.818  36
  -1  -3  -2 3674.28 212.758  74
  -1  -3  -2 3593.04 188.512  73
   1   3   2 3983.93 204.373  75
  -1  -3  -2 3514.11 225.083  64
  -1  -3  -2 3778.28 237.257  55
   1   3   2 3872.32 213.531  56
   1   3   3 130013. 2419.09  25
   1   3   3 114809. 2437.30  22
  -1  -3  -3 108612. 2496.82  88
   1   3   3 107559. 2427.46  78
  -1  -3  -3 113836. 2497.75  84
   1   3   3 124614. 2469.96   9
   1   3   3 122421. 2400.30  17
  -1  -3  -3 107047. 2535.06  36
  -1  -3  -3 103973. 2512.89  64
   1   3   3 113848. 2519.10  56
   1   3   3 122107. 2461.88  49
  -1  -3  -3 108583. 2530.53  55
  -1  -3  -4 26794.3 757.484  88
  -1  -3  -4 26665.5 770.424  84
   1   3   4 26522.1 702.937  78
   1   3   4 30491.0 745.693   9
  -1  -3  -4 27404.0 776.611  41
  -1  -3  -4 25652.0 761.912  55
   1   3   4 27747.3 775.954  20
   1   3   4 32410.2 692.902  25
   1   3   4 28663.8 713.075  22
   1   3   5 19969.8 542.988  22
   1   3   5 18326.4 491.045  25
  -1  -3  -5 17343.6 559.898  88
   1   3   5 19268.3 539.378  78
  -1  -3  -5 18865.9 604.869  84
  -1  -3  -5 18395.6 601.609  41
  -1  -3  -5 17234.8 613.626  64
  -1  -3  -5 17098.4 550.473  55
   1   3   5 17660.1 606.615  56
   1   3   6 12309.4 505.192  56
  -1  -3  -6 12969.8 505.323  72
  -1  -3  -6 12069.4 496.611  41
   1   3   6 12998.3 549.300  39
  -1  -3  -6 12939.1 528.013  64
   1   3   6 13404.8 440.306  22
   1   3   7 24641.1 826.146  56
  -1  -3  -7 26179.0 837.987  72
  -1  -3  -7 25028.3 834.566  41
   1   3   7 26229.9 875.452  39
  -1  -3  -7 26099.0 856.138  64
   1   3   7 26166.8 732.372  22
  -1  -3  -8 29779.9 971.159  72
   1   3   8 31300.2 995.991  39
  -1  -3  -8 28230.7 973.899  41
  -1  -3  -8 31620.6 1006.10  64
   1   3   8 31981.5 1046.58  53
   1   3   8 29011.7 956.404  56
   1   3   9 8812.23 481.578  56
   1   3   9 9017.98 517.440  53
  -1  -3  -9 8319.15 495.379  41
  -1  -3  -9 7685.88 462.577  72
  -1  -3  -9 8786.54 502.762  64
   1   3   9 8041.56 401.788  66
   1   3   9 8302.15 386.897  22
  -1  -3 -10 43004.3 1350.92  84
  -1  -3 -10 43209.7 1380.12  41
   1   3  10 40768.0 1205.65  66
  -1  -3 -10 43317.2 1356.07  64
   1   3  10 48940.9 1427.38  44
   1   3  10 46745.9 1406.17  53
   1   3  10 46889.1 1352.53  56
  -1  -3 -10 41392.7 1328.77  72
  -1  -3 -11-53.3229 189.014  84
  -1  -3 -11 61.2103 216.167  60
  -1  -3 -11 10.3642 207.340  64
   1   3  11 15.0159 133.559  66
   1   3  11-78.1829 178.687  53
   1   3  11 9.53069 172.630  56
   1   3  12 1002.87 185.581  19
  -1  -3 -12 1017.77 256.486  41
   1   3  12 1145.49 270.351  44
   1   3  13 1209.06 294.069  46
   1   3  13 995.082 223.051  56
  -1  -3 -13 886.286 233.807  41
   1   3  13 1159.25 265.585  44
   1   3  13 797.434 175.991  66
   1   3  13 876.129 174.048  19
  -1  -3 -14 12176.7 630.895  83
   1   3  14 12415.3 469.658  77
   1   3  14 9908.28 477.506  66
  -1  -3 -14 10020.4 555.394  41
   1   3  14 13734.2 633.598  46
   1   3  14 10861.8 520.039  56
   1   3  15 7683.42 434.429  46
   1   3  15 6091.87 349.781  56
   1   3  15 6532.41 301.508  77
  -1  -3 -15 7523.69 447.621  83
   1   3  16 4842.11 260.876  56
   1   3  16 4380.79 195.849  77
   1   4 -18 7419.53 377.169  72
  -1  -4  18 7826.58 350.305  90
   1   4 -18 7040.88 382.697  85
   1   4 -17 2864.59 287.848  72
  -1  -4  17 3206.43 273.090  71
   1   4 -17 3033.39 297.004  85
  -1  -4  17 3455.17 282.592  90
  -1  -4  16 11640.9 539.337  71
   1   4 -16 10327.1 568.060  72
   1   4 -16 10302.7 578.908  85
  -1  -4  15 3588.53 327.708  71
   1   4 -15 3366.14 365.920  72
   1   4 -15 3714.33 287.887  79
   1   4 -14 23636.7 807.346  79
   1   4 -14 25332.1 869.626  42
  -1  -4  14 24694.0 896.195  71
   1   4 -14 22627.9 964.246  72
   1   4 -14 23650.4 985.944  85
   1   4 -13 5722.77 413.835  79
  -1  -4  13 4945.01 387.393  81
   1   4 -13 6468.71 520.031  34
  -1  -4  13 4886.99 379.222  71
   1   4 -13 5373.53 448.084  72
   1   4 -13 5035.25 445.486  85
   1   4 -13 6732.35 467.201  24
   1   4 -12 8681.30 521.467  24
   1   4 -12 7733.06 478.511  13
   1   4 -12 7663.94 519.674  85
  -1  -4  12 7864.53 479.871  81
   1   4 -12 8059.42 451.833  42
   1   4 -12 9042.27 596.979  37
  -1  -4  12 7818.09 459.787  71
   1   4 -12 7929.78 531.589  72
   1   4 -12 9497.38 579.689  67
   1   4 -12 6800.21 379.803  50
   1   4 -11 11070.1 541.228  13
   1   4 -11 10061.8 584.874  85
  -1  -4  11 9376.64 513.952  81
   1   4 -11 11784.6 636.014  37
   1   4 -11 11079.2 599.937  34
   1   4 -11 9677.95 569.493  72
  -1  -4  11 9509.07 500.689  71
   1   4 -11 10349.8 591.651  67
   1   4 -11 9948.93 445.131  50
   1   4 -10 17290.6 583.506  14
   1   4 -10 19922.9 737.446  13
  -1  -4  10 21130.0 725.188   2
   1   4 -10 19394.4 807.013  85
  -1  -4  10 19929.3 729.574  81
   1   4 -10 20708.0 792.093  37
  -1  -4  10 20189.2 668.624  36
   1   4 -10 20680.9 784.688  34
  -1  -4  10 20333.7 725.004  71
   1   4 -10 18480.0 792.267  72
   1   4 -10 20684.2 780.278  67
   1   4 -10 18875.9 641.569  50
   1   4  -9 7277.84 426.527  26
   1   4  -9 6161.37 348.572   7
   1   4  -9 6094.21 372.697  13
  -1  -4   9 7281.67 393.754   2
   1   4  -9 6715.78 435.140  85
  -1  -4   9 6281.63 369.493  81
  -1  -4   9 7345.92 365.437  36
   1   4  -9 6588.98 441.819  37
   1   4  -9 6699.33 427.396  70
   1   4  -9 6905.93 442.215  67
   1   4  -9 6073.23 327.285  50
   1   4  -8 30043.8 919.988   7
   1   4  -8 31027.6 840.788   5
  -1  -4   8 35973.1 995.431   2
   1   4  -8 35482.8 1053.11  85
   1   4  -8 31837.5 891.633  80
  -1  -4   8 32570.7 964.054  81
  -1  -4   8 36052.2 1000.33  36
   1   4  -8 35128.9 1040.78  70
   1   4  -8 33877.9 886.531  50
   1   4  -8 30575.8 847.760  51
   1   4  -8 35909.0 986.975  26
   1   4  -7 21060.2 611.227  50
   1   4  -7 19284.7 578.373  51
  -1  -4   7 19925.8 672.758  81
  -1  -4   7 24100.6 824.729  36
   1   4  -7 22138.8 729.285  70
   1   4  -7 21578.4 685.488   3
  -1  -4   7 21091.9 685.899   2
   1   4  -7 21830.3 696.139  16
   1   4  -7 18096.9 585.717  14
   1   4  -7 21158.1 690.161  26
   1   4  -7 21697.1 672.704  21
   1   4  -6 7281.96 382.071  26
   1   4  -6 8113.33 380.746  21
  -1  -4   6 7063.37 337.879  91
   1   4  -6 6799.21 325.935  80
   1   4  -6 7002.82 360.837  85
   1   4  -6 7477.66 359.105   3
  -1  -4   6 7504.59 362.081   2
   1   4  -6 7675.92 385.610  16
   1   4  -6 7179.20 317.225  14
  -1  -4   6 7565.69 355.106  61
   1   4  -6 7816.35 318.147  50
   1   4  -6 6930.99 298.473  51
   1   4  -5 29249.7 824.647  16
   1   4  -5 26149.9 744.810  11
   1   4  -5 29723.6 821.180   3
  -1  -4   5 27495.8 818.645  91
   1   4  -5 30829.3 838.527  85
   1   4  -5 29166.4 748.362  80
  -1  -4   5 27578.2 801.417  81
   1   4  -5 26911.5 696.004  38
  -1  -4   5 36387.3 1038.30  36
   1   4  -5 31425.1 753.629  50
   1   4  -5 31338.5 804.147  23
   1   4  -5 30277.5 823.601  21
   1   4  -4 23136.2 661.636  23
   1   4  -4 25707.7 655.163  18
   1   4  -4 24275.0 628.536  31
   1   4  -4 20187.3 631.215  11
  -1  -4   4 26048.6 722.911   1
  -1  -4   4 22598.2 712.319  91
  -1  -4   4 22687.0 658.376  81
   1   4  -4 22358.4 666.559  85
   1   4  -4 22748.5 610.658  80
  -1  -4   4 25629.9 767.561  36
   1   4  -4 23454.4 667.690  70
  -1  -4   4 23258.4 650.099  59
  -1  -4   4 21854.4 641.376  61
   1   4  -4 23635.5 601.374  50
   1   4  -4 21197.5 552.622  51
   1   4  -3 82846.6 1763.11  12
  -1  -4   3 90642.8 1941.54   1
   1   4  -3 76597.0 1678.44  10
   1   4  -3 84995.3 1732.43  14
  -1  -4   3 77415.2 1854.82  91
  -1  -4   3 77793.1 1756.39  81
  -1  -4   3 83037.1 1858.20  36
   1   4  -3 77666.9 1764.66  70
  -1  -4   3 74531.2 1731.15  61
  -1  -4   3 73994.1 1696.33  58
   1   4  -3 81782.1 1755.92  31
   1   4  -3 75113.3 1708.83  27
   1   4  -3 82945.6 1770.69  18
   1   4  -2 581.534 155.810  14
   1   4  -2 434.375 128.655  12
   1   4  -2 544.395 131.877  18
  -1  -4   2 538.286 162.478   1
   1   4  -2 563.387 106.589  50
  -1  -4   2 521.840 154.294  83
  -1  -4   2 450.306 125.621  81
  -1  -4   2 541.069 149.410  36
  -1  -4   2 457.904 116.933  43
  -1  -4   2 510.990 98.2483  58
  -1  -4   2 423.844 141.974  60
   1   4  -2 453.358 114.544  30
   1   4  -2 540.063 117.294  27
   1   4  -1 95189.0 1990.19  30
   1   4  -1 97625.8 1978.38  19
   1   4  -1 95026.7 2023.98  12
  -1  -4   1 86745.0 2060.45   1
   1   4  -1 94620.2 2013.72   2
   1   4  -1 103310. 1959.83  14
   1   4  -1 81459.6 1915.59  89
  -1  -4   1 93799.3 1992.49  82
   1   4  -1 86334.8 1944.60  77
  -1  -4   1 88436.0 2035.50  83
  -1  -4   1 82555.1 1974.36  43
  -1  -4   1 93266.5 2085.52  36
   1   4  -1 89961.6 1977.06  75
   1   4  -1 89257.7 1983.49  56
  -1  -4   1 90259.8 1928.36  62
  -1  -4   1 88847.2 2056.75  60
   1   4  -1 98062.3 1917.91  50
   1   4   0 88423.9 1770.14  19
   1   4   0 82012.2 1779.10   2
   1   4   0 78796.3 1607.82   5
   1   4   0 87474.0 1717.81  14
   1   4   0 70626.3 1674.63  89
  -1  -4   0 76353.6 1804.62  83
  -1  -4   0 80871.0 1754.27  82
   1   4   0 78887.1 1708.32  77
  -1  -4   0 81078.5 1850.51  36
  -1  -4   0 75813.9 1730.22  43
  -1  -4   0 80555.9 1813.71  74
   1   4   0 80976.6 1746.24  75
  -1  -4   0 74941.8 1762.41  64
  -1  -4   0 79326.4 1684.09  62
   1   4   0 83588.3 1766.37  56
   1   4   1 73705.4 1616.66   2
   1   4   1 77839.3 1546.44  14
   1   4   1 77360.4 1621.62  56
  -1  -4  -1 73369.9 1666.54  83
  -1  -4  -1 74036.3 1601.89  82
   1   4   1 63672.9 1489.37  42
  -1  -4  -1 71232.3 1666.19  36
  -1  -4  -1 70571.8 1621.46  74
  -1  -4  -1 66162.0 1534.08  73
   1   4   1 77025.8 1599.33  75
  -1  -4  -1 64646.7 1512.02  62
  -1  -4  -1 69721.6 1602.85  64
   1   4   1 69369.7 1500.30  22
   1   4   1 77593.5 1618.18  19
   1   4   2 33128.5 890.574   2
   1   4   2 35342.2 919.938  56
  -1  -4  -2 37077.9 913.544  82
  -1  -4  -2 35212.9 955.671  83
  -1  -4  -2 33576.7 940.183  36
  -1  -4  -2 35154.5 895.550  74
   1   4   2 36904.0 903.837  75
  -1  -4  -2 33163.7 892.423  64
   1   4   2 33931.2 813.989  22
   1   4   2 36149.9 909.974  19
   1   4   3 2165.52 188.848   2
  -1  -4  -3 3028.03 217.842  88
  -1  -4  -3 2672.47 247.592  83
  -1  -4  -3 2681.42 207.030  84
  -1  -4  -3 2623.49 207.178  41
  -1  -4  -3 2195.86 203.124  36
   1   4   3 2727.91 217.142  75
   1   4   3 2817.64 200.365  49
   1   4   3 2480.08 163.929  22
   1   4   4 20788.1 589.189  22
  -1  -4  -4 23237.3 666.987  88
  -1  -4  -4 22027.3 672.768  84
  -1  -4  -4 22033.7 685.111  41
  -1  -4  -4 19680.9 654.441  64
   1   4   4 22128.9 668.349  49
   1   4   4 21120.0 685.604  56
   1   4   5 1784.29 209.023  56
  -1  -4  -5 1674.86 192.598  41
   1   4   5 1564.47 198.586  75
  -1  -4  -5 1804.31 202.768  64
   1   4   5 1676.22 158.719  22
   1   4   6 39205.1 1128.76  56
  -1  -4  -6 40942.8 1140.76  41
   1   4   6 41403.3 1221.84  39
  -1  -4  -6 40138.6 1125.77  84
  -1  -4  -6 38581.4 1101.56  64
   1   4   6 36940.3 1009.51  66
   1   4   6 40496.8 1014.39  22
   1   4   7 5523.41 366.707  56
  -1  -4  -7 5272.88 357.650  41
   1   4   7 5912.93 407.067  39
  -1  -4  -7 5356.68 360.517  84
  -1  -4  -7 5607.56 359.636  64
   1   4   7 4935.93 284.050  66
   1   4   7 5306.55 287.515  22
   1   4   8 20848.5 821.966  39
  -1  -4  -8 19588.0 789.608  41
  -1  -4  -8 21733.9 798.774  84
  -1  -4  -8 21260.1 773.707  64
   1   4   8 19179.2 668.989  66
   1   4   8 20774.1 852.993  53
   1   4   8 20599.4 784.666  56
   1   4   9 1828.08 288.196  53
   1   4   9 1594.86 255.614  56
  -1  -4  -9 1467.86 260.567  41
   1   4   9 1502.81 245.686  39
  -1  -4  -9 1676.08 260.301  84
   1   4   9 1530.74 192.382  66
   1   4   9 1428.97 207.524  19
   1   4  10 6288.88 457.783  44
   1   4  10 6036.65 423.339  56
   1   4  10 6452.82 468.656  53
  -1  -4 -10 5662.44 443.219  41
  -1  -4 -10 5146.50 408.880  84
   1   4  10 5401.49 341.825  66
   1   4  10 5401.30 365.704  19
   1   4  11 2273.03 309.918  53
   1   4  11 2010.25 308.941  44
   1   4  11 1315.33 253.783  56
  -1  -4 -11 1835.00 327.535  60
   1   4  11 1583.14 211.606  66
   1   4  11 2028.60 236.684  19
  -1  -4 -11 1497.07 279.902  41
   1   4  12 462.316 197.753  56
  -1  -4 -12 686.165 215.103  41
   1   4  12 443.447 213.472  44
  -1  -4 -12 540.916 234.773  60
   1   4  12 504.597 155.438  66
   1   4  12 455.661 151.571  19
   1   4  13 14154.5 604.516  56
   1   4  13 16546.1 718.146  46
  -1  -4 -13 13429.1 650.025  41
   1   4  13 15200.0 686.910  44
  -1  -4 -13 14795.4 706.880  83
   1   4  13 15047.0 544.260  77
  -1  -4 -13 14986.8 669.292  60
   1   4  13 12466.5 529.957  30
  -1  -4 -14-32.5875 132.104  41
   1   4  14-16.1534 190.864  46
   1   4  14 32.9805 134.240  56
   1   4  14 48.7773 117.743  77
  -1  -4 -14 124.747 185.371  83
   1   4  15 6978.20 335.218  56
  -1  -4 -15 7643.98 401.609  83
   1   4  15 7386.18 286.713  77
  -1  -5  18 8456.76 359.126  90
   1   5 -18 7940.18 384.897  85
   1   5 -18 7975.08 374.755  72
  -1  -5  18 7906.89 345.655  71
  -1  -5  17-12.4679 126.169  71
   1   5 -17 115.914 136.973  72
  -1  -5  17 260.456 129.439  43
   1   5 -17 71.9249 143.736  85
  -1  -5  17 39.5901 132.399  90
   1   5 -16 5795.91 426.779  85
  -1  -5  16 6505.44 393.918  71
   1   5 -16 6093.56 419.451  72
  -1  -5  15 13136.4 590.188  71
   1   5 -15 12227.5 644.805  72
   1   5 -15 12196.8 645.052  85
   1   5 -15 12324.5 493.162  79
   1   5 -14 698.010 218.579  42
   1   5 -14 844.391 347.560  34
   1   5 -14 786.721 250.379  24
  -1  -5  14 766.036 216.581  81
   1   5 -14 549.115 241.763  79
   1   5 -14 545.614 226.389  85
  -1  -5  13 2490.09 301.505  81
   1   5 -13 3389.15 429.874  34
  -1  -5  13 2833.97 301.293  71
   1   5 -13 2675.22 343.224  72
   1   5 -13 2763.22 349.508  85
   1   5 -13 3410.11 371.288  24
   1   5 -12 8386.17 534.937  24
   1   5 -12 8320.19 545.840  85
  -1  -5  12 8764.70 500.867  81
   1   5 -12 9000.44 493.419  42
   1   5 -12 9333.74 587.104  34
  -1  -5  12 9117.16 494.163  71
   1   5 -12 8478.61 552.775  72
   1   5 -12 10047.0 609.455  67
   1   5 -12 7694.76 407.366  50
   1   5 -11 23160.8 861.450  13
   1   5 -11 24718.9 971.473  85
  -1  -5  11 24435.1 884.986  81
   1   5 -11 26128.5 892.256  42
   1   5 -11 25623.0 949.349  34
   1   5 -11 27032.0 976.523  37
  -1  -5  11 24810.2 872.756  71
   1   5 -11 23884.5 963.787  72
   1   5 -11 27696.7 966.273  67
   1   5 -11 23380.4 773.859  50
   1   5 -10 1476.04 206.134  50
  -1  -5  10 1620.86 232.383  81
   1   5 -10 1446.09 269.355  85
   1   5 -10 1777.43 244.896  42
   1   5 -10 1578.50 359.377  37
  -1  -5  10 2001.91 225.420  36
   1   5 -10 1651.53 279.671  70
   1   5 -10 1733.03 369.044  67
   1   5 -10 1659.91 231.906  14
   1   5 -10 1428.06 238.260  13
   1   5  -9 34720.2 958.809  14
   1   5  -9 32401.8 1009.12   7
  -1  -5   9 38688.5 1115.58   2
   1   5  -9 36067.2 1154.40  85
   1   5  -9 35142.0 1009.51  80
  -1  -5   9 36383.3 1092.14  81
   1   5  -9 39362.6 1132.46  37
  -1  -5   9 38305.1 1100.11  36
   1   5  -9 35547.1 1148.39  70
   1   5  -9 33395.2 972.755  50
   1   5  -9 42446.4 1147.29  26
   1   5  -8 9969.30 402.039  50
  -1  -5   8 8876.43 449.584  81
   1   5  -8 9258.37 419.360  80
   1   5  -8 9354.12 495.612  85
  -1  -5   8 10240.1 502.113  36
   1   5  -8 10173.2 500.028  70
   1   5  -8 10000.5 485.415  26
   1   5  -8 9826.26 460.502  21
  -1  -5   8 9661.11 464.073   2
   1   5  -8 9544.03 482.327  16
   1   5  -8 9051.63 388.689  14
   1   5  -7 7695.52 391.533   3
   1   5  -7 7277.79 328.982  50
   1   5  -7 7150.62 348.912  80
   1   5  -7 7243.54 407.836  85
  -1  -5   7 6256.34 368.657  81
  -1  -5   7 8840.34 487.813  36
   1   5  -7 7390.17 404.224  70
  -1  -5   7 7871.11 386.569  61
   1   5  -7 7493.95 390.943  21
   1   5  -7 7270.43 408.504  26
  -1  -5   6 23262.2 681.016   1
   1   5  -6 23758.3 745.410   3
   1   5  -6 23476.7 751.357  16
   1   5  -6 23722.4 662.624  50
  -1  -5   6 19611.8 710.376  81
  -1  -5   6 27599.1 933.335  36
   1   5  -6 23008.9 742.000  70
  -1  -5   6 22982.1 726.658  61
   1   5  -6 24372.1 732.610  23
   1   5  -6 24323.5 751.387  21
   1   5  -5 5364.01 283.919  14
  -1  -5   5 5755.65 326.479   1
   1   5  -5 4723.20 302.100   3
   1   5  -5 5107.83 335.368  16
  -1  -5   5 5301.90 319.813  91
  -1  -5   5 5455.23 313.449  43
  -1  -5   5 5497.83 363.165  36
   1   5  -5 5533.54 309.813  70
   1   5  -5 5646.51 259.219  50
   1   5  -5 5057.75 301.243  23
   1   5  -5 5839.67 335.588  21
   1   5  -4 41808.3 1006.50  18
   1   5  -4 38513.6 1019.19  23
   1   5  -4 40947.6 986.805  31
   1   5  -4 38232.1 936.016  14
   1   5  -4 31037.5 958.790  11
  -1  -5   4 49806.1 1469.73   1
  -1  -5   4 35937.6 1058.81  91
  -1  -5   4 36926.9 996.932  81
  -1  -5   4 38678.0 1087.65  36
  -1  -5   4 36318.6 1001.37  43
  -1  -5   4 35215.4 969.683  59
   1   5  -4 40523.2 925.650  50
   1   5  -3 413.562 127.983  31
   1   5  -3 357.332 129.820  18
   1   5  -3 333.242 112.634  27
   1   5  -3 464.842 167.126  14
  -1  -5   3 253.626 229.663   1
   1   5  -3 364.916 125.051  10
  -1  -5   3 466.158 189.081  91
  -1  -5   3 363.775 137.287  81
  -1  -5   3 417.308 156.460  36
   1   5  -3 253.838 136.030  70
  -1  -5   3 375.509 133.805  61
  -1  -5   3 301.591 128.388  60
   1   5  -3 436.913 116.734  50
   1   5  -2 42275.1 959.456  14
   1   5  -2 40301.6 1008.30  12
  -1  -5   2 39256.9 1096.61   1
   1   5  -2 37981.8 906.510  50
  -1  -5   2 38019.9 1013.95  83
  -1  -5   2 37107.3 976.990  81
  -1  -5   2 37817.7 1066.25  36
  -1  -5   2 37392.7 936.432  62
   1   5  -2 38000.7 995.467  31
   1   5  -2 38899.9 998.379  18
   1   5  -2 39330.3 976.368  27
   1   5  -2 36230.1 944.883  30
   1   5  -1 1437.72 166.588  30
   1   5  -1 1459.93 172.832  27
   1   5  -1 1452.76 172.140  18
  -1  -5   1 1368.55 183.602  83
  -1  -5   1 1389.28 159.696  82
   1   5  -1 1385.48 169.336  77
   1   5  -1 1469.92 144.142  42
  -1  -5   1 1182.74 126.293  43
  -1  -5   1 1177.68 182.311  36
   1   5  -1 1389.33 163.253  75
  -1  -5   1 1416.86 129.551  62
   1   5  -1 1550.36 189.624  14
   1   5  -1 1251.17 173.750  12
  -1  -5   1 1227.19 199.289   1
   1   5   0 30538.9 809.657  30
   1   5   0 31301.9 803.497  19
  -1  -5   0 27892.0 821.636  83
  -1  -5   0 29860.0 805.323  82
   1   5   0 31433.9 777.308  77
  -1  -5   0 29434.1 875.214  36
  -1  -5   0 29386.7 831.958  74
  -1  -5   0 26120.9 712.527  73
   1   5   0 30151.6 798.431  75
  -1  -5   0 29980.6 902.630  60
  -1  -5   0 29241.9 729.259  62
   1   5   0 29373.0 752.554  14
   1   5   0 29367.5 835.798  12
   1   5   0 29395.4 804.123   2
  -1  -5  -1 66.2316 138.396  83
  -1  -5  -1 87.8520 103.191  82
  -1  -5  -1 202.862 122.859  36
   1   5   1 47.1917 109.541  75
  -1  -5  -1 198.441 114.946  74
   1   5   1 217.367 116.878   2
   1   5   1 184.753 120.066  19
   1   5   1 154.314 129.047  30
  -1  -5  -2 24679.3 781.257  55
   1   5   2 27064.9 704.125  49
   1   5   2 24262.9 737.321  56
  -1  -5  -2 23087.0 707.815  82
  -1  -5  -2 22068.7 666.541  74
   1   5   2 24706.9 723.875  19
   1   5   2 22738.3 686.402   2
  -1  -5  -2 22100.2 739.694  36
   1   5   3 10186.8 400.570   2
  -1  -5  -3 9985.35 450.779  55
   1   5   3 10706.0 422.352  49
   1   5   3 10422.7 450.043  56
  -1  -5  -3 10402.1 443.712  41
  -1  -5  -3 9559.02 434.860  36
   1   5   3 10687.8 432.556  75
  -1  -5  -3 8797.87 380.477  64
   1   5   3 11268.2 446.119  19
  -1  -5  -4 24628.7 797.626  55
   1   5   4 28989.8 846.409  49
   1   5   4 26662.5 833.150  56
  -1  -5  -4 24649.8 831.335  83
  -1  -5  -4 26895.4 829.518  41
   1   5   4 26805.8 818.367  75
   1   5   4 24116.8 742.007   2
   1   5   4 26603.4 809.700  19
  -1  -5  -5 32692.8 1033.46  83
  -1  -5  -5 35515.7 1010.53  84
  -1  -5  -5 35157.7 1027.00  41
   1   5   5 33980.5 1007.41  75
   1   5   5 31117.3 906.966   2
   1   5   5 33446.3 1012.12  56
   1   5   6 14114.3 597.652  56
  -1  -5  -6 14169.4 634.167  83
  -1  -5  -6 14681.3 599.070  84
  -1  -5  -6 14411.4 605.677  41
   1   5   6 15312.2 691.375  39
   1   5   6 13860.0 585.096  75
   1   5   6 13044.3 498.385   2
   1   5   6 13790.4 570.902  19
  -1  -5  -7 44431.6 1370.95  83
  -1  -5  -7 46363.7 1320.72  84
  -1  -5  -7 45206.9 1340.03  41
   1   5   7 48642.5 1446.15  39
   1   5   7 45097.7 1319.54  56
   1   5   7 46695.5 1287.13  19
  -1  -5  -8 624.796 236.824  83
   1   5   8 701.580 216.726  39
  -1  -5  -8 844.386 214.024  41
   1   5   8 752.074 202.343  75
   1   5   8 617.262 238.753  53
   1   5   8 550.699 200.450  56
   1   5   8 773.978 183.729  19
   1   5   9 11964.5 619.995  39
  -1  -5  -9 10781.7 598.430  41
   1   5   9 11419.4 635.064  53
   1   5   9 11491.4 577.752  56
   1   5   9 10754.1 522.693  19
   1   5   9 11088.2 504.956  77
  -1  -5  -9 10217.1 605.315  83
   1   5  10 11922.8 514.521  77
  -1  -5 -10 10232.6 615.715  83
   1   5  10 11443.5 583.124  56
   1   5  10 11848.6 644.222  53
   1   5  10 12092.0 639.583  44
  -1  -5 -10 11906.4 699.574  60
   1   5  10 10855.6 519.397  19
  -1  -5 -10 10076.1 596.429  41
   1   5  11 16906.2 762.537  53
   1   5  11 15286.2 663.629  56
   1   5  11 16274.5 741.128  44
  -1  -5 -11 14431.5 708.358  41
  -1  -5 -11 16337.0 794.931  60
   1   5  11 14733.4 611.687  19
  -1  -5 -12 8870.24 528.031  83
   1   5  12 9352.25 423.867  77
   1   5  12 9335.32 479.450  56
  -1  -5 -12 9278.72 524.374  41
   1   5  12 9259.35 527.707  44
  -1  -5 -12 9242.39 554.376  60
   1   5  12 8074.16 415.251  19
   1   5  12 8495.74 423.281  30
  -1  -5 -13 9948.92 518.404  83
   1   5  13 10133.0 403.582  77
   1   5  13 12062.2 548.448  46
   1   5  13 10093.8 458.229  56
  -1  -5 -13 8713.21 478.329  41
   1   5  13 10341.3 516.178  44
  -1  -5 -13 9856.28 512.388  60
   1   5  13 8790.45 404.742  30
   1   5  13 7740.86 379.898  27
   1   5  14 2820.62 263.368  46
   1   5  14 2302.59 203.948  56
  -1  -5 -14 1892.35 232.358  83
   1   5  14 2537.86 181.571  77
  -1  -5 -14 1850.94 211.455  41
  -1  -6  18 456.734 107.693  90
   1   6 -18 287.002 110.807  85
  -1  -6  17 4582.48 286.816  71
   1   6 -17 4305.31 305.056  72
   1   6 -17 4040.93 306.936  85
   1   6 -16-53.1077 144.791  72
  -1  -6  16 103.919 124.535  74
  -1  -6  16 20.7307 134.990  71
  -1  -6  16 32.5107 122.735  43
   1   6 -16 26.8196 151.241  85
  -1  -6  15 15160.3 622.318  71
   1   6 -15 14325.5 675.155  72
   1   6 -15 15177.6 694.602  85
   1   6 -15 14041.4 516.693  79
   1   6 -14 8588.02 551.790  34
   1   6 -14 7936.16 470.279  42
  -1  -6  14 6036.35 409.304  71
   1   6 -14 5868.76 448.799  72
  -1  -6  13 1701.29 256.513  71
   1   6 -13 1526.69 290.564  72
   1   6 -13 1591.90 264.150  42
   1   6 -13 1454.31 275.369  85
  -1  -6  13 1477.00 256.266  81
   1   6 -13 1645.85 298.619  24
   1   6 -13 2066.77 382.856  34
   1   6 -12 6539.13 493.499  85
  -1  -6  12 6160.05 425.013  81
   1   6 -12 7196.03 538.291  34
   1   6 -12 7675.44 575.549  37
  -1  -6  12 6504.63 432.007  71
   1   6 -12 5857.32 461.512  72
   1   6 -12 7424.23 562.257  67
   1   6 -12 5969.61 460.434  24
   1   6 -11 17302.4 785.320  85
  -1  -6  11 16676.8 712.970  81
   1   6 -11 17168.8 711.954  42
   1   6 -11 18478.9 808.624  67
   1   6 -11 15983.7 613.319  50
   1   6 -10 32618.5 986.297  14
   1   6 -10 32569.8 1077.61  13
   1   6 -10 34448.6 1197.46  85
  -1  -6  10 35656.8 1126.49  81
   1   6 -10 41919.2 1218.12  37
  -1  -6  10 37977.9 1137.89  36
   1   6 -10 37896.1 1137.17  42
   1   6 -10 34861.6 1187.64  70
   1   6 -10 40476.7 1207.33  67
   1   6 -10 34326.4 1007.79  50
  -1  -6   9 3478.66 322.889  81
   1   6  -9 3493.99 316.681  80
   1   6  -9 3357.62 333.322  85
   1   6  -9 3711.36 316.040  42
  -1  -6   9 3381.93 304.002  36
   1   6  -9 3417.43 351.763  70
   1   6  -9 3194.95 265.650  50
   1   6  -9 2801.83 279.312  14
   1   6  -8 37747.6 1078.60  14
   1   6  -8 46342.7 1236.72  16
   1   6  -8 38425.8 1075.91  50
  -1  -6   8 37807.9 1176.40  81
   1   6  -8 40596.7 1109.57  80
   1   6  -8 40806.8 1241.31  85
  -1  -6   8 45100.7 1287.53  36
   1   6  -8 41819.7 1185.54  42
   1   6  -8 39740.2 1231.17  70
  -1  -6   8 42616.4 1188.44  61
   1   6  -8 45000.5 1221.68  26
   1   6  -7 767.962 188.374   3
   1   6  -7 1009.21 205.527  14
   1   6  -7 960.122 252.763  16
   1   6  -7 1047.95 166.133  50
   1   6  -7 742.067 190.294  85
  -1  -6   7 916.722 193.030  81
   1   6  -7 1023.08 212.879  80
   1   6  -7 1157.76 198.106  42
  -1  -6   7 944.400 216.878  36
  -1  -6   7 1219.57 194.352  43
   1   6  -7 845.458 191.875  70
  -1  -6   7 746.980 173.883  61
   1   6  -7 746.975 210.300  21
   1   6  -7 1033.98 256.683  26
   1   6  -6 16233.1 566.117  14
  -1  -6   6 17060.5 598.055   1
   1   6  -6 16834.0 624.004   3
   1   6  -6 17370.6 551.280  50
   1   6  -6 16531.5 568.577  80
   1   6  -6 16196.4 634.374  85
  -1  -6   6 16273.0 627.432  81
  -1  -6   6 18417.6 729.309  36
  -1  -6   6 17283.4 632.908  43
   1   6  -6 17060.9 635.162  70
  -1  -6   6 16109.4 603.768  61
   1   6  -6 17528.4 633.348  23
   1   6  -6 17596.5 639.866  21
   1   6  -5 692.317 184.937  14
  -1  -6   5 677.572 167.020   1
   1   6  -5 652.336 179.807   3
   1   6  -5 778.446 141.031  50
   1   6  -5 708.712 162.413  85
  -1  -6   5 676.922 170.833  81
   1   6  -5 749.437 188.548  80
   1   6  -5 801.193 158.122  42
  -1  -6   5 783.666 183.744  36
  -1  -6   5 590.353 136.356  43
   1   6  -5 669.007 167.547  70
  -1  -6   5 833.516 169.412  61
   1   6  -5 679.127 203.133  21
   1   6  -5 677.429 174.801  23
   1   6  -4 79443.9 1725.81  50
  -1  -6   4 70216.5 1803.74  81
   1   6  -4 73012.2 1814.87  70
  -1  -6   4 77039.8 1921.25  36
   1   6  -4 75045.9 1778.80  42
  -1  -6   4 70816.5 1774.46  61
   1   6  -4 76261.4 1845.04  23
   1   6  -4 79904.8 1815.19  31
   1   6  -3 33199.8 919.159  18
   1   6  -3 33389.2 882.840  27
   1   6  -3 33337.6 919.075  31
   1   6  -3 31927.4 866.537  42
  -1  -6   3 31540.9 981.468  36
   1   6  -3 29811.9 906.392  70
  -1  -6   3 29601.1 901.225  60
  -1  -6   3 34861.7 1037.34   1
   1   6  -2 26311.2 772.464  31
   1   6  -2 26255.6 742.943  27
   1   6  -2 25410.8 758.420  18
  -1  -6   2 25601.3 748.087  83
   1   6  -2 23181.4 682.638  42
  -1  -6   2 24750.5 820.491  36
  -1  -6   2 23338.3 769.885  60
  -1  -6   2 24378.4 817.255   1
   1   6  -2 22716.4 682.550  10
   1   6  -1 7783.03 353.737  30
   1   6  -1 7653.67 364.728  18
   1   6  -1 8055.82 369.158  27
  -1  -6   1 7446.61 351.231  83
   1   6  -1 7074.36 300.272  42
  -1  -6   1 8013.16 418.342  36
  -1  -6   1 7690.07 384.321  74
   1   6  -1 8111.73 365.003  75
  -1  -6   1 7337.91 398.289  60
  -1  -6   1 7372.77 408.616   1
   1   6   0 524.430 155.284  56
  -1  -6   0 461.902 145.269  83
   1   6   0 573.931 143.528  75
   1   6   0 580.437 150.545  30
   1   6   0 661.607 148.826  18
   1   6   0 652.927 154.940  27
  -1  -6   0 652.752 189.367  60
  -1  -6   0 759.914 169.779  36
   1   6   1 36094.2 1055.20  12
  -1  -6  -1 36177.2 1088.64  36
   1   6   1 36577.9 1028.64  75
   1   6   1 37018.5 1054.64  56
   1   6   1 38760.4 1051.64  30
   1   6   1 39885.7 1045.77  19
   1   6   1 37387.3 1059.63  27
   1   6   2 245.588 144.633  56
  -1  -6  -2 380.440 159.408  55
   1   6   2 277.671 129.649  49
   1   6   2 358.149 140.160  77
  -1  -6  -2 209.793 137.130  83
  -1  -6  -2 124.423 108.937  82
  -1  -6  -2 297.803 135.376  36
   1   6   2 270.192 134.484  75
   1   6   2 264.542 146.064  12
   1   6   2 175.998 111.260   2
   1   6   2 147.225 127.449  30
   1   6   2 335.415 139.283  19
  -1  -6  -3 48652.1 1352.96  55
   1   6   3 53707.3 1322.31  49
   1   6   3 50613.2 1344.16  56
  -1  -6  -3 45590.5 1309.37  83
   1   6   3 50248.4 1268.29  77
  -1  -6  -3 47963.1 1308.53  82
  -1  -6  -3 51191.8 1351.64  41
  -1  -6  -3 44377.7 1312.05  36
   1   6   3 50623.2 1312.75  75
   1   6   3 47926.9 1240.39   2
   1   6   3 48073.1 1314.44  30
   1   6   4 1040.09 210.185  49
   1   6   4 888.328 195.877  56
  -1  -6  -4 743.437 193.371  83
  -1  -6  -4 706.323 164.082  82
   1   6   4 823.671 174.420  77
  -1  -6  -4 947.564 187.541  41
   1   6   4 675.143 165.309  75
   1   6   4 814.929 143.969   2
   1   6   4 1059.87 181.416  19
   1   6   4 817.099 176.737  30
  -1  -6  -5 9534.90 506.263  83
  -1  -6  -5 9045.88 475.157  82
   1   6   5 9930.88 446.344  77
  -1  -6  -5 9735.13 495.357  41
   1   6   5 9699.55 477.012  75
   1   6   5 10503.9 519.480  56
   1   6   5 10020.5 481.125  19
  -1  -6  -6 4371.19 344.523  41
   1   6   6 4309.16 393.628  39
  -1  -6  -6 3890.45 347.749  83
   1   6   6 4160.13 306.768  77
   1   6   6 4267.55 344.784  56
   1   6   6 3910.01 313.391  19
  -1  -6  -7 13011.0 639.778  41
   1   6   7 15282.3 743.624  39
  -1  -6  -7 13863.2 666.011  83
   1   6   7 15068.8 583.086  77
   1   6   7 15014.0 624.306  19
   1   6   7 13927.7 649.334  56
  -1  -6  -8 8714.25 545.873  83
   1   6   8 10077.9 475.523  77
   1   6   8 9342.25 523.311  56
   1   6   8 9534.35 492.295  19
   1   6   8 9395.83 487.355  30
  -1  -6  -9 7440.45 499.630  41
  -1  -6  -9 7693.00 509.746  83
   1   6   9 8472.67 433.568  77
   1   6   9 9266.65 568.867  53
   1   6   9 8781.23 526.947  44
   1   6   9 7894.87 441.668  19
   1   6   9 8003.50 446.812  30
   1   6  10 23475.2 932.846  53
   1   6  10 23253.5 846.636  56
   1   6  10 23221.8 901.177  44
  -1  -6 -10 21100.5 880.742  41
  -1  -6 -10 25203.6 1032.28  60
   1   6  10 22634.5 791.912  19
   1   6  10 22222.6 793.761  30
   1   6  11 3619.14 343.537  53
   1   6  11 2923.84 288.506  56
   1   6  11 3344.52 331.960  44
  -1  -6 -11 2367.75 288.437  41
  -1  -6 -11 3203.82 334.622  83
   1   6  11 3488.20 266.802  77
  -1  -6 -11 3612.72 387.957  60
   1   6  11 2792.09 259.619  30
   1   6  11 2819.58 255.473  27
   1   6  11 3015.41 262.024  19
   1   6  12 11416.0 531.542  46
   1   6  12 9630.06 454.835  56
  -1  -6 -12 8930.80 480.298  41
   1   6  12 10408.7 516.307  44
  -1  -6 -12 9224.08 482.741  83
   1   6  12 10443.2 413.025  77
  -1  -6 -12 10219.7 549.999  60
   1   6  12 9828.11 432.260  30
   1   6  12 8756.07 405.748  27
  -1  -6 -13 51.2766 129.198  83
  -1  -6 -13 12.5046 111.630  41
  -1  -6 -13-13.9408 135.331  60
   1   6  13 54.3140 158.647  46
   1   6  13-60.4936 111.435  56
   1   7 -17 147.419 117.307  85
  -1  -7  17 141.223 110.997  71
   1   7 -17 97.8596 114.180  72
  -1  -7  16 6198.59 342.201  74
   1   7 -16 5031.94 348.136  72
  -1  -7  16 5336.71 319.043  71
  -1  -7  16 5894.90 335.950  43
   1   7 -16 4975.52 355.220  85
   1   7 -15 113.252 164.777  79
   1   7 -15 74.8315 156.318  85
  -1  -7  15 128.155 137.706  43
  -1  -7  15 230.635 161.967  71
   1   7 -15 9.35229 156.940  72
  -1  -7  14 3903.29 320.941  71
   1   7 -14 3456.61 341.858  72
   1   7 -14 4894.68 372.523  42
   1   7 -14 4629.75 437.381  34
  -1  -7  14 4598.75 354.630  43
   1   7 -14 3560.09 318.621  79
  -1  -7  14 3224.82 313.362  81
   1   7 -14 3030.71 336.486  85
   1   7 -13 593.557 240.253  85
   1   7 -13 463.668 215.739  42
   1   7 -13 699.620 374.011  37
  -1  -7  13 616.290 190.318  43
   1   7 -13 470.827 212.664  72
  -1  -7  13 601.139 199.200  71
   1   7 -13 777.980 381.082  67
   1   7 -13 495.660 246.918  24
   1   7 -13 388.337 316.823  34
  -1  -7  12 6344.23 441.925  81
   1   7 -12 7571.56 486.558  42
   1   7 -12 8449.78 598.573  37
   1   7 -12 8072.15 554.552  34
  -1  -7  12 7910.00 488.026  43
  -1  -7  12 8399.20 462.799  36
  -1  -7  12 7359.30 448.270  71
   1   7 -12 7388.20 512.531  72
   1   7 -12 7328.05 506.033  85
   1   7 -12 6580.95 475.944  24
  -1  -7  11 9538.19 530.611  81
   1   7 -11 11306.1 657.861  37
  -1  -7  11 11579.9 567.179  36
   1   7 -11 10263.7 610.287  34
   1   7 -11 9773.82 576.182  70
   1   7 -11 10975.0 649.121  67
   1   7 -11 9232.58 583.091  85
   1   7 -10 9053.05 561.538  85
  -1  -7  10 10196.3 546.808  81
   1   7 -10 10230.6 542.730  42
  -1  -7  10 9711.12 536.302  43
   1   7 -10 9256.28 563.021  70
   1   7 -10 10906.9 630.445  67
  -1  -7  10 10097.2 532.071  55
   1   7  -9 24390.3 926.390  70
   1   7  -9 24717.2 881.578  42
  -1  -7   9 23461.4 877.542  81
   1   7  -9 23153.4 813.486  80
   1   7  -9 22459.5 912.155  85
   1   7  -8 29720.8 951.801  21
   1   7  -8 25919.1 959.904  85
   1   7  -8 26924.6 868.387  80
  -1  -7   8 24413.6 914.921  81
   1   7  -8 27779.1 929.106  42
  -1  -7   8 29791.6 1029.73  36
   1   7  -8 27604.2 966.048  70
  -1  -7   8 27969.3 925.499  61
   1   7  -8 30027.6 948.335   3
   1   7  -8 30051.4 970.596  16
   1   7  -7 29592.2 921.936  21
   1   7  -7 26549.8 831.056  80
   1   7  -7 24790.7 900.186  85
  -1  -7   7 23652.1 882.979  81
   1   7  -7 26786.6 885.419  42
  -1  -7   7 30548.5 1034.08  36
   1   7  -7 27000.3 913.762  70
  -1  -7   7 26449.1 877.171  61
   1   7  -7 23931.2 805.931  14
   1   7  -7 27706.0 896.083   3
   1   7  -7 30678.5 944.382  16
   1   7  -6 2116.16 249.927  23
  -1  -7   6 1832.85 239.386  81
   1   7  -6 2217.83 268.116  80
   1   7  -6 1908.15 242.897  85
   1   7  -6 2129.39 233.225  42
  -1  -7   6 2286.25 271.342  36
   1   7  -6 2021.68 248.323  70
  -1  -7   6 1736.92 226.375  61
   1   7  -6 1888.04 247.949  14
   1   7  -6 1844.67 248.783   3
   1   7  -6 2032.01 295.833  16
  -1  -7   6 1679.66 210.335   1
   1   7  -5 66319.1 1655.00  14
  -1  -7   5 72679.3 1812.35   1
   1   7  -5 69896.2 1765.16   3
   1   7  -5 71507.9 1769.58  16
  -1  -7   5 66798.0 1804.03  91
  -1  -7   5 66987.3 1752.85  81
   1   7  -5 70062.9 1671.99  80
   1   7  -5 69701.4 1711.51  42
  -1  -7   5 70465.8 1857.93  36
   1   7  -5 72415.7 1775.46  70
  -1  -7   5 62850.4 1694.38  61
   1   7  -5 73379.3 1788.79  23
  -1  -7   4 458.666 201.947  91
  -1  -7   4 311.388 158.505  81
   1   7  -4 323.108 182.879  80
   1   7  -4 391.609 139.927  42
  -1  -7   4 395.924 165.632  36
   1   7  -4 350.927 153.367  70
   1   7  -4 390.192 174.136  23
   1   7  -4 319.493 148.379  31
  -1  -7   4 485.468 170.026   1
  -1  -7   3 80354.0 1961.18  81
   1   7  -3 73464.5 1870.45  42
  -1  -7   3 79282.3 2061.61  36
   1   7  -3 79568.7 1963.58  70
   1   7  -3 82406.5 2012.45  23
   1   7  -3 87051.6 1989.70  31
   1   7  -3 89270.3 1992.32  18
  -1  -7   3 80102.9 2049.58   1
   1   7  -2 482.221 169.144  18
   1   7  -2 453.406 139.105  27
   1   7  -2 295.272 137.535  31
  -1  -7   2 290.859 144.220  81
  -1  -7   2 313.681 149.593  74
   1   7  -2 326.603 118.735  42
  -1  -7   2 558.558 171.066  36
  -1  -7   2 360.089 148.386  60
  -1  -7   2 381.187 164.757   1
   1   7  -1 36266.1 1009.48  30
   1   7  -1 37996.0 1036.43  27
   1   7  -1 34864.7 1026.22  18
   1   7  -1 36130.4 1050.07  31
  -1  -7   1 35008.1 1102.64  36
  -1  -7   1 33935.3 1024.47  74
   1   7  -1 33172.5 1004.36  75
  -1  -7   1 33391.6 1067.59  60
   1   7  -1 36935.4 1057.73  12
   1   7   0 11215.9 502.469  12
   1   7   0 11873.6 478.314  49
  -1  -7   0 10620.5 475.750  82
  -1  -7   0 10496.6 524.817  36
   1   7   0 11111.0 479.728  75
   1   7   0 11127.0 498.607  56
  -1  -7   0 10671.4 543.425  60
   1   7   0 11542.6 490.506  30
   1   7   0 10672.0 482.119  18
   1   7   0 11347.0 496.164  27
   1   7   1 34105.6 1031.99  12
  -1  -7  -1 34673.5 1115.15  55
   1   7   1 37450.3 1009.74  49
  -1  -7  -1 32661.5 997.805  82
  -1  -7  -1 31711.3 1043.50  36
   1   7   1 32062.3 987.656  75
   1   7   1 33918.9 1032.91  56
  -1  -7  -1 34912.0 1140.93  60
   1   7   1 35506.2 1024.17  30
   1   7   1 33157.9 1004.01  18
   1   7   1 36218.2 1044.89  27
   1   7   2 8880.39 462.821  12
  -1  -7  -2 9412.64 503.281  55
   1   7   2 10359.6 468.567  49
  -1  -7  -2 9333.98 449.973  82
   1   7   2 9330.98 436.407  77
  -1  -7  -2 9139.28 471.120  41
  -1  -7  -2 9224.86 474.009  36
   1   7   2 9034.86 444.513  75
   1   7   2 9625.16 479.592  56
   1   7   2 9729.67 471.563  30
   1   7   2 9617.18 479.143  27
   1   7   2 9552.58 463.501  18
   1   7   3 2957.02 286.702  49
  -1  -7  -3 2172.16 262.195  55
   1   7   3 2758.46 285.769  56
   1   7   3 2627.78 257.454  77
  -1  -7  -3 2197.70 256.614  41
   1   7   3 1938.62 235.894  75
   1   7   3 2217.65 249.366  12
   1   7   3 2573.33 263.569  30
   1   7   3 1858.41 247.157  18
   1   7   3 2225.24 257.407  27
   1   7   3 2676.26 255.106  19
   1   7   4 35532.5 1026.11  77
   1   7   4 34972.8 1102.93  56
  -1  -7  -4 36091.8 1116.96  41
   1   7   4 33608.3 1074.85  12
   1   7   4 33551.9 1045.59  18
   1   7   4 35858.5 1075.43  19
   1   7   5 640.801 192.678  77
   1   7   5 656.212 207.023  56
   1   7   5 886.770 260.717  39
  -1  -7  -5 560.848 181.636  41
   1   7   5 689.396 192.739  12
   1   7   5 152.003 251.093  18
   1   7   5 779.740 189.944  19
   1   7   5 634.865 192.351  30
   1   7   6 32982.0 977.522  77
   1   7   6 31135.9 1050.21  56
  -1  -7  -6 30953.8 1060.30  41
   1   7   6 33003.9 1182.79  39
   1   7   6 32500.7 1035.96  30
   1   7   6 31949.1 1019.31  19
   1   7   6 28005.8 952.537  18
   1   7   6 30230.8 1014.42  12
   1   7   7 654.591 179.953  12
   1   7   7 550.706 179.522  77
   1   7   7 528.208 205.858  56
  -1  -7  -7 518.610 286.966  60
   1   7   7 586.732 187.336  30
   1   7   7 574.075 181.540  19
   1   7   7-34.1491 270.053  18
   1   7   8 11924.6 513.225  77
   1   7   8 10618.2 606.016  39
  -1  -7  -8 10322.5 568.839  41
   1   7   8 10190.2 605.575  53
   1   7   8 11266.7 538.034  30
   1   7   8 11244.5 529.207  19
   1   7   8 11108.2 538.673  27
   1   7   8 10289.5 508.337  12
   1   7   9 6003.68 398.023  56
   1   7   9 5532.15 410.045  44
   1   7   9 5083.62 414.642  53
  -1  -7  -9 4307.35 380.070  41
  -1  -7  -9 5728.07 493.345  60
   1   7   9 5016.83 353.332  30
   1   7   9 5605.16 363.248  27
   1   7  10 13436.2 621.271  44
   1   7  10 14119.9 587.708  56
   1   7  10 13400.0 650.621  53
  -1  -7 -10 12028.0 604.401  41
   1   7  10 14773.0 540.509  77
  -1  -7 -10 13979.6 721.492  60
   1   7  10 13122.3 543.930  27
   1   7  10 13799.2 562.516  30
   1   7  11 7077.11 376.488  56
  -1  -7 -11 7008.37 410.279  41
   1   7  11 6964.81 406.990  44
   1   7  11 7625.80 346.288  77
  -1  -7 -11 8127.73 497.088  60
   1   7  11 6993.07 360.506  30
   1   7  11 6588.44 343.358  27
  -1  -7 -12 3036.34 250.977  41
  -1  -7 -12 3732.96 305.841  60
   1   7  12 3289.37 231.341  56
   1   7  12 4009.52 282.837  46
  -1  -8  16 2293.82 197.482  71
  -1  -8  16 2707.99 222.851  74
   1   8 -16 2439.53 224.795  72
   1   8 -16 2141.28 224.562  85
  -1  -8  15 6146.70 345.884  71
   1   8 -15 5116.03 362.682  72
   1   8 -15 5632.17 375.752  85
  -1  -8  14 4217.91 315.451  71
   1   8 -14 4356.69 356.245  72
   1   8 -14 5314.12 411.640  34
   1   8 -14 4185.58 305.196  79
  -1  -8  14 3890.87 319.296  81
   1   8 -14 4360.15 362.279  85
  -1  -8  13 8267.36 472.141  81
  -1  -8  13 7598.50 445.695  71
   1   8 -13 8003.64 509.943  72
   1   8 -13 10271.9 546.569  42
   1   8 -13 12168.0 627.310  37
   1   8 -13 10819.1 574.294  34
   1   8 -13 11179.2 624.349  67
   1   8 -13 8052.75 512.717  85
  -1  -8  12 3801.01 323.682  36
   1   8 -12 4018.70 365.447  42
   1   8 -12 3884.03 429.678  34
   1   8 -12 4334.21 472.144  37
  -1  -8  12 3083.08 311.150  71
   1   8 -12 3767.76 375.721  72
   1   8 -12 4173.48 474.570  67
   1   8 -12 2981.63 340.559  24
  -1  -8  11 2494.78 306.406  81
   1   8 -11 2855.07 323.475  42
   1   8 -11 2838.00 438.440  37
  -1  -8  11 3668.70 329.695  36
   1   8 -11 2917.75 353.416  70
   1   8 -11 2842.22 341.661  85
   1   8 -11 2838.11 392.538  34
   1   8 -10 3803.23 386.975  85
  -1  -8  10 3856.93 351.292  81
   1   8 -10 5077.11 485.919  37
  -1  -8  10 5097.98 396.369  36
   1   8 -10 4335.13 400.273  70
   1   8 -10 5035.19 498.547  67
  -1  -8  10 4590.51 382.417  55
   1   8  -9 10964.1 600.441  70
   1   8  -9 10432.2 560.385  42
  -1  -8   9 13180.7 645.819  36
   1   8  -9 10295.3 587.233  85
   1   8  -9 11112.1 549.133  80
  -1  -8   9 10986.8 568.776  81
   1   8  -9 13497.7 649.688  26
   1   8  -8 274.836 228.346  21
   1   8  -8 410.004 281.690  26
  -1  -8   8 37.7145 189.202  81
   1   8  -8 222.561 237.980  80
   1   8  -8 50.9881 188.631  85
   1   8  -8 133.175 175.047  42
   1   8  -8 196.322 188.839  70
  -1  -8   8 153.779 170.213  61
   1   8  -8 455.863 270.750  16
   1   8  -7 18928.9 698.749  80
   1   8  -7 18385.3 760.143  85
  -1  -8   7 17175.6 737.535  81
   1   8  -7 18211.4 726.636  42
   1   8  -7 18676.1 755.198  70
   1   8  -7 19772.4 747.367   3
   1   8  -7 20130.9 774.551  16
   1   8  -7 19797.4 752.252  21
   1   8  -7 20521.7 775.931  26
   1   8  -6 8488.93 449.472  80
   1   8  -6 7931.16 468.676  85
  -1  -8   6 7865.04 468.908  81
   1   8  -6 8434.15 454.808  42
  -1  -8   6 8956.17 537.966  36
   1   8  -6 8450.39 475.367  70
   1   8  -6 9382.94 514.618  16
   1   8  -6 9433.76 490.385   3
   1   8  -6 9422.48 511.378  23
   1   8  -6 8596.84 489.274  26
   1   8  -6 9521.17 503.350  21
  -1  -8   5 4524.44 354.866  81
   1   8  -5 5091.11 354.421  80
   1   8  -5 4437.99 355.762  85
   1   8  -5 4613.71 332.047  42
  -1  -8   5 5113.70 400.054  36
   1   8  -5 5124.51 367.924  70
   1   8  -5 5057.82 358.382   3
   1   8  -5 5050.12 392.352  16
   1   8  -5 5594.63 395.258  21
  -1  -8   4 11814.7 552.477  81
   1   8  -4 12372.3 524.813  80
   1   8  -4 11129.8 498.245  42
  -1  -8   4 12904.2 638.048  36
   1   8  -4 11780.6 555.750  70
  -1  -8   4 11998.8 620.932  91
   1   8  -4 12637.0 568.749  21
   1   8  -4 12864.0 558.270  31
  -1  -8   3 27396.0 914.400  81
   1   8  -3 26148.5 843.758  42
  -1  -8   3 29323.5 1027.66  36
   1   8  -3 28645.1 929.196  70
  -1  -8   3 28003.7 960.270  74
  -1  -8   3 27442.4 1033.10  91
   1   8  -2 19005.3 729.577  70
  -1  -8   2 18889.1 723.030  74
  -1  -8   2 19592.2 806.078  36
  -1  -8   2 18620.9 710.904  81
   1   8  -2 21168.0 753.374  18
   1   8  -2 20676.9 752.903  31
  -1  -8   1 879.955 208.994  36
   1   8  -1 1233.91 203.088  49
  -1  -8   1 894.736 223.630  60
   1   8  -1 1168.12 207.059  31
   1   8  -1 1712.98 281.026  18
   1   8  -1 913.682 192.934  27
   1   8   0 32552.7 1014.82  12
  -1  -8   0 29182.4 1031.15  36
   1   8   0 33540.6 977.799  49
   1   8   0 29669.6 964.553  75
  -1  -8   0 29732.9 1052.04  60
   1   8   0 30689.6 994.225  18
   1   8   0 31727.1 989.064  27
  -1  -8  -1 10714.3 585.216  55
   1   8   1 11562.9 527.711  49
  -1  -8  -1 10658.4 546.814  36
   1   8   1 11887.9 553.566  12
  -1  -8  -1 10809.4 599.834  60
   1   8   1 11281.6 544.594  56
   1   8   1 11571.3 556.517  18
  -1  -8  -2 20159.0 817.457  55
   1   8   2 22122.2 794.076  49
   1   8   2 20507.1 779.198  12
   1   8   2 21178.5 794.434  56
  -1  -8  -2 20091.5 886.007  60
   1   8   2 20960.1 777.880  18
  -1  -8  -2 19982.2 787.574  41
   1   8   3 3646.53 321.002  12
  -1  -8  -3 4539.83 447.761  60
   1   8   3 3921.12 346.400  56
   1   8   3 4075.68 335.837  30
   1   8   3 3917.67 344.007  27
   1   8   3 4436.73 383.414  18
  -1  -8  -3 3909.74 335.204  41
   1   8   4 8116.03 465.885  12
  -1  -8  -4 8507.78 491.755  41
  -1  -8  -4 7847.18 587.285  60
   1   8   4 8303.89 486.708  56
   1   8   4 8485.80 470.802  30
   1   8   4 8710.63 486.530  27
   1   8   4 8552.73 507.523  18
   1   8   5 11415.1 525.343  77
   1   8   5 10757.9 541.056  12
   1   8   5 10811.5 559.286  56
  -1  -8  -5 10922.5 690.920  60
   1   8   5 11531.2 557.209  30
   1   8   5 10715.3 552.073  27
   1   8   5 12149.3 576.238  18
   1   8   6 448.746 213.530  39
  -1  -8  -6 272.478 164.083  41
   1   8   6 191.338 157.606  12
   1   8   6 228.903 165.962  77
   1   8   6 252.038 163.570  30
   1   8   6 218.902 170.120  27
   1   8   7 24458.6 977.736  39
  -1  -8  -7 24337.0 910.568  41
   1   8   7 23688.4 959.530  53
   1   8   7 23664.4 869.932  56
   1   8   7 24252.8 841.576  12
  -1  -8  -7 25027.3 1064.31  60
   1   8   7 26792.3 883.976  30
   1   8   7 25166.1 873.196  27
   1   8   8 136.825 166.903  53
   1   8   8 300.713 162.649  56
  -1  -8  -8 171.485 237.272  60
   1   8   8 167.908 154.071  30
   1   8   8 278.998 146.463  27
   1   8   8 295.399 174.867  39
  -1  -8  -8 113.347 166.843  41
   1   8   8 248.052 172.053  44
   1   8   9 13584.1 587.735  44
   1   8   9 13657.0 625.286  53
   1   8   9 12989.5 542.705  56
  -1  -8  -9 13879.1 704.308  60
   1   8   9 13571.8 538.865  30
   1   8   9 11485.2 500.697  31
   1   8   9 13216.3 532.806  27
  -1  -8  -9 11377.1 565.425  41
   1   8  10 681.827 149.038  30
  -1  -8 -10 808.299 222.269  91
  -1  -8 -10 807.718 176.367  41
   1   8  10 613.450 163.607  44
   1   8  10 622.381 170.970  53
   1   8  10 672.272 151.918  56
  -1  -8 -10 883.281 232.000  60
  -1  -8 -11 10236.8 497.351  60
   1   8  11 10068.4 426.989  44
  -1  -9  15 8031.53 360.547  71
   1   9 -15 8240.82 405.955  72
  -1  -9  14 1601.19 194.385  71
  -1  -9  14 2355.28 251.396  74
   1   9 -14 1563.50 217.751  72
   1   9 -14 1576.74 195.023  79
  -1  -9  14 1647.23 202.506  81
   1   9 -14 1714.41 227.474  85
   1   9 -13 12468.0 588.658  85
  -1  -9  13 11414.2 525.121  81
  -1  -9  13 15683.8 582.843  36
   1   9 -13 16448.2 636.813  34
  -1  -9  13 11968.5 520.572  71
   1   9 -13 12226.0 587.728  72
   1   9 -13 16352.6 681.005  67
   1   9 -13 9611.32 433.308  49
  -1  -9  12 398.446 167.873  81
   1   9 -12 483.035 201.583  85
   1   9 -12 734.609 339.713  37
  -1  -9  12 568.338 169.553  36
  -1  -9  12 521.390 179.973  71
   1   9 -12 428.020 193.187  72
   1   9 -12 906.016 375.840  67
   1   9 -12 660.674 294.871  34
  -1  -9  11 15741.4 702.494  81
  -1  -9  11 21803.6 819.349  36
   1   9 -11 22586.4 853.822  37
   1   9 -11 20292.9 805.815  34
   1   9 -11 17793.3 785.077  70
   1   9 -11 20336.4 850.470  67
  -1  -9  11 19025.4 756.365  55
  -1  -9  10 3164.68 325.753  81
   1   9 -10 4435.12 380.783  42
   1   9 -10 4367.57 450.057  37
  -1  -9  10 4786.02 389.477  36
   1   9 -10 3809.62 375.402  85
  -1  -9  10 4282.82 373.525  55
   1   9  -9 758.895 229.767  70
   1   9  -9 950.256 234.579  42
  -1  -9   9 1020.72 247.130  36
   1   9  -9 1135.17 350.994  37
   1   9  -9 888.550 318.633  26
  -1  -9   9 972.492 228.914  81
   1   9  -9 860.908 239.250  85
   1   9  -9 695.391 269.450  80
   1   9  -8 23058.7 886.434  70
  -1  -9   8 26186.7 988.546  36
   1   9  -8 27436.6 911.727  26
   1   9  -8 23335.6 813.867  80
  -1  -9   8 19407.0 821.950  81
   1   9  -8 21179.5 871.338  85
  -1  -9   7 67.0424 180.138  81
   1   9  -7 146.261 233.262  80
   1   9  -7 218.569 178.693  85
  -1  -9   7 84.5319 186.969  36
   1   9  -7 172.019 169.398  70
   1   9  -7 117.156 233.654  21
   1   9  -7 82.2807 257.541  26
   1   9  -7 194.084 260.652  16
   1   9  -6 15760.4 636.100  80
   1   9  -6 14340.2 661.875  85
  -1  -9   6 13375.0 645.401  81
   1   9  -6 14623.2 641.723  42
  -1  -9   6 16386.8 767.005  36
   1   9  -6 14557.4 657.423  70
   1   9  -6 16571.8 715.945  23
   1   9  -6 16707.3 688.071  26
   1   9  -6 16349.5 674.800  21
   1   9  -6 15172.1 660.577   3
   1   9  -6 16657.1 691.637  16
  -1  -9   5 4279.12 375.697  74
   1   9  -5 3700.00 340.928  70
   1   9  -5 3570.45 334.069   3
   1   9  -5 3958.17 373.161  16
   1   9  -5 3885.05 379.404  26
   1   9  -5 3941.88 359.940  23
   1   9  -5 3687.11 360.782  21
  -1  -9   5 3234.56 324.377  81
   1   9  -5 3702.76 347.766  80
   1   9  -5 3704.13 345.938  85
  -1  -9   4 1082.34 260.901  91
  -1  -9   4 1011.47 227.805  81
   1   9  -4 1041.51 258.885  80
   1   9  -4 988.033 225.223   3
   1   9  -4 924.045 276.588  16
  -1  -9   4 961.864 221.179  74
   1   9  -4 1000.59 227.730  70
   1   9  -4 934.635 263.191  21
   1   9  -4 1086.96 246.369  23
   1   9  -4 1232.10 223.951  49
  -1  -9   3 9386.70 506.635  81
   1   9  -3 10023.5 499.686  80
   1   9  -3 10022.2 520.312  70
   1   9  -3 11066.5 545.343  21
   1   9  -3 10847.6 570.025  23
   1   9  -3 12115.9 564.655  31
   1   9  -3 11359.2 519.742  49
  -1  -9   3 8986.85 585.042  91
   1   9  -2 4482.48 379.488  23
   1   9  -2 4565.36 356.867  31
   1   9  -2 4528.71 338.287  49
  -1  -9   2 4108.16 430.333  91
   1   9  -1 16901.0 708.873  31
  -1  -9   1 16318.5 787.209  55
   1   9  -1 17622.2 680.182  49
  -1  -9   0 8084.52 515.188  60
   1   9   0 9804.94 499.668  27
   1   9   0 10365.8 549.114  18
   1   9   0 9493.92 514.189  31
  -1  -9   0 8762.23 555.426  55
   1   9   0 10434.7 508.392  49
  -1  -9  -1 11326.0 580.168  41
  -1  -9  -1 11568.9 625.239  55
   1   9   1 12999.0 593.306  49
   1   9   1 13859.9 628.424  18
   1   9   1 12684.2 575.767  27
   1   9   1 12126.2 585.662  31
  -1  -9  -1 10368.7 611.079  60
   1   9   2 3076.58 300.018  12
  -1  -9  -2 2710.49 353.276  60
   1   9   2 3036.74 308.234  31
   1   9   2 3196.31 302.802  27
   1   9   3 11486.4 559.128  12
   1   9   3 11739.0 555.788  30
   1   9   3 13664.8 623.769  18
   1   9   3 11617.0 557.909  27
   1   9   3 11299.8 570.331  31
  -1  -9  -3 11172.1 657.375  60
   1   9   3 11142.9 566.174  56
  -1  -9  -3 12156.1 593.478  41
   1   9   4 700.684 187.925  12
   1   9   4 622.704 186.417  31
   1   9   4 874.832 201.088  30
   1   9   4 851.400 202.742  27
   1   9   4 951.971 246.536  39
  -1  -9  -4 873.598 209.160  41
   1   9   5 13906.0 602.230  12
  -1  -9  -5 13912.5 748.167  60
   1   9   5 13058.0 603.734  56
   1   9   5 13250.5 603.884  31
   1   9   5 13846.9 604.351  30
   1   9   5 14200.2 608.099  18
   1   9   5 13851.9 606.041  27
  -1  -9  -5 13972.7 631.869  41
   1   9   5 13593.0 698.465  39
   1   9   6 9313.66 550.569  53
   1   9   6 10289.8 511.034  56
  -1  -9  -6 10750.2 637.555  60
   1   9   6 10890.1 507.213  30
   1   9   6 10207.1 498.287  27
   1   9   6 9767.43 488.834  31
  -1  -9  -6 10314.4 528.205  41
   1   9   6 10509.1 590.111  39
   1   9   7 13591.2 636.962  53
   1   9   7 13098.6 576.957  44
  -1  -9  -7 13926.0 710.067  60
   1   9   7 13228.4 561.597  56
   1   9   7 13877.0 558.928  27
   1   9   7 15301.0 584.369  30
   1   9   7 12777.8 545.345  31
   1   9   7 12650.1 625.224  39
  -1  -9  -7 12773.3 587.064  41
   1   9   8 5050.55 327.670  44
   1   9   8 5281.01 364.924  53
   1   9   8 4579.86 303.653  56
  -1  -9  -8 5364.35 422.166  60
   1   9   8 4902.97 301.522  27
   1   9   8 4133.48 281.146  31
  -1  -9  -8 4290.59 320.749  41
  -1  -9  -9 2237.52 290.022  91
  -1  -9  -9 1986.91 211.224  41
   1   9   9 2279.54 219.320  44
  -1  -9  -9 2279.98 283.104  60
   1   9   9 2354.10 240.269  53
  -1  -9 -10 3798.91 297.371  60
  -1 -10  15 2553.39 196.053  74
   1  10 -14 5007.93 299.775  85
   1  10 -14 4428.66 285.238  72
  -1 -10  13 183.854 142.729  74
   1  10 -13 302.083 144.260  72
   1  10 -13 278.503 148.396  85
   1  10 -12 5066.32 364.017  85
  -1 -10  12 4996.86 321.427  81
   1  10 -12 7536.08 460.731  37
  -1 -10  12 6566.08 380.841  36
  -1 -10  12 6628.24 414.422  74
  -1 -10  12 5164.25 318.293  71
   1  10 -12 4777.48 355.646  72
   1  10 -12 6926.57 465.368  67
   1  10 -12 4411.69 279.476  49
  -1 -10  11 313.629 151.712  55
   1  10 -11 277.138 152.172  49
  -1 -10  11 208.529 153.279  81
   1  10 -11 336.661 182.649  85
   1  10 -11 358.699 310.256  37
  -1 -10  11 261.878 157.766  36
   1  10 -11 439.148 325.434  67
   1  10 -11 393.435 265.623  34
   1  10 -10 16262.0 720.898  85
  -1 -10  10 15735.1 660.397  81
  -1 -10  10 19861.7 786.540  36
   1  10 -10 20613.1 771.807  37
   1  10 -10 17164.2 730.806  70
   1  10 -10 20147.8 794.620  67
  -1 -10  10 18934.6 760.064  55
   1  10 -10 15946.2 635.114  49
  -1 -10   9 3828.29 329.606  81
   1  10  -9 3959.33 364.376  70
  -1 -10   9 4777.68 395.426  36
   1  10  -9 5004.47 443.477  37
   1  10  -9 5137.92 462.906  67
  -1 -10   9 4682.16 392.753  55
   1  10  -9 4064.38 322.581  49
  -1 -10   8 8801.40 545.820  36
   1  10  -8 7579.49 483.861  70
   1  10  -8 8775.57 507.760  26
  -1 -10   8 9019.39 554.303  55
   1  10  -8 7149.97 426.046  49
   1  10  -7 9198.56 529.839  85
   1  10  -7 11118.5 527.573  80
  -1 -10   7 8645.79 503.760  81
  -1 -10   7 12331.7 649.391  36
   1  10  -7 11853.8 564.766  26
   1  10  -7 10918.8 526.391  49
   1  10  -6 393.256 187.411  49
   1  10  -6 323.869 182.786  85
   1  10  -6 343.073 238.684  80
  -1 -10   6 509.145 206.869  36
  -1 -10   6 286.639 192.430  74
   1  10  -6 317.845 228.492  21
   1  10  -6 361.184 250.699  26
   1  10  -6 419.038 245.499  16
   1  10  -5 5597.98 395.861  80
   1  10  -5 5349.94 410.492  16
  -1 -10   5 5447.54 444.809  36
   1  10  -5 5788.99 424.972  23
   1  10  -5 5764.28 391.817  21
   1  10  -5 5238.61 404.295  26
   1  10  -5 5017.65 367.012  49
   1  10  -4 3147.82 329.384  80
   1  10  -4 3257.87 342.054  16
  -1 -10   4 3158.67 352.471  36
   1  10  -4 3271.86 346.994  23
   1  10  -4 3492.89 338.488  26
   1  10  -4 3337.55 333.185  21
   1  10  -4 3517.65 314.344  49
  -1 -10   3 56730.6 1794.99  91
   1  10  -3 61932.9 1620.35  80
   1  10  -3 60109.4 1654.24  16
  -1 -10   3 62969.0 1827.90  36
   1  10  -3 66296.9 1771.65  23
   1  10  -3 62148.3 1662.54  21
  -1 -10   3 64198.5 1895.26  55
   1  10  -3 70475.2 1720.48  49
   1  10  -2 5509.12 390.453  80
  -1 -10   2 4790.23 460.800  91
  -1 -10   2 5633.02 437.934  36
   1  10  -2 5298.61 383.312  21
   1  10  -2 6036.33 425.970  23
   1  10  -2 6270.20 416.968  31
  -1 -10   2 6173.48 483.359  55
   1  10  -2 6321.08 402.705  49
   1  10  -1 10409.4 510.454  80
  -1 -10   1 9590.82 631.453  91
   1  10  -1 12158.2 557.805  49
   1  10  -1 9682.56 494.469  21
   1  10  -1 10583.3 565.788  23
   1  10  -1 10210.9 540.875  31
  -1 -10   1 9835.64 557.749  36
   1  10   0 6473.29 421.957  49
   1  10   0 5592.26 413.725  23
   1  10   0 5705.44 397.380  31
  -1 -10   0 5561.96 399.658  41
  -1 -10  -1 7090.68 485.784  55
   1  10   1 8322.64 469.359  31
   1  10   1 8004.33 481.588  23
  -1 -10  -1 7767.48 466.867  41
  -1 -10  -2 5666.60 446.187  60
   1  10   2 6807.70 421.318  31
  -1 -10  -2 6520.76 419.556  41
  -1 -10  -3 15123.7 742.512  60
   1  10   3 17291.2 674.057  27
   1  10   3 16656.1 677.698  31
  -1 -10  -3 16516.3 693.116  41
   1  10   3 16583.6 775.427  39
  -1 -10  -4 16702.8 773.327  60
   1  10   4 17376.1 664.371  27
   1  10   4 16378.5 662.816  31
  -1 -10  -4 17364.4 689.785  41
   1  10   4 17017.1 768.283  39
   1  10   5 786.242 199.159  53
  -1 -10  -5 879.964 244.770  60
   1  10   5 836.285 173.844  31
   1  10   5 980.491 179.330  27
   1  10   5 875.444 218.428  39
  -1 -10  -5 1047.06 196.670  41
   1  10   6 5798.79 332.415  27
   1  10   6 5659.50 332.664  31
  -1 -10  -6 6801.35 509.014  91
  -1 -10  -6 5393.53 416.362  60
   1  10   6 5231.79 327.970  44
   1  10   6 6183.97 390.985  53
   1  10   6 5320.22 376.922  39
  -1 -10  -6 5518.65 350.164  41
  -1 -10  -7 1380.73 269.360  91
  -1 -10  -7 984.970 218.580  60
   1  10   7 951.337 174.497  53
   1  10   7 1221.84 166.686  44
  -1 -10  -7 1218.42 178.862  41
  -1 -10  -8 7719.22 439.103  91
   1  10   8 7565.29 375.192  53
  -1 -10  -8 8051.61 427.504  60
  -1 -10  -9-10.2976 113.543  91
  -1 -11  13 2930.01 231.947  74
  -1 -11  12 5263.27 323.348  74
   1  11 -12 3781.85 265.206  72
   1  11 -12 5906.44 375.202  67
   1  11 -12 3450.84 260.721  85
   1  11 -11 6115.03 367.266  85
  -1 -11  11 8547.52 423.943  36
  -1 -11  11 8432.47 433.455  74
   1  11 -11 5921.60 360.949  72
   1  11 -11 9099.94 469.208  67
  -1 -11  11 8377.48 406.473  55
   1  11 -11 5626.83 299.755  49
   1  11 -10 60.2545 144.872  85
   1  11 -10 73.2511 153.614  70
  -1 -11  10 8.40284 150.575  74
   1  11 -10 50.0598 253.262  37
  -1 -11  10 25.7649 122.896  36
   1  11 -10 90.5945 273.922  67
  -1 -11  10 40.9578 139.704  55
   1  11 -10-22.2305 127.447  49
   1  11  -9 8596.34 485.002  85
  -1 -11   9 12410.7 587.089  36
   1  11  -9 11698.9 547.051  37
  -1 -11   9 11256.0 545.994  74
   1  11  -9 12247.9 573.653  67
  -1 -11   9 11363.6 563.534  55
   1  11  -9 9524.33 454.545  49
   1  11  -8 95.0801 215.857  80
   1  11  -8 138.072 272.590  37
  -1 -11   8 155.754 157.612  36
  -1 -11   8 188.411 154.852  74
   1  11  -8 127.856 294.070  67
  -1 -11   8-10.4756 162.189  55
   1  11  -8 90.4450 150.850  49
  -1 -11   7 11511.7 563.545  74
  -1 -11   7 13225.2 648.710  36
   1  11  -7 11031.2 517.119  49
  -1 -11   7 13617.3 666.972  55
   1  11  -7 11781.7 530.499  80
  -1 -11   6 2564.46 302.146  36
  -1 -11   6 2800.90 348.163  55
   1  11  -6 2019.76 246.962  49
   1  11  -6 2421.92 297.158  80
  -1 -11   5 11001.3 600.279  36
  -1 -11   5 11646.1 642.662  55
   1  11  -5 11603.0 534.395  49
   1  11  -5 11141.6 509.114  21
   1  11  -5 10620.2 513.509  80
  -1 -11   4 13492.0 673.012  36
  -1 -11   4 14162.9 720.618  55
   1  11  -4 15293.7 622.816  49
   1  11  -4 15232.1 665.962  23
   1  11  -4 13599.2 569.557  21
  -1 -11   3 5463.06 418.239  36
   1  11  -3 5949.83 416.487  23
  -1 -11   3 5482.35 446.388  55
   1  11  -3 6156.61 393.289  49
   1  11  -2 9678.72 480.205  80
  -1 -11   2 9441.09 580.329  91
  -1 -11   2 10747.9 551.843  41
  -1 -11   2 9811.46 545.236  36
   1  11  -2 10593.0 545.824  23
  -1 -11   2 9477.45 571.738  55
   1  11  -2 11721.6 550.158  49
   1  11  -1 266.784 216.275  80
  -1 -11   1 280.191 218.346  91
  -1 -11   1 146.342 154.171  41
   1  11  -1 304.684 184.534  23
  -1 -11   1 219.363 189.342  55
   1  11   0 13745.3 558.758  80
  -1 -11   0 13875.5 727.863  91
  -1 -11   0 14556.6 632.270  41
   1  11   0 14324.6 623.853  23
   1  11   0 14617.8 617.080  31
  -1 -11   0 14122.2 659.840  55
   1  11   1 10.7700 156.720  39
  -1 -11  -1 83.8066 141.204  41
  -1 -11  -1 64.0613 221.976  91
   1  11   1-74.0582 197.779  80
   1  11   1 23.9433 128.844  31
   1  11   1 121.045 169.228  23
  -1 -11  -2 13869.2 580.364  41
   1  11   2 12536.0 630.340  39
  -1 -11  -2 12916.8 706.219  91
   1  11   2 12737.8 559.591  23
   1  11   2 12999.8 554.388  31
   1  11   2 11693.7 498.255  80
   1  11   3 794.305 195.554  39
  -1 -11  -3 819.564 174.598  41
  -1 -11  -3 945.758 283.349  91
  -1 -11  -3 743.481 196.938  60
   1  11   3 832.404 168.720  31
   1  11   3 748.806 176.689  23
   1  11   4 9725.03 431.261  31
  -1 -11  -4 9130.59 560.999  91
  -1 -11  -4 8159.68 462.615  60
   1  11   4 8354.21 452.381  53
   1  11   4 9475.68 493.771  39
  -1 -11  -4 10693.1 458.759  41
  -1 -11  -5 4486.08 378.891  91
   1  11   5 4201.36 307.027  39
  -1 -11  -5 4533.71 285.660  41
  -1 -11  -5 3874.06 312.705  60
   1  11   5 4474.25 301.559  53
   1  11   6 2974.38 193.630  80
  -1 -11  -6 3271.10 305.833  91
  -1 -11  -6 2345.19 234.692  60
  -1 -11  -6 2598.84 253.719  63
   1  11   7 4318.12 192.001  80
  -1 -11  -7 4686.25 308.544  91
  -1 -12  11 5954.20 297.331  74
  -1 -12  10 4500.13 288.186  55
   1  12 -10 4546.53 318.905  67
  -1 -12   9 1488.39 197.805  36
  -1 -12   9 1486.57 207.615  55
   1  12  -9 1134.58 153.490  49
   1  12  -9 1608.91 265.297  67
  -1 -12   8 2933.39 276.158  36
   1  12  -8 3116.43 313.279  67
  -1 -12   8 3148.22 285.182  55
   1  12  -8 2321.30 219.468  49
  -1 -12   7 558.022 165.898  36
  -1 -12   7 488.844 178.150  55
   1  12  -7 361.014 145.575  49
   1  12  -7 425.687 243.980  67
   1  12  -7 504.356 199.506  80
  -1 -12   6 7217.68 433.901  36
  -1 -12   6 7271.77 455.129  55
   1  12  -6 7157.49 377.379  49
   1  12  -6 6949.69 376.819  80
  -1 -12   5 339.455 164.742  36
  -1 -12   5 208.086 172.426  55
   1  12  -5 273.158 156.552  49
   1  12  -5 295.886 190.059  80
  -1 -12   4 14502.4 637.611  36
  -1 -12   4 14835.7 674.006  55
   1  12  -4 16036.2 607.785  49
   1  12  -4 14277.7 547.306  80
  -1 -12   3 4442.50 322.523  41
  -1 -12   3 3750.65 317.905  36
  -1 -12   3 4056.01 349.273  55
   1  12  -3 3739.80 293.232  80
   1  12  -2 8185.86 390.975  80
  -1 -12   2 8369.31 430.202  41
   1  12  -2 8572.93 431.955  23
  -1 -12   2 7862.17 462.355  55
  -1 -12   1 4561.90 313.173  41
   1  12  -1 3823.42 328.833  39
   1  12  -1 3981.68 282.099  80
  -1 -12   1 3918.59 336.149  91
  -1 -12   1 3915.51 318.247  55
  -1 -12   0 7750.18 469.249  91
  -1 -12   0 9145.49 425.810  41
   1  12   0 8343.97 462.081  39
   1  12   0 7485.31 362.895  80
  -1 -12  -1 7989.63 477.262  91
  -1 -12  -1 8868.84 406.207  41
   1  12   1 8269.60 450.659  39
   1  12   1 7920.54 359.024  80
   1  12   2 862.080 175.628  39
  -1 -12  -2 1144.39 158.334  41
   1  12   2 1016.56 170.167  80
  -1 -12  -2 1028.75 229.597  91
   1  12   2 830.519 162.982  53
   1  12   3 10054.0 455.697  39
  -1 -12  -3 9895.37 498.361  91
   1  12   3 9853.89 358.425  80
  -1 -12  -4 304.624 136.834  63
  -1 -12  -4 294.719 159.608  91
   1  12   4 335.891 114.581  80
  -1 -12  -5 4278.19 277.760  91
  -1 -13   8 2160.73 204.291  55
  -1 -13   7 6222.45 339.633  55
  -1 -13   6 814.988 164.354  55
   1  13  -6 777.833 148.716  80
  -1 -13   5 6696.80 366.494  55
   1  13  -5 5845.04 283.217  80
  -1 -13   4 577.500 153.922  55
   1  13  -4 488.725 149.887  80
   1  13  -3 5304.25 263.797  80
  -1 -13   3 5814.89 331.154  55
  -1 -13   3 4902.45 326.963  63
  -1 -13   2-21.8151 129.356  63
   1  13  -2 18.5654 129.605  80
   1  13  -1 2999.24 194.497  80
  -1 -13   0 1159.88 190.879  63
   1  13   0 1111.64 140.643  80
   1  13   1 3902.22 185.426  80
   2 -14   0 434.794 118.457  81
  -2  14   0 369.195 108.490  70
   2 -14   1 9645.75 395.250  81
  -2  14  -1 9973.81 390.371  70
   2 -14   2 36.8504 108.401  61
   2 -14   2 50.2015 115.632  81
  -2  14  -2 28.9904 108.324  70
   2 -14   3 6985.02 340.993  81
  -2  14  -3 6922.49 340.565  85
  -2  14  -3 7530.11 347.032  70
   2 -14   4 487.422 137.425  61
   2 -14   4 405.005 130.967  81
  -2  14  -4 457.318 130.361  85
  -2  14  -4 574.271 135.954  70
   2 -14   5 4189.42 256.620  61
  -2  14  -5 3834.98 251.942  85
   2 -14   5 3747.09 251.223  81
  -2  14  -5 3929.80 251.680  70
   2 -14   6 738.353 139.521  61
  -2  14  -6 885.873 145.280  57
   2 -14   6 742.549 141.151  81
  -2  14  -6 686.427 135.432  85
  -2  14  -6 884.240 150.544  70
  -2  14  -7 1286.42 156.777  85
   2 -14   7 1093.57 148.919  81
  -2  14  -7 1366.58 158.539  70
  -2  14  -8 1579.11 161.349  85
   2 -13  -4 306.445 112.280  81
  -2  13   4 389.526 106.370  70
   2 -13  -3 4538.48 279.949  81
  -2  13   3 4057.86 227.161  89
  -2  13   3 4395.94 268.289  70
   2 -13  -2 974.721 172.498  81
   2 -13  -2 1046.51 149.341  62
  -2  13   2 775.469 135.868  89
  -2  13   2 932.075 164.801  70
   2 -13  -1 3599.29 279.118  81
   2 -13  -1 3693.51 255.540  62
  -2  13   1 3309.44 241.709  89
  -2  13   1 3257.31 269.126  70
   2 -13   0 3441.62 282.572  81
   2 -13   0 3986.12 273.854  62
  -2  13   0 3665.54 266.676  89
  -2  13   0 3647.51 289.901  70
   2 -13   1 2467.95 252.990  81
   2 -13   1 2359.52 231.345  62
  -2  13  -1 2322.78 234.560  89
  -2  13  -1 2350.22 253.296  70
   2 -13   2 9021.36 459.357  81
   2 -13   2 9899.56 459.915  62
  -2  13  -2 8971.46 438.792  89
  -2  13  -2 9488.18 474.810  70
   2 -13   3 1768.43 234.338  81
   2 -13   3 1778.00 220.518  62
  -2  13  -3 1754.52 215.348  89
  -2  13  -3 1765.68 235.382  70
   2 -13   4 9269.37 469.835  81
  -2  13  -4 9161.25 469.327  70
   2 -13   5-22.0004 150.499  61
   2 -13   5-7.40892 143.845  81
  -2  13  -5 138.750 158.192  85
  -2  13  -5-37.3248 154.880  70
   2 -13   6 6232.71 378.341  61
  -2  13  -6 5746.58 370.173  85
   2 -13   6 5619.15 362.878  81
  -2  13  -6 6342.50 382.013  70
   2 -13   7 3207.95 279.254  61
  -2  13  -7 2978.72 268.669  85
   2 -13   7 2517.39 254.724  81
  -2  13  -7 2882.76 265.839  70
   2 -13   8 9816.41 444.447  61
  -2  13  -8 8745.23 436.237  85
   2 -13   8 8574.46 416.330  81
  -2  13  -8 9764.24 450.713  70
   2 -13   9 1716.39 196.200  61
  -2  13  -9 1493.94 198.677  85
   2 -13   9 1307.90 173.466  81
  -2  13  -9 1508.16 198.931  70
   2 -13  10 3351.42 227.653  81
  -2  13 -10 4307.05 275.897  57
   2 -13  10 4021.32 250.177  61
  -2  13 -10 3196.36 245.235  85
  -2  13 -10 3756.18 257.498  70
  -2  13 -11 3398.17 215.742  85
  -2  13 -11 3818.91 232.647  88
   2 -12  -6 819.025 147.794  82
  -2  12   6 808.078 116.973  89
  -2  12   6 1101.58 141.579  75
   2 -12  -5 1128.67 181.625  82
  -2  12   5 1107.30 165.115  75
   2 -12  -5 1139.50 160.009  62
  -2  12   5 895.550 137.618  89
   2 -12  -4 1031.58 185.710  82
   2 -12  -4 1093.38 178.486  41
  -2  12   4 1147.37 181.360  75
   2 -12  -4 1266.33 175.629  62
  -2  12   4 1016.25 169.916  89
   2 -12  -3-8.24754 131.949  82
   2 -12  -3-15.4152 135.590  41
   2 -12  -3 77.6454 122.767  62
  -2  12   3-12.7294 132.410  89
  -2  12   3 87.7441 139.310  75
   2 -12  -2 12676.0 564.509  41
   2 -12  -2 12513.7 539.403  62
  -2  12   2 11237.5 507.474  89
  -2  12   2 11071.3 528.311  75
   2 -12  -1-17.7250 138.531  41
  -2  12   1 98.1410 154.931  89
   2 -12  -1 103.465 134.100  62
   2 -12   0 15497.8 660.450  41
   2 -12   0 14306.7 612.059  62
   2 -12   1 819.274 212.461  81
   2 -12   1 854.990 206.717  41
  -2  12  -1 589.276 206.066  70
   2 -12   1 917.174 199.122  62
  -2  12  -1 536.098 187.926  89
   2 -12   2 7544.46 461.348  81
   2 -12   2 8059.90 482.776  41
   2 -12   2 8649.60 467.605  62
  -2  12  -2 7486.33 451.457  89
  -2  12  -2 7549.06 482.491  70
   2 -12   3 3822.92 351.923  81
   2 -12   3 4238.10 341.024  62
  -2  12  -3 3466.16 323.553  89
  -2  12  -3 3526.15 347.289  70
   2 -12   4 4661.71 376.175  81
   2 -12   4 4858.96 371.575  62
   2 -12   4 5329.15 322.525  65
  -2  12  -4 5069.00 384.433  89
  -2  12  -4 5275.78 406.439  70
   2 -12   5 11757.2 589.073  81
   2 -12   5 12182.7 501.602  65
  -2  12  -5 11765.6 568.595  89
  -2  12  -5 12132.5 602.397  70
   2 -12   6 1859.18 224.214  65
   2 -12   6 1765.46 266.468  81
  -2  12  -6 1771.78 264.538  85
  -2  12  -6 2083.29 283.984  70
   2 -12   7 12745.4 600.940  61
  -2  12  -7 11181.2 570.781  85
   2 -12   7 10325.0 546.070  81
  -2  12  -7 11965.4 575.643  70
   2 -12   8 280.165 189.906  61
   2 -12   8 262.991 178.946  81
  -2  12  -8 292.144 177.719  85
  -2  12  -8 381.075 191.256  70
   2 -12   9 8436.86 464.518  61
  -2  12  -9 7785.84 450.911  85
   2 -12   9 7988.40 441.065  81
  -2  12  -9 8622.06 458.600  70
   2 -12  10 280.854 161.186  61
   2 -12  10 351.656 159.563  81
  -2  12 -10 373.672 174.687  85
  -2  12 -10 538.329 180.486  70
   2 -12  11 6476.81 337.308  81
  -2  12 -11 6874.65 381.441  57
   2 -12  11 7028.72 364.147  61
  -2  12 -11 5537.75 345.741  85
  -2  12 -11 5764.12 352.156  70
   2 -12  12 1850.32 177.228  81
  -2  12 -12 1859.76 202.985  85
  -2  12 -13 652.624 141.585  88
   2 -11  -8 5682.98 317.159  82
   2 -11  -8 5651.17 294.747  62
  -2  11   8 5871.79 263.547  89
  -2  11   8 6507.88 297.721  75
  -2  11   7-5.79689 110.089  75
   2 -11  -7 18.0243 99.5545  62
   2 -11  -7-28.3894 117.603  82
  -2  11   6 7399.82 397.926  75
   2 -11  -6 7611.90 424.143  41
   2 -11  -6 7683.56 408.984  62
   2 -11  -6 7581.87 432.007  82
  -2  11   5 12416.2 559.209  75
   2 -11  -5 13149.6 584.026  41
   2 -11  -5 12817.2 568.650  62
   2 -11  -5 12470.8 592.286  82
  -2  11   4 5476.84 385.186  75
   2 -11  -4 5890.04 393.093  41
   2 -11  -4 5169.60 366.659  62
   2 -11  -4 5608.08 402.503  82
  -2  11   3 13429.8 630.075  75
   2 -11  -3 14901.7 658.934  41
   2 -11  -3 14048.2 629.524  62
   2 -11  -3 14178.7 659.536  82
  -2  11   2 9868.65 538.419  75
   2 -11  -2 10783.6 557.874  41
   2 -11  -2 9829.87 524.564  62
   2 -11  -2 9224.81 536.427  82
   2 -11  -1 8582.09 492.620  62
   2 -11  -1 9380.78 532.318  41
  -2  11   1 9129.98 529.513  75
   2 -11   0 565.032 208.647  41
  -2  11   0 702.906 218.675  89
   2 -11   0 665.941 189.638  62
   2 -11   1 29813.9 1054.33  41
  -2  11  -1 27367.8 987.274  89
   2 -11   2 21.9140 171.269  41
  -2  11  -2 48.4380 181.592  89
   2 -11   2 102.601 190.401  81
  -2  11  -3 18371.3 770.241  89
   2 -11   3 17408.4 766.326  81
  -2  11  -4 869.950 235.618  89
   2 -11   4 1394.08 255.772  81
  -2  11  -5 20047.4 811.459  89
   2 -11   5 19753.2 831.612  62
   2 -11   5 21179.6 770.168  65
   2 -11   5 19480.1 711.536  52
   2 -11   5 19875.4 829.848  81
  -2  11  -6 1177.22 253.748  89
   2 -11   6 838.781 202.594  52
   2 -11   6 1313.53 249.070  65
  -2  11  -7 15258.5 699.367  70
   2 -11   7 16456.2 738.723  61
   2 -11   7 15053.2 632.603  65
   2 -11   7 14331.5 566.556  52
   2 -11   8 6049.83 452.736  61
   2 -11   8 6191.46 388.590  65
  -2  11  -8 4776.66 399.036  85
   2 -11   8 4821.13 405.657  81
  -2  11  -8 5467.91 413.887  70
   2 -11   9 6948.80 398.164  65
   2 -11   9 7086.88 475.663  61
   2 -11   9 5983.01 433.238  81
  -2  11  -9 6136.58 435.039  85
  -2  11  -9 6215.16 428.997  70
   2 -11  10 7987.21 476.122  61
  -2  11 -10 7609.84 466.822  85
   2 -11  10 8031.91 450.750  81
  -2  11 -10 8672.02 483.246  70
   2 -11  11 119.199 161.739  61
  -2  11 -11 167.040 171.755  57
   2 -11  11 66.5093 154.578  81
  -2  11 -11 176.387 174.385  85
  -2  11 -11 50.7304 167.680  70
   2 -11  12 3922.13 284.051  81
  -2  11 -12 4526.39 317.455  57
  -2  11 -12 3825.90 312.463  85
  -2  11 -12 4077.95 316.044  70
   2 -11  13 215.462 110.441  71
  -2  11 -13 172.708 124.644  72
   2 -11  13 281.746 113.878  81
  -2  11 -13 256.587 128.808  85
  -2  11 -14 8167.24 379.741  88
  -2  10  10 3970.34 223.476  75
   2 -10 -10 3737.41 249.791  82
  -2  10   9 3670.58 246.306  75
   2 -10  -9 3324.75 270.939  82
   2 -10  -8 4316.04 324.528  41
   2 -10  -8 3855.41 318.685  82
  -2  10   7 13666.4 596.176  75
   2 -10  -7 14388.0 631.773  41
  -2  10   7 14944.4 596.131  56
   2 -10  -7 14164.8 646.270  82
  -2  10   6 115.446 153.268  75
   2 -10  -6 46.9877 142.642  41
   2 -10  -6 123.896 161.391  82
   2 -10  -6 79.6187 180.922  45
  -2  10   6 91.8255 154.398  56
   2 -10  -5 3689.83 192.628  86
   2 -10  -5 4247.28 375.729  82
  -2  10   5 4480.49 359.528  75
  -2  10   5 4347.90 354.844  56
   2 -10  -5 4372.48 329.561  45
   2 -10  -5 4501.07 365.587  41
   2 -10  -4 2028.94 276.171  41
  -2  10   4 2333.51 320.192  11
   2 -10  -4 2706.46 257.126  45
   2 -10  -3 25900.9 753.437  86
   2 -10  -3 24824.6 983.628  82
   2 -10  -3 27070.5 994.060  41
  -2  10   3 26676.3 1088.28  11
   2 -10  -2 3567.58 240.976  86
   2 -10  -2 2905.39 320.423  82
   2 -10  -2 4045.75 257.157  35
   2 -10  -2 3768.29 354.963  41
  -2  10   2 2905.89 329.496  75
   2 -10  -2 3981.50 244.807  48
  -2  10   2 3587.87 384.670  11
  -2  10   1 19406.0 852.248  11
   2 -10  -1 18717.3 604.517  86
   2 -10  -1 17263.5 778.822  82
   2 -10  -1 19403.3 625.831  35
  -2  10   1 17645.2 784.813  75
   2 -10  -1 17698.8 753.190  62
   2 -10  -1 16728.0 540.974  48
   2 -10   0 6575.58 336.611  86
   2 -10   0 6001.84 443.401  82
   2 -10   0 7546.37 364.495  35
  -2  10   0 5937.23 445.859  75
   2 -10   0 6122.98 428.279  62
   2 -10   0 7497.72 349.138  33
   2 -10   1 674.091 159.784  86
  -2  10  -1 1038.85 247.227  89
   2 -10   1 729.347 210.081  82
  -2  10  -1 756.177 236.607  75
   2 -10   1 1302.06 240.938  65
   2 -10   1 879.646 211.423  62
   2 -10   1 843.323 176.428  33
   2 -10   1 910.698 172.693  35
   2 -10   2 17889.3 647.384  86
  -2  10  -2 21048.2 833.376  89
   2 -10   2 21604.7 698.319  35
   2 -10   2 23512.3 780.504  65
   2 -10   2 19722.5 817.871  62
   2 -10   2 20414.3 670.222  33
  -2  10  -3 609.889 225.962  89
   2 -10   3 659.742 160.554  86
   2 -10   3 615.120 226.972  81
   2 -10   3 631.035 167.121  35
   2 -10   3 669.150 205.013  62
   2 -10   3 759.062 238.137  65
   2 -10   3 718.071 179.984  33
  -2  10  -4 38011.6 1231.22  70
   2 -10   4 33857.4 1170.21  81
   2 -10   4 32112.5 1067.76  65
   2 -10   4 36716.9 1192.01  62
  -2  10  -4 35704.2 1173.57  89
  -2  10  -5 442.290 224.668  70
   2 -10   5 475.904 221.604  81
   2 -10   5 765.552 230.186  62
   2 -10   5 556.441 243.220  65
  -2  10  -5 440.116 220.306  89
  -2  10  -6 8406.68 532.839  70
   2 -10   6 8896.97 548.753  81
   2 -10   6 8945.54 541.107  62
  -2  10  -6 7927.50 501.679  89
  -2  10  -7 3064.50 356.303  70
   2 -10   7 3147.05 359.053  81
  -2  10  -7 2798.40 333.760  85
   2 -10   7 3178.20 342.869  65
  -2  10  -8 15676.7 734.055  85
   2 -10   8 15850.1 748.718  81
   2 -10   8 17165.5 622.497  52
   2 -10   9 2749.48 354.863  61
   2 -10   9 2710.72 301.605  65
  -2  10  -9 2519.42 322.207  70
  -2  10  -9 2341.40 320.846  85
   2 -10  10 12252.4 634.934  61
   2 -10  10 12519.9 562.564  65
  -2  10 -10 12095.5 621.271  70
   2 -10  10 10948.8 589.229  81
  -2  10 -11 3426.22 352.303  70
   2 -10  11 2585.71 204.319  78
   2 -10  11 3758.40 332.812  81
  -2  10 -11 4622.75 390.320  57
   2 -10  11 4377.29 372.044  61
  -2  10 -11 3175.01 337.574  85
  -2  10 -12 3567.81 325.948  70
   2 -10  12 3376.55 296.207  81
   2 -10  12 2776.05 186.813  78
  -2  10 -12 4033.60 336.349  57
  -2  10 -12 2682.13 299.026  85
  -2  10 -13 8626.93 441.331  85
   2 -10  13 8063.26 391.745  81
   2 -10  13 7802.66 379.481  71
  -2  10 -13 7167.76 408.281  72
   2 -10  14 2907.01 222.523  81
   2 -10  14 3170.65 221.565  71
  -2  10 -15 5788.47 306.976  88
  -2   9  11 6770.50 311.345  75
   2  -9 -11 6394.66 341.520  82
  -2   9  10 268.010 128.227  75
   2  -9 -10 293.895 147.536  82
  -2   9  10 389.031 135.928  56
  -2   9   9 10021.5 475.701  75
   2  -9  -9 8554.94 472.066  41
  -2   9   9 10490.8 462.728  56
   2  -9  -9 7584.80 472.564  82
  -2   9   8 484.691 178.403  75
   2  -9  -8 440.226 181.444  41
   2  -9  -8 569.990 201.175  82
  -2   9   8 580.483 191.289  56
   2  -9  -7 14253.0 442.840  86
   2  -9  -7 16924.2 771.262  82
  -2   9   7 16050.3 695.951  75
  -2   9   7 16529.0 683.305  56
   2  -9  -7 16526.5 716.267  41
   2  -9  -7 15464.5 645.674  45
  -2   9   6 10308.5 618.407  11
   2  -9  -6 7836.54 340.215  86
   2  -9  -6 9023.10 531.697  41
  -2   9   6 9467.03 521.327  56
   2  -9  -6 10933.6 498.929  45
   2  -9  -5 10356.6 421.560  86
   2  -9  -5 10903.6 617.645  82
   2  -9  -5 11643.2 606.225  41
  -2   9   5 11279.8 600.434  75
  -2   9   5 11822.6 690.453  11
   2  -9  -5 12532.1 513.084  45
   2  -9  -4 1252.92 255.793  82
  -2   9   4 1284.78 255.136  75
   2  -9  -4 1146.55 158.784  86
  -2   9   4 1176.41 253.132  56
   2  -9  -3 9087.77 393.158  86
   2  -9  -3 7971.37 521.723  82
   2  -9  -3 7935.26 501.725  41
   2  -9  -3 8489.47 381.424  35
  -2   9   3 8599.40 525.367  75
  -2   9   3 8716.98 523.563  56
   2  -9  -3 10030.8 424.325  28
   2  -9  -2 29819.3 865.096  86
   2  -9  -2 27102.3 1039.28  82
   2  -9  -2 29319.2 1050.98  41
  -2   9   2 27722.2 1040.62  75
   2  -9  -2 28864.2 804.327  48
  -2   9   1 3502.29 379.571  11
   2  -9  -1 3552.31 252.877  86
   2  -9  -1 3117.73 327.028  82
   2  -9  -1 3437.97 323.408  41
  -2   9   1 3535.33 347.661  75
   2  -9  -1 3292.28 246.012  48
   2  -9  -1 4323.22 288.515  28
   2  -9  -1 3662.48 239.292  33
   2  -9   0 19358.2 630.632  28
  -2   9   0 17247.5 779.077  11
   2  -9   0 16743.8 581.205  86
   2  -9   0 14930.0 707.319  82
   2  -9   0 16173.2 726.329  41
  -2   9   0 15838.0 731.223  75
   2  -9   0 15584.7 699.910  62
   2  -9   0 18612.4 693.134  52
   2  -9   1 194.611 123.040  86
   2  -9   1 142.619 163.752  82
   2  -9   1 284.200 169.639  41
  -2   9  -1 150.021 181.828  75
   2  -9   1 192.285 161.357  62
   2  -9   1 7.52826 217.002  52
   2  -9   2 964.208 233.466  82
  -2   9  -2 1039.79 239.939  89
   2  -9   2 925.352 166.071  86
   2  -9   2 1012.44 215.554  62
   2  -9   2 1460.33 258.859  52
  -2   9  -2 849.059 221.727  75
  -2   9  -3 3710.16 348.640  89
   2  -9   3 3409.14 264.001  86
   2  -9   3 4279.21 357.717  62
   2  -9   4 21350.1 693.704  33
   2  -9   4 22041.9 870.168  81
  -2   9  -4 22067.6 839.972  89
  -2   9  -4 21930.1 881.216  70
   2  -9   4 22794.3 867.396  62
   2  -9   5 18080.0 655.022  33
  -2   9  -5 18005.7 779.828  89
  -2   9  -5 19435.3 815.815  70
   2  -9   5 18301.0 803.224  81
   2  -9   5 20451.8 771.716  65
   2  -9   5 19183.9 814.451  62
  -2   9  -6 1183.74 251.787  89
  -2   9  -6 945.169 249.903  70
   2  -9   6 1317.71 267.001  81
   2  -9   6 961.814 272.277  65
   2  -9   6 1152.27 263.807  62
  -2   9  -7 10349.0 565.312  89
  -2   9  -7 11038.9 595.223  70
   2  -9   7 10331.0 600.948  81
  -2   9  -7 10207.2 590.377  85
   2  -9   7 8749.26 539.615  65
   2  -9   8 708.026 254.904  65
   2  -9   8 742.735 270.540  61
  -2   9  -8 675.218 222.796  70
   2  -9   8 614.503 249.665  81
  -2   9  -8 606.865 234.148  85
  -2   9  -9 16297.8 745.418  70
  -2   9  -9 14922.5 738.316  85
   2  -9   9 15331.7 747.549  81
   2  -9   9 16552.8 627.094  47
   2  -9   9 15834.0 737.002  54
   2  -9   9 16868.8 797.776  61
   2  -9   9 17044.7 731.298  65
   2  -9  10 1430.39 264.383  81
  -2   9 -10 1446.11 269.258  85
   2  -9  10 1940.21 298.575  54
   2  -9  10 1973.51 219.816  47
  -2   9 -11 10128.5 574.284  70
   2  -9  11 11097.0 597.127  61
  -2   9 -11 11366.4 617.588  57
   2  -9  11 10672.5 527.673  65
   2  -9  11 10209.6 439.693  47
   2  -9  11 11296.8 574.440  54
  -2   9 -12 1703.23 264.429  85
  -2   9 -12 1757.86 268.467  70
   2  -9  12 1497.25 181.337  78
   2  -9  12 1852.09 254.798  81
  -2   9 -12 2219.64 285.794  57
   2  -9  12 2259.98 278.427  54
   2  -9  13 3272.39 283.769  71
  -2   9 -13 3035.64 301.973  72
   2  -9  13 3342.26 287.867  81
   2  -9  13 3035.62 208.490  78
  -2   9 -13 3775.62 329.889  85
   2  -9  13 3982.59 318.028  54
   2  -9  14 2184.82 152.360  78
   2  -9  14 2265.93 225.392  81
  -2   9 -14 2710.69 263.186  85
   2  -9  14 2066.93 213.359  71
  -2   9 -14 2428.89 247.760  72
  -2   9 -15 2430.60 248.754  88
   2  -9  15 1522.69 160.215  71
   2  -8 -12 1588.53 197.607  82
  -2   8  12 1653.99 172.593  75
  -2   8  11 5219.01 321.611  75
  -2   8  11 5202.12 303.559  56
   2  -8 -11 4613.45 349.866  82
  -2   8  10 7762.40 435.820  75
   2  -8 -10 7801.78 460.974  41
  -2   8  10 8957.83 432.260  56
  -2   8   9 218.995 159.388  75
   2  -8  -9 293.688 176.205  41
   2  -8  -9 128.681 181.172  82
  -2   8   9 358.012 171.156  56
   2  -8  -8 19818.8 663.431  40
   2  -8  -8 16701.3 773.238  41
  -2   8   8 18610.0 779.259  75
  -2   8   8 20156.4 872.918  11
   2  -8  -8 17574.2 720.473  45
  -2   8   8 19414.9 762.722  56
   2  -8  -7 2021.09 197.175  86
   2  -8  -7 2156.94 320.093  82
   2  -8  -7 2134.58 299.469  41
   2  -8  -7 2448.88 291.066  40
  -2   8   7 2175.46 294.938  75
  -2   8   7 3074.26 359.598  11
   2  -8  -7 3005.73 316.952  45
   2  -8  -6 14648.8 745.731  82
  -2   8   6 14747.9 697.871  75
   2  -8  -6 13551.0 526.044  86
  -2   8   6 15839.1 689.721  56
   2  -8  -5 429.073 139.540  86
   2  -8  -5 713.522 221.710  82
   2  -8  -5 612.354 192.918  41
  -2   8   5 548.563 200.660  75
   2  -8  -5 824.915 202.813  45
   2  -8  -5 532.463 195.390  48
  -2   8   5 618.264 221.315  56
   2  -8  -5 515.529 147.880  28
   2  -8  -4 28146.2 814.551  28
   2  -8  -4 27012.8 817.037  86
   2  -8  -4 24670.2 990.704  82
   2  -8  -4 26597.9 975.061  41
  -2   8   4 25783.5 971.238  75
  -2   8   4 26133.0 949.932  56
   2  -8  -4 26794.4 746.858  48
   2  -8  -3 13119.2 505.223  86
   2  -8  -3 12130.7 633.552  82
   2  -8  -3 12344.3 610.564  41
  -2   8   3 12753.0 631.657  75
  -2   8   3 13581.3 634.901  56
   2  -8  -3 12577.8 453.901  48
   2  -8  -2 19968.9 652.954  86
   2  -8  -2 17903.0 773.605  82
   2  -8  -2 19139.6 773.366  41
  -2   8   2 19290.1 789.573  75
  -2   8   2 19272.5 776.359  56
   2  -8  -2 21495.0 728.934  52
   2  -8  -1 15623.5 536.100  28
   2  -8  -1 13278.0 502.776  86
   2  -8  -1 12006.8 607.912  82
   2  -8  -1 13247.8 620.282  41
  -2   8   1 12922.4 623.650  75
  -2   8   1 12556.0 610.747  56
   2  -8  -1 14667.1 578.239  52
  -2   8   0 21597.3 864.009  11
   2  -8   0 20762.4 659.897  86
   2  -8   0 19306.6 781.489  82
   2  -8   0 19577.4 777.760  41
   2  -8   0 20472.2 651.348  35
  -2   8   0 19972.1 798.416  75
   2  -8   0 23763.0 774.672  52
   2  -8   0 23531.3 691.656  28
   2  -8   0 18922.0 608.767  33
   2  -8   1 28192.4 775.965  28
   2  -8   1 24603.0 708.098  33
  -2   8  -1 24707.5 908.497  11
   2  -8   1 23005.3 729.027  86
   2  -8   1 22283.9 865.930  82
   2  -8   1 24885.7 743.060  35
  -2   8  -1 23736.3 882.202  75
   2  -8   1 23682.3 868.654  62
   2  -8   1 27316.8 864.402  52
   2  -8   2 9161.02 398.642  28
   2  -8   2 7898.62 350.244  33
   2  -8   2 7674.22 362.299  86
   2  -8   2 8083.05 485.119  82
  -2   8  -2 7803.34 468.267  75
   2  -8   2 8231.69 465.040  62
   2  -8   2 8517.58 377.417  35
   2  -8   3 23841.4 704.528  28
   2  -8   3 22441.5 656.063  33
  -2   8  -3 21330.9 794.040  89
   2  -8   3 19327.4 654.106  86
   2  -8   3 21890.2 679.981  35
   2  -8   3 21381.9 805.730  62
   2  -8   3 19119.7 805.660  52
   2  -8   4 1445.56 182.806  33
  -2   8  -4 763.886 210.108  89
   2  -8   4 741.098 154.602  86
   2  -8   4 877.034 221.811  81
   2  -8   4 1211.18 179.531  35
  -2   8  -4 858.628 220.869  70
   2  -8   4 1379.51 231.502  62
   2  -8   5 27105.6 792.962  33
  -2   8  -5 26976.2 924.412  89
   2  -8   5 27394.5 961.993  81
   2  -8   5 27276.7 811.250  35
  -2   8  -5 27759.7 962.292  70
   2  -8   5 28948.2 983.121  62
   2  -8   5 27976.4 847.611  47
   2  -8   5 26665.3 929.497  54
  -2   8  -6 5819.57 418.575  89
   2  -8   6 5896.54 432.573  81
   2  -8   6 6195.89 347.418  35
  -2   8  -6 6167.29 428.229  70
   2  -8   6 6673.11 459.740  62
   2  -8   6 6307.67 364.050  47
   2  -8   6 6198.79 426.741  54
   2  -8   7 18236.6 778.112  81
  -2   8  -7 17899.4 756.599  85
  -2   8  -7 18205.4 737.679  89
  -2   8  -7 18390.8 751.967  70
   2  -8   7 17754.1 723.832  65
   2  -8   7 16663.7 641.364  47
   2  -8   7 16697.9 733.215  54
  -2   8  -8 5684.92 426.028  85
   2  -8   8 6542.38 466.062  81
   2  -8   8 5661.65 355.338  47
   2  -8   8 5666.45 425.350  54
  -2   8  -8 6415.19 435.932  70
   2  -8   8 6573.01 492.268  61
   2  -8   8 5740.25 437.705  65
   2  -8   8 6744.24 447.655  15
   2  -8   9 1175.09 260.427  81
  -2   8  -9 1050.20 238.751  85
   2  -8   9 1275.65 211.912  47
   2  -8   9 1182.32 260.360  54
  -2   8  -9 1075.65 248.831  70
   2  -8   9 1051.41 281.604  65
   2  -8   9 1473.69 301.218  61
   2  -8   9 1170.53 307.951  15
  -2   8 -10 24994.5 958.179  70
   2  -8  10 25564.6 990.258  61
   2  -8  10 26170.7 840.636  15
  -2   8 -10 23724.1 956.302  85
   2  -8  10 23821.7 932.234  81
   2  -8  11 1102.80 195.220  47
   2  -8  11 1288.58 259.916  54
   2  -8  11 1122.07 247.818  15
   2  -8  11 1060.81 238.504  81
  -2   8 -11 907.565 238.418  85
  -2   8 -12 18239.5 791.975  70
  -2   8 -12 22321.3 834.192  57
   2  -8  12 18248.1 651.297  47
   2  -8  12 22269.2 827.614  54
   2  -8  13 15.2028 115.445  47
   2  -8  13-8.44193 172.773  54
   2  -8  13 207.035 158.379  81
   2  -8  13 113.000 119.239  78
  -2   8 -13 67.4552 166.312  85
   2  -8  13 83.8972 156.530  71
  -2   8 -13 57.9527 164.072  72
   2  -8  14 7153.91 394.347  81
   2  -8  14 7237.25 329.474  78
  -2   8 -14 9839.70 533.132  88
  -2   8 -14 6993.56 427.730  85
   2  -8  14 7560.18 322.986  47
   2  -8  14 9729.49 459.910  54
   2  -8  14 7565.17 390.021  71
  -2   8 -14 6628.81 411.321  72
   2  -8  15 362.207 94.2011  78
  -2   8 -15 485.683 181.557  88
   2  -8  15 564.895 154.730  54
   2  -8  15 478.643 132.814  71
  -2   8 -16 4250.61 251.509  88
   2  -7 -13 20.2426 113.690  82
  -2   7  13 69.6935 97.2501  75
  -2   7  12 8369.19 419.844  75
   2  -7 -12 7915.06 473.202  82
  -2   7  12 8910.62 396.325  56
  -2   7  11 429.472 150.556  56
  -2   7  11 349.982 160.631  75
   2  -7 -10 9094.05 539.409  41
  -2   7  10 10276.8 535.435  75
  -2   7  10 10280.2 522.619  90
  -2   7  10 10829.4 510.303  56
   2  -7  -9 6362.61 324.959  86
  -2   7   9 7100.85 456.832  90
   2  -7  -9 6739.96 513.654  84
   2  -7  -9 8530.50 444.270  40
   2  -7  -9 6758.50 494.732  41
  -2   7   9 9529.89 568.769  11
  -2   7   9 7890.35 462.929  56
   2  -7  -9 7495.33 480.905  45
   2  -7  -8 10381.8 467.762  86
  -2   7   8 12389.7 614.040  90
   2  -7  -8 12785.5 698.052  84
   2  -7  -8 11411.2 537.458  40
   2  -7  -8 11587.2 639.263  41
  -2   7   8 12992.6 646.892  75
  -2   7   8 13485.6 712.418  11
  -2   7   8 13130.5 616.569  56
   2  -7  -8 13223.6 593.317  45
   2  -7  -7 13922.6 571.913  86
  -2   7   7 15511.0 715.784  90
   2  -7  -7 17552.0 811.385  84
  -2   7   7 16329.4 744.018  75
  -2   7   7 17063.3 718.649  56
  -2   7   7 18563.3 869.487  11
   2  -7  -7 15544.6 735.384  41
   2  -7  -6 5683.76 340.856  86
  -2   7   6 5781.47 430.920  90
  -2   7   6 5878.74 443.181  75
   2  -7  -6 5832.73 427.868  41
   2  -7  -6 5206.96 315.926  28
   2  -7  -6 6619.60 376.796  45
  -2   7   6 5920.70 421.911  56
   2  -7  -6 5592.23 324.468  48
   2  -7  -5 22518.0 866.210  41
  -2   7   5 22589.2 876.488  75
   2  -7  -5 22223.4 741.034  86
  -2   7   5 21204.9 850.244  90
   2  -7  -5 22841.9 662.019  48
  -2   7   5 23345.6 856.508  56
   2  -7  -4 70.2625 122.180  86
   2  -7  -4 203.773 177.233  82
   2  -7  -4 240.583 167.635  41
  -2   7   4 161.540 175.771  75
   2  -7  -4 149.972 174.524  48
  -2   7   4 277.148 184.986  56
   2  -7  -4 157.054 151.440  29
   2  -7  -4 169.092 133.166  28
   2  -7  -3 25374.6 793.854  28
   2  -7  -3 30137.5 876.728  32
   2  -7  -3 29667.5 835.877  29
   2  -7  -3 23552.7 769.919  86
   2  -7  -3 24179.6 918.612  82
   2  -7  -3 24395.7 888.281  41
  -2   7   3 23942.7 893.386  75
  -2   7   3 24331.7 880.233  56
   2  -7  -3 26281.0 819.645  52
   2  -7  -2 8640.13 389.597  29
   2  -7  -2 6871.64 349.729  28
   2  -7  -2 8518.74 410.016  32
   2  -7  -2 6564.58 340.691  86
   2  -7  -2 6166.37 410.342  82
   2  -7  -2 6027.21 398.684  41
  -2   7   2 6187.95 409.193  75
  -2   7   2 6549.32 409.137  56
   2  -7  -2 7485.08 384.819  52
   2  -7  -1 10415.1 421.927  29
   2  -7  -1 8914.06 390.060  28
   2  -7  -1 8734.11 382.508  86
   2  -7  -1 7528.85 445.028  82
   2  -7  -1 8194.52 445.181  41
  -2   7   1 8572.73 468.167  75
  -2   7   1 8977.81 471.737  56
   2  -7  -1 9572.71 446.712  52
  -2   7   0 11251.9 568.574  11
   2  -7   0 9943.73 410.453  86
   2  -7   0 9536.76 493.933  82
   2  -7   0 9839.94 483.235  41
  -2   7   0 10686.2 517.484  75
   2  -7   0 11413.3 439.440  28
   2  -7   0 9965.10 487.448  52
   2  -7   1 13208.4 475.370  86
   2  -7   1 13637.9 588.900  82
  -2   7  -1 13878.1 585.180  75
   2  -7   1 14850.0 503.437  28
   2  -7   2 27497.3 807.271  86
   2  -7   2 28896.0 956.229  82
  -2   7  -2 29169.6 902.059  69
  -2   7  -2 29145.1 950.063  75
   2  -7   2 29889.9 948.895  62
   2  -7   2 29196.1 816.502  35
   2  -7   3 6759.44 307.795  33
   2  -7   3 6994.34 332.540  28
   2  -7   3 6512.11 318.285  86
   2  -7   3 6751.51 319.891  35
  -2   7  -3 7230.58 415.008  75
   2  -7   3 7511.81 421.207  62
   2  -7   3 7726.81 361.526  47
   2  -7   3 7105.69 392.237  54
   2  -7   4 23237.6 664.220  33
   2  -7   4 24291.4 692.649  28
  -2   7  -4 21643.2 768.303  89
   2  -7   4 20808.6 673.115  86
   2  -7   4 21573.5 798.302  81
   2  -7   4 23805.0 691.689  35
  -2   7  -4 22771.5 803.103  70
   2  -7   4 23283.9 817.235  62
   2  -7   4 23001.5 721.949  47
   2  -7   4 22056.4 779.439  54
   2  -7   5 16768.6 545.950  33
  -2   7  -5 17622.2 666.507  89
   2  -7   5 15363.0 558.219  86
   2  -7   5 17318.4 689.915  81
   2  -7   5 16397.0 561.617  35
  -2   7  -5 17302.1 674.303  70
   2  -7   5 18168.4 706.856  62
   2  -7   5 16941.3 675.737  54
   2  -7   5 16821.2 605.255  47
   2  -7   6 28301.6 798.037  33
   2  -7   6 27653.1 754.701   8
  -2   7  -6 27016.2 905.123  89
   2  -7   6 24844.1 797.299  86
   2  -7   6 29376.2 962.181  81
   2  -7   6 26707.9 801.611  35
  -2   7  -6 27389.1 918.836  70
   2  -7   6 29835.7 984.135  62
   2  -7   6 26798.1 844.219  47
   2  -7   6 26821.7 924.425  54
  -2   7  -7 2937.96 288.986  89
  -2   7  -7 2849.76 273.747  87
  -2   7  -7 3191.23 302.900  85
   2  -7   7 3149.34 317.435  81
   2  -7   7 3729.73 288.865   8
  -2   7  -7 2934.18 307.668  70
   2  -7   7 2898.77 314.762  54
   2  -7   7 3016.57 267.257  47
   2  -7   7 3780.04 275.197  33
  -2   7  -8 49285.8 1424.84  85
   2  -7   8 48340.2 1436.04  81
   2  -7   8 43136.8 1221.23  17
   2  -7   8 54179.0 1339.81  10
   2  -7   8 40481.9 1201.74   8
   2  -7   8 57648.5 1395.62  15
  -2   7  -8 51046.1 1417.11  70
   2  -7   8 54600.3 1512.72  61
   2  -7   8 49353.1 1386.36  65
   2  -7   8 47379.2 1414.64  54
   2  -7   8 47252.7 1313.06  47
   2  -7   9 10669.8 564.682  54
  -2   7  -9 9132.19 527.887  85
   2  -7   9 9176.50 534.987  81
   2  -7   9 11197.5 488.872  10
   2  -7   9 10564.7 554.624  15
  -2   7  -9 10095.9 540.217  70
   2  -7   9 9888.24 579.628  61
   2  -7   9 8614.11 519.003  65
   2  -7   9 7204.26 493.720  25
   2  -7  10 38665.8 1218.98  54
  -2   7 -10 33453.6 1185.57  85
   2  -7  10 34030.8 1152.51  81
   2  -7  10 38809.7 1076.89  10
   2  -7  10 36122.5 1106.13  15
  -2   7 -10 32580.6 1160.86  70
   2  -7  10 37676.7 1228.81  61
   2  -7  10 38927.1 1174.34  65
   2  -7  10 37208.7 1049.57  25
   2  -7  11 949.199 231.717  81
  -2   7 -11 841.906 231.507  85
   2  -7  11 1274.14 277.074  15
  -2   7 -11 940.735 248.631  70
   2  -7  11 948.085 250.709  61
   2  -7  11 864.408 238.629  65
  -2   7 -11 1184.13 261.864  57
   2  -7  12 6522.34 378.228  78
   2  -7  12 6419.64 436.580  81
  -2   7 -12 6438.47 468.365  85
   2  -7  12 7611.43 473.304  54
   2  -7  12 6889.12 390.785  47
  -2   7 -13 13055.6 644.344  85
   2  -7  13 14080.5 601.770  71
  -2   7 -13 12356.9 631.802  72
   2  -7  13 13280.3 600.103  81
  -2   7 -13 17150.4 707.124  64
   2  -7  13 17970.4 701.376  54
   2  -7  13 14086.1 544.755  47
  -2   7 -14 1823.08 296.462  88
   2  -7  14 1301.84 197.823  71
  -2   7 -14 1018.52 210.655  72
   2  -7  14 723.444 176.965  81
   2  -7  14 1033.02 165.788  78
  -2   7 -14 1250.16 223.939  85
  -2   7 -14 1432.35 246.514  64
   2  -7  14 1047.25 161.450  47
   2  -7  14 1506.54 236.871  54
   2  -7  15 9171.00 366.802  78
  -2   7 -15 11682.1 520.943  88
   2  -7  15 8332.26 341.329  47
   2  -7  15 11603.6 483.973  54
   2  -7  15 7939.79 389.338  71
   2  -7  16 324.826 132.685  54
   2  -6 -14 3246.93 260.705  82
  -2   6  14 3227.87 222.369  75
  -2   6  13 8014.78 370.090  56
  -2   6  13 7804.70 405.476  75
   2  -6 -12 1359.45 268.154  84
  -2   6  12 1098.44 211.538  75
  -2   6  12 1172.16 196.084  56
  -2   6  12 1499.40 220.262  90
  -2   6  11 15007.1 658.169  75
  -2   6  11 15914.0 615.863  56
  -2   6  10 430.881 185.529  90
   2  -6 -10 265.096 131.377  86
   2  -6 -10 419.927 228.359  84
   2  -6 -10 518.433 216.229  41
   2  -6 -10 416.901 250.902  40
  -2   6  10 455.603 197.969  11
  -2   6  10 319.216 168.023  56
   2  -6 -10 495.446 270.859  45
  -2   6   9 16224.2 726.739  90
   2  -6  -9 16918.1 828.453  84
   2  -6  -9 16091.8 655.335  40
   2  -6  -9 15889.0 773.742  41
  -2   6   9 17120.1 768.958  75
   2  -6  -9 18175.6 712.109  68
   2  -6  -9 15720.8 706.587  45
  -2   6   9 17506.4 725.442  56
  -2   6   9 19386.4 854.420  11
  -2   6   8 13.4058 175.943  11
  -2   6   8 142.271 180.808  90
   2  -6  -8 242.385 215.845  84
   2  -6  -8 157.693 176.093  41
   2  -6  -8 148.341 241.137  40
  -2   6   8 139.836 182.744  75
   2  -6  -8 116.946 239.062  68
   2  -6  -8 254.513 169.297  29
   2  -6  -8 344.085 202.586  32
   2  -6  -8 257.581 231.456  45
  -2   6   8 122.273 172.797  56
  -2   6   7 23430.7 996.466  11
  -2   6   7 20953.2 847.338  90
   2  -6  -7 21948.2 923.654  84
   2  -6  -7 19828.1 849.154  41
   2  -6  -7 24426.1 744.078  40
  -2   6   7 21013.5 869.199  75
   2  -6  -7 20643.6 779.167  68
   2  -6  -7 24610.0 811.627  32
   2  -6  -7 23899.6 773.114  45
  -2   6   7 21424.6 826.345  56
   2  -6  -7 21717.4 670.339  48
  -2   6   6 8927.16 519.846  90
   2  -6  -6 10427.6 587.130  84
   2  -6  -6 10437.6 554.204  41
   2  -6  -6 10062.2 499.504  68
  -2   6   6 10500.0 564.062  75
   2  -6  -6 11795.7 485.879  29
   2  -6  -6 11090.9 422.320  48
  -2   6   6 10852.7 541.651  56
  -2   6   5 26879.9 958.209  90
   2  -6  -5 26811.5 984.063  84
   2  -6  -5 27528.8 948.205  41
  -2   6   5 27985.5 978.442  75
   2  -6  -5 27031.5 867.716  68
   2  -6  -5 31294.1 920.162  32
   2  -6  -5 29167.0 864.266  29
   2  -6  -5 27266.8 757.136  48
  -2   6   5 28009.9 936.715  56
  -2   6   4 1928.37 251.278  90
   2  -6  -4 1925.41 249.850  84
   2  -6  -4 2198.48 243.787  68
  -2   6   4 1923.67 254.197  75
   2  -6  -4 1976.80 230.814  41
   2  -6  -4 2216.25 226.665  29
   2  -6  -4 2283.89 243.577  32
   2  -6  -4 1749.84 200.681  48
  -2   6   4 2176.61 251.772  56
  -2   6   3 13041.8 584.431  90
   2  -6  -3 12602.4 557.754  41
  -2   6   3 13511.6 592.189  75
   2  -6  -3 13219.1 507.620  68
   2  -6  -3 14475.4 522.344  52
  -2   6   3 12958.2 558.401  56
   2  -6  -3 14131.8 522.104  29
   2  -6  -3 14792.7 559.511  32
   2  -6  -2 75866.1 1747.66  52
   2  -6  -2 63017.5 1795.17  82
   2  -6  -2 65849.2 1773.41  41
   2  -6  -2 69706.2 1668.11  68
  -2   6   2 69898.8 1816.42  75
  -2   6   2 71140.3 1788.24  56
   2  -6  -2 81419.6 1759.24  29
   2  -6  -2 80784.3 1773.90  32
   2  -6  -1 119.916 125.970  82
   2  -6  -1 116.805 124.843  41
  -2   6   1 224.862 150.288  75
   2  -6  -1 157.628 140.821  68
   2  -6  -1 180.627 140.247  29
   2  -6  -1 45.8100 144.239  32
   2  -6  -1 130.917 142.685  52
  -2   6   1 102.017 142.636  56
   2  -6   0 105987. 2568.02  82
   2  -6   0 105219. 2543.67  41
  -2   6   0 113137. 2579.26  75
   2  -6   0 106589. 2463.32  28
   2  -6   0 117220. 2499.45  32
   2  -6   0 103169. 2439.15  86
   2  -6   1 921.131 136.678  86
   2  -6   1 882.719 172.586  82
  -2   6  -1 856.215 180.996  11
  -2   6  -1 868.620 171.349  75
   2  -6   1 1046.49 153.161  47
   2  -6   1 1051.95 159.628  29
   2  -6   1 786.048 143.448  28
   2  -6   1 1036.08 170.557  32
   2  -6   2 15486.1 489.240  29
   2  -6   2 13654.6 471.842  28
   2  -6   2 13670.3 462.839  86
   2  -6   2 14305.4 567.605  82
  -2   6  -2 14169.2 539.430  69
  -2   6  -2 13739.5 547.679  75
   2  -6   2 14041.7 485.628  47
   2  -6   2 13101.5 507.158  54
   2  -6   2 13790.2 557.654  62
  -2   6  -2 12877.0 541.039  11
   2  -6   3 7476.03 320.120  29
   2  -6   3 7580.50 322.456  28
  -2   6  -3 6429.84 342.314  11
   2  -6   3 6012.85 268.053   5
   2  -6   3 5919.12 285.662  86
  -2   6  -3 5885.64 322.645  69
   2  -6   3 6333.38 367.945  62
   2  -6   3 6278.05 351.197  54
   2  -6   3 6738.97 324.980  47
   2  -6   4 29139.5 745.192  28
   2  -6   4 25496.5 708.414  33
   2  -6   4 25746.8 786.967  10
   2  -6   4 24888.9 690.144   5
   2  -6   4 24320.7 721.053  86
  -2   6  -4 26218.7 815.330  89
   2  -6   4 27060.8 842.522  81
   2  -6   4 25584.6 726.899  35
  -2   6  -4 26262.6 831.710  70
   2  -6   4 27609.1 857.336  62
   2  -6   4 26336.2 830.627  54
   2  -6   4 27634.1 784.433  47
   2  -6   5 30866.4 802.581  28
   2  -6   5 30758.4 790.094  33
   2  -6   5 28785.0 761.896   5
   2  -6   5 28963.2 859.377  10
  -2   6  -5 28032.0 879.557  89
   2  -6   5 26762.1 799.065  86
   2  -6   5 28745.3 913.510  81
   2  -6   5 29437.7 801.045  35
  -2   6  -5 28056.1 890.203  70
   2  -6   5 31376.2 947.295  62
   2  -6   5 27824.6 907.716  54
   2  -6   6 9844.11 382.533  33
   2  -6   6 8904.28 425.028  10
   2  -6   6 9072.11 381.534   8
  -2   6  -6 9565.90 450.753  89
   2  -6   6 8481.83 387.481  86
   2  -6   6 9481.02 468.983  81
   2  -6   6 9486.36 385.924  35
  -2   6  -6 9832.36 465.445  70
   2  -6   6 9727.64 487.461  62
   2  -6   6 8814.07 472.537  54
   2  -6   7 10220.4 463.951  10
   2  -6   7 10633.1 426.874   8
  -2   6  -7 9548.56 452.435  87
  -2   6  -7 9840.08 493.234  85
   2  -6   7 9562.29 495.878  81
   2  -6   7 9977.25 413.740  35
  -2   6  -7 10273.6 490.921  70
   2  -6   7 9560.78 511.634  54
   2  -6   7 10187.1 411.387  33
   2  -6   8 8486.95 497.997  54
  -2   6  -8 8490.60 467.610  85
   2  -6   8 7251.53 449.959  81
   2  -6   8 9190.62 443.361  10
   2  -6   8 9125.22 478.140  17
   2  -6   8 8244.93 422.022   8
  -2   6  -8 8911.10 470.540  70
   2  -6   8 9691.15 495.211  65
   2  -6   8 9110.15 517.123  61
   2  -6   8 7812.86 383.496  33
  -2   6  -9 11289.1 558.424  70
   2  -6   9 9235.52 528.897  17
   2  -6   9 12111.8 514.967  10
   2  -6   9 8669.21 495.619   8
   2  -6   9 11215.7 567.582  15
   2  -6   9 10819.9 570.294  61
   2  -6   9 10412.4 542.720  65
  -2   6  -9 10776.6 557.200  85
   2  -6   9 11165.5 546.108  81
  -2   6 -10 2394.51 308.558  85
   2  -6  10 2315.21 285.346  81
   2  -6  10 3014.99 285.313  10
   2  -6  10 2560.84 362.013  17
   2  -6  10 2717.70 355.603  15
  -2   6 -10 2217.41 304.147  70
  -2   6 -10 2940.31 346.462  57
   2  -6  10 2974.08 324.671  61
   2  -6  10 2856.95 324.898  65
   2  -6  10 2187.18 362.074  25
  -2   6 -11 7957.45 509.112  85
   2  -6  11 8391.42 476.510  81
   2  -6  11 8774.35 436.887  10
   2  -6  11 8142.98 458.545  17
   2  -6  11 9760.28 491.702  15
  -2   6 -11 7046.10 482.687  70
  -2   6 -11 9069.48 531.887  57
   2  -6  11 9451.96 521.736  61
   2  -6  11 9009.96 480.557  65
   2  -6  11 9292.35 494.039  25
   2  -6  12 303.758 173.248  81
   2  -6  12 244.142 156.006  78
  -2   6 -12 253.196 191.885  85
   2  -6  12 375.339 185.811  71
  -2   6 -12 148.586 162.035  72
   2  -6  12 237.705 156.636  10
   2  -6  12 261.814 212.405  54
   2  -6  13 12046.7 550.589  71
  -2   6 -13 10675.4 583.016  72
  -2   6 -13 15089.3 728.217  88
   2  -6  13 14034.7 634.115  54
  -2   6 -14 5006.79 412.090  88
  -2   6 -14 5472.62 432.609  64
   2  -6  14 5405.03 377.898  54
   2  -6  14 3603.85 308.234  81
   2  -6  14 4182.26 284.269  78
  -2   6 -15 5754.40 377.711  88
   2  -6  15 5191.33 288.174  78
   2  -6  15 5617.04 361.639  54
   2  -6  15 4546.06 272.378  47
  -2   6 -15 6717.84 426.571  64
   2  -6  15 7705.52 363.436  66
   2  -6  16 4934.59 247.142  78
   2  -6  16 4423.94 227.388  47
   2  -6  16 6573.36 338.842  54
  -2   6 -16 7505.07 400.344  64
  -2   5  15 4003.81 236.463  75
  -2   5  14 89.5682 120.171  90
   2  -5 -14 167.644 161.750  84
  -2   5  14 113.739 126.432  75
   2  -5 -13 5570.76 434.106  84
  -2   5  13 6108.92 374.883  90
  -2   5  13 5608.17 338.953  56
  -2   5  13 6004.84 380.953  75
   2  -5 -12 1985.38 315.061  84
  -2   5  12 2101.48 273.469  75
   2  -5 -12 1348.68 155.137  86
  -2   5  12 2261.26 272.739  90
  -2   5  12 2210.79 257.452  56
  -2   5  11 8672.89 503.864  90
   2  -5 -11 7889.07 562.210  84
   2  -5 -11 9186.82 435.141  38
   2  -5 -11 9631.03 504.418  40
  -2   5  11 8955.47 488.279  56
   2  -5 -11 9782.51 449.604  51
  -2   5  11 9151.22 549.135  11
  -2   5  10 3277.75 359.997  11
  -2   5  10 2474.99 303.464  90
   2  -5 -10 2455.91 362.070  84
   2  -5 -10 3359.56 344.428  38
   2  -5 -10 2817.22 346.237  40
  -2   5  10 2824.45 333.238  75
   2  -5 -10 3157.56 348.318  68
   2  -5 -10 3446.32 296.739  32
  -2   5  10 2958.30 304.405  56
   2  -5 -10 3530.57 353.291  51
   2  -5 -10 2731.50 367.147  45
  -2   5   9 3580.52 372.116  11
  -2   5   9 3236.58 333.859  90
   2  -5  -9 3274.70 386.275  84
   2  -5  -9 3152.39 352.546  41
   2  -5  -9 3377.23 354.774  40
   2  -5  -9 3856.63 370.019  68
   2  -5  -9 4023.55 322.756  32
   2  -5  -9 3833.39 360.649  45
  -2   5   9 3664.61 336.863  56
   2  -5  -9 3807.46 386.789  51
  -2   5   8 12344.3 626.618  90
   2  -5  -8 14101.4 731.322  84
   2  -5  -8 18291.6 638.624  38
   2  -5  -8 12138.8 652.539  41
   2  -5  -8 16058.9 592.529  40
   2  -5  -8 13276.7 618.661  68
   2  -5  -8 15398.4 608.895  45
  -2   5   8 12804.4 613.086  56
  -2   5   8 15024.0 748.776  11
  -2   5   7 50.7972 167.765  11
  -2   5   7 9.12037 161.048  90
   2  -5  -7 76.4531 192.858  84
   2  -5  -7 9.63570 155.555  41
  -2   5   7 18.8744 167.264  75
   2  -5  -7-49.7132 221.223  68
   2  -5  -7 60.3969 156.894  29
   2  -5  -7 66.0738 174.933  32
   2  -5  -7 130.746 178.110  45
   2  -5  -7 267.198 201.967  48
  -2   5   7 16.4627 166.105  56
  -2   5   6 44333.8 1308.48  90
   2  -5  -6 46317.5 1380.63  84
   2  -5  -6 43837.3 1321.74  41
  -2   5   6 44287.9 1330.01  75
   2  -5  -6 45086.8 1213.58  29
   2  -5  -6 47822.1 1283.33  32
   2  -5  -6 47173.1 1113.30  48
  -2   5   6 47065.0 1298.08  56
   2  -5  -5 3726.81 249.961   6
  -2   5   5 3154.28 287.532  90
   2  -5  -5 2787.21 292.254  84
   2  -5  -5 3620.36 294.262  41
  -2   5   5 3412.06 302.722  75
   2  -5  -5 3181.96 285.876  68
   2  -5  -5 3375.69 267.718  29
   2  -5  -5 4314.28 318.414  32
   2  -5  -5 3430.92 235.669  48
  -2   5   5 3462.88 284.435  56
   2  -5  -4 14559.0 521.146   6
  -2   5   4 14712.5 593.018  90
   2  -5  -4 12951.8 581.767  84
   2  -5  -4 13433.8 562.313  41
  -2   5   4 14199.7 596.320  75
   2  -5  -4 14472.3 542.063  68
   2  -5  -4 13401.4 526.944  29
   2  -5  -4 15808.3 588.222  32
   2  -5  -4 16249.4 525.563  52
  -2   5   4 14250.3 561.746  56
   2  -5  -3 16008.0 541.384   6
  -2   5   3 13631.3 566.592  90
   2  -5  -3 13107.5 566.504  84
   2  -5  -3 13686.0 545.604  41
  -2   5   3 14373.3 577.701  75
   2  -5  -3 13781.4 510.333  68
   2  -5  -3 13834.0 523.959  29
   2  -5  -3 16097.8 581.138  32
   2  -5  -3 15860.2 521.693  52
  -2   5   3 14564.8 549.021  56
  -2   5   2 72686.0 1700.79  90
   2  -5  -2 65139.8 1637.02  41
   2  -5  -2 76390.8 1650.15   6
   2  -5  -2 70890.4 1578.60  68
  -2   5   2 71695.6 1691.71  75
  -2   5   2 71286.8 1653.66  56
   2  -5  -2 67873.1 1616.42  29
   2  -5  -2 75614.0 1672.80  32
   2  -5  -1 46461.5 1249.10  41
  -2   5   1 47827.3 1280.14  75
   2  -5  -1 47875.2 1228.35  29
   2  -5  -1 55923.7 1284.34  32
  -2   5   1 49094.0 1263.27  56
   2  -5  -1 53245.2 1268.45   6
  -2   5   1 48562.9 1389.59  11
  -2   5   0 24466.0 835.687  11
   2  -5   0 25308.9 699.520  47
   2  -5   0 23694.3 662.001  68
  -2   5   0 26253.4 766.087  56
   2  -5   0 24972.2 723.528  29
   2  -5   0 25666.4 732.498  32
   2  -5   1 47285.1 1149.72  12
  -2   5  -1 49444.4 1310.38  11
   2  -5   1 49797.3 1167.66  47
   2  -5   1 48490.2 1182.62  54
  -2   5  -1 45597.5 1152.86  58
   2  -5   1 50512.5 1189.20  32
   2  -5   1 49774.2 1188.31  29
   2  -5   2 93.5859 126.421  29
   2  -5   2 69.6044 124.095  28
   2  -5   2 179.122 125.026  32
   2  -5   2 103.528 101.834  12
  -2   5  -2 59.4667 117.942  11
   2  -5   2 127.774 100.386  86
   2  -5   2 83.0735 123.602  62
   2  -5   2 126.838 119.112  47
   2  -5   2 115.775 133.467  54
   2  -5   3 22795.2 619.611  29
   2  -5   3 21633.8 627.445  28
   2  -5   3 22274.9 621.297  86
  -2   5  -3 21148.5 687.357  11
   2  -5   3 22967.7 724.224  62
   2  -5   3 22819.1 703.739  54
   2  -5   4 23194.2 644.592  29
   2  -5   4 25085.9 674.019  28
   2  -5   4 23015.4 726.565  10
   2  -5   4 23996.4 659.788   5
   2  -5   4 23717.7 663.258  86
   2  -5   4 23689.2 669.664  35
  -2   5  -4 25641.7 753.456  70
   2  -5   4 26730.8 781.036  62
   2  -5   4 25244.5 778.384  54
   2  -5   5 97661.5 2332.06  10
   2  -5   5 104659. 2247.47   5
  -2   5  -5 96189.5 2322.05  89
   2  -5   5 103822. 2371.85  81
   2  -5   5 105419. 2261.62  35
  -2   5  -5 99858.7 2340.92  70
  -2   5  -5 99711.6 2333.22  64
   2  -5   5 108776. 2403.51  62
   2  -5   5 106304. 2246.50  33
   2  -5   5 105621. 2247.40  28
  -2   5  -6 35297.9 1005.81  89
  -2   5  -6 34240.3 1022.99  87
   2  -5   6 32697.4 945.286  86
  -2   5  -6 34295.1 1025.24  85
   2  -5   6 36514.9 1050.17  81
   2  -5   6 38546.1 949.192  35
  -2   5  -6 36705.0 1028.49  70
   2  -5   6 41436.7 949.345  33
   2  -5   6 36021.9 1016.03  10
   2  -5   6 38137.5 941.746   5
   2  -5   6 37986.2 946.526   8
   2  -5   7 14176.0 550.440  10
   2  -5   7 14863.2 512.351   8
  -2   5  -7 13462.0 533.459  87
  -2   5  -7 13896.5 566.935  85
   2  -5   7 13052.5 558.602  81
   2  -5   7 13800.5 479.751  35
  -2   5  -7 13688.1 553.509  70
   2  -5   7 14835.2 601.270  61
   2  -5   7 15050.0 489.572  33
  -2   5  -8 4446.09 336.629  85
   2  -5   8 4419.47 322.413  81
   2  -5   8 5650.02 339.109  10
   2  -5   8 5416.21 359.895   8
   2  -5   8 6120.17 409.049  15
  -2   5  -8 5329.26 353.037  70
   2  -5   8 4638.64 361.193  61
   2  -5   8 4776.75 282.571  33
   2  -5   9 2426.17 264.439  81
   2  -5   9 2331.10 252.309  10
   2  -5   9 2662.52 357.508  15
   2  -5   9 2340.76 341.818   8
   2  -5   9 2299.76 389.583  17
  -2   5  -9 2395.99 274.784  70
   2  -5   9 2005.93 278.464  65
   2  -5   9 2614.44 294.248  61
  -2   5  -9 2709.10 322.612  57
  -2   5  -9 2408.06 281.158  85
  -2   5 -10 8768.23 511.621  85
   2  -5  10 8917.08 474.452  81
   2  -5  10 10360.8 530.155  15
   2  -5  10 10886.9 487.117  10
   2  -5  10 10407.9 547.652  17
  -2   5 -10 9209.51 517.075  70
  -2   5 -10 10496.9 564.415  57
   2  -5  10 9914.97 512.790  61
   2  -5  10 9730.24 495.185  65
   2  -5  10 9740.32 554.885  25
  -2   5 -11 2890.32 320.885  85
   2  -5  11 2435.11 272.571  81
   2  -5  11 3375.33 370.213  17
   2  -5  11 2794.89 273.005  10
   2  -5  11 3712.83 342.538  15
   2  -5  11 2812.77 287.925  71
  -2   5 -11 2672.31 308.500  72
   2  -5  11 3642.83 306.253  65
   2  -5  11 3741.87 377.485  25
   2  -5  12 27669.4 893.774  78
   2  -5  12 25939.3 924.447  81
   2  -5  12 29671.9 899.817  10
   2  -5  12 26540.6 915.166  71
   2  -5  12 34934.1 951.088  25
  -2   5 -12 26242.8 990.560  85
  -2   5 -12 32402.3 1159.32  88
  -2   5 -13 497.919 247.404  88
   2  -5  13 382.065 150.810  78
  -2   5 -14 7256.25 477.423  88
   2  -5  14 7599.04 455.406  54
   2  -5  14 6641.22 366.178  78
   2  -5  15-70.2792 121.809  78
  -2   5 -15 170.339 206.794  64
   2  -5  15-91.6815 164.028  54
   2  -5  16 9257.67 394.560  66
   2  -5  16 9064.67 418.570  54
  -2   5 -17 1307.52 194.687  64
  -2   4  15 4289.16 274.787  90
   2  -4 -15 4821.26 338.078  84
  -2   4  15 4115.15 274.971  75
  -2   4  14 5233.38 335.467  90
   2  -4 -14 4670.46 386.015  84
  -2   4  14 4571.38 329.161  75
   2  -4 -13 538.117 223.505  84
  -2   4  13 333.683 164.733  75
   2  -4 -13 358.734 211.864  68
  -2   4  13 380.135 163.638  90
  -2   4  13 207.476 153.708  56
   2  -4 -12 25118.7 1066.85  84
   2  -4 -12 28851.8 849.468  38
   2  -4 -12 31147.7 951.857  68
  -2   4  12 26312.2 958.516  90
  -2   4  12 25175.3 898.839  56
   2  -4 -12 29106.5 857.690  51
  -2   4  11 108.947 172.273  90
   2  -4 -11 68.5496 222.322  84
   2  -4 -11 251.358 279.736  40
   2  -4 -11 39.9363 260.365  38
   2  -4 -11 71.2726 230.482  68
  -2   4  11 52.1622 160.804  56
   2  -4 -11 192.911 270.468  51
  -2   4  11 219.403 162.259  11
  -2   4  10 20849.1 854.499  11
  -2   4  10 20415.0 807.342  90
   2  -4 -10 15942.5 830.808  84
   2  -4 -10 16806.1 711.346  40
   2  -4 -10 20007.3 762.579  68
   2  -4 -10 19113.3 695.875  32
  -2   4  10 18900.9 752.362  56
   2  -4 -10 19964.7 734.775  51
   2  -4 -10 18140.2 777.470  45
  -2   4   9 932.183 223.675  90
   2  -4  -9 716.893 258.064  84
   2  -4  -9 1208.91 326.361  38
   2  -4  -9 683.433 220.315  41
   2  -4  -9 1240.99 288.412  40
   2  -4  -9 1112.20 280.113  68
  -2   4   9 858.450 214.623  11
   2  -4  -9 1053.04 276.593  45
  -2   4   9 984.156 218.837  56
   2  -4  -8 846.104 191.724  29
   2  -4  -8 1155.90 230.702  32
  -2   4   8 832.944 216.321  11
  -2   4   8 1206.45 229.375  90
   2  -4  -8 958.668 245.769  84
   2  -4  -8 772.728 202.902  41
   2  -4  -8 1131.15 230.668  40
   2  -4  -8 1021.60 269.727  68
   2  -4  -8 1254.63 238.804  45
  -2   4   8 1056.57 213.112  56
  -2   4   7 9978.37 576.995  11
  -2   4   7 8283.35 468.070  90
   2  -4  -7 9460.20 536.892  84
   2  -4  -7 8708.77 491.918  41
   2  -4  -7 8149.50 467.126  68
   2  -4  -7 8499.93 419.286  29
   2  -4  -7 10031.2 498.509  32
   2  -4  -7 10667.4 449.265  45
   2  -4  -7 9586.74 388.170  48
  -2   4   7 8695.91 452.808  56
  -2   4   6 5664.99 432.403  11
  -2   4   6 5253.43 380.804   3
  -2   4   6 5540.80 361.161  90
   2  -4  -6 5763.38 395.383  84
   2  -4  -6 5197.59 350.350  41
   2  -4  -6 5101.64 355.786  68
   2  -4  -6 5223.99 363.682  32
   2  -4  -6 5409.65 283.221  48
  -2   4   6 5745.14 347.158  56
  -2   4   5 1633.50 251.948  11
   2  -4  -5 1251.56 168.013   6
  -2   4   5 1224.27 205.046   3
  -2   4   5 1211.55 190.761  90
   2  -4  -5 1274.29 204.282  84
   2  -4  -5 1291.69 191.135  41
   2  -4  -5 1536.59 218.564  20
   2  -4  -5 1344.21 180.689  48
  -2   4   5 1283.77 185.960  56
   2  -4  -4 12190.5 470.970   6
  -2   4   4 12082.3 509.919  90
   2  -4  -4 12312.1 526.337  84
  -2   4   4 12167.1 515.409  75
   2  -4  -4 14338.7 455.856  52
  -2   4   4 12625.8 486.348  56
   2  -4  -4 15148.3 564.986  20
   2  -4  -4 12058.6 495.973  41
  -2   4   4 11908.4 456.755  43
  -2   4   3 27157.6 925.277  11
   2  -4  -3 27003.1 781.752   6
   2  -4  -3 22795.2 729.416  52
   2  -4  -3 27593.3 794.054  41
  -2   4   3 26572.7 759.505  43
  -2   4   3 28862.6 831.980  75
  -2   4   3 26086.6 750.195  57
   2  -4  -3 32451.1 858.478  20
   2  -4  -2 16581.6 542.571   6
  -2   4   2 16851.1 656.010  11
  -2   4   1 20462.0 614.970  88
  -2   4   1 22223.5 671.069  90
   2  -4  -1 20658.7 653.637  82
   2  -4  -1 21409.4 625.073  41
  -2   4   1 19831.9 575.459  73
  -2   4   1 22999.6 664.800  75
  -2   4   1 22952.2 641.714  56
   2  -4  -1 20780.3 646.365   6
  -2   4   1 21000.0 736.477  11
   2  -4   0 7942.61 294.832  47
   2  -4   0 7314.97 331.051  82
   2  -4   0 7238.03 308.744  41
  -2   4   0 6781.88 286.524  73
  -2   4   0 7685.10 332.248  75
  -2   4   0 8243.27 405.031  11
   2  -4   0 8810.71 325.807  10
   2  -4   0 6785.30 269.549  18
   2  -4   1 39590.7 1021.18  82
   2  -4   1 39769.3 955.890  12
   2  -4   1 38445.0 1027.86   6
  -2   4  -1 40853.6 1101.44  11
   2  -4   1 44051.3 1014.72  10
  -2   4  -1 42088.8 983.990  73
  -2   4  -1 41463.5 1012.83  75
  -2   4  -1 36366.1 946.184  64
  -2   4  -1 39956.9 1002.95  58
   2  -4   1 41175.4 1012.43  32
   2  -4   2 13700.5 463.292  54
   2  -4   2 12529.2 452.054  82
   2  -4   2 11530.0 416.374  29
   2  -4   2 12581.6 416.401  32
  -2   4  -2 12593.7 438.736  75
  -2   4  -2 12183.0 419.243  64
  -2   4  -2 12797.4 426.717  58
   2  -4   2 14370.9 485.021   6
  -2   4  -2 13562.2 498.619  11
   2  -4   2 14289.7 471.176  10
   2  -4   3 27011.9 715.313  81
   2  -4   3 22781.2 644.574  29
   2  -4   3 22918.8 632.252  32
  -2   4  -3 25188.6 696.914  70
  -2   4  -3 26002.4 709.053  64
   2  -4   3 25817.3 731.565  10
   2  -4   4 68041.8 1549.97   5
  -2   4  -4 64851.9 1571.02  89
   2  -4   4 68956.2 1604.46  81
  -2   4  -4 70621.8 1595.48  70
   2  -4   4 74167.1 1639.56  62
   2  -4   4 65869.4 1504.91  29
   2  -4   4 69233.4 1532.84  28
   2  -4   5 781.400 122.654  28
   2  -4   5 1240.04 170.943  81
  -2   4  -5 1334.40 165.979  85
   2  -4   5 979.466 163.191   5
   2  -4   5 1474.06 179.500  62
   2  -4   5 971.002 133.549  35
   2  -4   6 26885.9 730.718   5
  -2   4  -6 24328.9 795.453  87
   2  -4   6 27125.8 705.572  35
  -2   4  -6 25535.6 774.015  70
   2  -4   6 27331.6 820.663  61
   2  -4   6 26748.2 700.918  33
   2  -4   7 463.558 128.508  33
   2  -4   7 406.441 201.588   8
  -2   4  -7 141.868 126.766  87
   2  -4   7 284.979 141.653  81
   2  -4   7 321.622 110.400  35
  -2   4  -7 176.280 138.590  70
   2  -4   7 298.727 155.539  61
  -2   4  -7 331.215 195.494  57
   2  -4   7 342.756 167.721  46
   2  -4   8 25797.5 748.496  33
  -2   4  -8 26341.7 877.759  85
  -2   4  -8 26662.3 815.593  87
   2  -4   8 25464.3 831.731  81
   2  -4   8 30339.9 856.138  17
   2  -4   8 27771.2 811.473   8
   2  -4   8 30803.9 905.019  15
  -2   4  -8 26721.6 873.473  70
  -2   4  -8 29063.2 979.844  57
   2  -4   8 26959.6 869.860  61
   2  -4   8 28850.4 884.038  46
  -2   4  -9 7315.33 429.031  85
   2  -4   9 7535.86 402.392  81
   2  -4   9 8810.96 510.658  17
   2  -4   9 7229.89 458.117   8
   2  -4   9 7990.66 466.078  15
  -2   4  -9 7391.49 430.899  70
   2  -4   9 7202.66 408.929  65
  -2   4  -9 8476.40 487.269  57
   2  -4   9 8208.26 430.218  61
   2  -4   9 8906.14 464.446  46
   2  -4  10 27301.2 911.203  25
  -2   4 -10 24147.2 887.527  85
   2  -4  10 21350.6 799.581  81
   2  -4  10 29414.4 890.699  17
   2  -4  10 28489.4 869.793  15
   2  -4  10 23110.9 809.400  71
  -2   4 -10 22720.5 874.558  72
  -2   4 -10 28336.9 943.388  57
   2  -4  10 27515.6 844.170  65
   2  -4  10 26873.8 911.299  46
   2  -4  11 3248.30 299.760  81
  -2   4 -11 4851.77 443.821  88
   2  -4  11 4621.65 359.969  15
   2  -4  11 3738.13 309.489  10
   2  -4  11 4675.91 401.382  17
   2  -4  11 4490.69 400.137  25
   2  -4  11 4138.79 369.742  46
   2  -4  12 2225.63 251.319  10
  -2   4 -12 3111.25 374.827  88
   2  -4  12 2586.41 250.167  78
   2  -4  12 2295.58 331.832  25
   2  -4  13 22883.8 797.851  10
   2  -4  13 24604.9 816.168  78
   2  -4  13 24201.9 791.103  22
   2  -4  14 678.819 197.350  22
  -2   4 -15 21894.5 861.867  64
   2  -4  15 21233.8 724.950  66
  -2   4 -16 975.370 245.977  64
   2  -4  16 963.671 179.353  66
   2  -4  16 788.442 180.642  54
  -2   4 -17 8165.27 399.738  64
   2  -4  17 5633.32 287.026  66
  -2   3  16 5251.95 275.423  90
   2  -3 -16 5289.33 320.024  84
  -2   3  16 4546.27 265.296  75
  -2   3  15 824.359 164.235  90
   2  -3 -15 688.124 199.749  84
  -2   3  15 801.219 169.235  75
   2  -3 -14 5282.82 434.864  84
   2  -3 -14 6439.24 365.647  68
  -2   3  14 4837.27 321.317  56
  -2   3  14 5914.43 379.359  90
  -2   3  13 5822.21 368.932  56
   2  -3 -13 6522.79 391.903  51
   2  -3 -12 1223.28 288.556  84
   2  -3 -12 1313.89 288.582  38
  -2   3  12 1230.96 238.334  90
   2  -3 -12 1290.42 303.182  51
   2  -3 -11 29722.9 1203.61  84
   2  -3 -11 27238.3 1166.90  72
   2  -3 -11 35972.3 1085.23  68
  -2   3  11 33021.2 1112.75  90
  -2   3  11 33367.6 1068.54  56
   2  -3 -11 37663.7 1036.96  38
  -2   3  10 7280.47 471.283  11
   2  -3 -10 6436.63 460.814  38
   2  -3 -10 5807.58 438.551  40
  -2   3  10 7238.10 460.021  90
   2  -3 -10 7463.04 469.531  68
   2  -3 -10 5976.90 493.238  72
   2  -3 -10 6609.26 417.139  32
   2  -3 -10 7400.52 488.483  51
  -2   3  10 7354.72 431.766  56
   2  -3 -10 6144.46 466.182  45
  -2   3   9 52164.6 1549.18  11
   2  -3  -9 62626.4 1441.08  38
  -2   3   9 49960.0 1463.13  43
   2  -3  -9 58453.5 1408.13  40
  -2   3   9 51174.4 1474.02  90
   2  -3  -9 48394.6 1419.59  68
   2  -3  -9 43826.2 1523.69  72
   2  -3  -9 57819.7 1577.14  20
   2  -3  -9 41583.6 1285.25  29
   2  -3  -9 53422.0 1449.61  32
   2  -3  -9 58005.4 1460.32  45
  -2   3   9 49206.1 1415.56  56
  -2   3   8 2832.15 302.994  11
  -2   3   8 2728.52 279.629  90
   2  -3  -8 2771.33 298.496  41
  -2   3   8 2854.19 275.432  43
   2  -3  -8 3139.65 325.028  72
   2  -3  -8 2802.30 318.042  20
   2  -3  -8 3506.59 291.871  45
  -2   3   8 3128.27 283.608  56
  -2   3   7 17234.3 663.193  90
   2  -3  -7 16579.4 623.767  79
  -2   3   7 16119.8 641.711  43
   2  -3  -7 14993.9 650.308  41
   2  -3  -7 17270.8 714.615  72
   2  -3  -7 16538.9 526.195  48
  -2   3   7 16110.3 610.008  56
  -2   3   7 16891.6 733.889  11
  -2   3   6 37185.6 1074.58  90
   2  -3  -6 33908.4 1004.52  79
   2  -3  -6 38801.2 1123.59  72
   2  -3  -6 38216.3 914.007  48
  -2   3   6 37139.8 1024.06  56
   2  -3  -6 39301.4 1129.84  20
  -2   3   6 35961.5 1055.83  43
   2  -3  -6 34082.0 1063.55  41
   2  -3  -5 41785.0 1231.21   4
  -2   3   5 48081.3 1220.61  90
  -2   3   5 43507.7 1190.66  43
   2  -3  -5 41281.8 1186.19  41
   2  -3  -5 44543.4 1222.54  72
   2  -3  -5 42966.4 1041.23  48
   2  -3  -5 49762.7 1090.74  52
  -2   3   5 43993.2 1145.24  56
   2  -3  -5 47623.2 1261.41  20
   2  -3  -4 44844.6 1130.21  79
   2  -3  -4 43201.1 1183.62  84
  -2   3   4 45071.9 1301.06  11
   2  -3  -4 43299.8 1225.56   4
  -2   3   4 42287.5 1163.02  43
   2  -3  -4 46746.4 1084.78  52
   2  -3  -3 53885.1 1204.06  20
  -2   3   3 46575.0 1261.57  11
   2  -3  -3 44711.4 1196.41   4
  -2   3   3 50780.8 1155.09  90
   2  -3  -3 49520.4 1103.25  79
   2  -3  -3 47094.7 1147.84  84
   2  -3  -3 46322.7 1104.59  41
  -2   3   3 45702.4 1144.80  43
  -2   3   3 44962.3 1092.26  57
  -2   3   3 49118.2 1094.91  56
   2  -3  -2 26771.6 707.410  20
  -2   3   2 23006.8 769.634  11
  -2   3   2 23737.7 667.728  90
  -2   3   2 22857.8 621.855  88
   2  -3  -2 23745.4 630.603  79
   2  -3  -2 23317.0 665.071  84
   2  -3  -2 23206.6 624.018  41
  -2   3   2 23325.6 685.984  43
  -2   3   2 25626.7 679.359  75
  -2   3   2 23219.5 670.152  57
  -2   3   2 25966.0 638.642  56
   2  -3  -1 1658.19 183.036  20
   2  -3  -1 911.525 117.541  19
   2  -3  -1 1273.55 101.735  18
  -2   3   1 1617.31 211.869  11
   2  -3  -1 1532.63 151.258  10
  -2   3   1 1184.50 154.640  90
  -2   3   1 1114.29 166.103  88
   2  -3  -1 1285.41 179.050  79
   2  -3  -1 1114.50 150.707  82
   2  -3  -1 1313.53 128.117  41
  -2   3   1 1460.73 155.931  75
  -2   3   1 1405.70 143.996  56
   2  -3  -1 1318.53 130.548  47
   2  -3   0 33527.5 815.778  20
  -2   3   0 31838.0 865.348  88
  -2   3   0 33424.3 834.282  90
   2  -3   0 31727.0 817.413  82
   2  -3   0 30211.9 742.999  12
  -2   3   0 31776.6 927.870  11
   2  -3   0 34894.2 820.312  10
   2  -3   0 32999.4 896.637   4
  -2   3   0 31259.2 827.946  73
  -2   3   0 34058.8 811.661  75
  -2   3   0 32046.1 810.292  64
   2  -3   0 31398.1 765.707  54
  -2   3  -1 9271.90 407.644  69
  -2   3  -1 9968.93 367.781  73
  -2   3  -1 9721.41 329.990  75
  -2   3  -1 9564.78 413.303  11
   2  -3   1 9832.93 364.177  10
   2  -3   1 9584.24 390.866   4
  -2   3  -1 9335.05 368.032  58
  -2   3  -1 9667.70 360.538  64
  -2   3  -1 9333.74 343.732  83
   2  -3   1 9722.15 340.396  82
  -2   3  -2 18645.7 541.143  73
  -2   3  -2 15844.5 554.788  69
   2  -3   2 17105.4 534.356  10
   2  -3   2 16535.8 542.184   4
  -2   3  -2 17597.3 544.373  64
   2  -3   2 17620.6 521.699  62
  -2   3  -2 16990.0 523.646  58
  -2   3  -2 16150.3 501.869  83
  -2   3  -3 553.000 138.665  83
   2  -3   3 519.878 118.439  81
  -2   3  -3 485.952 119.984  89
  -2   3  -3 601.577 151.553  69
  -2   3  -3 658.064 122.675  70
   2  -3   3 722.984 126.104  62
   2  -3   3 632.032 126.158  32
   2  -3   4 127307. 2715.96  29
   2  -3   4 117067. 2723.90  28
  -2   3  -4 134907. 2777.34  89
  -2   3  -4 139630. 2841.49  83
  -2   3  -4 132204. 2782.39  85
   2  -3   4 130293. 2780.40  81
  -2   3  -4 139473. 2778.58  70
   2  -3   4 134779. 2812.46  62
  -2   3  -4 134379. 2967.43  57
   2  -3   4 123224. 2756.49  46
   2  -3   5 7182.78 269.718  28
  -2   3  -5 8264.26 365.515  83
  -2   3  -5 8115.46 336.294  85
   2  -3   5 7235.81 319.241  81
   2  -3   5 7790.82 289.722  35
  -2   3  -5 8341.18 334.629  70
  -2   3  -5 8032.99 432.362  57
   2  -3   5 8674.18 344.671   5
   2  -3   6 48915.8 1219.22  46
  -2   3  -6 44387.5 1226.80  83
  -2   3  -6 46032.6 1198.90  85
   2  -3   6 47804.6 1098.61  35
  -2   3  -6 45891.8 1328.98  57
   2  -3   6 43192.5 1188.09  61
   2  -3   6 50764.1 1166.47   5
   2  -3   6 48337.5 1152.76   8
   2  -3   6 49912.1 1109.61  33
   2  -3   7 1282.23 142.201  33
   2  -3   7 1435.15 189.731   5
   2  -3   7 1237.16 225.748   8
  -2   3  -7 1227.61 180.805  87
   2  -3   7 1018.63 169.690  61
  -2   3  -7 1421.21 231.089  57
   2  -3   7 1132.91 204.487  46
   2  -3   8 3735.19 366.400  17
   2  -3   8 3259.50 306.309   8
   2  -3   8 3167.00 320.137  15
  -2   3  -8 3225.36 242.844  87
  -2   3  -8 3496.67 317.708  57
   2  -3   8 3490.64 259.249  61
   2  -3   8 3535.04 287.913  46
  -2   3  -9 49858.5 1335.61  57
   2  -3   9 41442.8 1161.55  65
   2  -3   9 51509.5 1309.41  46
   2  -3   9 39546.0 1154.70   9
   2  -3   9 45510.2 1209.29  17
   2  -3   9 43006.4 1204.15   8
   2  -3   9 44373.7 1215.36  15
  -2   3 -10 2855.26 355.685  88
   2  -3  10 2786.06 388.386  17
   2  -3  10 2357.96 241.162   9
   2  -3  10 2550.40 292.447  15
   2  -3  10 2781.17 370.325  25
   2  -3  10 2575.26 291.000  46
   2  -3  11 18454.2 660.720  78
  -2   3 -11 21563.2 880.303  88
   2  -3  11 17516.1 619.525   9
   2  -3  11 20926.0 709.549  17
   2  -3  11 22752.4 762.195  25
   2  -3  11 20348.0 796.664  46
   2  -3  12-123.216 186.304  22
   2  -3  12-210.584 297.118  25
  -2   3 -12-44.0258 217.615  88
   2  -3  12 59.3515 133.077  78
   2  -3  13 4008.02 381.895  46
   2  -3  13 2455.12 255.186  22
  -2   3 -13 3582.54 389.015  83
   2  -3  13 2914.91 259.044  78
  -2   3 -14 10416.4 628.548  64
   2  -3  14 7836.85 406.901  22
  -2   3 -15 4037.67 358.267  83
   2  -3  15 4119.41 280.495  78
  -2   3 -15 5947.29 455.200  64
   2  -3  15 7063.85 416.098  66
  -2   3 -16 8052.13 476.918  64
   2  -3  16 6526.51 360.172  66
  -2   3 -17 2971.75 261.435  64
   2  -3  17 1966.99 183.528  66
   2  -2 -17 1228.85 154.490  84
  -2   2  17 1389.30 137.061  90
  -2   2  16 77.0633 105.224  75
   2  -2 -16 58.1634 143.757  84
  -2   2  16 127.637 119.128  90
   2  -2 -15 6217.89 334.631  68
   2  -2 -15 5953.28 425.366  84
  -2   2  15 5800.33 359.620  90
   2  -2 -14-105.716 204.771  68
  -2   2  14-17.0528 151.677  90
   2  -2 -14 119.329 207.539  84
   2  -2 -13 20592.4 733.314  68
  -2   2  13 17961.4 746.296  43
  -2   2  13 17710.4 757.806  90
   2  -2 -13 20400.2 713.789  51
   2  -2 -12 14100.4 774.210  72
   2  -2 -12 16188.9 670.831  68
   2  -2 -12 18520.3 668.436  38
  -2   2  12 14673.2 683.464  43
  -2   2  12 14111.9 674.618  90
  -2   2  12 13586.9 616.510  56
   2  -2 -12 17399.2 668.874  51
  -2   2  11 2406.67 289.527  90
   2  -2 -11 2210.04 350.704  40
  -2   2  11 2213.89 288.646  43
   2  -2 -11 1943.32 323.933  72
   2  -2 -11 2386.63 328.848  68
   2  -2 -11 2377.97 322.906  20
   2  -2 -11 1745.63 270.356  32
   2  -2 -11 2626.32 371.826  51
  -2   2  11 2110.55 260.731  56
  -2   2  10 20749.6 798.364  11
  -2   2  10 17739.6 749.886  90
   2  -2 -10 20434.6 752.396  79
   2  -2 -10 17028.6 702.701  40
   2  -2 -10 18661.8 727.419  38
   2  -2 -10 15653.3 796.719  72
   2  -2 -10 21570.8 847.204  20
   2  -2 -10 20336.9 766.315  51
  -2   2  10 18722.1 710.006  56
   2  -2 -10 18610.9 761.128  45
  -2   2   9 9731.05 532.144  11
  -2   2   9 9895.34 522.279  90
   2  -2  -9 10411.0 521.279  79
   2  -2  -9 13584.6 574.117  38
   2  -2  -9 11540.9 515.869  40
   2  -2  -9 7056.47 510.551  72
   2  -2  -9 10494.5 575.295  20
   2  -2  -9 11102.3 523.164  45
  -2   2   9 10373.1 488.131  56
  -2   2   8 24588.2 897.820  11
  -2   2   8 22620.7 823.298  90
   2  -2  -8 24729.0 815.091  79
   2  -2  -8 23087.4 888.848  72
   2  -2  -8 27182.7 919.324  24
   2  -2  -8 27379.4 797.218  45
  -2   2   8 23730.0 795.333  56
   2  -2  -7 472.194 150.868   4
  -2   2   7 626.932 166.435  90
   2  -2  -7 584.769 222.358  79
   2  -2  -7 790.415 192.094  72
   2  -2  -7 692.340 169.656  45
   2  -2  -7 670.431 176.678  48
  -2   2   7 533.344 148.393  56
   2  -2  -7 612.930 214.741  24
   2  -2  -7 658.202 204.104  20
  -2   2   7 609.074 172.597  43
   2  -2  -6 99773.8 2428.65   4
  -2   2   6 101753. 2390.58  90
  -2   2   6 104282. 2457.37  43
   2  -2  -6 103705. 2378.17  34
   2  -2  -6 112077. 2470.66  72
   2  -2  -6 101473. 2213.49  48
  -2   2   6 99380.5 2318.07  56
   2  -2  -6 104950. 2471.77  20
   2  -2  -6 111664. 2456.90  24
   2  -2  -5 618.882 155.447  48
  -2   2   5 841.098 142.473  56
   2  -2  -5 750.259 222.047  79
  -2   2   5 587.522 152.993  43
   2  -2  -5 820.819 213.166  24
   2  -2  -5 768.236 244.684  34
   2  -2  -5 644.213 191.546  20
   2  -2  -5 735.872 198.794  13
   2  -2  -5 717.410 171.822   4
  -2   2   5 557.082 169.654  11
   2  -2  -4 110350. 2515.42  24
   2  -2  -4 115518. 2561.90  20
   2  -2  -4 108641. 2568.62   4
   2  -2  -4 117559. 2551.77  13
  -2   2   4 115491. 2630.63  11
  -2   2   4 118272. 2494.58  90
   2  -2  -4 102371. 2438.40  79
   2  -2  -4 105490. 2441.84  34
  -2   2   4 117297. 2558.09  43
   2  -2  -4 103660. 2474.93  72
  -2   2   4 114453. 2410.39  57
  -2   2   4 121935. 2428.91  56
   2  -2  -3 2176.43 227.824  24
   2  -2  -3 2536.55 233.665  20
   2  -2  -3 2440.73 227.596  13
  -2   2   3 2055.29 236.372  11
   2  -2  -3 2302.13 224.026   7
  -2   2   3 2455.17 169.991  88
  -2   2   3 2712.00 204.659  90
   2  -2  -3 2568.33 198.321  84
   2  -2  -3 2290.25 241.489  34
  -2   2   3 2366.79 216.710  43
  -2   2   3 2462.65 191.370  57
  -2   2   3 2710.60 169.561  56
   2  -2  -2 53399.2 1158.24  24
   2  -2  -2 54262.6 1203.10  20
   2  -2  -2 47490.4 1189.49   7
   2  -2  -2 46982.0 1160.63  13
  -2   2   2 50969.6 1286.07  11
  -2   2   2 49347.0 1126.41  90
  -2   2   2 49765.8 1126.48  88
   2  -2  -2 49610.2 1125.26  84
  -2   2   2 51830.3 1225.67  43
  -2   2   2 51511.5 1127.42  75
  -2   2   2 50588.5 1168.73  57
   2  -2  -2 48713.3 1055.51  47
  -2   2   2 53847.1 1070.78  56
   2  -2  -1 33237.2 748.677  24
   2  -2  -1 31628.2 782.472  20
   2  -2  -1 29688.4 788.675   7
   2  -2  -1 31627.9 849.821   4
   2  -2  -1 30350.2 765.018  13
   2  -2  -1 24679.4 629.730  12
  -2   2   1 31856.2 885.270  11
   2  -2  -1 31152.3 720.344  10
   2  -2  -1 29619.3 654.363  16
  -2   2   1 30253.3 734.899  90
  -2   2   1 29273.6 775.176  88
   2  -2  -1 30233.3 683.847  34
  -2   2   1 30850.2 832.258  43
  -2   2   1 30284.4 715.410  75
  -2   2   1 32355.8 785.935  64
  -2   2   1 29606.0 808.352  57
   2  -2  -1 26229.2 643.353  54
   2  -2  -1 28310.5 662.792  47
   2  -2   0 31324.3 848.616   4
   2  -2   0 28740.2 774.638   7
   2  -2   0 31469.4 756.665  13
   2  -2   0 31446.9 758.771  10
  -2   2   0 33625.0 843.253  88
  -2   2   0 32033.7 745.556  90
  -2   2   0 33841.4 817.343  83
   2  -2   0 29856.3 719.553  82
   2  -2   0 27992.5 660.180  34
  -2   2   0 32855.4 853.573  43
  -2   2   0 33679.7 717.645  75
  -2   2   0 32898.2 870.110  69
  -2   2   0 30997.3 851.079  57
  -2   2   0 33786.6 818.650  64
   2  -2   0 31188.5 765.615  20
   2  -2   0 24372.3 695.295  31
   2  -2   1 91937.7 1917.98   4
   2  -2   1 86617.3 1777.61  13
   2  -2   1 89787.4 1831.39   7
   2  -2   1 83670.0 1733.37   3
  -2   2  -1 87305.6 1928.09  88
  -2   2  -1 86455.8 1869.58  83
  -2   2  -1 92623.9 1931.11  43
  -2   2  -1 88987.9 1885.06  73
  -2   2  -1 87407.4 1925.64  69
  -2   2  -1 83687.7 1880.99  58
  -2   2  -1 91604.9 1896.96  64
   2  -2   1 81595.9 1755.59  23
   2  -2   1 83247.6 1783.73  20
  -2   2  -2 8202.86 365.671  91
  -2   2  -2 7625.49 374.725  88
  -2   2  -2 8079.72 333.538  73
  -2   2  -2 6993.04 338.701  69
  -2   2  -2 7306.69 231.332  70
  -2   2  -2 7762.67 328.908  83
  -2   2  -2 7327.40 346.220  59
   2  -2   2 7308.95 265.164  62
  -2   2  -2 8004.92 352.998  64
   2  -2   2 6735.56 302.208   4
   2  -2   2 5912.56 202.660  13
   2  -2   2 6708.70 310.819   6
   2  -2   2 6579.88 203.012   3
   2  -2   2 7612.57 259.547   7
  -2   2  -3 44794.6 1119.16  91
  -2   2  -3 43079.1 992.652  89
  -2   2  -3 42772.1 1130.61  87
  -2   2  -3 44917.1 1178.35  88
  -2   2  -3 43389.2 976.747  70
  -2   2  -3 46342.7 1119.02  83
  -2   2  -3 43619.9 982.138  85
  -2   2  -3 44760.8 1175.52  57
  -2   2  -3 43714.0 1126.90  59
   2  -2   3 44055.6 1014.65  62
   2  -2   3 42318.2 969.743   7
   2  -2   3 45363.3 1079.76   6
   2  -2   3 40271.1 1043.28   4
  -2   2  -4 114.549 151.965  87
  -2   2  -4 105.905 124.690  91
  -2   2  -4 186.587 149.587  83
  -2   2  -4 144.684 94.0593  70
   2  -2   4 165.180 112.694  61
  -2   2  -4 185.695 173.980  64
  -2   2  -4 159.071 164.602  57
   2  -2   4 72.1037 82.8701   4
   2  -2   4 196.557 130.240   6
   2  -2   5 22966.0 603.323  35
   2  -2   5 23139.7 720.354  11
   2  -2   5 26809.8 690.309   5
  -2   2  -5 25308.3 813.538  57
  -2   2  -5 27193.0 826.340  64
   2  -2   5 23600.1 668.207  61
  -2   2  -5 25595.1 766.254  83
  -2   2  -6 7708.09 328.583  76
   2  -2   6 9204.28 356.847   5
   2  -2   6 8508.52 360.934   8
  -2   2  -6 7314.66 443.770  88
  -2   2  -6 7093.48 406.095  57
   2  -2   6 8132.91 283.023  33
  -2   2  -7 34717.6 992.284  87
  -2   2  -7 34881.5 1135.26  88
  -2   2  -7 37272.6 1095.62  57
   2  -2   7 36629.3 877.763  33
  -2   2  -8 1644.16 224.521  57
   2  -2   8 1647.96 266.845  15
   2  -2   8 1652.26 334.708  17
   2  -2   8 2002.31 286.809   8
  -2   2  -8 1536.59 189.986  87
  -2   2  -8 1447.94 264.723  88
   2  -2   9 17012.1 705.811  25
  -2   2  -9 19894.0 663.972  87
  -2   2  -9 22791.6 872.639  88
   2  -2   9 20200.7 742.086  17
   2  -2   9 19280.6 671.576   9
   2  -2   9 23319.7 721.635  15
  -2   2  -9 23193.9 778.201  57
   2  -2   9 22607.6 791.229  46
   2  -2  10 10702.2 454.369  78
  -2   2 -10 10882.9 602.641  88
   2  -2  10 13205.0 570.416  17
   2  -2  10 11043.2 468.808   9
   2  -2  10 12264.4 504.275  15
   2  -2  10 13650.9 585.946  25
   2  -2  10 11777.3 579.283  46
   2  -2  11 15849.2 603.766  78
  -2   2 -11 17093.5 767.848  88
   2  -2  11 16218.8 588.921   9
   2  -2  11 19337.4 661.412  17
   2  -2  11 20267.8 695.018  25
   2  -2  11 18804.2 762.317  46
   2  -2  12 19650.9 682.930  25
   2  -2  12 18216.2 652.207  22
  -2   2 -12 20132.5 791.773  88
  -2   2 -13 14148.8 728.025  83
   2  -2  13 11648.9 506.194  78
   2  -2  13 12340.5 521.889  22
   2  -2  13 14521.1 677.536  46
   2  -2  14 7433.90 391.973  78
  -2   2 -14 9685.57 608.937  64
   2  -2  14 8125.99 411.785  22
   2  -2  14 8881.39 527.010  46
  -2   2 -15 271.661 206.710  83
  -2   2 -15 490.897 252.832  64
  -2   2 -16 8569.89 438.709  83
  -2   2 -16 9136.78 489.346  64
  -2   2 -17 952.566 185.603  64
   2  -2  17 541.563 124.002  66
  -2   1  17 1509.30 156.174  75
  -2   1  17 1950.03 172.062  90
   2  -1 -17 1768.24 187.146  84
  -2   1  16 6410.96 350.724  90
   2  -1 -16 6190.94 391.243  84
   2  -1 -15 3640.17 358.787  72
   2  -1 -15 4152.17 291.084  68
  -2   1  15 4671.74 327.581  43
  -2   1  15 4258.23 323.446  90
   2  -1 -15 4124.88 385.955  84
   2  -1 -14 10278.0 469.233  68
   2  -1 -14 8342.24 554.158  72
   2  -1 -14 7275.49 351.802  50
  -2   1  14 9286.27 502.148  43
  -2   1  13 1248.05 238.049  90
  -2   1  13 1438.30 249.701  43
   2  -1 -13 1326.56 256.735  20
   2  -1 -13 1295.10 309.509  51
   2  -1 -12 10145.4 528.173  79
   2  -1 -12 10698.2 543.133  38
   2  -1 -12 8908.65 597.816  72
   2  -1 -12 9438.82 514.982  68
   2  -1 -12 9906.78 562.703  20
  -2   1  12 9863.73 541.282  90
  -2   1  11-18.8366 165.064  90
   2  -1 -11 157.937 258.318  79
   2  -1 -11 132.641 222.566  85
   2  -1 -11 92.6711 274.662  40
   2  -1 -11-12.7424 188.454  72
   2  -1 -11 21.1174 199.876  20
   2  -1 -11 291.160 318.823  51
   2  -1 -10 17027.6 840.690  85
  -2   1  10 21599.3 806.144  90
   2  -1 -10 21707.0 787.471  79
   2  -1 -10 22107.9 777.653  38
   2  -1 -10 18981.1 732.995  40
   2  -1 -10 16788.8 807.033  72
   2  -1 -10 23287.0 875.946  20
   2  -1 -10 26181.8 922.992  24
   2  -1 -10 20542.5 785.317  45
   2  -1 -10 21096.7 793.483  51
  -2   1  10 19478.1 722.022  56
  -2   1   9 1497.68 215.136  11
   2  -1  -9 1619.46 214.620   4
  -2   1   9 1380.62 221.360  90
   2  -1  -9 1496.08 282.002  79
   2  -1  -9 1066.96 250.338  85
   2  -1  -9 2398.68 354.358  38
   2  -1  -9 1797.40 279.678  40
  -2   1   9 1291.88 214.915  71
   2  -1  -9 1404.23 243.672  72
   2  -1  -9 1985.97 282.460  20
   2  -1  -9 2148.11 322.446  24
   2  -1  -9 1969.53 274.051  45
  -2   1   9 1360.42 199.359  56
  -2   1   8 37301.4 1154.91  11
   2  -1  -8 33083.4 1086.37   4
  -2   1   8 37660.6 1120.60  90
   2  -1  -8 33715.6 1172.23  85
   2  -1  -8 39069.9 1114.54  79
   2  -1  -8 40244.3 1168.05  34
   2  -1  -8 46805.7 1062.32  40
   2  -1  -8 32640.2 1141.85  72
  -2   1   8 40325.1 1131.52  71
   2  -1  -8 42608.9 1221.16  24
   2  -1  -8 44315.1 1090.71  45
  -2   1   8 35840.0 1051.81  56
   2  -1  -7 13210.3 587.563  85
   2  -1  -7 15018.8 610.316  34
   2  -1  -7 13244.0 570.037   4
   2  -1  -7 15717.1 636.567  13
   2  -1  -7 14759.7 605.344  72
  -2   1   7 12841.6 533.270  71
   2  -1  -7 15514.9 634.363  24
   2  -1  -7 16044.7 520.591  45
   2  -1  -7 14451.5 464.220  48
   2  -1  -6 56710.2 1436.53  34
   2  -1  -6 54166.9 1377.33  37
  -2   1   6 57698.2 1529.71  43
   2  -1  -6 57064.7 1496.71   7
   2  -1  -6 56229.1 1490.25   4
  -2   1   6 59346.7 1526.75  11
   2  -1  -6 54011.6 1440.56  72
  -2   1   6 57804.4 1416.06  71
   2  -1  -6 60747.9 1520.39  24
   2  -1  -6 56358.7 1277.48  48
   2  -1  -5 5738.03 314.641  85
   2  -1  -5 5465.91 321.988  37
   2  -1  -5 5689.70 358.736  34
  -2   1   5 5535.57 339.224  43
   2  -1  -5 5476.21 350.341  13
   2  -1  -5 5297.24 338.661   4
  -2   1   5 5865.85 352.514  11
  -2   1   5 5095.48 290.377  74
   2  -1  -5 4938.09 287.231  72
   2  -1  -5 5182.94 236.818  48
  -2   1   5 5362.61 247.376  56
   2  -1  -5 5532.58 357.210  24
   2  -1  -4 660.198 239.126  34
   2  -1  -4 766.602 209.608  24
   2  -1  -4 781.571 163.582  26
  -2   1   4 829.916 127.412  88
  -2   1   4 676.689 162.347  43
  -2   1   4 682.922 159.868  11
   2  -1  -4 531.084 174.385  13
  -2   1   4 779.932 156.169  74
   2  -1  -4 661.439 126.592  72
  -2   1   4 721.731 127.352  57
  -2   1   4 754.486 141.366  55
   2  -1  -4 324.556 77.7282  52
  -2   1   4 750.550 110.954  56
   2  -1  -3 21532.7 566.444  26
   2  -1  -3 22221.8 542.029  21
   2  -1  -3 23337.5 696.604   7
   2  -1  -3 22235.5 676.347  13
   2  -1  -3 21934.1 581.467  16
  -2   1   3 21931.9 719.211  11
   2  -1  -3 22466.5 537.210   2
  -2   1   3 21303.4 600.821  90
  -2   1   3 22684.5 606.493  88
  -2   1   3 23116.0 717.336  43
  -2   1   3 22015.1 670.906  74
   2  -1  -3 20571.7 594.449  72
  -2   1   3 22313.6 620.514  57
  -2   1   3 22001.4 668.723  55
   2  -1  -2 4.00160 58.2675  19
   2  -1  -2 31.4029 134.159  13
   2  -1  -2 44.0226 115.534   7
   2  -1  -2 70.0420 113.325   3
   2  -1  -2 36.6954 87.3551  10
   2  -1  -2-44.9655 133.956  16
  -2   1   2 70.7156 93.3402  90
  -2   1   2 60.1273 123.665  88
   2  -1  -2-8.92177 80.4439  84
  -2   1   2-51.9969 126.907  43
  -2   1   2 136.475 138.439  74
  -2   1   2 3.73739 118.769  57
   2  -1  -2 72.3262 64.4005  47
  -2   1   2 54.9730 132.957  55
  -2   1   1 64589.7 1439.00  90
  -2   1   1 69977.7 1644.21  91
  -2   1   1 67610.2 1541.20  88
  -2   1   1 72040.5 1586.23  83
  -2   1   1 71777.8 1626.57  43
  -2   1   1 67434.3 1596.41  69
  -2   1   1 62836.1 1397.07  75
  -2   1   1 72478.0 1571.37  64
  -2   1   1 67736.4 1566.47  57
   2  -1  -1 69650.9 1484.20   3
  -2   1   0 265.588 72.8788  90
  -2   1   0 260.498 144.255  87
  -2   1   0 320.178 159.897  91
  -2   1   0 309.077 143.305  88
  -2   1   0 264.954 141.193  83
  -2   1   0 109.753 130.103  43
  -2   1   0 315.125 147.639  69
  -2   1   0 335.538 147.973  57
  -2   1   0 144.022 146.081  64
   2  -1   0 226.261 96.0607   3
  -2   1  -1 24119.9 720.328  87
  -2   1  -1 25946.7 755.909  91
  -2   1  -1 25073.4 727.722  88
  -2   1  -1 25196.4 713.869  83
  -2   1  -1 25992.4 736.238  43
  -2   1  -1 25739.8 710.567  73
  -2   1  -1 25724.0 724.747  69
   2  -1   1 22793.4 571.097  62
  -2   1  -1 25798.7 726.310  64
   2  -1   1 25077.5 762.534  11
  -2   1  -2 17029.1 556.404  83
   2  -1   2 15461.1 404.437  62
  -2   1  -2 16897.2 565.351  91
  -2   1  -2 15992.2 396.469  89
  -2   1  -2 16518.5 549.857  87
  -2   1  -2 17397.0 578.710  88
   2  -1   2 16518.4 573.194  11
  -2   1  -3 3196.02 252.060  83
  -2   1  -3 3131.14 264.199  57
  -2   1  -3 2577.68 233.805  87
  -2   1  -3 3100.71 237.784  91
  -2   1  -3 3191.73 265.208  88
   2  -1   3 2037.82 168.661   4
   2  -1   3 2144.34 210.235  11
   2  -1   3 2269.58 188.308   6
  -2   1  -4 26951.5 800.507  83
   2  -1   4 24015.8 670.950   4
   2  -1   4 28451.7 718.966   6
   2  -1   4 22359.8 768.291  11
  -2   1  -4 29019.6 839.237  64
  -2   1  -4 27505.8 819.398  57
  -2   1  -4 26019.3 777.857  87
  -2   1  -4 26518.3 769.037  91
   2  -1   5 9653.06 346.578   6
   2  -1   5 8134.32 394.661  11
   2  -1   5 9588.90 358.997   5
  -2   1  -5 8870.54 358.396  76
  -2   1  -5 10490.2 484.652  64
  -2   1  -5 8756.86 413.884  59
  -2   1  -5 8335.19 422.068  57
  -2   1  -5 8857.02 386.420  91
   2  -1   6 119861. 2523.33   5
   2  -1   6 119277. 2512.28   8
   2  -1   6 117686. 2560.74  15
  -2   1  -6 114588. 2608.78  87
  -2   1  -6 113188. 2719.95  88
  -2   1  -6 110725. 2653.99  59
  -2   1  -6 114395. 2673.82  57
  -2   1  -6 117944. 2742.31  83
  -2   1  -7 1681.91 210.902  59
  -2   1  -7 1764.58 223.040  57
  -2   1  -7 1642.85 202.686  87
  -2   1  -7 1650.55 249.531  88
   2  -1   7 2393.02 261.886   8
  -2   1  -8 19415.8 651.936  87
  -2   1  -8 19897.5 772.866  88
  -2   1  -8 20771.4 713.344  57
   2  -1   8 19337.1 681.373  17
   2  -1   8 16848.8 632.838   9
   2  -1   8 17408.2 653.735   8
   2  -1   8 21404.5 658.201  15
   2  -1   8 20785.8 675.191  44
   2  -1   9 9812.98 430.078   9
   2  -1   9 8128.88 402.590   1
   2  -1   9 10413.9 509.506  17
   2  -1   9 8672.40 412.707  15
  -2   1  -9 8214.52 492.238  88
   2  -1   9 9464.19 444.341  44
   2  -1  10 20709.8 697.933  78
  -2   1 -10 22096.6 857.191  88
   2  -1  10 21493.4 709.287   9
   2  -1  10 25245.0 758.319  17
   2  -1  10 26088.8 791.127  25
   2  -1  10 22378.7 790.763  44
   2  -1  11 1429.57 199.032  78
  -2   1 -11 1669.50 278.584  88
   2  -1  11 1351.47 206.436   9
   2  -1  11 2221.98 332.150  46
   2  -1  11 1923.15 227.354  22
   2  -1  11 1753.25 266.484  25
   2  -1  12 26641.7 850.189  22
   2  -1  12 29010.3 861.235  25
   2  -1  12 26895.2 854.407  78
   2  -1  13 10698.8 581.039  46
   2  -1  13 8940.65 434.432  22
  -2   1 -13 10292.6 620.667  83
   2  -1  13 8348.13 419.439  78
   2  -1  14 203.286 221.162  46
  -2   1 -14 315.853 259.568  64
   2  -1  14 683.109 219.153  22
   2  -1  14 190.610 131.578  78
  -2   1 -14 161.518 224.150  83
  -2   1 -15 2946.04 344.954  64
   2  -1  15 2921.85 263.482  66
   2  -1  15 3009.53 322.902  46
   2  -1  15 1670.91 219.207  56
  -2   1 -15 2122.48 301.591  83
  -2   1 -16 4395.11 340.156  64
   2  -1  16 3276.36 246.766  66
   2  -1  16 2508.96 210.154  56
  -2   1 -16 4620.94 344.480  83
   2  -1  17 7839.39 281.138  77
   2  -1  17 7240.46 322.615  66
   2   0 -17 76.0351 122.334  84
  -2   0  17 34.7091 99.4889  90
   2   0 -16 11682.9 568.852  72
  -2   0  16 14069.0 555.223  43
   2   0 -16 11688.2 565.743  84
  -2   0  16 13420.9 539.246  90
   2   0 -15 1353.26 214.513  68
   2   0 -15 1056.29 245.822  72
  -2   0  15 1346.57 219.260  43
  -2   0  15 1011.52 207.339  90
  -2   0  14 11804.7 599.228  43
   2   0 -14 10802.5 625.659  72
   2   0 -14 13108.7 535.037  68
   2   0 -14 9883.61 532.330  20
   2   0 -14 9353.09 424.036  50
  -2   0  13 7812.78 480.101  90
   2   0 -13 7286.91 555.920  85
   2   0 -13 8114.26 468.634  79
  -2   0  13 8720.55 540.748  43
   2   0 -13 7553.38 536.703  72
   2   0 -13 7843.88 492.496  20
   2   0 -13 8727.10 487.851  51
   2   0 -13 6922.16 392.840  50
   2   0 -12 3582.50 367.749  79
   2   0 -12 3361.81 370.172  38
   2   0 -12 2689.54 354.785  72
  -2   0  12 2638.21 312.810  71
   2   0 -12 3316.18 345.783  20
  -2   0  12 3171.15 327.218  90
   2   0 -12 3035.27 383.188  85
  -2   0  11 18843.6 789.851  90
   2   0 -11 18846.4 886.231  85
   2   0 -11 21978.5 807.202  79
   2   0 -11 23443.7 795.494  38
   2   0 -11 22626.6 787.868  40
   2   0 -11 18992.8 866.065  72
  -2   0  11 20219.8 796.340  71
   2   0 -11 21284.2 871.759  20
   2   0 -11 24820.4 930.967  24
   2   0 -11 23252.5 800.105  51
   2   0 -10 1515.05 309.794  79
   2   0 -10 1298.65 262.598  85
  -2   0  10 1242.20 225.535  71
   2   0 -10 1376.57 262.212  72
   2   0 -10 1460.48 339.337  51
   2   0 -10 1732.10 364.546  34
   2   0 -10 1166.46 261.135  20
   2   0 -10 1421.85 345.951  38
   2   0 -10 1244.22 282.088  40
   2   0  -9 34712.0 1080.00  13
   2   0  -9 27105.8 923.352   4
   2   0  -9 24024.5 976.240  85
   2   0  -9 36614.4 978.894  38
   2   0  -9 33934.8 1045.37  34
   2   0  -9 30209.5 906.888  40
   2   0  -9 24437.2 968.483  72
  -2   0   9 29772.2 946.135  71
   2   0  -9 36269.4 1094.72  24
   2   0  -9 29949.3 933.746  45
   2   0  -8 157.927 173.717  45
   2   0  -8 8.54065 154.698  85
  -2   0   8-6.26388 118.573  74
  -2   0   8-19.3357 130.800  71
   2   0  -8-16.6286 138.351  72
   2   0  -8 8.39136 177.364  13
   2   0  -8-82.6487 132.176   4
   2   0  -8 68.6402 216.644  24
   2   0  -8 42.5938 264.363  34
   2   0  -8 61.2740 180.258  40
   2   0  -8 70.9183 261.276  37
   2   0  -7 7546.93 420.993  37
   2   0  -7 7310.44 439.237  34
   2   0  -7 8138.08 345.963  45
  -2   0   7 7152.81 364.247  71
  -2   0   7 7758.40 384.047  74
   2   0  -7 7239.18 400.983  72
   2   0  -7 8384.94 461.308  24
   2   0  -7 7381.54 415.638   7
   2   0  -7 6698.45 396.647   4
   2   0  -6 3063.70 266.406   7
   2   0  -6 2855.00 270.998  13
   2   0  -6 2826.33 311.407  34
   2   0  -6 2849.13 290.047  37
  -2   0   6 2821.14 278.387  43
   2   0  -6 2402.89 227.059  85
  -2   0   6 2278.50 226.018  74
  -2   0   6 2773.94 247.161  69
   2   0  -6 3366.65 256.659  26
   2   0  -6 3007.24 212.236  45
   2   0  -6 2696.10 201.318  48
   2   0  -5 30205.6 870.367  13
   2   0  -5 29583.7 774.757  16
  -2   0   5 30413.6 913.582  43
  -2   0   5 26919.9 720.476  87
   2   0  -5 26185.8 781.036  85
  -2   0   5 27137.2 756.720  71
   2   0  -5 28745.9 792.692  72
   2   0  -5 28777.9 751.731  26
   2   0  -5 29346.7 717.678  21
   2   0  -5 27254.8 675.842  48
  -2   0   4 11624.3 402.005  87
   2   0  -4 11675.8 401.725  85
   2   0  -4 10620.9 384.789  72
  -2   0   4 11531.2 389.750  71
  -2   0   4 13433.2 527.608  43
   2   0  -4 12361.0 416.021  16
   2   0  -4 12720.7 387.904  21
  -2   0   3 53013.4 1278.22  43
   2   0  -3 42362.8 1060.15  72
  -2   0   3 52375.9 1284.43  91
  -2   0   3 46123.9 1136.02  87
  -2   0   3 54442.2 1162.22  88
   2   0  -3 39807.2 1067.15  85
   2   0  -3 52884.8 1090.88   2
   2   0  -3 48473.4 1095.80   1
   2   0  -3 47696.2 1111.89  16
  -2   0   2 12712.4 444.614  87
  -2   0   2 15052.2 459.409  88
  -2   0   2 14944.6 540.513  91
  -2   0   2 16694.2 546.062  83
  -2   0   2 15355.2 537.272  43
  -2   0   2 14231.5 511.413  74
  -2   0   2 14429.1 506.591  69
  -2   0   2 14459.5 462.277  57
   2   0  -2 11097.9 312.693  12
   2   0  -2 14879.9 418.005   2
   2   0  -2 15094.0 451.162   3
  -2   0   1 1750.08 101.480  90
  -2   0   1 1918.90 218.240  91
  -2   0   1 1536.73 181.404  87
  -2   0   1 1740.67 188.020  88
  -2   0   1 2038.34 213.324  83
  -2   0   1 1611.78 196.824  43
  -2   0   1 1754.22 210.784  74
  -2   0   1 1886.44 201.587  69
  -2   0   1 1599.05 181.980  57
   2   0  -1 1432.71 190.398  11
  -2   0   0 93323.5 2078.86  83
  -2   0   0 95956.1 2105.80  43
  -2   0   0 93338.0 2068.63  69
  -2   0   0 85278.9 2030.83  87
  -2   0   0 89358.8 2040.49  88
  -2   0   0 89436.0 2104.79  91
   2   0   0 93845.0 2132.25  11
  -2   0  -1 10778.4 435.288  43
  -2   0  -1 10786.0 436.815  83
   2   0   1 10862.5 454.378  11
  -2   0  -1 9997.22 408.850  87
  -2   0  -1 10524.4 448.971  91
  -2   0  -1 10396.0 418.564  88
  -2   0  -2 66532.0 1556.39  83
   2   0   2 60938.3 1559.62  11
  -2   0  -2 62737.2 1522.73  88
  -2   0  -2 62692.6 1506.90  87
  -2   0  -2 62135.3 1544.44  91
  -2   0  -3 191.741 176.725  83
  -2   0  -3 50.3811 151.563  91
  -2   0  -3 140.159 160.517  87
  -2   0  -3 10.8646 157.670  88
  -2   0  -3 59.0522 154.301  57
  -2   0  -3 155.901 167.523  64
   2   0   3 66.8825 125.136  11
   2   0   4 40688.6 977.231   6
   2   0   4 40953.2 976.910   5
  -2   0  -4 41054.1 1105.88  91
  -2   0  -4 41519.8 1030.39  76
  -2   0  -4 43632.2 1144.62  64
  -2   0  -4 41100.1 1119.69  60
  -2   0  -4 40872.9 1145.90  63
  -2   0  -4 40172.9 1094.09  57
  -2   0  -4 43071.7 1123.00  55
  -2   0  -5 42604.2 1195.92  83
   2   0   5 45150.2 1022.29   5
   2   0   5 43926.6 1043.71  15
  -2   0  -5 37239.8 995.866  41
  -2   0  -5 40656.5 1164.47  60
  -2   0  -5 43890.3 1208.76  64
  -2   0  -5 39150.5 1162.47  63
  -2   0  -5 41290.9 1133.20  57
  -2   0  -5 43040.8 1111.48  87
  -2   0  -5 39483.9 1124.94  91
  -2   0  -5 40707.2 1162.63  88
  -2   0  -6 35449.6 1079.66  83
  -2   0  -6 30687.2 878.038  41
  -2   0  -6 35173.0 953.928  87
  -2   0  -6 33054.1 1014.59  88
  -2   0  -6 32937.0 965.949  91
  -2   0  -6 37780.4 1098.86  64
  -2   0  -6 32208.2 995.730  63
  -2   0  -6 33324.2 1030.25  60
  -2   0  -6 31804.2 967.034  57
   2   0   6 31919.8 927.311   1
   2   0   6 35108.4 863.466   5
   2   0   6 34760.5 866.935   8
   2   0   6 30555.0 871.490  15
  -2   0  -7 7025.31 352.035  41
  -2   0  -7 8141.60 389.836  87
  -2   0  -7 7040.80 423.339  88
  -2   0  -7 7834.00 442.747  60
  -2   0  -7 8314.14 493.627  64
  -2   0  -7 8711.01 415.805  57
   2   0   7 7436.52 363.364   1
   2   0   7 6505.59 360.350   9
   2   0   7 7172.35 381.896   8
   2   0   8 8578.51 399.018   9
   2   0   8 8464.92 454.979  17
   2   0   8 8763.22 375.520  15
   2   0   8 7511.53 376.455   1
  -2   0  -8 8155.77 462.331  88
  -2   0  -8 6649.51 377.559  41
  -2   0  -8 7991.13 462.098  60
  -2   0  -8 9113.17 552.392  64
  -2   0  -8 7976.06 409.445  57
   2   0   8 7408.96 423.780  25
   2   0   9 24234.2 805.900   1
   2   0   9 26437.2 799.882   9
   2   0   9 31618.2 831.477  17
  -2   0  -9 25944.3 919.683  88
  -2   0  -9 24082.6 865.697  41
  -2   0  -9 26290.8 934.466  60
  -2   0  -9 30323.1 1089.85  64
   2   0   9 29152.3 922.752  44
   2   0  10 2771.72 288.492  25
   2   0  10 2850.42 247.567  22
  -2   0 -10 2575.72 294.520  88
   2   0  10 2782.13 253.504   9
  -2   0 -10 3112.17 384.692  64
   2   0  10 2512.57 283.968  44
   2   0  11 21512.1 797.819  44
   2   0  11 18915.2 661.495  22
   2   0  11 18484.4 643.105  25
  -2   0 -11 21900.7 947.975  64
   2   0  11 18030.9 646.886  78
   2   0  12 59.5426 133.910  78
  -2   0 -12 229.311 237.308  83
   2   0  12 247.267 255.652  46
   2   0  12 213.969 180.640  44
  -2   0 -12 264.382 262.151  64
   2   0  12 69.0798 156.846  22
   2   0  13 16680.9 739.882  46
  -2   0 -13 17473.7 817.814  64
   2   0  13 14505.6 565.822  22
  -2   0 -13 16024.0 788.610  83
   2   0  14 7571.36 485.586  46
  -2   0 -14 8015.02 527.985  64
   2   0  14 7194.69 403.498  66
   2   0  14 7358.74 380.921  22
  -2   0 -14 7336.65 524.350  83
  -2   0 -15 7186.48 445.646  64
   2   0  15 5551.02 331.474  66
   2   0  15 6465.18 415.325  46
  -2   0 -15 6495.33 442.750  83
  -2   0 -16 1966.96 243.454  83
  -2   0 -16 1788.94 227.143  64
   2   0  16 1205.80 166.622  66
  -2   0 -17 3323.10 225.383  83
   2   0  17 2784.65 147.685  77
  -2  -1  18 827.865 109.064  90
  -2  -1  17 3875.43 253.829  90
   2   1 -17 2830.50 244.383  84
  -2  -1  16 637.113 162.954  43
  -2  -1  16 606.586 167.898  90
   2   1 -16 521.621 181.592  72
   2   1 -15 7164.67 479.240  72
   2   1 -15 8507.16 400.239  68
  -2  -1  15 7518.12 437.674  90
  -2  -1  15 9133.07 504.075  43
   2   1 -15 6365.56 312.245  50
   2   1 -14 1021.66 191.938  50
  -2  -1  14 1052.20 235.421  43
   2   1 -14 1010.38 253.915  72
   2   1 -14 1011.06 237.482  68
   2   1 -14 731.543 217.347  20
  -2  -1  13 12114.7 598.548  90
   2   1 -13 10862.3 656.360  85
   2   1 -13 12354.4 575.188  79
   2   1 -13 11211.1 636.803  72
  -2  -1  13 10884.3 557.213  71
   2   1 -13 11730.5 595.676  20
   2   1 -13 10487.4 493.565  50
   2   1 -13 13323.5 581.166  51
  -2  -1  12 233.205 180.012  71
   2   1 -12 146.866 201.121  72
   2   1 -12 107.200 300.077  38
   2   1 -12 459.748 275.367  24
   2   1 -12 297.116 202.863  20
   2   1 -12 131.543 261.580  79
   2   1 -12 202.165 215.533  85
   2   1 -11 7331.94 529.231  85
   2   1 -11 8730.63 503.949  79
   2   1 -11 8824.01 493.701  38
  -2  -1  11 8496.81 472.990  71
   2   1 -11 7369.09 509.797  72
   2   1 -11 9852.65 580.251  24
   2   1 -11 7733.88 506.839  20
   2   1 -11 9429.79 511.718  51
   2   1 -10 17018.2 643.169  40
   2   1 -10 18298.7 683.504  38
   2   1 -10 19369.0 749.149  37
   2   1 -10 17967.8 761.900  34
   2   1 -10 18533.0 767.309  13
  -2  -1  10 15316.0 652.202  71
   2   1 -10 14410.5 703.562  72
   2   1 -10 13543.0 698.551  85
   2   1 -10 17767.6 683.824  51
   2   1  -9 28571.4 976.490  24
   2   1  -9 22818.6 889.401  85
   2   1  -9 26293.8 835.381  38
   2   1  -9 26912.4 925.126  34
   2   1  -9 27470.3 891.669  37
   2   1  -9 24236.8 782.125  40
   2   1  -9 23773.6 885.240   7
   2   1  -9 27273.3 938.232  13
   2   1  -9 23048.6 838.665   4
  -2  -1   9 27801.0 856.799  71
  -2  -1   9 26443.1 868.800  74
   2   1  -9 21958.3 870.835  72
   2   1  -9 27676.5 837.737  67
   2   1  -9 26176.8 853.512  51
   2   1  -8 35533.4 1080.24  24
   2   1  -8 23833.8 940.058  85
   2   1  -8 45239.6 1016.34  38
   2   1  -8 31835.6 1012.19  34
   2   1  -8 32640.9 974.293  37
   2   1  -8 35107.8 897.961  40
   2   1  -8 35175.0 1059.47  13
   2   1  -8 32239.5 1018.56   7
  -2  -1   8 33481.6 948.133  71
  -2  -1   8 32213.2 1001.88  74
   2   1  -8 22655.8 924.534  72
   2   1  -8 32232.4 921.533  67
   2   1  -8 30652.4 900.629  45
   2   1  -7 5862.56 372.057  37
   2   1  -7 7181.13 312.932  40
   2   1  -7 6177.04 306.203  45
  -2  -1   7 5497.16 307.270  71
  -2  -1   7 6226.63 377.612  74
   2   1  -7 4480.83 317.477  72
  -2  -1   7 5861.66 327.197  69
   2   1  -7 6205.44 340.237  26
   2   1  -7 5748.34 361.097   7
   2   1  -7 5508.88 368.553  13
   2   1  -6 34270.0 929.968  16
   2   1  -6 33877.2 1001.37   7
  -2  -1   6 33889.4 921.743  36
  -2  -1   6 35166.2 1073.75  43
   2   1  -6 31184.2 937.299  85
  -2  -1   6 34153.5 1018.62  74
   2   1  -6 33112.2 902.824  26
   2   1  -6 35059.1 878.366  21
  -2  -1   6 32268.7 927.946  55
   2   1  -6 36493.4 864.018  45
   2   1  -5 2418.09 221.390   3
   2   1  -5 2221.84 226.214  16
  -2  -1   5 1930.89 184.682  36
  -2  -1   5 2461.29 249.879  43
   2   1  -5 1758.13 174.345  85
  -2  -1   5 1724.18 161.762  71
  -2  -1   5 1723.35 214.993  74
   2   1  -5 1631.44 166.439  72
   2   1  -5 1989.38 222.122  26
   2   1  -5 2290.65 194.942  21
  -2  -1   5 1832.64 194.814  55
   2   1  -5 1998.24 163.058  45
  -2  -1   4 54442.4 1200.55  87
  -2  -1   4 50844.8 1367.27  91
  -2  -1   4 46181.5 1162.39  71
  -2  -1   4 50948.3 1339.49  74
   2   1  -4 51129.0 1118.00  18
   2   1  -4 56399.2 1285.19   3
   2   1  -4 50076.0 1156.03   1
   2   1  -4 51577.4 1240.50  16
  -2  -1   4 55691.6 1314.13  36
  -2  -1   4 56080.7 1395.29  43
   2   1  -3 17997.6 496.889   1
  -2  -1   3 17218.5 578.619  36
  -2  -1   3 18370.7 632.861  43
  -2  -1   3 16144.7 503.282  87
  -2  -1   3 15980.7 607.510  91
  -2  -1   3 16674.6 536.630  88
   2   1  -3 16639.3 438.328  23
  -2  -1   2 11648.4 465.222  36
  -2  -1   2 12113.4 496.015  43
  -2  -1   2 12350.2 421.394  87
  -2  -1   2 12492.8 438.378  88
  -2  -1   2 11774.9 500.951  91
  -2  -1   2 13526.7 509.040  83
   2   1  -2 11527.8 332.292  12
   2   1  -2 11747.4 488.742  11
   2   1  -2 11672.3 398.544   1
  -2  -1   1 20988.8 671.457  36
  -2  -1   1 21695.2 690.101  43
  -2  -1   1 19915.8 605.912  87
  -2  -1   1 20191.5 618.666  88
  -2  -1   1 19872.0 681.856  91
  -2  -1   1 21237.2 677.850  83
   2   1  -1 20118.1 592.674   1
   2   1  -1 20845.9 692.501  11
  -2  -1   0 16888.6 583.822  43
  -2  -1   0 16617.2 548.559  87
  -2  -1   0 17361.4 620.110  91
  -2  -1   0 16916.6 553.900  88
   2   1   0 16106.2 602.300  11
   2   1   0 15605.9 519.006   1
  -2  -1   0 17982.8 600.850  83
   2   1   1 3530.27 229.655   1
   2   1   1 3423.88 268.638  11
  -2  -1  -1 3544.67 280.912  83
  -2  -1  -1 3563.48 252.487  87
  -2  -1  -1 3185.02 243.629  88
  -2  -1  -1 3438.85 289.500  91
  -2  -1  -1 3831.47 257.230  43
  -2  -1  -1 3695.57 274.819  64
  -2  -1  -1 3911.74 261.009  57
  -2  -1  -1 3659.22 295.629  63
  -2  -1  -1 3671.89 277.086  59
  -2  -1  -1 3684.22 231.750  58
  -2  -1  -1 3444.35 277.018  55
   2   1   2 5772.07 300.567   1
   2   1   2 5391.22 344.828  11
  -2  -1  -2 6665.20 375.132  83
  -2  -1  -2 6195.55 329.404  87
  -2  -1  -2 6374.99 333.871  88
  -2  -1  -2 6476.60 383.181  91
  -2  -1  -2 5743.21 343.193  60
  -2  -1  -2 6625.82 357.408  64
  -2  -1  -2 6419.45 394.123  63
  -2  -1  -2 6755.58 342.940  57
  -2  -1  -2 6282.67 356.190  55
   2   1   3 41638.1 1078.16   1
  -2  -1  -3 41610.1 1178.06  91
  -2  -1  -3 41271.9 1077.08  73
  -2  -1  -3 42421.3 1068.47  76
  -2  -1  -3 41214.2 1165.94  60
  -2  -1  -3 41436.7 1142.61  64
  -2  -1  -3 41460.6 1205.79  63
  -2  -1  -3 43143.4 1129.39  57
  -2  -1  -3 40826.8 1145.13  55
  -2  -1  -4 6660.66 339.611  87
  -2  -1  -4 6489.22 392.684  91
  -2  -1  -4 6594.61 391.180  83
   2   1   4 5728.90 308.743   1
   2   1   4 5980.65 259.251   6
   2   1   4 5977.60 267.136   5
   2   1   4 6108.35 301.688  15
  -2  -1  -4 6582.36 390.719  60
  -2  -1  -4 6206.31 377.387  64
  -2  -1  -4 6096.77 345.296  57
  -2  -1  -4 6450.91 399.375  63
  -2  -1  -4 6510.26 366.925  55
  -2  -1  -5 91490.0 2019.64  87
  -2  -1  -5 82896.4 2038.71  88
  -2  -1  -5 89044.8 2127.81  83
   2   1   5 87723.8 1987.72   1
   2   1   5 87980.8 1869.40   5
   2   1   5 72287.3 1916.63   9
   2   1   5 89967.3 1873.64   8
   2   1   5 77239.3 1869.74  15
  -2  -1  -5 83084.6 1893.13  41
  -2  -1  -5 88324.2 2134.10  60
  -2  -1  -5 89737.3 2117.89  64
  -2  -1  -5 86416.2 2034.37  57
  -2  -1  -5 83941.1 2114.34  63
  -2  -1  -5 88279.3 2052.62  55
  -2  -1  -6 3070.41 317.460  83
   2   1   6 2572.28 264.212   8
   2   1   6 2658.80 299.984  17
   2   1   6 2766.17 227.749   1
   2   1   6 2996.96 220.084  15
   2   1   6 2454.68 229.906   9
  -2  -1  -6 2710.78 204.990  41
  -2  -1  -6 2934.77 314.849  64
  -2  -1  -6 2060.82 253.794  63
  -2  -1  -6 2722.78 307.735  60
  -2  -1  -6 3077.50 255.879  87
  -2  -1  -6 2596.35 260.704  88
  -2  -1  -7 23419.8 825.349  88
  -2  -1  -7 26513.5 981.218  83
   2   1   7 24936.6 775.319   1
   2   1   7 28074.0 776.904   9
  -2  -1  -7 23731.2 762.785  41
  -2  -1  -7 28099.9 963.305  64
  -2  -1  -7 25294.4 939.379  60
  -2  -1  -7 24033.3 853.119  63
   2   1   7 21388.2 728.524  25
  -2  -1  -8 1447.66 232.891  88
  -2  -1  -8 1847.52 327.246  83
   2   1   8 1544.69 191.050   1
   2   1   8 1877.80 207.527   9
   2   1   8 2358.24 292.417  17
  -2  -1  -8 1583.05 208.235  41
  -2  -1  -8 2114.11 325.551  64
  -2  -1  -8 1553.44 271.057  60
   2   1   8 2266.15 256.030  25
  -2  -1  -9 40448.5 1223.16  88
  -2  -1  -9 46712.5 1509.70  83
   2   1   9 44600.5 1151.34   9
  -2  -1  -9 36761.9 1194.43  41
  -2  -1  -9 39907.4 1330.21  60
  -2  -1  -9 47522.8 1455.04  64
   2   1   9 44787.1 1143.16  22
  -2  -1 -10 16439.1 822.990  83
   2   1  10 17653.0 719.828  44
   2   1  10 12002.2 611.287  56
  -2  -1 -10 13686.1 627.852  41
   2   1  10 15766.1 570.061  22
   2   1  10 15501.2 545.943  25
  -2  -1 -10 15484.7 720.828  60
  -2  -1 -10 16634.9 802.676  64
   2   1  11 11348.0 489.701  22
  -2  -1 -11 12683.5 704.593  64
  -2  -1 -11 11828.8 703.362  83
   2   1  11 11010.4 484.550  78
   2   1  12 30096.0 1025.85  44
   2   1  12 31331.0 1092.28  46
  -2  -1 -12 28821.4 1134.42  83
   2   1  13 456.227 252.274  46
   2   1  13 246.934 181.102  44
  -2  -1 -13 488.393 261.489  64
   2   1  13 477.689 178.986  66
   2   1  13 940.133 205.114  22
  -2  -1 -14 3764.24 367.179  64
   2   1  14 2910.57 258.571  66
   2   1  14 3229.58 344.870  46
  -2  -1 -14 3643.77 381.821  83
  -2  -1 -15 1115.91 220.650  64
   2   1  15 710.086 153.295  66
   2   1  15 1291.01 235.988  46
  -2  -1 -15 1386.23 247.274  83
  -2  -1 -16 12339.7 495.925  83
   2   1  16 10470.5 346.681  77
  -2  -2  18 645.163 105.695  90
  -2  -2  17 5576.29 306.546  90
  -2  -2  17 6480.11 342.678  43
  -2  -2  16 4489.56 314.704  90
   2   2 -16 3824.97 327.463  72
   2   2 -15 6799.75 458.992  72
   2   2 -15 7556.55 377.554  68
  -2  -2  15 8063.17 485.160  43
  -2  -2  15 7551.68 433.503  90
   2   2 -15 6784.27 472.157  85
   2   2 -15 5812.52 308.207  50
   2   2 -14 4559.93 398.801  72
  -2  -2  14 4882.06 365.034  71
   2   2 -14 3818.12 347.822  20
   2   2 -14 4658.53 308.368  50
   2   2 -13 11253.2 654.317  85
   2   2 -13 12986.7 595.363  79
  -2  -2  13 13224.2 707.754  43
   2   2 -13 10794.6 620.703  72
  -2  -2  13 12022.1 577.487  71
   2   2 -13 10249.4 576.997  20
   2   2 -13 14335.9 689.283  24
   2   2 -13 11385.4 510.265  50
   2   2 -12 39862.7 1176.19  79
   2   2 -12 43737.3 1301.64  34
  -2  -2  12 35713.2 1145.16  71
   2   2 -12 34516.1 1240.96  72
   2   2 -12 33673.3 1250.65  85
   2   2 -12 43699.6 1314.87  24
   2   2 -12 33462.8 1196.75  20
   2   2 -11 3729.02 406.706  24
   2   2 -11 2364.87 322.223  85
   2   2 -11 3663.73 355.189  38
   2   2 -11 3824.38 433.952  37
   2   2 -11 3634.77 372.580  13
  -2  -2  11 3021.10 294.399  71
  -2  -2  11 2924.94 299.467  74
   2   2 -11 2720.89 322.257  72
   2   2 -11 3174.97 367.617  67
   2   2 -11 4019.55 369.935  51
   2   2 -10 13066.8 659.096  24
   2   2 -10 10443.2 584.487  85
   2   2 -10 13955.6 565.908  38
   2   2 -10 13238.3 656.313  34
   2   2 -10 12927.1 631.234  37
   2   2 -10 11054.7 574.639   7
   2   2 -10 13016.6 633.929  13
  -2  -2  10 11454.3 536.060  71
  -2  -2  10 12968.6 602.702  74
   2   2 -10 11218.5 599.957  72
   2   2 -10 12762.2 588.870  67
   2   2 -10 13702.9 573.183  51
   2   2  -9 5418.95 395.337  85
   2   2  -9 7094.84 428.704  38
   2   2  -9 6883.23 458.742  37
   2   2  -9 6500.66 462.099  34
   2   2  -9 6729.88 366.902  40
   2   2  -9 6017.06 402.779   7
   2   2  -9 6424.59 428.476  13
  -2  -2   9 6623.90 374.299  71
  -2  -2   9 6665.54 430.228  74
   2   2  -9 5483.90 392.963  72
   2   2  -9 6575.28 416.007  67
   2   2  -9 6647.78 419.907  51
   2   2  -8 15065.9 624.366   7
   2   2  -8 16253.9 656.463  13
   2   2  -8 15469.2 579.742  38
   2   2  -8 16546.4 629.678  37
   2   2  -8 14887.3 523.875  40
   2   2  -8 13154.1 590.716  85
  -2  -2   8 15454.1 561.675  71
  -2  -2   8 17134.7 717.189  74
   2   2  -8 11784.5 569.955  72
   2   2  -8 16675.8 604.378  26
   2   2  -8 14447.7 586.640  51
  -2  -2   7 6216.52 333.683  55
  -2  -2   7 7007.95 346.166  36
   2   2  -7 6447.18 307.155  40
  -2  -2   7 7602.55 459.570  43
  -2  -2   7 6626.01 326.202  71
  -2  -2   7 7225.86 455.845  74
   2   2  -7 6798.84 364.393  26
   2   2  -7 7351.94 341.519  21
   2   2  -7 7079.58 396.522   7
   2   2  -6 62155.2 1523.68   3
   2   2  -6 59786.9 1478.59  16
  -2  -2   6 62569.6 1618.37  91
  -2  -2   6 51325.5 1429.40  81
  -2  -2   6 60161.5 1515.79  36
   2   2  -6 67540.8 1378.95  40
  -2  -2   6 61945.0 1642.75  43
  -2  -2   6 61151.3 1639.93  74
  -2  -2   6 57641.5 1507.04  55
   2   2  -6 58291.8 1458.83  26
   2   2  -6 61690.7 1444.59  21
  -2  -2   5 59077.4 1511.24  55
  -2  -2   5 61370.4 1520.79  36
  -2  -2   5 60784.6 1597.27  43
   2   2  -5 62660.3 1487.79   3
   2   2  -5 58092.4 1444.13  16
  -2  -2   5 59656.6 1580.74  74
  -2  -2   5 57664.3 1501.96  63
   2   2  -5 59393.7 1418.70  21
   2   2  -4 7178.72 273.330  23
   2   2  -4 7030.90 261.222  18
  -2  -2   4 7287.01 272.799  87
  -2  -2   4 7050.85 368.121  36
  -2  -2   4 7147.05 398.969  43
   2   2  -4 6662.85 346.848   3
  -2  -2   4 6909.85 397.327  74
  -2  -2   4 7311.39 386.451  63
  -2  -2   4 7415.53 386.605  55
   2   2  -3 10072.3 344.534  23
   2   2  -3 10388.6 313.513  12
   2   2  -3 9993.33 450.855  11
   2   2  -3 9999.02 416.844   3
   2   2  -3 10937.1 383.836   2
  -2  -2   3 10358.5 450.213  36
  -2  -2   3 9960.52 463.586  43
  -2  -2   3 10021.1 357.989  87
  -2  -2   3 9770.76 462.228  74
  -2  -2   3 9823.09 462.400  63
  -2  -2   3 9927.97 455.515  59
  -2  -2   3 9828.72 457.495  55
   2   2  -2 6939.36 299.882   1
   2   2  -2 7051.53 311.401   2
   2   2  -2 6998.37 264.022  12
   2   2  -2 6280.05 361.544  11
  -2  -2   2 7148.47 303.933  87
  -2  -2   2 7012.12 337.287  88
  -2  -2   2 7203.86 378.821  43
  -2  -2   2 6889.86 370.407  36
  -2  -2   2 6602.80 374.349  74
  -2  -2   2 6392.51 326.804  58
  -2  -2   2 6887.31 393.180  63
  -2  -2   2 6406.31 365.714  59
  -2  -2   2 6879.81 386.919  55
   2   2  -1 143153. 2942.20   1
   2   2  -1 130105. 3062.10  11
   2   2  -1 146825. 2962.54   2
  -2  -2   1 125071. 3056.05  91
  -2  -2   1 139485. 2935.94  87
  -2  -2   1 134243. 2965.33  88
  -2  -2   1 137601. 3047.55  83
  -2  -2   1 137060. 3054.16  74
  -2  -2   1 131986. 3055.11  55
  -2  -2   1 145951. 3034.15  64
  -2  -2   1 133429. 3101.88  63
  -2  -2   1 129853. 3042.65  59
  -2  -2   1 129091. 2948.77  58
  -2  -2   1 137573. 3055.23  36
  -2  -2   1 138603. 3045.53  43
   2   2   0 25.3112 96.3317   1
  -2  -2   0 43.6952 128.550  43
  -2  -2   0 24.8052 142.536  36
  -2  -2   0 118.389 130.293  87
  -2  -2   0 181.347 166.244  74
  -2  -2   0 209.832 120.288  58
  -2  -2   0 43.1176 156.653  64
  -2  -2   0 113.007 171.625  63
  -2  -2   0 347.117 156.732  59
  -2  -2   0 51.2902 153.715  55
  -2  -2  -1 61997.4 1603.23  55
  -2  -2  -1 62681.1 1548.98  43
  -2  -2  -1 65894.9 1518.81  76
  -2  -2  -1 61740.0 1610.42  60
  -2  -2  -1 63692.4 1571.88  64
  -2  -2  -1 64205.1 1690.50  63
  -2  -2  -1 65414.3 1514.60  58
   2   2   1 63702.4 1521.83   1
  -2  -2  -2 4655.21 268.114  76
  -2  -2  -2 3819.96 297.842  55
  -2  -2  -2 3840.25 259.177  73
  -2  -2  -2 4047.30 314.472  60
  -2  -2  -2 4219.52 351.838  63
  -2  -2  -2 4187.27 299.325  64
   2   2   2 4719.51 269.702   1
   2   2   2 3829.84 215.918  15
   2   2   3 6239.73 318.176   1
   2   2   3 5185.23 298.055   9
   2   2   3 6084.52 264.145  15
   2   2   3 6252.79 263.353   8
   2   2   3 5354.89 222.059  14
  -2  -2  -3 6846.77 404.830  83
  -2  -2  -3 7103.29 355.197  87
  -2  -2  -3 6305.61 348.277  88
  -2  -2  -3 7058.32 332.879  73
  -2  -2  -3 6884.20 408.008  60
  -2  -2  -3 6621.75 379.328  64
  -2  -2  -3 7191.22 447.279  63
  -2  -2  -3 6686.52 377.956  55
  -2  -2  -4 8425.68 403.797  87
  -2  -2  -4 7315.86 386.940  88
  -2  -2  -4 7659.77 473.899  91
   2   2   4 7875.99 362.328   1
   2   2   4 7770.27 288.690   5
   2   2   4 7848.41 350.824  17
   2   2   4 6264.53 338.584   9
   2   2   4 7519.18 288.647  15
  -2  -2  -4 7090.22 428.188  83
  -2  -2  -4 7688.67 459.559  60
  -2  -2  -4 7404.43 421.341  64
  -2  -2  -4 7565.34 463.953  63
  -2  -2  -4 7429.03 398.456  55
  -2  -2  -5 1597.64 216.175  88
  -2  -2  -5 2160.61 304.338  91
  -2  -2  -5 1963.80 264.811  83
   2   2   5 1514.91 175.098   1
   2   2   5 1408.90 185.721   9
   2   2   5 1316.06 246.049  17
   2   2   5 1455.26 225.112   8
  -2  -2  -5 1489.27 279.228  60
  -2  -2  -5 1826.88 249.917  64
  -2  -2  -5 1819.41 255.303  63
  -2  -2  -5 1504.67 205.368  55
   2   2   6 17446.8 568.093  25
  -2  -2  -6 15190.9 612.841  88
  -2  -2  -6 16561.1 735.321  91
  -2  -2  -6 16310.5 719.711  83
   2   2   6 16206.8 585.481   1
   2   2   6 16959.7 562.753   9
  -2  -2  -6 14747.1 549.756  41
  -2  -2  -6 17434.7 836.215  60
  -2  -2  -6 16292.1 693.330  64
  -2  -2  -6 15397.0 693.746  63
  -2  -2  -6 16175.5 615.825  55
  -2  -2  -7 7673.28 420.890  88
  -2  -2  -7 8234.78 515.457  91
  -2  -2  -7 9003.04 550.904  83
   2   2   7 8202.04 382.779   9
   2   2   7 9234.96 397.801  17
   2   2   7 7664.11 387.490   1
  -2  -2  -7 8049.03 403.934  41
  -2  -2  -7 8621.73 521.545  64
  -2  -2  -7 7844.07 477.263  63
  -2  -2  -7 8862.28 589.245  60
   2   2   7 10084.2 394.737  25
   2   2   8 11850.4 459.758  22
  -2  -2  -8 10801.0 515.367  88
  -2  -2  -8 12095.3 681.208  83
   2   2   8 11759.7 474.706   9
  -2  -2  -8 9806.14 489.533  41
  -2  -2  -8 12140.5 644.416  64
  -2  -2  -8 11481.0 666.469  60
   2   2   8 11652.1 561.882  53
  -2  -2  -9 1254.10 216.769  41
   2   2   9 1418.84 195.017  22
   2   2   9 876.196 176.975  25
  -2  -2  -9 1705.46 315.743  64
  -2  -2  -9 1526.17 302.103  60
  -2  -2  -9 1593.43 333.777  83
  -2  -2 -10 8827.03 614.980  83
   2   2  10 9807.34 546.865  44
  -2  -2 -10 7117.83 446.713  41
  -2  -2 -10 8282.62 552.702  60
  -2  -2 -10 8748.02 570.709  64
   2   2  10 7856.22 396.105  22
  -2  -2 -11 2380.79 283.239  41
   2   2  11 3011.16 331.910  44
   2   2  11 2585.01 242.338  22
  -2  -2 -11 2300.37 370.262  83
   2   2  12 15961.6 696.765  44
   2   2  12 13190.5 529.784  22
  -2  -2 -12 15190.1 726.438  64
   2   2  12 12477.2 541.850  66
  -2  -2 -12 14606.3 757.955  83
   2   2  13 6438.42 424.251  44
  -2  -2 -13 6681.09 462.430  64
   2   2  13 5727.25 342.969  66
   2   2  13 7347.22 486.989  46
  -2  -2 -13 6540.62 498.920  83
  -2  -2 -14 5163.83 363.261  64
   2   2  14 5692.93 402.210  46
  -2  -2 -14 5844.80 429.644  83
  -2  -2 -15 6583.63 336.358  64
  -2  -2 -15 7111.17 421.959  83
   2   2  15 7309.73 301.762  77
   2   2  15 7937.44 407.775  46
   2   2  16 1536.63 121.864  77
  -2  -2 -16 1862.86 190.636  83
  -2  -3  18 2708.07 175.901  90
   2   3 -17 60.5004 107.785  72
  -2  -3  17 107.962 104.354  43
  -2  -3  17 127.012 113.033  90
   2   3 -16 4729.75 347.897  72
  -2  -3  16 5751.27 350.453  90
   2   3 -15 3170.36 288.678  79
   2   3 -15 2821.12 306.518  72
  -2  -3  15 2629.44 265.494  71
  -2  -3  15 2603.91 280.349  90
   2   3 -15 2459.89 305.536  85
   2   3 -15 2825.95 223.122  50
   2   3 -14 13550.8 576.033  42
  -2  -3  14 17376.5 771.325  43
   2   3 -14 13460.9 663.061  72
  -2  -3  14 14208.2 607.823  71
   2   3 -14 11518.0 587.939  20
   2   3 -14 17096.7 717.585  24
   2   3 -14 13050.8 527.476  50
   2   3 -13 3756.19 383.715  85
   2   3 -13 4627.13 391.725  79
   2   3 -13 5188.36 479.448  34
  -2  -3  13 4634.79 426.968  43
   2   3 -13 3268.75 347.789  20
   2   3 -13 4821.76 437.371  24
   2   3 -13 3944.46 308.960  50
   2   3 -12 7105.17 537.429  37
   2   3 -12 7978.28 550.407  34
   2   3 -12 7176.14 488.366  13
  -2  -3  12 6250.66 408.287  71
  -2  -3  12 6549.59 434.289  74
   2   3 -12 5695.92 450.177  72
   2   3 -12 5428.35 442.631  85
   2   3 -12 7743.54 533.920  24
   2   3 -11 4415.62 430.479  24
   2   3 -11 4048.33 385.535  13
   2   3 -11 3642.92 287.172  14
   2   3 -11 4463.21 468.454  34
  -2  -3  11 5155.75 467.769  43
   2   3 -11 3038.35 344.390  85
  -2  -3  11 3216.64 300.010  71
  -2  -3  11 4105.01 358.220  74
   2   3 -11 3179.62 342.169  72
   2   3 -11 4127.97 419.033  67
   2   3 -11 3979.52 315.814  50
   2   3 -11 4151.89 356.404  51
   2   3 -10 4781.91 376.248   7
   2   3 -10 6020.66 441.052  13
   2   3 -10 5401.45 409.161  85
   2   3 -10 5699.73 380.326  38
   2   3 -10 5634.15 467.815  34
   2   3 -10 6073.84 475.861  37
  -2  -3  10 6967.39 520.980  43
  -2  -3  10 6008.89 370.752  71
  -2  -3  10 6825.42 460.069  74
   2   3 -10 4802.60 388.365  72
   2   3 -10 5841.52 439.862  67
   2   3 -10 5928.04 387.949  51
   2   3  -9 18937.3 733.973   7
   2   3  -9 19357.5 762.359  13
   2   3  -9 16078.5 695.290  85
  -2  -3   9 15098.5 640.895  81
   2   3  -9 20099.8 657.763  38
   2   3  -9 20083.5 749.785  37
  -2  -3   9 20448.2 865.971  43
  -2  -3   9 15806.2 627.234  71
  -2  -3   9 21345.6 885.700  74
   2   3  -9 15965.3 694.109  72
   2   3  -9 20503.6 727.744  67
   2   3  -9 19827.6 661.234  51
   2   3  -8 489.369 248.294  51
  -2  -3   8 216.370 132.836  81
   2   3  -8 355.773 161.881  85
  -2  -3   8 372.206 265.891  74
  -2  -3   8 220.696 132.441  71
   2   3  -8 194.522 145.980  72
   2   3  -8 330.232 156.018   7
   2   3  -8 390.569 168.871  21
   2   3  -8 376.125 214.337  26
   2   3  -8 543.087 248.459  38
  -2  -3   8 302.702 133.299  36
  -2  -3   8 454.826 187.720  43
   2   3  -7 29852.5 856.515  38
  -2  -3   7 31330.2 964.000  36
  -2  -3   7 33607.9 1088.95  43
  -2  -3   7 34842.5 1229.97  74
  -2  -3   7 30860.0 957.594  55
   2   3  -7 28941.4 864.752  51
   2   3  -7 31714.1 928.525  26
   2   3  -7 33524.9 916.345  21
   2   3  -6 7970.57 383.778  21
  -2  -3   6 7076.82 419.955  91
   2   3  -6 7935.80 370.922  38
  -2  -3   6 7803.89 422.133  36
  -2  -3   6 8203.82 465.379  43
   2   3  -6 7934.95 405.781   3
  -2  -3   6 8011.10 497.657  74
  -2  -3   6 6992.35 381.305  63
  -2  -3   6 7238.99 401.983  55
   2   3  -5 62790.4 1416.78  23
  -2  -3   5 57944.4 1590.56  91
  -2  -3   5 62823.0 1614.13  36
  -2  -3   5 60702.2 1621.72  43
   2   3  -5 60690.9 1523.43   3
   2   3  -5 58080.3 1491.93  16
  -2  -3   5 62879.0 1659.59  74
  -2  -3   5 57996.5 1551.14  63
  -2  -3   5 59330.8 1579.96  55
   2   3  -4 41931.7 1027.50  23
   2   3  -4 45420.6 1029.33  18
   2   3  -4 42119.0 1126.97   3
  -2  -3   4 36425.3 1163.30  91
  -2  -3   4 41240.0 1187.82  36
  -2  -3   4 41667.7 1197.13  43
  -2  -3   4 41055.9 1209.23  74
  -2  -3   4 41006.7 1158.97  59
  -2  -3   4 36788.5 1158.59  63
  -2  -3   4 41489.9 1205.02  55
   2   3  -3 48130.6 1106.61  12
   2   3  -3 50423.8 1186.77   2
  -2  -3   3 46701.3 1329.70  55
  -2  -3   3 50033.8 1325.73  83
  -2  -3   3 44411.1 1274.65  36
  -2  -3   3 45566.3 1278.01  43
  -2  -3   3 43299.2 1283.14  74
  -2  -3   3 42374.1 1174.62  58
  -2  -3   3 44415.1 1299.97  63
  -2  -3   3 46013.8 1265.71  59
   2   3  -3 49177.7 1145.07  18
  -2  -3   2 11230.7 400.740  87
  -2  -3   2 10220.0 476.232  36
  -2  -3   2 9459.82 454.496  43
   2   3  -2 11014.5 414.689   2
   2   3  -2 10030.7 363.741  12
  -2  -3   2 9747.79 474.357  74
  -2  -3   2 9327.67 494.741  63
  -2  -3   2 9629.16 463.036  59
  -2  -3   2 9360.33 395.965  58
  -2  -3   2 9322.15 483.657  55
   2   3  -1 26268.1 733.760  19
   2   3  -1 33195.9 872.844   2
  -2  -3   1 35849.9 875.465  87
  -2  -3   1 30887.6 949.044  36
  -2  -3   1 30702.3 910.043  43
  -2  -3   1 32966.3 968.736  74
  -2  -3   1 32031.5 849.455  76
  -2  -3   1 30654.7 942.643  59
  -2  -3   1 30480.3 844.971  58
  -2  -3   1 31093.9 976.572  55
   2   3   0 93977.7 2026.00   2
  -2  -3   0 84230.4 2156.76  91
  -2  -3   0 87148.1 2008.63  88
  -2  -3   0 94129.4 2002.29  76
  -2  -3   0 90008.3 2120.20  36
  -2  -3   0 88321.7 2038.35  43
  -2  -3   0 88054.5 2098.65  74
  -2  -3   0 82617.3 2095.23  60
  -2  -3   0 89782.3 2055.73  64
  -2  -3   0 92617.9 1990.90  58
  -2  -3   0 87800.8 2125.29  55
   2   3   1 32241.7 916.700   2
   2   3   1 32428.9 902.693   1
  -2  -3  -1 31708.9 914.688  88
  -2  -3  -1 34289.3 1083.94  91
  -2  -3  -1 33817.5 1001.63  83
  -2  -3  -1 32613.9 1002.76  36
  -2  -3  -1 32447.9 920.518  43
  -2  -3  -1 34817.7 1001.92  74
  -2  -3  -1 30186.5 882.693  73
  -2  -3  -1 32539.3 954.210  64
  -2  -3  -1 31587.3 999.051  60
  -2  -3  -1 32714.4 1004.82  55
  -2  -3  -2 61447.2 1488.06  88
  -2  -3  -2 63530.7 1685.59  91
  -2  -3  -2 60336.1 1570.15  83
   2   3   2 56374.1 1378.24   9
   2   3   2 62934.4 1470.84   1
   2   3   2 55623.7 1298.35  14
  -2  -3  -2 58998.3 1427.41  73
  -2  -3  -2 59205.2 1511.98  64
  -2  -3  -2 60717.1 1608.19  60
  -2  -3  -2 59641.7 1563.13  55
  -2  -3  -3 7647.60 445.206  83
  -2  -3  -3 7511.47 384.131  88
  -2  -3  -3 8221.42 527.016  91
   2   3   3 7788.79 337.504   9
   2   3   3 6919.81 350.402   1
  -2  -3  -3 7158.60 401.989  64
  -2  -3  -3 7104.32 466.217  60
  -2  -3  -3 6836.64 402.182  55
  -2  -3  -4 18870.9 760.617  83
  -2  -3  -4 18864.4 680.155  88
  -2  -3  -4 22099.2 932.970  91
   2   3   4 20712.1 614.986   9
  -2  -3  -4 18406.9 711.063  64
  -2  -3  -4 20573.3 863.644  60
  -2  -3  -4 18780.6 712.461  55
   2   3   5 6878.66 301.704  22
  -2  -3  -5 6120.00 368.874  88
  -2  -3  -5 7236.38 573.387  91
  -2  -3  -5 6853.45 461.275  83
   2   3   5 6794.22 326.533   9
  -2  -3  -5 6065.06 404.502  64
  -2  -3  -5 7048.33 601.493  60
  -2  -3  -5 6719.93 473.863  63
  -2  -3  -5 6308.48 384.262  55
  -2  -3  -6 56189.6 1635.06  83
   2   3   6 60016.5 1392.53   9
  -2  -3  -6 50404.7 1392.72  41
  -2  -3  -6 64642.8 2237.14  60
  -2  -3  -6 51530.8 1614.73  63
  -2  -3  -6 56952.8 1569.97  64
  -2  -3  -6 51944.0 1441.82  88
  -2  -3  -6 58331.6 1765.87  91
  -2  -3  -7 625.104 167.615  88
  -2  -3  -7 421.081 255.398  91
  -2  -3  -7 359.230 233.309  83
   2   3   7 70.1004 165.529   9
  -2  -3  -7 364.264 145.991  41
  -2  -3  -7 474.242 221.646  64
  -2  -3  -7 737.042 326.325  60
  -2  -3  -7 496.175 207.292  63
   2   3   7 547.634 142.992  22
   2   3   8 1832.62 200.055  22
  -2  -3  -8 2631.37 372.278  83
  -2  -3  -8 1808.98 325.555  91
  -2  -3  -8 1512.22 222.743  41
  -2  -3  -8 1809.72 311.242  64
  -2  -3  -8 2099.48 361.171  60
   2   3   8 1998.01 286.720  53
  -2  -3  -9 6664.19 535.129  83
   2   3   9 6610.75 446.806  53
  -2  -3  -9 5175.83 377.139  41
  -2  -3  -9 5724.85 503.034  60
  -2  -3  -9 6325.78 473.244  64
   2   3   9 6054.19 335.448  22
  -2  -3 -10 1658.58 329.455  83
   2   3  10 2110.18 309.274  44
  -2  -3 -10 1496.59 234.511  41
  -2  -3 -10 1610.14 294.825  64
  -2  -3 -10 1482.56 303.970  60
   2   3  10 1604.78 194.113  66
   2   3  10 1755.79 206.046  22
  -2  -3 -11 19106.3 877.998  83
   2   3  11 21649.4 828.959  44
  -2  -3 -11 15198.8 668.468  41
  -2  -3 -11 18117.3 808.432  60
  -2  -3 -11 18654.0 792.923  64
   2   3  11 14640.8 589.856  66
   2   3  11 15858.6 650.434  19
   2   3  12 405.701 193.411  44
   2   3  12 317.558 138.541  19
  -2  -3 -12 187.544 189.339  64
   2   3  12 428.526 136.131  66
  -2  -3 -12 211.957 239.154  83
   2   3  13 9248.07 481.347  44
  -2  -3 -13 8265.69 443.562  64
  -2  -3 -13 8925.54 542.171  83
   2   3  13 8977.91 391.516  77
   2   3  13 10235.9 535.529  46
  -2  -3 -14 785.038 212.012  83
   2   3  14 761.661 144.518  77
   2   3  14 1047.56 219.205  46
   2   3  15 5272.03 236.159  77
  -2  -3 -15 6236.91 338.663  83
  -2  -4  17 1199.83 159.443  90
   2   4 -16 2233.59 240.288  72
  -2  -4  16 3019.94 272.059  43
  -2  -4  16 2520.12 243.190  90
   2   4 -16 2317.08 246.710  85
   2   4 -15 5771.18 402.037  72
  -2  -4  15 6934.52 383.711  71
   2   4 -15 7553.08 393.894  42
  -2  -4  15 8950.08 497.913  43
   2   4 -15 7922.07 397.440  79
   2   4 -15 6520.05 428.270  85
   2   4 -14-54.1331 233.784  79
   2   4 -14-30.4362 172.331  85
  -2  -4  14-15.1569 146.225  71
   2   4 -14 49.4823 168.102  72
   2   4 -14 56.2058 221.370  24
   2   4 -14-71.5715 163.762  20
   2   4 -14-62.4275 152.176  50
   2   4 -14 122.988 168.291  42
   2   4 -14-191.579 303.928  34
  -2  -4  14 92.0002 167.341  43
   2   4 -13 20584.9 890.764  85
   2   4 -13 24672.5 867.399  42
   2   4 -13 29298.8 1007.29  34
  -2  -4  13 27450.5 1044.59  43
   2   4 -13 23245.3 786.307  50
   2   4 -13 25839.9 965.203  24
   2   4 -12 4817.57 450.675  24
   2   4 -12 5002.21 417.396  13
   2   4 -12 4022.94 375.876  85
   2   4 -12 5609.94 490.087  34
   2   4 -12 5815.58 511.174  37
  -2  -4  12 5517.71 462.986  43
  -2  -4  12 3452.02 315.543  71
  -2  -4  12 4248.02 381.882  74
   2   4 -12 4103.00 379.630  72
   2   4 -12 5185.95 448.066  67
   2   4 -12 4294.10 323.907  50
   2   4 -11 960.178 219.877  14
   2   4 -11 959.348 257.280  13
   2   4 -11 884.384 213.219   7
   2   4 -11 1195.05 217.854  50
   2   4 -11 894.256 225.786  85
  -2  -4  11 1189.48 266.217  43
  -2  -4  11 1267.99 263.357  74
  -2  -4  11 975.618 203.185  71
   2   4 -11 1021.66 225.803  72
   2   4 -11 947.653 332.828  67
   2   4 -11 883.462 302.454  24
   2   4 -11 1301.94 365.700  34
   2   4 -10 1368.52 218.431  50
   2   4 -10 930.144 250.558  51
  -2  -4  10 690.014 190.990  81
   2   4 -10 1167.72 229.220  85
  -2  -4  10 1207.34 293.294  74
  -2  -4  10 1203.96 208.552  71
   2   4 -10 997.547 220.830  72
   2   4 -10 1408.07 239.072  14
   2   4 -10 1362.77 269.468  13
   2   4 -10 1256.51 229.478   7
   2   4 -10 1395.38 342.546  67
   2   4 -10 1234.49 348.529  37
  -2  -4  10 1543.02 288.526  43
   2   4  -9 22082.6 690.126  51
   2   4  -9 21828.2 714.082  50
  -2  -4   9 21164.4 775.341  36
   2   4  -9 22439.7 683.597  38
   2   4  -9 23520.9 840.338  37
  -2  -4   9 22845.3 928.006  43
   2   4  -9 18602.2 772.476  72
   2   4  -9 23339.0 826.688  26
   2   4  -9 20056.5 788.414   7
   2   4  -9 20913.4 825.167  13
   2   4  -8 16941.6 613.673  80
   2   4  -8 15826.3 678.247   7
   2   4  -8 18957.8 713.409  16
  -2  -4   8 17287.4 701.049  36
   2   4  -8 17602.6 571.293  38
  -2  -4   8 18408.5 790.230  43
  -2  -4   8 17815.1 687.110  55
   2   4  -8 17634.6 581.220  51
  -2  -4   7 1806.27 262.061  91
  -2  -4   7 1496.84 236.235  36
  -2  -4   7 1421.86 241.129  43
   2   4  -7 1301.37 224.149   3
   2   4  -7 1652.26 267.991  16
  -2  -4   7 1715.05 376.366  74
  -2  -4   7 1427.46 218.872  55
   2   4  -7 1394.78 232.470  21
   2   4  -7 1538.86 263.708  26
   2   4  -6 6582.82 372.621  21
  -2  -4   6 6173.16 404.552  91
  -2  -4   6 7359.34 493.289  36
  -2  -4   6 6338.60 420.622  43
   2   4  -6 6190.92 376.470   3
   2   4  -6 6058.44 392.722  16
  -2  -4   6 6498.04 478.696  74
  -2  -4   6 5759.43 363.845  63
  -2  -4   6 6552.51 413.907  55
   2   4  -5 4343.60 259.362  23
   2   4  -5 4491.35 318.917   3
  -2  -4   5 3735.65 324.467  91
  -2  -4   5 4139.55 371.456  36
  -2  -4   5 4048.79 324.796  43
  -2  -4   5 4162.79 358.700  74
  -2  -4   5 4328.27 276.449  58
  -2  -4   5 3755.74 309.276  63
  -2  -4   5 4250.01 348.835  55
   2   4  -4 38018.8 980.768  23
   2   4  -4 39741.3 972.679  18
   2   4  -4 35623.2 1045.32   3
  -2  -4   4 32667.5 1094.40  91
  -2  -4   4 33658.0 916.570  76
  -2  -4   4 36493.7 1151.42  36
  -2  -4   4 38022.8 1112.82  43
  -2  -4   4 34806.7 1125.30  74
  -2  -4   4 35336.1 981.119  58
  -2  -4   4 35205.4 1066.96  59
  -2  -4   4 33794.4 1101.59  63
  -2  -4   4 38708.1 1215.42  55
   2   4  -3 17774.6 560.339  18
   2   4  -3 16096.5 509.624  31
   2   4  -3 17900.3 539.306  12
  -2  -4   3 14844.1 661.693  91
  -2  -4   3 15338.0 521.441  76
  -2  -4   3 19055.4 702.446  83
  -2  -4   3 14949.9 652.487  36
  -2  -4   3 16439.7 640.569  43
  -2  -4   3 16137.6 671.487  74
  -2  -4   3 15070.3 673.837  63
  -2  -4   3 15720.5 636.290  59
  -2  -4   3 16176.6 552.004  58
  -2  -4   3 16879.4 740.688  55
   2   4  -2 34034.2 912.907  18
   2   4  -2 34326.1 890.983  12
   2   4  -2 34797.7 934.532   2
  -2  -4   2 30359.4 1045.93  91
  -2  -4   2 33774.4 1023.01  83
  -2  -4   2 31088.9 1014.28  36
  -2  -4   2 32173.1 973.103  43
  -2  -4   2 31581.3 1018.59  74
  -2  -4   2 30946.8 998.342  59
  -2  -4   2 30683.9 877.359  58
  -2  -4   2 31939.6 1080.67  55
  -2  -4   1 11619.1 593.831  91
  -2  -4   1 12687.7 557.358  83
  -2  -4   1 12909.2 577.237  36
  -2  -4   1 11881.7 503.690  43
  -2  -4   1 12360.3 565.616  74
  -2  -4   1 12605.5 594.898  55
   2   4  -1 14400.2 515.509   2
   2   4  -1 14229.3 498.019  12
   2   4   0 1630.58 157.209  19
   2   4   0 2021.05 206.268   2
   2   4   0 1709.51 175.267  14
  -2  -4   0 1971.74 284.791  91
  -2  -4   0 1988.32 248.977  83
  -2  -4   0 1802.36 232.459  36
  -2  -4   0 1675.50 183.597  43
  -2  -4   0 2120.74 243.269  74
  -2  -4   0 1789.99 188.765  73
  -2  -4   0 1830.04 223.887  64
  -2  -4   0 2019.16 257.052  60
  -2  -4   0 1765.52 256.594  55
   2   4   1 77139.4 1830.17  19
   2   4   1 77630.8 1744.87  14
   2   4   1 83597.3 1923.35   2
   2   4   1 83610.5 1786.26   9
  -2  -4  -1 84906.6 1942.68  88
  -2  -4  -1 78630.3 2122.94  91
  -2  -4  -1 79363.9 1993.88  83
  -2  -4  -1 81874.3 2044.86  36
  -2  -4  -1 83746.4 1999.31  74
  -2  -4  -1 74578.9 1836.37  73
  -2  -4  -1 76937.4 1928.92  64
  -2  -4  -1 77008.5 2036.96  60
  -2  -4  -1 80523.2 2038.34  55
   2   4   2 33007.6 928.403  19
   2   4   2 33748.8 982.234   2
   2   4   2 34357.1 874.261   9
  -2  -4  -2 34430.8 994.653  88
  -2  -4  -2 35294.6 1221.55  91
  -2  -4  -2 33100.4 1057.16  83
  -2  -4  -2 31799.9 1063.13  36
  -2  -4  -2 33405.6 917.858  73
  -2  -4  -2 32698.5 997.219  64
  -2  -4  -2 33715.3 1121.97  60
  -2  -4  -2 33787.8 1076.88  55
  -2  -4  -3 42775.6 1298.85  83
  -2  -4  -3 47930.4 1586.85  91
  -2  -4  -3 45055.4 1219.44  88
   2   4   3 42196.8 1198.32   2
   2   4   3 45868.9 1108.01   9
  -2  -4  -3 42755.3 1412.51  60
  -2  -4  -3 42639.1 1230.25  64
  -2  -4  -3 42074.2 1278.34  55
   2   4   4 8986.45 356.826  22
  -2  -4  -4 10537.1 558.920  83
  -2  -4  -4 10833.6 488.373  88
   2   4   4 10197.3 407.877   9
   2   4   4 9424.05 455.401   2
  -2  -4  -4 9745.62 492.034  64
  -2  -4  -4 11136.0 710.804  60
  -2  -4  -4 9686.08 502.358  55
  -2  -4  -5 21754.2 765.994  88
  -2  -4  -5 27541.3 1340.12  91
  -2  -4  -5 21717.2 816.369  64
  -2  -4  -5 28872.2 1478.54  60
  -2  -4  -5 21461.8 799.556  55
  -2  -4  -5 22681.2 907.513  83
  -2  -4  -6 3054.76 371.215  83
  -2  -4  -6 2656.52 270.146  88
  -2  -4  -6 3483.80 461.496  91
  -2  -4  -6 3006.23 320.468  64
  -2  -4  -6 3525.28 600.479  60
  -2  -4  -6 2582.23 350.847  63
   2   4   6 3271.73 227.888  22
  -2  -4  -7 23375.4 976.995  83
  -2  -4  -7 23054.4 1028.42  91
   2   4   7 22657.7 795.858   2
  -2  -4  -7 23215.4 879.725  64
  -2  -4  -7 23791.7 1109.99  60
  -2  -4  -7 22451.7 953.342  63
   2   4   7 22251.6 702.366  22
   2   4   8 7378.67 366.845  22
   2   4   8 7876.86 438.368  19
  -2  -4  -8 7854.20 576.968  91
  -2  -4  -8 8009.47 499.139  64
  -2  -4  -8 7611.89 597.714  60
  -2  -4  -8 7573.28 565.027  83
   2   4   8 7709.49 514.904  53
  -2  -4  -9 33150.0 1236.44  83
  -2  -4  -9 31775.2 1105.11  64
  -2  -4  -9 32634.9 1259.43  60
   2   4   9 32290.0 1032.51  19
   2   4   9 34209.6 1159.50  53
  -2  -4 -10 4494.05 446.539  83
  -2  -4 -10 3945.62 420.085  60
  -2  -4 -10 4581.06 380.537  64
   2   4  10 4141.47 321.193  19
   2   4  10 4411.24 380.370  53
   2   4  10 5304.19 420.468  44
  -2  -4 -11 10818.2 636.484  83
   2   4  11 10567.8 457.607  77
   2   4  11 11051.4 574.736  44
  -2  -4 -11 9646.78 583.939  60
  -2  -4 -12 9652.70 574.344  83
   2   4  12 10089.1 425.280  77
   2   4  12 9944.27 522.795  44
   2   4  13 1926.80 265.744  46
   2   4  13 1550.13 217.055  44
  -2  -4 -13 1391.63 243.811  83
   2   4  13 1502.75 177.112  77
  -2  -4 -14 10424.7 463.199  83
   2   4  14 10774.7 370.999  77
  -2  -5  17 4563.00 255.093  90
  -2  -5  16 1796.00 210.991  43
   2   5 -16 1447.56 182.015  79
  -2  -5  16 1611.29 195.883  90
   2   5 -16 1329.63 190.497  85
   2   5 -15 2560.65 262.151  72
   2   5 -15 3574.76 281.587  42
  -2  -5  15 3668.54 310.202  43
   2   5 -15 3354.43 286.827  79
   2   5 -15 2465.37 270.053  85
   2   5 -14 3345.46 326.134  85
   2   5 -14 4858.76 369.395  79
  -2  -5  14 4493.42 343.317  74
   2   5 -14 3303.62 316.451  72
   2   5 -14 3766.90 275.928  50
   2   5 -14 4178.97 377.243  24
   2   5 -14 4854.87 346.205  42
   2   5 -14 6142.54 471.682  34
  -2  -5  14 5044.76 391.972  43
   2   5 -13 3652.50 330.594  42
   2   5 -13 4142.58 461.306  37
   2   5 -13 3908.99 423.794  34
  -2  -5  13 4496.16 397.480  43
   2   5 -13 3050.97 273.412  50
  -2  -5  13 4023.41 359.705  74
   2   5 -13 4260.73 422.349  67
   2   5 -13 3519.50 383.542  24
   2   5 -12 11679.1 571.640  42
   2   5 -12 12116.4 666.907  34
   2   5 -12 12583.8 673.812  37
  -2  -5  12 12287.0 666.402  43
   2   5 -12 10443.7 495.051  50
   2   5 -12 11743.7 641.430  24
   2   5 -12 11164.5 601.751  13
   2   5 -11 1365.55 376.276  37
   2   5 -11 991.872 350.949  34
  -2  -5  11 1175.24 281.636  74
   2   5 -11 1303.76 355.790  67
   2   5 -11 1111.03 239.203  14
   2   5 -11 1205.14 261.754  13
   2   5 -10 27454.0 898.834  14
   2   5 -10 29547.3 1032.75   7
   2   5 -10 31630.1 1087.49  13
   2   5 -10 30538.9 941.106  50
  -2  -5  10 34720.0 1203.88  43
  -2  -5  10 33219.8 1249.42  74
   2   5 -10 34391.8 1084.22  67
   2   5 -10 37221.0 1111.95  26
   2   5  -9 71.9448 149.157  50
  -2  -5   9-8.87068 143.203  55
   2   5  -9 6.43551 223.425  80
  -2  -5   9-19.1241 147.311  36
  -2  -5   9-47.3473 175.058  43
  -2  -5   9 85.7736 293.733  74
   2   5  -9-129.996 269.255  26
   2   5  -9 44.5381 201.323  14
   2   5  -9 156.806 152.841   7
   2   5  -8 33602.1 961.775  50
  -2  -5   8 32236.9 1096.78  55
   2   5  -8 33278.5 988.367  80
  -2  -5   8 40489.9 1477.07  74
   2   5  -8 37818.2 1117.99  16
   2   5  -8 30187.3 942.683  14
   2   5  -8 35696.3 1084.94  26
   2   5  -8 37391.8 1071.33  21
  -2  -5   8 34636.6 1172.82  36
  -2  -5   8 34904.7 1186.25  43
  -2  -5   7 5785.01 427.305  91
  -2  -5   7 7942.22 580.733  36
  -2  -5   7 7511.67 476.388  43
   2   5  -7 7654.44 448.451   3
   2   5  -7 7345.12 459.028  16
   2   5  -7 6525.33 365.693  14
  -2  -5   7 6849.17 534.306  74
   2   5  -7 6977.58 344.093  50
  -2  -5   7 6683.88 446.072  55
   2   5  -7 7589.79 434.993  21
   2   5  -6 20873.7 681.980  23
  -2  -5   6 19126.3 786.168  91
  -2  -5   6 20610.0 799.461  43
   2   5  -6 19825.0 741.223   3
   2   5  -6 20612.0 757.119  16
   2   5  -6 17698.5 627.959  14
  -2  -5   6 19414.4 843.872  74
  -2  -5   6 18061.4 739.772  63
   2   5  -6 19546.2 611.968  50
  -2  -5   6 20068.1 825.879  55
   2   5  -5 13665.2 522.101  23
  -2  -5   5 11469.0 591.125  91
  -2  -5   5 13450.2 756.183  36
  -2  -5   5 13369.7 604.394  43
   2   5  -5 12737.5 574.796   3
   2   5  -5 11285.2 469.715  14
  -2  -5   5 12440.6 633.602  74
  -2  -5   5 12124.3 593.710  63
   2   5  -5 13659.8 453.527  50
  -2  -5   5 14408.5 735.494  55
   2   5  -4 6589.87 355.250  23
  -2  -5   4 6224.45 433.859  91
  -2  -5   4 6590.75 468.863  36
  -2  -5   4 6565.04 397.336  43
   2   5  -4 5777.69 319.550  14
  -2  -5   4 6391.37 438.818  74
  -2  -5   4 6139.83 386.942  59
  -2  -5   4 5964.96 425.420  63
   2   5  -3 14156.6 504.474  31
   2   5  -3 14072.0 490.460  14
  -2  -5   3 13700.9 657.780  91
  -2  -5   3 14072.4 662.193  36
  -2  -5   3 14666.9 594.483  43
  -2  -5   3 14516.1 651.248  74
  -2  -5   3 13484.9 603.632  59
  -2  -5   3 16537.8 822.100  55
   2   5  -2 235.983 118.654  31
   2   5  -2 301.058 149.418  14
  -2  -5   2 124.462 191.882  91
  -2  -5   2 276.131 172.174  83
  -2  -5   2 234.289 131.251  43
  -2  -5   2 274.498 169.684  36
  -2  -5   2 149.971 161.553  74
  -2  -5   2 318.527 172.291  59
  -2  -5   2 272.591 193.764  55
   2   5  -1 23161.4 658.283  14
   2   5  -1 25392.2 757.568  12
   2   5  -1 25096.1 771.162   2
  -2  -5   1 21991.6 901.567  91
  -2  -5   1 22904.6 815.984  83
  -2  -5   1 22417.9 851.910  36
  -2  -5   1 22513.1 739.115  43
  -2  -5   1 22915.4 832.223  74
  -2  -5   1 20472.8 697.491  73
  -2  -5   1 22540.7 894.117  55
   2   5  -1 21866.5 692.270  27
   2   5   0 236.355 122.769  30
   2   5   0 454.549 155.895  14
   2   5   0 822.923 176.436  12
   2   5   0 540.062 150.362   2
  -2  -5   0 397.797 230.084  91
  -2  -5   0 338.090 172.096  83
  -2  -5   0 413.645 178.717  36
  -2  -5   0 418.467 173.166  74
  -2  -5   0 340.021 133.608  73
  -2  -5   0 369.578 191.395  60
  -2  -5   0 332.481 187.772  55
   2   5   1 9112.64 399.922  19
   2   5   1 8907.50 399.918  30
   2   5   1 9642.64 443.399   2
   2   5   1 9844.85 463.227  12
  -2  -5  -1 9933.42 622.412  91
  -2  -5  -1 9777.39 505.954  83
  -2  -5  -1 9274.93 513.241  36
  -2  -5  -1 8979.01 386.012  73
  -2  -5  -1 9403.52 546.744  60
  -2  -5  -1 8695.48 516.992  55
  -2  -5  -2 1795.99 374.472  91
  -2  -5  -2 1431.08 247.811  83
   2   5   2 1543.65 198.891   2
  -2  -5  -2 1630.98 250.182  36
  -2  -5  -2 1495.34 212.682  64
  -2  -5  -2 1585.21 275.400  60
  -2  -5  -2 1700.62 264.141  55
   2   5   3 27450.9 847.570  19
  -2  -5  -3 25553.9 944.416  83
   2   5   3 26531.7 854.898   2
  -2  -5  -3 24843.3 853.345  64
  -2  -5  -3 27381.1 1090.55  60
  -2  -5  -3 24766.1 928.223  55
   2   5   4 12733.9 535.937  19
  -2  -5  -4 11606.1 614.036  83
   2   5   4 12269.5 529.124   2
  -2  -5  -4 11406.6 537.273  64
  -2  -5  -4 12501.5 779.989  60
  -2  -5  -4 11038.4 572.823  55
  -2  -5  -5 15009.8 968.697  91
  -2  -5  -5 14117.7 694.236  83
   2   5   5 12399.5 550.385   2
  -2  -5  -5 13021.6 593.658  64
  -2  -5  -5 15359.1 934.214  60
   2   5   5 14168.7 587.873  19
  -2  -5  -6 20557.1 1025.07  91
  -2  -5  -6 19375.8 858.354  83
   2   5   6 19411.8 706.535   2
   2   5   6 18333.1 805.534  39
  -2  -5  -6 18427.9 742.040  64
  -2  -5  -6 18779.5 1015.91  60
   2   5   6 20228.7 740.734  19
  -2  -5  -7 4031.37 478.244  91
  -2  -5  -7 3949.91 464.369  60
  -2  -5  -7 4117.16 429.259  63
   2   5   7 4556.74 339.840  19
  -2  -5  -7 4491.10 433.890  83
   2   5   8 27825.7 932.919  19
  -2  -5  -8 26947.7 1128.83  91
  -2  -5  -8 26418.8 1145.43  60
  -2  -5  -8 28961.1 1112.40  83
   2   5   8 28780.9 1067.10  53
  -2  -5  -9 1768.01 318.417  83
  -2  -5  -9 1709.18 332.061  60
   2   5   9 1896.51 239.920  19
   2   5   9 2483.09 314.101  53
  -2  -5 -10 14122.7 720.597  83
   2   5  10 15608.1 573.538  77
   2   5  10 16973.5 727.675  44
   2   5  10 15391.1 679.965  53
  -2  -5 -10 13696.8 727.741  60
   2   5  10 13352.8 580.155  19
  -2  -5 -11 1154.92 256.158  83
   2   5  11 1098.41 183.067  77
   2   5  11 1097.54 207.872  53
   2   5  11 1214.80 228.990  44
  -2  -5 -11 976.823 240.671  60
   2   5  11 821.043 167.713  30
  -2  -5 -12 10184.5 520.382  59
   2   5  12 12201.5 441.327  77
  -2  -5 -12 10565.8 531.752  83
   2   5  12 12383.7 540.635  44
  -2  -5 -13 2571.18 242.467  83
   2   5  13 3199.70 197.428  77
  -2  -6  17 125.541 88.0894  90
  -2  -6  16 6900.91 332.546  90
   2   6 -16 5520.58 249.822  79
   2   6 -15 856.840 197.821  79
   2   6 -15 671.254 174.252  42
  -2  -6  15 966.927 183.535  43
  -2  -6  15 742.630 158.245  74
  -2  -6  14 9363.22 486.579  74
   2   6 -14 9293.88 474.305  42
   2   6 -14 11034.0 568.053  34
  -2  -6  14 10058.8 520.798  43
   2   6 -14 9114.33 465.698  79
   2   6 -14 8858.01 498.113  24
  -2  -6  13 1175.12 241.083  74
   2   6 -13 1165.07 280.924  24
   2   6 -13 1822.55 372.322  34
   2   6 -13 1211.58 343.852  67
   2   6 -13 1450.45 238.208  42
   2   6 -13 1261.25 371.501  37
  -2  -6  13 1211.93 233.263  43
   2   6 -12 6730.90 473.478  13
   2   6 -12 8003.69 469.430  42
   2   6 -12 9209.98 590.633  37
   2   6 -12 8909.33 569.164  34
  -2  -6  12 8809.44 536.685  43
   2   6 -12 7001.12 396.715  50
  -2  -6  12 8429.66 533.049  74
   2   6 -12 10037.3 573.167  67
   2   6 -12 7723.31 526.303  24
  -2  -6  11 14284.2 732.801  74
   2   6 -11 12515.5 540.419  50
   2   6 -11 13414.8 621.920  42
   2   6 -11 14488.8 717.290  34
   2   6 -11 15487.8 727.802  37
  -2  -6  11 14664.0 710.737  43
   2   6 -11 11556.3 532.849  14
   2   6 -11 13040.9 654.304  13
   2   6 -10 4037.07 422.639  26
  -2  -6  10 3732.82 336.250  36
   2   6 -10 3897.11 453.252  37
  -2  -6  10 3895.13 430.134  74
   2   6 -10 3974.26 431.352  67
   2   6 -10 2899.95 307.069  14
   2   6 -10 2988.07 311.229   7
   2   6 -10 3418.26 355.085  13
  -2  -6   9 13203.9 646.124  55
   2   6  -9 14222.9 563.912  50
   2   6  -9 14402.9 608.002  80
  -2  -6   9 15012.0 713.033  36
  -2  -6   9 15489.5 725.641  43
  -2  -6   9 15979.6 852.591  74
   2   6  -9 14755.8 594.256  14
   2   6  -9 13479.7 644.746   7
   2   6  -9 17660.8 730.171  26
   2   6  -8 3099.38 263.130  50
  -2  -6   8 3298.25 343.858  55
   2   6  -8 3079.65 314.925  80
  -2  -6   8 3788.02 434.007  74
   2   6  -8 2879.50 297.163  14
   2   6  -8 3739.53 353.800   3
   2   6  -8 3404.37 377.702  16
   2   6  -8 3375.58 397.882  26
   2   6  -8 4055.04 362.527  21
  -2  -6   8 3347.92 339.688  43
  -2  -6   7 27447.4 1194.04  36
  -2  -6   7 22764.0 880.147  43
   2   6  -7 19186.0 712.096  14
   2   6  -7 23641.8 862.163   3
   2   6  -7 23314.9 859.879  16
  -2  -6   7 22621.8 969.856  74
   2   6  -7 21199.6 702.119  50
  -2  -6   7 22149.5 922.245  55
   2   6  -7 23522.0 850.592  26
   2   6  -7 24875.8 845.335  21
   2   6  -6 1349.61 276.912  21
  -2  -6   6 1242.78 253.077  91
  -2  -6   6 1255.47 345.782  36
  -2  -6   6 1362.55 228.912  43
   2   6  -6 1079.66 234.102  14
   2   6  -6 1174.02 248.671   3
   2   6  -6 1373.83 309.193  16
  -2  -6   6 1160.87 268.716  74
  -2  -6   6 1100.52 239.756  63
   2   6  -6 1070.54 172.131  50
  -2  -6   6 1164.82 298.764  55
  -2  -6   5 52071.2 1614.54  91
  -2  -6   5 60738.3 1795.20  36
  -2  -6   5 58755.1 1576.51  43
   2   6  -5 51550.0 1388.27  14
   2   6  -5 58428.6 1577.01   3
  -2  -6   5 56605.0 1671.11  74
  -2  -6   5 51803.3 1617.73  63
   2   6  -5 57509.9 1371.52  50
  -2  -6   5 67143.1 2185.16  55
   2   6  -4 13418.0 522.581  18
   2   6  -4 12707.0 541.547  23
  -2  -6   4 9770.57 586.624  91
  -2  -6   4 11622.8 637.928  36
  -2  -6   4 11761.1 535.991  43
   2   6  -4 11129.8 465.341  14
  -2  -6   4 10989.6 602.326  74
  -2  -6   4 10397.8 537.478  59
   2   6  -4 11442.0 426.453  50
  -2  -6   4 14311.4 1188.45  55
   2   6  -3 24157.4 814.710  23
   2   6  -3 24866.7 788.248  18
   2   6  -3 23926.1 748.527  31
   2   6  -3 22173.8 704.891  14
  -2  -6   3 19257.7 872.650  91
  -2  -6   3 21196.2 883.578  36
  -2  -6   3 22386.0 879.360  74
  -2  -6   3 22005.4 836.573  59
  -2  -6   3 23477.5 1070.20  55
   2   6  -2 2402.03 239.497  18
   2   6  -2 1932.46 215.480  31
   2   6  -2 1817.78 227.597  14
   2   6  -2 2633.86 246.916  12
  -2  -6   2 1914.49 307.604  91
  -2  -6   2 1973.92 264.198  83
  -2  -6   2 1677.96 262.095  36
  -2  -6   2 2002.87 274.118  74
  -2  -6   2 1597.76 198.320  73
  -2  -6   2 1929.35 273.314  59
  -2  -6   2 1862.24 319.700  55
   2   6  -1 25804.2 774.160  14
   2   6  -1 28982.8 884.306  12
  -2  -6   1 26335.0 1060.21  91
  -2  -6   1 26653.2 923.909  83
  -2  -6   1 24722.7 965.206  36
  -2  -6   1 26389.5 944.417  74
  -2  -6   1 25973.3 1022.90  55
   2   6  -1 27039.2 862.865  31
   2   6  -1 27005.2 826.089  27
   2   6  -1 27826.8 882.713  18
   2   6   0 31953.1 967.064  18
   2   6   0 31332.2 916.069  27
   2   6   0 27070.2 806.983  14
   2   6   0 33110.6 966.538  12
  -2  -6   0 27290.2 1133.16  91
  -2  -6   0 26864.8 955.740  83
  -2  -6   0 29329.4 1049.51  36
  -2  -6   0 29107.2 985.388  74
  -2  -6   0 27075.3 1035.61  60
  -2  -6   0 29612.3 1078.56  55
   2   6   1 574.921 155.510  30
   2   6   1 621.701 174.528  27
  -2  -6  -1 788.518 308.083  91
  -2  -6  -1 652.904 206.238  83
   2   6   1 623.743 188.818  12
   2   6   1 502.077 177.927  18
   2   6   1 765.447 173.998   2
  -2  -6  -1 444.597 196.097  36
  -2  -6  -1 513.695 225.357  60
  -2  -6  -1 836.089 242.589  55
   2   6   2 38275.6 1096.62  30
   2   6   2 37040.9 1073.35  19
  -2  -6  -2 33499.9 1150.42  83
  -2  -6  -2 40668.2 1508.25  91
   2   6   2 39333.5 1168.16  12
   2   6   2 38794.7 1114.66   2
  -2  -6  -2 36375.1 1304.34  60
  -2  -6  -2 37177.1 1242.34  55
   2   6   3 245.394 151.788  19
  -2  -6  -3 117.199 191.394  83
  -2  -6  -3 572.202 371.083  91
   2   6   3 78.2341 171.895  12
   2   6   3 206.425 140.494   2
  -2  -6  -3 42.2454 238.249  60
  -2  -6  -3 63.4335 172.970  55
   2   6   4 6786.92 398.250  19
   2   6   4 6657.40 403.410  30
  -2  -6  -4 6619.39 461.525  83
  -2  -6  -4 7139.36 681.449  91
   2   6   4 7181.84 448.811  12
   2   6   4 6912.79 392.668   2
  -2  -6  -4 6616.61 580.827  60
  -2  -6  -4 6387.45 440.883  55
  -2  -6  -5 398.877 214.507  83
  -2  -6  -5 333.714 282.354  60
   2   6   5 211.128 157.303  30
   2   6   5 350.318 169.154  19
  -2  -6  -5 565.470 325.744  91
  -2  -6  -6 12953.8 666.575  83
  -2  -6  -6 13171.7 800.767  60
  -2  -6  -6 12745.2 754.520  63
   2   6   6 12805.8 582.243  19
   2   6   6 12745.7 582.687  30
  -2  -6  -6 13600.1 816.820  91
  -2  -6  -7 2529.94 396.228  91
   2   6   7 2572.72 266.082  19
   2   6   7 2701.16 278.037  30
  -2  -6  -7 2234.69 318.456  83
   2   6   8 11759.7 623.045  53
   2   6   8 10927.5 539.949  12
  -2  -6  -8 10697.2 673.874  60
   2   6   8 10406.8 502.240  19
   2   6   8 9867.28 497.156  30
   2   6   9 3693.78 295.020  19
   2   6   9 4250.08 311.909  30
  -2  -6  -9 3845.33 402.061  91
  -2  -6  -9 3697.60 407.693  60
   2   6   9 4619.07 310.375  77
  -2  -6  -9 3487.07 360.806  83
   2   6   9 4861.14 379.641  53
   2   6   9 4188.24 368.830  44
  -2  -6 -10 3370.91 331.380  83
   2   6  10 3846.39 269.121  77
   2   6  10 3636.81 315.824  53
   2   6  10 3554.02 322.066  44
  -2  -6 -10 3585.18 376.617  60
   2   6  10 3489.99 273.150  30
   2   6  11 11420.0 425.236  77
   2   6  11 11102.3 502.533  44
  -2  -6 -12 1472.96 179.881  83
   2   6  12 1911.24 162.865  77
  -2  -7  16 1355.24 152.105  90
   2   7 -15 5426.24 294.020  79
  -2  -7  15 6493.02 336.467  74
  -2  -7  14 556.252 166.197  74
   2   7 -14 557.372 181.363  42
  -2  -7  14 568.277 149.926  43
   2   7 -14 424.884 211.391  79
   2   7 -14 774.714 283.793  34
  -2  -7  13 12063.1 600.151  74
   2   7 -13 11882.7 561.512  42
   2   7 -13 14833.4 667.486  37
  -2  -7  13 12858.4 584.778  43
   2   7 -13 14239.4 654.658  34
   2   7 -13 13524.6 628.409  67
   2   7 -13 10535.3 576.402  24
  -2  -7  12 131.861 176.599  74
   2   7 -12 68.8234 180.414  42
   2   7 -12 17.9436 336.900  37
  -2  -7  12 126.805 155.347  43
   2   7 -12-180.426 254.480  24
   2   7 -12 168.540 308.326  34
   2   7 -12 33.6474 321.300  67
   2   7 -11 11621.6 641.595  67
   2   7 -11 12406.8 661.674  34
   2   7 -11 11073.9 560.808  42
  -2  -7  11 11345.9 568.221  36
   2   7 -11 13221.2 680.894  37
  -2  -7  11 12306.0 614.111  43
   2   7 -10 434.583 204.089  42
   2   7 -10 326.342 352.578  37
  -2  -7  10 566.168 195.490  36
  -2  -7  10 753.115 271.572  74
   2   7 -10 448.888 224.720  14
   2   7 -10 421.058 212.164  13
   2   7 -10 789.849 324.812  26
  -2  -7   9 18685.4 800.257  55
   2   7  -9 19250.8 720.628  80
   2   7  -9 16288.9 713.731  42
  -2  -7   9 20553.5 854.100  36
  -2  -7   9 19695.8 920.037  74
   2   7  -9 17597.1 680.017  14
   2   7  -9 17320.4 746.637   7
   2   7  -9 21413.9 828.237  26
  -2  -7   8 7817.71 530.051  55
   2   7  -8 7588.55 446.448  80
  -2  -7   8 8696.97 576.846  36
  -2  -7   8 7540.56 556.510  74
   2   7  -8 7380.34 436.906  14
   2   7  -8 9198.97 538.613  16
   2   7  -8 8714.20 542.338  26
   2   7  -8 8995.55 506.587  21
  -2  -7   7 25637.7 1037.85  55
   2   7  -7 22647.4 767.562  50
   2   7  -7 24395.2 814.912  80
  -2  -7   7 24092.4 1016.87  74
   2   7  -7 22170.3 793.213  14
   2   7  -7 26138.2 932.051   3
   2   7  -7 27513.7 951.754  16
   2   7  -7 22392.7 830.652  42
  -2  -7   7 28840.7 1140.41  36
   2   7  -7 26074.0 930.040  26
   2   7  -7 26676.5 920.092  21
   2   7  -6 3669.79 317.052  23
   2   7  -6 3532.07 366.796  21
  -2  -7   6 2935.56 349.849  91
   2   7  -6 3090.47 281.766  42
   2   7  -6 2875.55 310.025  14
   2   7  -6 2812.82 326.746   3
   2   7  -6 3495.19 394.141  16
  -2  -7   6 2914.93 364.243  74
  -2  -7   6 2640.02 328.664  63
  -2  -7   6 3293.49 419.970  55
   2   7  -5 3103.82 342.892  21
   2   7  -5 3757.11 322.867  23
  -2  -7   5 3208.47 369.419  91
   2   7  -5 3065.74 270.470  42
   2   7  -5 2877.50 296.935  14
   2   7  -5 3144.56 342.605   3
   2   7  -5 3225.81 373.008  16
  -2  -7   5 3517.94 374.693  74
  -2  -7   5 3092.03 365.141  63
  -2  -7   5 3526.90 499.813  55
  -2  -7   4 12693.9 696.703  91
   2   7  -4 12968.1 537.431  42
   2   7  -4 13928.4 565.277  14
   2   7  -4 15822.5 693.594   3
  -2  -7   4 13582.2 691.043  74
  -2  -7   4 16083.0 908.549  55
   2   7  -4 16333.8 657.047  23
   2   7  -3 896.903 197.488  18
   2   7  -3 870.586 224.788  23
  -2  -7   3 508.585 261.355  91
  -2  -7   3 784.563 224.483  36
   2   7  -3 743.921 217.685  14
  -2  -7   3 498.944 218.128  74
  -2  -7   3 762.066 204.884  59
  -2  -7   3 923.501 291.923  55
   2   7  -2 10173.0 495.504  18
  -2  -7   2 8918.24 597.890  91
  -2  -7   2 9493.60 577.953  36
  -2  -7   2 8700.17 525.954  74
  -2  -7   2 8141.13 507.822  59
  -2  -7   2 8880.30 605.303  55
   2   7  -1-8.06477 170.473  18
   2   7  -1 128.749 166.061  12
  -2  -7   1 155.748 267.160  91
  -2  -7   1 61.2411 171.436  83
  -2  -7   1 189.920 183.772  36
  -2  -7   1 192.910 178.400  74
  -2  -7   1 122.268 176.216  59
  -2  -7   1 38.2030 214.565  55
   2   7   0 26022.3 884.193  18
  -2  -7   0 24150.1 884.398  83
  -2  -7   0 25007.3 1095.41  91
   2   7   0 27741.9 905.801  12
  -2  -7   0 22727.0 960.965  60
  -2  -7   0 24914.6 1007.75  55
   2   7   1 14127.2 598.071  27
   2   7   1 13361.6 605.045  18
  -2  -7  -1 12628.2 603.489  83
  -2  -7  -1 13557.0 815.737  91
   2   7   1 14407.8 623.892  12
  -2  -7  -1 13084.6 707.693  60
  -2  -7  -1 13193.6 699.040  55
   2   7   2 10907.8 509.779  30
   2   7   2 11220.9 531.017  27
   2   7   2 9856.58 527.960  18
  -2  -7  -2 9269.98 521.102  83
  -2  -7  -2 11244.5 771.851  91
   2   7   2 11636.4 556.751  12
  -2  -7  -2 10153.3 641.877  60
  -2  -7  -2 9266.27 573.483  55
   2   7   3 13141.1 576.208  30
   2   7   3 12545.4 603.067  18
   2   7   3 13789.8 602.841  27
  -2  -7  -3 11597.5 594.988  83
  -2  -7  -3 13651.2 878.658  91
   2   7   3 12962.3 609.100  12
  -2  -7  -3 12551.2 741.015  60
  -2  -7  -3 11979.9 630.798  55
   2   7   3 13660.0 618.823  49
  -2  -7  -4 239.221 312.602  91
  -2  -7  -4 125.585 181.129  83
   2   7   4 293.022 181.635  12
  -2  -7  -4 181.055 266.454  60
   2   7   4 274.208 171.987  30
   2   7   4 234.814 166.808  27
   2   7   4 182.301 156.770  19
  -2  -7  -5 14789.0 691.280  83
   2   7   5 16716.3 774.603  39
   2   7   5 16259.3 687.170  12
  -2  -7  -5 16183.4 910.817  91
   2   7   5 16686.3 672.611  30
   2   7   5 14978.2 669.540  18
   2   7   5 17116.3 691.664  27
   2   7   5 16464.1 655.614  19
  -2  -7  -6 2185.90 383.809  91
   2   7   6 1856.69 257.429  12
   2   7   6 1095.89 262.305  18
   2   7   6 2338.35 307.450  39
  -2  -7  -6 2141.41 381.728  60
  -2  -7  -6 1904.43 348.239  63
   2   7   6 2287.23 262.418  30
   2   7   6 2391.35 263.264  27
   2   7   6 2110.73 244.445  19
  -2  -7  -7 23966.9 913.748  83
   2   7   7 28348.8 1029.85  53
   2   7   7 25835.9 957.113  39
  -2  -7  -7 26564.5 1104.70  60
  -2  -7  -7 25538.2 1043.25  63
   2   7   7 28153.9 905.960  30
   2   7   7 28958.3 924.187  27
   2   7   7 25860.8 866.950  19
   2   7   8 1567.75 215.040  30
   2   7   8 1295.17 201.274  27
  -2  -7  -8 1405.53 303.143  91
  -2  -7  -8 1657.23 305.456  60
   2   7   8 1603.99 254.576  53
  -2  -7  -8 992.964 218.958  83
   2   7   8 1755.14 217.992  77
   2   7   9 6268.78 350.512  30
   2   7   9 6016.04 344.895  27
  -2  -7  -9 5636.84 426.118  91
  -2  -7  -9 5168.53 354.412  83
   2   7   9 7081.48 344.287  77
  -2  -7  -9 6278.71 463.492  60
   2   7   9 6761.40 410.708  44
   2   7   9 6452.63 402.999  53
   2   7  10 1453.74 198.405  44
   2   7  10 1367.65 191.715  53
  -2  -7 -11 3512.00 273.825  59
  -2  -8  15 6096.33 300.639  74
   2   8 -15 4876.28 235.073  79
  -2  -8  14 3748.91 282.569  74
   2   8 -14 3256.82 261.108  79
   2   8 -13 3297.24 356.268  67
  -2  -8  13 2312.46 267.447  74
   2   8 -13 2529.02 268.345  42
   2   8 -13 3276.79 373.060  37
   2   8 -13 2749.12 334.364  34
  -2  -8  12 11322.3 590.160  74
   2   8 -12 11516.2 547.030  42
   2   8 -12 12749.8 626.007  37
   2   8 -12 12422.6 610.332  34
   2   8 -12 12050.3 607.786  67
  -2  -8  11 954.964 246.104  74
   2   8 -11 897.840 213.929  42
   2   8 -11 1286.41 365.528  37
  -2  -8  11 888.897 194.588  36
   2   8 -11 1074.27 345.707  67
   2   8 -11 931.708 322.239  34
  -2  -8  10 11892.5 603.728  55
  -2  -8  10 12228.6 679.761  74
   2   8 -10 14361.2 687.470  67
   2   8 -10 12022.5 588.754  42
  -2  -8  10 13007.1 635.589  36
   2   8 -10 14905.5 701.155  37
   2   8 -10 15469.1 681.486  26
   2   8  -9 2823.92 298.272  42
  -2  -8   9 3398.71 358.167  36
  -2  -8   9 3660.77 361.533  55
   2   8  -9 3596.05 393.561  26
   2   8  -8 22980.9 812.631  80
   2   8  -8 21072.8 817.555  42
  -2  -8   8 22726.9 969.496  36
  -2  -8   8 22913.5 980.441  74
   2   8  -8 26459.2 934.383  16
   2   8  -8 25450.1 894.056  21
   2   8  -8 26554.9 921.724  26
  -2  -8   7 459.320 234.157  55
   2   8  -7 345.435 225.396  80
   2   8  -7 302.773 171.747  42
  -2  -8   7 345.454 223.180  36
  -2  -8   7 409.883 223.738  74
   2   8  -7 455.064 272.217  16
   2   8  -7 203.488 235.409  21
   2   8  -7 375.380 286.387  26
  -2  -8   6 2999.80 401.589  55
   2   8  -6 2667.51 311.272  80
  -2  -8   6 2545.13 343.829  74
   2   8  -6 2570.10 366.126  16
  -2  -8   6 2409.65 341.368  36
   2   8  -6 2926.96 307.189  23
   2   8  -6 2615.84 368.319  26
   2   8  -6 2222.33 322.426  21
   2   8  -5 14947.7 673.963  21
   2   8  -5 15808.9 667.906  23
  -2  -8   5 11231.3 658.471  91
  -2  -8   5 14440.9 750.936  36
   2   8  -5 15028.1 695.567  16
  -2  -8   5 13213.7 704.046  74
  -2  -8   5 12857.8 708.231  63
  -2  -8   5 14489.4 823.777  55
  -2  -8   4 5056.22 450.697  36
  -2  -8   4 4921.30 450.813  91
  -2  -8   4 6397.93 467.185  74
   2   8  -4 6493.19 450.281  21
   2   8  -4 6398.12 432.127  23
  -2  -8   4 5830.20 526.490  55
  -2  -8   3 3674.21 389.405  36
  -2  -8   3 3537.25 409.127  91
  -2  -8   3 3813.19 369.415  74
   2   8  -3 4198.92 366.065  23
   2   8  -3 4397.56 329.058  31
  -2  -8   3 3667.01 427.836  55
  -2  -8   2 33226.9 1215.44  36
  -2  -8   2 31425.9 1249.39  91
  -2  -8   2 31197.2 1113.62  74
  -2  -8   2 31329.5 1234.03  55
   2   8  -2 37067.4 1112.44  18
   2   8  -2 36178.9 1148.29  23
   2   8  -2 36226.6 1086.84  31
   2   8  -1 36784.0 1113.20  18
   2   8  -1 35813.8 1094.36  31
  -2  -8   1 31423.2 1274.82  91
  -2  -8   1 33727.9 1227.36  36
  -2  -8   1 31406.5 1149.40  59
  -2  -8   1 32654.6 1234.11  55
   2   8   0 435.684 186.692  12
  -2  -8   0 443.438 283.942  91
  -2  -8   0 358.286 208.365  36
  -2  -8   0 581.647 233.473  55
   2   8   0 360.599 171.010  31
   2   8   0 490.927 167.380  27
   2   8   0 762.739 251.433  18
   2   8   1 8159.06 469.759  31
   2   8   1 8043.45 440.622  27
   2   8   1 7869.10 486.315  18
  -2  -8  -1 8635.76 659.410  91
  -2  -8  -1 7215.54 532.955  60
  -2  -8  -1 7845.90 532.005  55
   2   8   1 8630.39 483.221  12
  -2  -8  -2 1967.14 383.788  91
   2   8   2 2126.84 266.066  31
   2   8   2 2010.92 243.318  30
   2   8   2 2061.21 252.589  27
   2   8   2 2253.33 317.593  18
   2   8   2 2276.91 284.422  49
   2   8   2 2302.74 279.864  12
   2   8   3 17316.0 703.003  12
   2   8   3 16871.8 706.450  18
   2   8   3 16194.8 693.203  31
   2   8   3 15412.1 637.948  30
   2   8   3 16917.1 678.450  27
  -2  -8  -3 17747.0 961.675  91
   2   8   4 4695.71 361.509  12
  -2  -8  -4 4153.34 494.803  91
  -2  -8  -4 4262.26 454.847  60
   2   8   4 5298.09 408.594  18
   2   8   4 4131.12 327.154  30
   2   8   4 4524.31 342.436  27
  -2  -8  -5 22535.8 999.496  60
  -2  -8  -5 22205.3 1017.43  63
   2   8   5 24681.6 933.844  39
   2   8   5 21940.3 786.365  30
   2   8   5 22369.8 803.981  27
   2   8   5 24135.5 832.635  18
   2   8   6 6457.00 435.810  39
  -2  -8  -6 6414.62 543.188  91
  -2  -8  -6 6026.88 498.120  60
  -2  -8  -6 5834.13 485.890  63
   2   8   6 5979.18 366.319  30
   2   8   6 6487.56 381.348  27
   2   8   7 1695.31 204.356  30
   2   8   7 1664.59 208.872  27
  -2  -8  -7 2140.70 326.522  91
  -2  -8  -7 1785.35 309.133  60
  -2  -8  -7 1581.11 266.017  63
   2   8   7 1785.95 251.467  53
   2   8   7 1478.33 217.582  39
   2   8   8 7238.78 410.358  53
   2   8   8 8035.14 414.753  44
  -2  -8  -9 1268.30 218.121  59
   2   8   9 1232.70 178.648  53
   2   8   9 1403.90 186.198  44
   2   9 -14 3997.12 231.694  79
  -2  -9  14 5304.87 288.611  74
  -2  -9  13 27.3412 128.138  74
   2   9 -13 138.889 242.530  67
   2   9 -13 136.107 110.064  49
   2   9 -12 4804.28 395.643  67
  -2  -9  12 4008.61 330.502  74
   2   9 -12 4608.58 379.351  34
   2   9 -12 4704.28 402.933  37
  -2  -9  11 1598.78 250.937  74
   2   9 -11 1583.53 227.597  42
  -2  -9  11 1731.62 226.684  36
   2   9 -11 1684.20 342.943  37
   2   9 -11 1953.20 348.425  67
   2   9 -11 1765.49 320.361  34
   2   9 -10 481.352 187.230  42
   2   9 -10 698.974 313.484  37
  -2  -9  10 797.327 189.886  36
  -2  -9  10 895.580 234.431  74
   2   9 -10 852.146 328.905  67
  -2  -9  10 771.214 192.411  55
   2   9  -9 15876.7 649.091  80
   2   9  -9 15705.3 674.447  42
  -2  -9   9 17924.4 769.557  36
  -2  -9   9 16969.8 777.907  74
  -2  -9   9 16177.8 725.411  55
   2   9  -8 208.671 236.389  80
   2   9  -8-8.35269 171.420  42
  -2  -9   8 94.5848 176.710  36
  -2  -9   8 81.2031 193.847  74
  -2  -9   8 80.8117 186.372  55
   2   9  -8 24.9133 258.061  26
   2   9  -7 21038.9 805.583  42
  -2  -9   7 24894.6 1008.17  36
   2   9  -7 26555.6 920.988  16
  -2  -9   7 22662.9 945.708  74
  -2  -9   7 24599.0 1006.55  55
   2   9  -7 26203.1 905.194  26
   2   9  -7 26630.7 899.687  21
   2   9  -6 1730.90 313.587  16
  -2  -9   6 1803.53 320.408  55
   2   9  -6 1444.12 290.366  21
   2   9  -6 1469.13 316.140  26
  -2  -9   6 1633.41 288.515  36
   2   9  -5 24448.0 896.901  16
   2   9  -5 25033.7 889.731  23
   2   9  -5 24793.6 889.820  21
  -2  -9   5 20755.4 929.677  63
  -2  -9   5 21357.1 955.133  36
   2   9  -4 4737.75 409.410  16
   2   9  -4 5275.41 415.279  21
   2   9  -4 5029.85 384.886  23
  -2  -9   4 4711.30 431.629  36
   2   9  -3 14385.4 654.487  21
   2   9  -3 14801.8 664.022  23
   2   9  -3 15723.4 624.321  49
  -2  -9   3 14337.6 746.555  36
   2   9  -2 4176.60 367.509  23
   2   9  -2 4587.91 342.837  31
   2   9  -2 4701.89 336.761  49
  -2  -9   2 3876.95 397.838  36
  -2  -9   1 13720.0 782.262  91
   2   9  -1 16639.1 646.554  49
   2   9  -1 14980.5 687.658  23
   2   9  -1 16175.5 659.148  31
  -2  -9   1 13959.9 729.242  36
   2   9   0 15163.1 643.450  18
   2   9   0 12840.0 632.473  23
   2   9   0 12972.3 584.989  31
  -2  -9   0 11127.7 709.338  91
  -2  -9   0 10991.7 614.557  59
  -2  -9   0 11317.7 652.291  55
   2   9   0 13796.7 586.794  49
  -2  -9   0 11500.3 638.721  36
   2   9   1 3579.26 298.369  27
   2   9   1 3833.08 324.430  31
  -2  -9  -1 3281.56 363.300  59
  -2  -9  -1 3164.51 355.025  55
   2   9   1 4410.37 343.554  49
  -2  -9  -1 3283.92 446.798  91
   2   9   2 9671.83 471.081  27
   2   9   2 9828.20 501.190  31
  -2  -9  -3 3632.65 454.179  91
   2   9   3 3679.97 294.570  27
   2   9   3 4014.41 320.598  31
  -2  -9  -4 9354.52 634.407  91
  -2  -9  -4 9305.19 619.510  63
   2   9   4 9431.32 451.303  27
   2   9   4 9470.83 475.048  31
   2   9   4 9255.64 530.508  39
  -2  -9  -5 115.760 222.861  91
  -2  -9  -5 207.712 207.564  63
   2   9   5 204.890 129.362  31
   2   9   5 117.569 125.273  27
   2   9   5 119.745 152.012  39
  -2  -9  -6 15417.7 732.778  91
  -2  -9  -6 15048.5 693.177  63
   2   9   6 16685.0 661.116  53
   2   9   6 15511.9 625.845  39
  -2  -9  -7 2618.72 300.633  91
   2   9   7 2897.32 241.470  44
   2   9   7 3176.87 261.537  53
  -2  -9  -7 3445.27 314.102  59
  -2  -9  -8 7205.81 379.126  91
  -2  -9  -8 7611.55 403.475  59
  -2 -10  13 6720.83 320.991  74
   2  10 -12 2126.38 270.771  67
  -2 -10  12 1916.41 209.058  74
   2  10 -11 5559.74 388.848  37
   2  10 -11 5205.19 378.836  67
  -2 -10  11 4758.46 328.201  74
   2  10 -10 73.1317 264.260  37
  -2 -10  10-7.96438 132.528  36
   2  10 -10 53.5047 268.954  67
  -2 -10  10 93.3585 128.220  55
   2  10 -10-23.3094 125.710  49
  -2 -10  10-33.4880 144.483  74
  -2 -10   9 3011.61 300.622  36
   2  10  -9 3419.22 371.435  37
  -2 -10   9 2965.09 306.562  74
   2  10  -9 3451.75 371.351  67
  -2 -10   9 2980.97 295.425  55
   2  10  -9 2848.54 255.029  49
   2  10  -8 8669.09 438.723  80
  -2 -10   8 8861.83 514.517  36
  -2 -10   8 7395.52 467.321  74
  -2 -10   8 8971.28 516.072  55
   2  10  -8 8452.71 426.687  49
   2  10  -8 9748.34 494.121  26
   2  10  -7 8415.96 442.643  80
  -2 -10   7 8109.58 513.593  36
  -2 -10   7 7661.06 472.647  74
  -2 -10   7 8187.42 521.424  55
   2  10  -7 8500.54 435.546  49
   2  10  -7 8923.68 474.974  26
   2  10  -7 9174.49 470.999  21
   2  10  -6 2468.61 295.465  80
  -2 -10   6 2659.26 321.437  36
  -2 -10   6 2163.66 281.773  74
  -2 -10   6 2897.17 348.594  55
   2  10  -6 2917.75 270.365  49
   2  10  -6 2910.38 321.483  26
   2  10  -6 2802.48 299.524  21
  -2 -10   5 3939.01 402.899  55
   2  10  -5 3998.06 311.631  49
   2  10  -5 3407.08 323.315  80
  -2 -10   5 3635.14 364.788  36
  -2 -10   5 3299.94 319.715  74
  -2 -10   5 2980.25 336.588  63
   2  10  -5 3858.70 352.816  26
   2  10  -5 4037.83 338.636  21
   2  10  -4 11739.1 552.892  23
   2  10  -4 10540.7 526.330  26
   2  10  -4 10800.8 528.832  21
   2  10  -4 10798.4 496.974  80
  -2 -10   4 8124.63 522.428  91
  -2 -10   4 9679.80 584.277  36
  -2 -10   4 9330.83 587.561  63
  -2 -10   4 10219.9 611.643  55
   2  10  -4 11671.5 515.017  49
   2  10  -3 101.346 213.403  21
   2  10  -3 112.251 173.757  23
   2  10  -3 269.909 201.768  80
  -2 -10   3 89.9550 192.547  91
  -2 -10   3 104.055 184.984  36
  -2 -10   3 133.536 220.342  63
  -2 -10   3 73.3718 196.541  55
   2  10  -3 88.8765 161.775  49
   2  10  -2 25915.0 870.071  21
   2  10  -2 26236.3 901.606  23
   2  10  -2 24981.1 808.937  80
  -2 -10   2 21993.4 951.379  91
  -2 -10   2 24574.0 968.996  36
  -2 -10   2 24014.3 1048.47  63
  -2 -10   2 23100.8 963.159  55
   2  10  -2 28211.8 877.809  49
   2  10  -1 161.642 192.190  21
   2  10  -1 292.265 183.123  23
  -2 -10   1-62.0045 208.954  91
  -2 -10   1 29.5279 214.852  63
  -2 -10   1 135.377 186.952  55
   2  10  -1 254.860 179.458  49
   2  10  -1 36.1903 206.983  80
  -2 -10   0 7034.84 531.670  91
  -2 -10   0 7382.41 480.186  55
   2  10   0 8454.31 460.803  49
   2  10   0 7677.85 452.139  23
   2  10   0 8317.14 430.243  31
   2  10   0 7456.74 406.105  80
   2  10   1 3005.11 292.303  23
   2  10   1 3297.69 278.647  31
  -2 -10  -1 2843.45 367.240  91
  -2 -10  -1 2891.36 384.205  63
  -2 -10  -1 2446.49 279.759  59
  -2 -10  -1 2619.01 289.547  55
  -2 -10  -2 6706.86 509.942  91
  -2 -10  -2 6774.26 523.402  63
  -2 -10  -2 6107.77 417.512  59
   2  10   2 6956.89 410.509  23
   2  10   2 7069.73 384.577  31
   2  10   2 6559.09 438.293  39
  -2 -10  -3 3447.61 379.684  91
  -2 -10  -3 3547.42 384.537  63
  -2 -10  -3 3592.85 322.286  59
   2  10   3 3665.71 278.223  31
   2  10   3 3523.57 314.028  39
  -2 -10  -4 1160.20 247.394  63
  -2 -10  -4 1168.61 218.789  59
  -2 -10  -4 1669.10 273.486  91
   2  10   4 1218.51 204.238  39
  -2 -10  -5 2423.67 292.739  91
   2  10   5 2421.19 238.611  53
  -2 -10  -5 2580.02 274.403  63
  -2 -10  -5 2459.36 257.554  59
  -2 -10  -6 173.118 126.037  59
  -2 -10  -6 57.9776 149.976  91
   2  11 -11 4934.21 300.665  67
  -2 -11  10 2868.94 228.422  74
   2  11 -10 3389.78 296.570  67
  -2 -11   9 604.757 146.614  74
   2  11  -9 660.151 240.526  67
  -2 -11   9 586.479 158.678  55
   2  11  -9 623.830 136.036  49
   2  11  -8 5928.37 338.416  80
   2  11  -8 6694.50 392.217  37
  -2 -11   8 5832.87 343.249  74
   2  11  -8 7322.80 418.489  67
  -2 -11   8 5987.68 379.577  55
   2  11  -8 6258.51 330.529  49
  -2 -11   7 509.758 166.677  36
   2  11  -7 513.504 196.642  80
  -2 -11   7 525.381 181.850  55
   2  11  -7 494.005 150.787  49
  -2 -11   6 10924.9 549.927  36
   2  11  -6 10345.6 450.609  80
  -2 -11   6 11104.1 560.699  55
   2  11  -6 10645.2 462.281  49
  -2 -11   5 1469.04 227.534  36
   2  11  -5 1356.37 231.505  80
  -2 -11   5 1377.78 240.563  55
   2  11  -5 1404.28 199.045  49
  -2 -11   4 8532.25 489.963  36
   2  11  -4 8310.59 401.467  80
  -2 -11   4 8206.39 491.094  55
   2  11  -4 9253.79 428.005  49
  -2 -11   3 2308.25 267.865  91
  -2 -11   3 2410.73 276.081  36
  -2 -11   3 2738.48 311.559  63
  -2 -11   3 2865.67 302.151  55
   2  11  -3 3456.69 273.150  49
   2  11  -3 2925.88 270.935  80
  -2 -11   2 1512.57 239.664  91
  -2 -11   2 2191.90 303.005  63
  -2 -11   2 1748.66 253.235  55
   2  11  -2 2363.72 250.556  49
   2  11  -2 2005.78 239.871  80
  -2 -11   1 5970.06 414.291  91
  -2 -11   1 6112.31 455.346  63
  -2 -11   1 5943.26 387.063  55
   2  11  -1 6774.21 346.543  80
   2  11   0 1572.88 213.960  80
  -2 -11   0 1531.02 272.639  63
  -2 -11   0 1344.32 238.891  91
   2  11   1 10964.8 521.374  39
   2  11   1 11628.6 435.584  80
  -2 -11  -1 12105.6 612.444  63
  -2 -11  -1 11063.4 560.801  91
   2  11   2 35.7934 114.537  39
  -2 -11  -2 205.471 169.773  63
  -2 -11  -2 8.63758 167.188  91
   2  11   2 83.4449 142.200  80
  -2 -11  -3 5916.79 381.182  63
  -2 -11  -3 5206.54 359.916  91
   2  11   3 5829.66 272.600  80
  -2 -11  -4 388.979 150.875  91
   2  11   4 466.224 119.951  80
  -2 -12   7 4326.52 275.382  55
   2  12  -6 482.134 190.381  67
  -2 -12   6 451.954 139.061  55
   2  12  -6 374.714 154.020  80
  -2 -12   5 7178.45 377.469  55
   2  12  -5 6922.42 315.817  80
  -2 -12   4 38.4767 117.792  55
   2  12  -4-3.55342 139.779  80
  -2 -12   3 4381.57 290.691  55
   2  12  -3 4842.39 260.776  80
   2  12  -2-3.34538 140.774  80
  -2 -12   2-33.0225 115.748  63
   2  12  -1 8003.36 308.257  80
  -2 -12   1 7798.84 400.115  63
  -2 -12   0 4478.94 273.414  91
   2  12   0 5450.31 245.228  80
  -3  13   2 1376.32 135.760  89
  -3  13   1 217.003 100.994  89
   3 -13  -1 250.799 102.570  62
   3 -13   0 4674.71 262.581  81
  -3  13   0 5412.00 276.718  89
   3 -13   1 3079.58 221.309  81
  -3  13  -1 3533.96 235.942  89
  -3  13  -2 3003.21 223.705  89
   3 -13   2 2596.72 210.998  81
  -3  13  -3 8173.74 348.577  87
   3 -13   3 7285.22 335.658  81
   3 -13   4 700.056 135.645  81
  -3  13  -4 744.981 125.913  87
   3 -13   4 698.110 161.322  61
  -3  13  -4 868.201 150.157  57
  -3  13  -5 3657.43 255.176  57
   3 -13   5 3522.69 250.820  61
   3 -13   6 420.535 136.264  61
  -3  13  -6 488.168 140.174  57
  -3  13  -7 5765.00 310.839  57
  -3  12   5 4248.52 216.595  89
   3 -12  -4 1161.37 149.207  81
   3 -12  -4 1506.75 166.984  62
  -3  12   4 1365.63 150.579  89
  -3  12   3 4218.02 257.013  70
   3 -12  -3 3512.97 252.365  81
   3 -12  -3 4297.40 271.375  62
  -3  12   3 3763.29 244.427  89
  -3  12   2 1445.19 184.292  70
   3 -12  -2 1516.32 191.587  81
   3 -12  -2 2114.93 208.263  62
  -3  12   2 1460.25 184.607  89
  -3  12   1 10253.1 444.960  70
   3 -12  -1 9602.33 438.586  81
  -3  12   1 9295.90 436.320  89
  -3  12   0-101.447 136.095  70
   3 -12   0-70.2455 141.835  81
   3 -12   0-13.8287 123.002  62
  -3  12   0 32.4522 135.390  89
  -3  12  -1 10366.8 466.238  70
   3 -12   1 9299.24 445.801  81
   3 -12   1 10703.9 482.959  62
  -3  12  -1 10017.4 466.949  89
  -3  12  -2 891.846 188.325  70
   3 -12   2 725.024 172.438  81
   3 -12   2 1196.18 201.680  62
  -3  12  -2 876.230 190.008  89
  -3  12  -3 13196.5 540.902  70
   3 -12   3 11051.1 506.216  81
  -3  12  -3 12008.2 542.128  89
  -3  12  -3 13701.2 575.785  57
   3 -12   3 13401.7 567.707  62
   3 -12   3 15526.1 525.875  65
   3 -12   4 912.684 182.341  81
  -3  12  -4 998.975 194.993  89
  -3  12  -4 791.977 176.780  87
  -3  12  -4 1222.21 226.412  57
   3 -12   4 1513.65 200.546  65
   3 -12   5 3063.82 261.645  81
  -3  12  -5 3538.59 270.870  87
   3 -12   5 4505.00 326.391  61
  -3  12  -5 4071.44 348.512  57
   3 -12   5 5063.35 300.190  65
  -3  12  -6 3139.01 300.240  57
   3 -12   6 3126.69 243.085  65
   3 -12   6 2977.61 272.111  61
  -3  12  -7 2890.51 289.510  57
   3 -12   7 2815.15 223.141  65
   3 -12   7 2407.24 246.841  61
  -3  12  -8 6648.62 398.081  57
   3 -12   8 5926.83 333.199  61
   3 -12   8 6500.96 315.685  65
   3 -12   9 131.109 60.4993  78
  -3  12  -9 114.901 130.126  88
   3 -12   9 62.9986 112.133  61
  -3  12  -9 159.760 138.131  57
  -3  12 -10 5044.99 290.030  88
  -3  12 -10 5975.94 316.982  57
  -3  11   7 10568.4 373.893  89
   3 -11  -6 302.614 118.982  62
  -3  11   6 363.550 105.188  75
  -3  11   6 441.735 118.174  69
  -3  11   5 9978.34 419.509  75
  -3  11   5 10743.6 441.101  69
   3 -11  -5 9824.31 446.562  82
   3 -11  -4 3863.05 178.915  86
  -3  11   4 3154.78 254.974  75
  -3  11   4 3537.23 271.478  69
   3 -11  -4 3181.45 267.914  82
   3 -11  -4 3838.13 290.114  62
  -3  11   3 2537.02 250.735  89
   3 -11  -3 2512.53 171.025  86
  -3  11   3 2121.25 229.785  69
   3 -11  -3 2262.88 239.876  62
   3 -11  -3 2877.71 225.788  45
  -3  11   2 1380.44 215.757  89
   3 -11  -2 1824.78 167.727  86
   3 -11  -2 1540.82 216.596  62
   3 -11  -2 1824.77 194.436  45
   3 -11  -2 1882.08 175.958  48
   3 -11  -2 1956.44 177.455  35
  -3  11   1 8610.97 468.316  89
   3 -11  -1 9818.96 387.429  86
   3 -11  -1 10489.6 400.644  35
   3 -11  -1 9090.29 478.695  62
   3 -11  -1 9464.79 349.890  48
   3 -11   0 11068.0 405.038  33
  -3  11   0 8568.29 476.313  89
   3 -11   0 9341.05 393.042  86
   3 -11   0 8447.55 461.845  81
   3 -11   0 11190.8 427.816  35
  -3  11   0 9386.80 493.998  70
   3 -11   0 9968.63 508.535  62
   3 -11   0 10188.7 376.918  48
   3 -11   1 249.935 135.211  33
  -3  11  -1 206.487 183.055  89
   3 -11   1 121.257 119.366  86
   3 -11   1 181.949 167.255  81
   3 -11   1 231.444 124.368  35
  -3  11  -1 200.313 168.470  70
   3 -11   1 354.822 192.312  65
  -3  11  -1 156.984 153.895  57
   3 -11   1 179.793 143.120  62
   3 -11   1 218.017 162.054  48
  -3  11  -2 7805.90 457.356  89
   3 -11   2 6798.56 346.571  86
   3 -11   2 6966.55 419.719  81
   3 -11   2 9150.23 395.963  35
  -3  11  -2 7760.79 448.758  70
   3 -11   2 9639.50 454.776  65
  -3  11  -2 8078.72 483.800  57
   3 -11   2 8104.15 457.202  62
   3 -11   2 8827.63 377.422  33
  -3  11  -3 144.147 166.145  89
  -3  11  -3 98.3763 161.120  70
   3 -11   3-47.2537 157.098  81
   3 -11   3 191.438 195.949  65
  -3  11  -3 120.097 187.684  57
   3 -11   3 190.525 160.168  62
   3 -11   3-270.236 192.225  52
  -3  11  -4 5571.20 392.003  89
  -3  11  -4 5727.28 388.768  70
   3 -11   4 5049.33 358.002  81
   3 -11   4 6156.73 396.485  65
   3 -11   4 6461.93 415.374  62
  -3  11  -4 7074.05 505.650  57
   3 -11   4 5687.49 365.956  52
  -3  11  -5-46.1462 153.865  70
   3 -11   5 157.434 194.661  65
  -3  11  -5 98.9837 220.105  57
  -3  11  -5 153.895 172.092  89
  -3  11  -5-57.4636 153.367  87
   3 -11   5 29.8576 146.704  81
  -3  11  -5 128.344 165.528  85
  -3  11  -6 7766.01 462.117  88
   3 -11   6 9441.69 495.731  61
  -3  11  -6 9103.38 566.257  57
   3 -11   6 8365.85 450.758  65
   3 -11   6 8678.74 421.915  52
  -3  11  -7 3151.47 334.442  88
   3 -11   7 3594.54 275.155  52
  -3  11  -7 3911.65 380.632  57
   3 -11   7 3392.95 320.098  61
   3 -11   7 4053.62 318.140  65
  -3  11  -8 3441.31 338.189  88
  -3  11  -8 3860.04 353.398  57
   3 -11   8 3500.79 302.453  61
   3 -11   8 4247.16 310.588  65
  -3  11  -9 7043.61 430.165  88
  -3  11  -9 8160.78 469.691  57
   3 -11   9 6977.80 384.838  61
   3 -11   9 7797.57 376.609  65
  -3  11 -10 4618.70 342.019  88
  -3  11 -10 5106.85 349.402  57
  -3  11 -11 5836.76 329.843  57
  -3  11 -11 5160.50 334.182  88
  -3  11 -12 454.815 143.526  88
   3 -10  -8 2597.68 218.970  62
  -3  10   8 3162.72 229.987  69
  -3  10   8 2617.60 186.537  75
  -3  10   7 3891.15 283.768  69
  -3  10   7 3703.90 248.101  75
   3 -10  -7 3202.69 267.716  62
   3 -10  -7 3860.83 266.675  45
   3 -10  -6 4947.20 219.123  86
  -3  10   6 5001.20 344.873  69
  -3  10   6 4589.01 306.750  75
   3 -10  -6 4103.93 313.497  82
   3 -10  -6 5425.99 358.465  62
   3 -10  -6 5750.94 329.700  45
   3 -10  -5 1395.70 147.073  86
   3 -10  -5 1403.43 215.821  82
  -3  10   5 1458.66 236.598  69
  -3  10   5 1331.88 200.626  75
   3 -10  -5 1489.73 224.338  62
   3 -10  -5 2087.85 226.132  45
   3 -10  -4 8930.10 369.961  86
   3 -10  -4 8063.33 462.424  82
   3 -10  -4 8841.55 360.909  35
  -3  10   4 8300.78 487.819  69
  -3  10   4 8002.46 446.030  75
   3 -10  -4 8544.39 485.521  62
   3 -10  -4 10791.2 437.220  45
   3 -10  -4 10312.7 365.290  48
   3 -10  -3 1692.94 178.810  86
   3 -10  -3 1389.07 220.244  82
   3 -10  -3 1550.92 178.302  35
  -3  10   3 1466.20 255.024  69
  -3  10   3 1493.34 233.485  75
   3 -10  -3 1306.21 231.769  62
   3 -10  -3 1604.70 201.062  48
   3 -10  -2 13121.8 616.893  82
  -3  10   2 12722.8 624.859  69
  -3  10   2 14132.5 630.286  75
   3 -10  -2 14506.8 652.954  62
   3 -10  -2 15017.7 491.525  48
   3 -10  -1 1010.95 201.416  48
   3 -10  -1 860.369 205.336  82
  -3  10   1 761.247 199.568  75
   3 -10  -1 910.779 212.755  62
   3 -10  -1 1190.73 173.422  35
   3 -10  -1 1465.50 175.089  33
   3 -10   0 18627.8 616.318  35
  -3  10   0 14731.0 692.440  89
   3 -10   0 16435.2 589.720  86
   3 -10   0 15659.8 697.427  62
   3 -10   0 19506.6 592.910  33
   3 -10   1 7669.06 347.578  33
   3 -10   1 7197.86 357.785  35
  -3  10  -1 5383.96 406.296  89
   3 -10   1 6091.63 335.459  86
  -3  10  -1 5740.10 421.862  70
  -3  10  -1 5475.34 426.644  57
   3 -10   1 5666.07 401.587  62
   3 -10   1 5954.93 395.144  52
   3 -10   2 9072.17 389.704  33
   3 -10   2 9142.95 410.043  35
  -3  10  -2 7502.88 471.116  89
   3 -10   2 6904.94 373.857  86
  -3  10  -2 7485.08 469.691  70
   3 -10   2 8545.37 484.630  62
  -3  10  -2 7766.70 538.334  57
   3 -10   2 8782.46 470.188  52
   3 -10   3 11275.2 449.148  33
   3 -10   3 11037.8 461.717  35
  -3  10  -3 9244.47 522.556  89
   3 -10   3 8742.26 423.868  86
  -3  10  -3 9444.46 523.378  70
   3 -10   3 9873.06 530.067  62
  -3  10  -3 10699.2 686.059  57
   3 -10   3 11451.1 536.878  52
   3 -10   4 2070.53 225.387  33
   3 -10   4 2207.48 223.224  35
   3 -10   4 1909.80 267.460  62
  -3  10  -4 1915.51 420.577  57
   3 -10   4 1495.62 204.077  86
  -3  10  -4 1497.66 256.680  89
   3 -10   5 9139.80 533.081  62
  -3  10  -5 9379.48 681.830  57
   3 -10   5 9566.36 446.461  33
  -3  10  -6 205.184 185.783  87
   3 -10   6 326.763 222.425  65
  -3  10  -7 6436.14 529.673  88
  -3  10  -7 6013.98 506.173  57
   3 -10   7 6653.62 450.381  61
   3 -10   7 5856.56 422.099  65
  -3  10  -8 701.307 273.806  88
   3 -10   8 1019.58 245.929  65
   3 -10   8 838.741 228.321  61
  -3  10  -8 1006.31 274.514  57
  -3  10  -9 6019.09 478.782  88
  -3  10  -9 6278.97 464.698  57
   3 -10   9 5902.82 397.585  61
   3 -10   9 6874.97 414.451  65
  -3  10 -10 855.359 252.039  88
   3 -10  10 575.148 178.696  61
   3 -10  10 889.258 195.991  65
  -3  10 -10 846.641 223.816  57
   3 -10  11 2927.55 200.319  78
  -3  10 -11 3663.80 338.894  88
  -3  10 -11 3895.91 318.895  57
   3 -10  12 2011.18 152.250  78
  -3  10 -12 2491.39 271.540  88
  -3  10 -12 2842.20 240.519  57
  -3  10 -13 874.313 175.838  88
   3 -10  13 578.176 78.9180  78
  -3   9  10 8329.19 353.014  69
   3  -9  -9 23.3293 100.654  82
  -3   9   9-18.2291 91.1703  75
  -3   9   9-18.4880 121.845  69
  -3   9   8 9822.26 473.784  69
  -3   9   8 7797.83 383.477  75
   3  -9  -8 8537.31 289.066  86
   3  -9  -8 10129.4 443.920  45
   3  -9  -7 896.447 189.592  82
   3  -9  -7 1622.65 227.997  40
  -3   9   7 1261.76 233.134  69
  -3   9   7 1294.93 197.012  75
   3  -9  -7 1368.33 144.737  86
   3  -9  -7 1477.05 235.805  45
   3  -9  -6 7943.09 357.038  86
   3  -9  -6 7096.39 444.986  82
   3  -9  -6 8700.46 398.552  40
  -3   9   6 8007.60 507.832  69
  -3   9   6 7195.41 425.370  75
   3  -9  -6 8694.70 359.685  28
   3  -9  -6 9853.73 442.139  45
   3  -9  -5 3621.32 255.756  86
   3  -9  -5 3287.82 314.711  82
   3  -9  -5 3307.25 239.601  35
   3  -9  -5 4982.31 299.229  40
  -3   9   5 4036.12 394.477  69
  -3   9   5 3053.57 301.993  75
   3  -9  -5 4568.96 275.386  28
   3  -9  -5 4629.14 312.107  45
   3  -9  -5 4060.94 270.264  48
   3  -9  -4 2793.30 302.092  82
  -3   9   4 3203.30 358.617  69
  -3   9   4 2872.26 298.717  75
   3  -9  -4 3583.38 261.279  28
   3  -9  -4 2795.60 234.130  35
   3  -9  -4 3625.56 263.896  48
  -3   9   3 12998.2 776.363  11
   3  -9  -3 13099.9 520.989  86
   3  -9  -3 13340.1 512.335  35
   3  -9  -3 11831.1 453.235  33
   3  -9  -3 12564.5 473.396  48
  -3   9   2 1094.17 272.978  11
   3  -9  -2 868.039 164.057  86
   3  -9  -2 812.453 197.774  82
   3  -9  -2 729.426 163.539  35
   3  -9  -2 1104.70 192.886  28
   3  -9  -2 713.880 150.181  33
   3  -9  -2 860.837 206.952  48
  -3   9   1 12787.0 698.228  11
   3  -9  -1 12495.2 509.235  86
   3  -9  -1 11303.4 576.954  82
   3  -9  -1 13074.7 518.689  35
  -3   9   1 12068.0 626.868  69
  -3   9   1 12320.1 601.611  75
   3  -9  -1 13240.8 586.171  52
   3  -9  -1 13448.3 490.449  33
  -3   9   0 164.986 168.682  11
   3  -9   0 213.648 140.885  86
   3  -9   0 313.014 163.218  82
  -3   9   0 238.845 176.741  75
  -3   9   0 176.539 185.097  69
  -3   9   0 256.810 191.954  57
   3  -9   0 241.346 167.950  62
   3  -9   0 245.188 156.790  28
   3  -9   0 85.5256 135.178  33
   3  -9   0 172.816 142.920  35
   3  -9   1 11582.7 502.452  86
  -3   9  -1 12384.7 617.000  89
   3  -9   1 14448.9 541.042  35
  -3   9  -1 12316.8 677.110  57
   3  -9   1 12359.0 609.009  62
   3  -9   1 16660.6 576.428  28
   3  -9   1 14794.1 519.024  33
  -3   9  -2 6460.18 440.644  89
   3  -9   2 6673.56 365.453  86
   3  -9   2 6054.44 413.316  81
   3  -9   2 8649.88 400.669  35
  -3   9  -2 6152.96 439.269  70
   3  -9   2 6936.47 445.545  62
  -3   9  -2 7081.01 576.957  57
   3  -9   2 9200.41 423.302  28
   3  -9   2 8779.17 385.102  33
   3  -9   3 33454.2 1127.94  81
   3  -9   3 43687.3 1102.81  35
  -3   9  -3 35769.7 1180.64  89
   3  -9   3 34876.4 1050.04  86
   3  -9   3 37337.0 1203.40  62
   3  -9   3 43717.2 1070.04  33
   3  -9   4 9128.58 410.395  33
   3  -9   4 8836.50 415.028  35
  -3   9  -4 7022.98 464.592  89
   3  -9   4 6578.54 381.988  86
  -3   9  -4 6988.45 510.186  88
   3  -9   4 8171.19 487.884  62
   3  -9   5 10825.0 470.303  35
  -3   9  -5 9514.29 533.891  89
   3  -9   5 10414.0 458.720  33
   3  -9   6 6956.24 381.888  35
   3  -9   6 7588.12 396.401  33
  -3   9  -6 6480.62 438.043  89
  -3   9  -6 5794.72 439.260  87
   3  -9   7 30527.7 902.117  52
   3  -9   7 6143.89 473.114  61
   3  -9   8 44392.5 1237.00  47
  -3   9  -8 45114.5 1495.86  57
   3  -9   8 39780.3 1310.01  61
   3  -9   8 39668.3 1280.27  65
   3  -9   9 1816.48 228.861  47
   3  -9   9 1290.14 245.119  61
   3  -9   9 1268.55 271.301  65
  -3   9  -9 1508.50 289.752  57
  -3   9 -10 11115.6 664.254  88
   3  -9  10 13394.5 534.922  47
  -3   9 -10 12760.8 659.869  57
   3  -9  10 10862.6 544.911  61
   3  -9  10 13550.3 592.901  65
  -3   9 -11 64.0637 213.747  88
   3  -9  11-104.578 178.709  65
  -3   9 -11-9.22963 164.975  57
   3  -9  11 57.1757 117.060  47
  -3   9 -12 5431.33 398.427  88
  -3   9 -12 5593.34 355.911  57
   3  -9  13 326.119 96.2612  78
  -3   9 -13 502.359 183.851  88
   3  -9  14 3598.63 172.337  78
  -3   9 -14 5249.34 297.578  88
  -3   8  11 5115.94 275.822  69
  -3   8  10 4019.06 252.391  75
   3  -8 -10 3505.60 268.875  82
   3  -8  -9 5181.56 303.468  40
  -3   8   9 4342.31 339.214  69
  -3   8   9 3837.28 279.801  75
   3  -8  -9 3843.47 210.978  86
   3  -8  -9 4700.78 332.210  45
   3  -8  -8 414.906 167.622  82
   3  -8  -8 511.058 216.928  40
  -3   8   8 403.996 154.642  75
   3  -8  -8 460.886 128.443  86
   3  -8  -8 546.324 216.977  45
   3  -8  -7 11085.4 478.504  86
   3  -8  -7 11103.2 583.211  82
   3  -8  -7 15151.2 540.582  40
  -3   8   7 12156.4 570.110  75
   3  -8  -7 12459.7 462.483  28
   3  -8  -7 15253.6 576.234  45
   3  -8  -6 689.582 197.754  82
  -3   8   6 919.112 211.134  75
   3  -8  -6 797.363 166.622  28
   3  -8  -6 1110.58 221.497  40
   3  -8  -6 1015.64 213.647  45
   3  -8  -6 779.677 209.009  48
   3  -8  -5 7627.76 396.659  86
  -3   8   5 7989.16 703.768  11
   3  -8  -5 6921.23 374.333  28
   3  -8  -5 7407.20 362.092  48
   3  -8  -4 321.757 146.592  86
   3  -8  -4 348.668 159.293  82
  -3   8   4 458.790 381.839  11
  -3   8   4 438.584 170.381  75
   3  -8  -4 489.912 186.900  29
   3  -8  -4 378.675 161.935  28
   3  -8  -4 281.052 195.906  48
   3  -8  -3 2025.05 262.484  82
  -3   8   3 2296.39 410.235  11
  -3   8   3 2044.21 278.351  75
   3  -8  -3 2428.01 240.278  86
   3  -8  -3 2745.12 280.346  29
   3  -8  -3 2168.40 241.263  28
   3  -8  -2 8607.43 497.067  82
  -3   8   2 10136.5 677.341  11
  -3   8   2 9724.51 597.307  69
  -3   8   2 9215.62 513.889  75
   3  -8  -2 10068.3 471.127  86
   3  -8  -1 22727.3 712.733  29
   3  -8  -1 19699.4 668.866  28
   3  -8  -1 16708.9 623.617  86
   3  -8  -1 14659.0 666.342  82
  -3   8   1 16676.3 819.505  11
  -3   8   1 16344.9 765.164  69
  -3   8   1 16488.1 702.951  75
   3  -8  -1 15391.7 697.173  62
   3  -8  -1 19222.6 715.202  52
   3  -8   0 12137.2 500.160  29
   3  -8   0 11110.6 473.165  28
  -3   8   0 9538.76 576.188  11
   3  -8   0 8378.71 413.324  86
   3  -8   0 7870.07 462.051  82
  -3   8   0 8583.61 487.472  75
  -3   8   0 8428.46 518.501  69
  -3   8   0 8522.59 534.061  57
   3  -8   0 8072.19 481.708  62
   3  -8   0 10725.9 546.968  52
   3  -8   1 1523.49 211.725  28
   3  -8   1 1032.30 180.677  35
   3  -8   1 1384.58 187.136  86
  -3   8  -1 1333.06 243.331  69
  -3   8  -1 1175.25 287.934  57
   3  -8   1 1303.26 225.633  62
   3  -8   2 10427.6 448.337  28
   3  -8   2 9307.20 410.360  33
   3  -8   2 9324.85 429.586  35
   3  -8   2 8825.33 414.272  86
  -3   8  -2 8799.93 497.520  89
   3  -8   2 8941.34 490.679  62
  -3   8  -2 9953.50 695.597  57
   3  -8   2 8491.27 558.608  52
   3  -8   3 3555.84 269.633  35
  -3   8  -3 2712.23 307.050  89
  -3   8  -3 2741.65 339.603  88
   3  -8   3 3142.67 254.131  86
   3  -8   3 3439.55 319.340  62
  -3   8  -3 3266.44 575.358  57
   3  -8   3 4476.61 291.844  28
   3  -8   3 4142.08 275.068  33
   3  -8   4 35428.1 953.454  35
  -3   8  -4 28562.1 1010.52  89
   3  -8   4 26735.3 896.041  86
  -3   8  -4 29578.3 1163.23  88
   3  -8   4 30574.4 1053.50  62
  -3   8  -4 32866.4 1395.46  57
   3  -8   4 35266.3 954.052  28
   3  -8   4 34754.5 924.549  33
   3  -8   5 4081.63 285.798  35
  -3   8  -5 3386.69 332.096  89
   3  -8   5 3305.15 275.560  86
   3  -8   5 4094.18 356.638  62
  -3   8  -5 4107.70 485.206  57
   3  -8   5 4762.90 297.742  33
   3  -8   6 30500.3 875.158  35
  -3   8  -6 26611.1 1144.32  57
   3  -8   6 32711.1 881.410  33
   3  -8   6 24463.5 846.684  86
  -3   8  -6 26325.9 940.875  89
  -3   8  -6 26713.5 993.136  87
   3  -8   7 1990.07 233.990  33
  -3   8  -7 1224.10 251.061  87
   3  -8   7 1306.40 264.128  61
  -3   8  -7 1611.57 331.084  57
   3  -8   7 1583.19 239.038  47
   3  -8   7 1497.35 283.060  54
   3  -8   8 19575.7 724.351  47
   3  -8   8 18399.5 786.356  54
   3  -8   9 12076.1 590.456  15
  -3   8  -9 11563.2 656.767  57
   3  -8   9 9914.47 526.071  61
   3  -8   9 10552.2 552.741  65
   3  -8   9 13082.3 539.279  47
   3  -8   9 11862.6 591.118  54
  -3   8  -9 11542.2 702.099  88
  -3   8 -10 7799.05 523.680  57
   3  -8  10 8016.54 464.495  65
   3  -8  10 6236.11 442.998  25
   3  -8  10 8086.50 415.504  47
   3  -8  10 7738.19 477.173  54
  -3   8 -11 11642.7 662.326  88
  -3   8 -11 12106.8 616.608  57
   3  -8  11 12423.3 545.006  65
   3  -8  11 12439.5 514.263  47
   3  -8  11 12097.0 579.623  54
  -3   8 -12 880.062 248.688  88
  -3   8 -12 699.968 197.489  57
   3  -8  12 899.385 157.640  78
   3  -8  12 900.190 162.108  47
   3  -8  12 918.278 201.901  54
   3  -8  13 7255.48 318.921  47
   3  -8  13 7693.22 395.668  54
  -3   8 -13 8174.62 463.086  88
   3  -8  14 91.4949 82.4015  78
   3  -8  14 82.0290 119.898  54
  -3   8 -14 97.9866 146.120  88
   3  -8  15 6166.96 221.264  78
  -3   7  12 356.094 111.170  69
   3  -7 -11 5772.41 218.321  86
   3  -7 -11 4996.86 320.936  82
  -3   7  10 44.7368 119.010  75
  -3   7  10 91.5231 158.019  69
   3  -7 -10 86.9150 192.641  40
   3  -7 -10 71.4682 94.2308  86
   3  -7 -10 138.098 138.550  82
   3  -7  -9 6213.38 441.695  82
   3  -7  -9 10116.6 460.985  40
  -3   7   9 8582.55 455.821  75
   3  -7  -9 8911.98 402.753  86
   3  -7  -9 9651.73 488.070  45
   3  -7  -9 11830.1 444.277  51
  -3   7   8 4141.47 340.830  75
   3  -7  -8 5083.98 358.055  38
   3  -7  -8 5411.06 359.705  40
   3  -7  -8 5129.28 361.790  45
  -3   7   7 13033.7 758.876  11
   3  -7  -7 10854.6 511.621  86
   3  -7  -7 14967.7 539.950  40
   3  -7  -7 12461.9 558.887  68
  -3   7   7 10944.7 566.376  75
   3  -7  -7 12556.8 523.950  29
   3  -7  -7 11047.3 479.488  28
   3  -7  -7 13775.0 590.097  32
   3  -7  -7 13934.8 568.108  45
   3  -7  -6 15101.2 714.332  82
  -3   7   6 20960.3 1056.24  11
  -3   7   6 15307.3 697.087  75
   3  -7  -6 17638.6 657.275  29
   3  -7  -6 15329.7 614.419  28
   3  -7  -6 20254.1 738.739  32
   3  -7  -6 19729.4 679.291  45
   3  -7  -6 18065.5 592.967  48
   3  -7  -5 4501.80 333.121  68
  -3   7   5 3821.80 351.992  75
  -3   7   5 5462.90 741.622  11
   3  -7  -5 4434.98 331.142  29
   3  -7  -5 3181.73 285.499  28
   3  -7  -5 4646.00 365.040  32
   3  -7  -5 3126.28 323.131  82
   3  -7  -4 37725.6 1045.48  68
  -3   7   4 32820.0 1113.73  75
  -3   7   4 41384.5 1738.80  11
   3  -7  -4 38222.2 1090.08  29
   3  -7  -4 35730.1 1067.67  28
   3  -7  -4 44270.9 1174.59  32
   3  -7  -4 27232.1 1061.29  82
   3  -7  -3-60.4371 140.451  86
   3  -7  -3 43.4917 132.019  82
  -3   7   3 100.955 230.995  11
  -3   7   3-52.3903 157.033  75
   3  -7  -3 6.98016 170.360  29
   3  -7  -3-68.9590 165.653  28
   3  -7  -3-46.2230 182.809  32
   3  -7  -3 33.3302 131.010  52
   3  -7  -2 15805.0 623.141  86
   3  -7  -2 14350.7 641.417  82
  -3   7   2 16597.1 838.951  11
  -3   7   2 16630.8 794.761  69
  -3   7   2 15926.9 674.418  75
   3  -7  -2 17727.5 662.460  52
   3  -7  -2 20402.1 697.951  29
   3  -7  -2 17567.7 661.045  28
   3  -7  -2 21463.8 722.149  32
   3  -7  -1 1562.07 230.520  29
   3  -7  -1 991.732 198.352  28
   3  -7  -1 1442.68 236.512  32
   3  -7  -1 1577.26 197.962  86
   3  -7  -1 1311.86 207.898  82
  -3   7   1 1482.37 282.754  69
   3  -7  -1 1992.27 275.800  52
  -3   7   1 1238.71 236.835  57
  -3   7   1 1484.13 278.461  11
  -3   7   0 40736.9 1297.37  11
   3  -7   0 39306.0 1049.07  86
  -3   7   0 39398.7 1241.20  57
   3  -7   0 38108.3 1144.27  62
  -3   7   0 40358.7 1248.22  69
  -3   7  -1 1796.53 272.078  69
   3  -7   1 1809.68 200.658  86
  -3   7  -1 1849.74 321.202  57
   3  -7   1 2226.10 251.446  62
  -3   7  -2 5926.85 403.110  69
   3  -7   2 5880.81 378.513  62
  -3   7  -2 5723.44 508.708  57
   3  -7   2 5697.93 318.155  86
  -3   7  -2 6048.41 392.195  89
  -3   7  -2 5477.14 406.458  88
  -3   7  -3 3988.02 327.801  89
   3  -7   3 3972.97 268.713  86
  -3   7  -3 4456.56 401.868  88
   3  -7   3 4298.82 333.213  62
  -3   7  -3 4330.69 501.205  57
   3  -7   3 5247.86 335.903  47
   3  -7   3 4218.06 267.697   5
   3  -7   4 814.828 170.937  33
  -3   7  -4 925.339 284.401  88
  -3   7  -4 1006.87 211.533  89
   3  -7   4 640.944 157.753  86
   3  -7   4 896.687 204.656  62
  -3   7  -4 760.867 288.879  57
   3  -7   4 911.864 190.660  47
   3  -7   4 725.722 163.806   5
   3  -7   5 7435.81 360.715  28
   3  -7   5 8021.47 369.826  33
   3  -7   5 7435.30 352.894   5
  -3   7  -5 6043.31 400.756  89
  -3   7  -5 6568.44 475.879  87
   3  -7   5 6224.44 354.239  86
   3  -7   5 7049.02 438.386  62
  -3   7  -5 6628.70 542.819  57
   3  -7   5 7768.82 416.503  47
   3  -7   5 6894.47 438.748  54
   3  -7   6 37324.0 940.417  33
   3  -7   6 30334.1 880.468   5
   3  -7   6 32640.3 915.152   8
  -3   7  -6 28280.2 1044.59  87
   3  -7   6 26611.3 906.123  86
   3  -7   6 33797.6 927.992  35
  -3   7  -6 30556.3 1201.58  57
   3  -7   6 31375.3 1053.42  54
   3  -7   6 32187.1 990.248  47
   3  -7   7 17613.3 591.431  33
   3  -7   7 14722.3 634.719  10
   3  -7   7 16165.8 592.026   8
  -3   7  -7 13685.9 653.142  87
  -3   7  -7 15621.9 885.909  88
   3  -7   7 15796.5 576.317  35
  -3   7  -7 15150.5 793.996  57
   3  -7   7 14677.9 661.639  61
   3  -7   7 13965.5 666.028  54
   3  -7   7 14366.5 611.331  47
   3  -7   8 3527.89 318.940  10
   3  -7   8 3033.39 341.935   8
  -3   7  -8 2269.32 278.218  87
  -3   7  -8 2467.26 402.022  88
  -3   7  -8 2681.83 364.001  57
   3  -7   8 3336.48 278.377  33
   3  -7   9 2168.21 266.517  10
   3  -7   9 1541.19 379.921  17
   3  -7   9 1988.72 364.590  15
  -3   7  -9 2367.48 382.512  88
   3  -7   9 2091.88 296.326  54
   3  -7   9 2489.42 270.279  47
   3  -7  10 2218.66 385.955  25
   3  -7  10 2626.85 382.488  17
   3  -7  10 2887.24 362.513  15
  -3   7 -10 3297.78 371.032  57
   3  -7  10 2487.62 314.008  65
   3  -7  10 3285.61 341.802  54
   3  -7  10 3651.64 301.419  47
  -3   7 -10 2813.17 398.444  88
   3  -7  11 12216.6 596.449  54
   3  -7  11 12267.7 532.615  47
  -3   7 -11 12840.5 642.782  57
   3  -7  11 13248.9 562.104  65
   3  -7  11 13813.6 570.416  25
  -3   7 -12 1953.01 325.466  88
  -3   7 -12 2327.12 275.398  57
   3  -7  12 1759.82 204.466  78
   3  -7  12 2305.78 268.855  54
   3  -7  12 2240.61 230.903  47
   3  -7  13 4207.25 267.462  78
   3  -7  13 4488.71 325.990  54
   3  -7  13 4602.20 275.690  47
  -3   7 -13 4968.26 390.000  88
   3  -7  14 6630.39 308.314  78
   3  -7  14 7186.45 310.071  47
   3  -7  14 7871.73 380.725  54
  -3   7 -14 8199.28 428.677  88
   3  -7  15 191.456 82.5981  78
  -3   7 -15 170.557 114.007  88
   3  -6 -12 1857.48 127.334  86
   3  -6 -12 1560.32 191.590  82
   3  -6 -11 1546.54 223.333  82
   3  -6 -11 2389.63 230.451  38
   3  -6 -11 2398.79 259.596  40
  -3   6  11 2559.67 264.101  69
  -3   6  11 1915.75 214.178  75
   3  -6 -11 1629.03 168.611  86
   3  -6 -11 2420.92 234.774  51
   3  -6 -10 11780.2 454.305  38
   3  -6 -10 10411.0 478.722  40
  -3   6  10 10401.8 552.372  69
   3  -6 -10 10779.2 501.731  68
  -3   6  10 8188.25 450.170  75
  -3   6  10 9349.78 488.680  90
   3  -6 -10 9752.58 510.577  45
   3  -6 -10 11531.7 461.425  51
   3  -6  -9-20.8047 160.298  82
  -3   6   9 95.0901 145.694  75
   3  -6  -9 139.058 223.870  68
   3  -6  -9 361.007 158.131  29
   3  -6  -9 192.151 178.086  32
   3  -6  -9 401.278 267.428  38
   3  -6  -9 314.647 240.009  40
   3  -6  -9 295.464 225.098  45
   3  -6  -9 210.936 261.676  51
  -3   6   8 9074.67 599.481  11
  -3   6   8 8524.91 509.279  90
   3  -6  -8 10416.6 477.027  40
   3  -6  -8 8799.17 437.295  29
   3  -6  -8 9905.61 500.376  32
   3  -6  -8 9990.04 487.880  45
  -3   6   7 1786.56 267.016  90
   3  -6  -7 1644.65 262.188  82
  -3   6   7 2058.48 355.829  11
   3  -6  -7 2187.26 300.243  68
  -3   6   7 1745.66 267.929  75
   3  -6  -7 2336.70 264.787  29
   3  -6  -7 2386.62 295.298  32
   3  -6  -7 2905.73 290.465  45
   3  -6  -7 2252.42 262.472  48
   3  -6  -6 12207.5 624.442  82
  -3   6   6 16595.8 913.811  11
   3  -6  -6 14474.8 609.861  68
  -3   6   6 13106.3 628.166  75
   3  -6  -6 14774.4 614.186  29
   3  -6  -6 15096.4 650.255  32
  -3   6   6 13617.6 650.018  90
  -3   6   5 4443.78 371.465  90
   3  -6  -5 4075.04 347.910  82
  -3   6   5 7115.68 649.312  11
   3  -6  -5 5660.41 379.465  68
  -3   6   5 4673.78 365.684  75
   3  -6  -5 5254.82 315.762  48
   3  -6  -5 5346.43 373.198  29
   3  -6  -5 6261.76 416.928  32
   3  -6  -4 20156.6 801.104  82
   3  -6  -4 26587.2 811.412  68
  -3   6   4 22388.4 828.923  75
   3  -6  -4 22383.7 688.454  48
   3  -6  -4 24665.5 767.626  52
  -3   6   4 26055.1 1145.48  11
   3  -6  -4 23256.5 818.396  29
   3  -6  -4 26944.6 894.833  32
   3  -6  -3 9310.12 439.229  68
   3  -6  -3 9631.16 436.201  52
  -3   6   3 8684.00 603.396  11
  -3   6   2 9701.22 579.936  69
   3  -6  -2 10392.6 478.518  52
  -3   6   2 10306.4 616.631  11
  -3   6   1 45907.0 1441.86  11
  -3   6   1 45023.4 1384.52  69
  -3   6   1 45395.8 1316.84  57
   3  -6  -1 48740.2 1250.84  29
  -3   6   0 1510.11 261.610  69
   3  -6   0 1326.49 214.085  29
   3  -6   0 1609.25 228.271  32
  -3   6   0 1521.35 263.599  57
  -3   6   0 1620.96 263.362  11
  -3   6  -1 44820.3 1342.68  69
  -3   6  -1 41079.2 1257.05  88
  -3   6  -1 45051.7 1411.49  57
   3  -6   1 43530.9 1248.00  62
   3  -6   1 46012.2 1196.90  29
   3  -6   1 42034.6 1183.43  28
   3  -6   1 49229.8 1210.82  32
   3  -6   2 152.523 140.810  29
   3  -6   2 109.129 133.703  28
   3  -6   2 182.315 142.455  32
  -3   6  -2 27.2334 175.165  88
  -3   6  -2-52.2329 165.869  69
  -3   6  -2 59.4584 214.638  57
   3  -6   2 72.6314 132.963  62
   3  -6   2 119.806 140.874  47
   3  -6   3 25655.3 767.868  29
   3  -6   3 27481.8 799.692  28
  -3   6  -3 25155.4 834.874  89
  -3   6  -3 25553.0 973.220  88
   3  -6   3 24334.7 764.250   5
  -3   6  -3 27198.7 907.903  69
  -3   6  -3 27927.4 1090.26  57
   3  -6   3 27956.6 884.663  62
   3  -6   3 28601.9 841.488  47
   3  -6   4 3495.36 245.237  28
   3  -6   4 3775.91 317.155  10
   3  -6   4 3574.99 260.291   5
  -3   6  -4 2833.23 273.209  89
  -3   6  -4 2541.16 309.172  87
  -3   6  -4 3451.70 407.912  88
   3  -6   4 3219.03 246.155  35
  -3   6  -4 3475.33 406.554  57
   3  -6   4 3144.69 283.053  62
   3  -6   4 3150.18 293.851  54
   3  -6   4 3718.52 285.476  47
   3  -6   5 8149.92 366.613  28
   3  -6   5 8297.80 456.505  10
   3  -6   5 8657.01 393.967   5
  -3   6  -5 8666.31 438.698  89
  -3   6  -5 8262.39 517.730  87
  -3   6  -5 9317.32 629.963  88
   3  -6   5 9364.58 401.034  35
  -3   6  -5 7732.81 569.859  57
   3  -6   5 8720.59 459.367  62
   3  -6   5 8535.05 471.896  54
   3  -6   5 9026.09 442.531  47
   3  -6   6 5304.61 309.199  33
   3  -6   6 5352.54 312.777   5
   3  -6   6 4725.75 358.820  10
  -3   6  -6 4053.56 363.320  87
  -3   6  -6 4269.33 481.995  88
   3  -6   6 5539.80 306.959  35
  -3   6  -6 4774.51 457.514  57
   3  -6   6 4293.89 364.318  54
   3  -6   7 3044.49 247.125  33
   3  -6   7 2748.96 300.462  10
   3  -6   7 2564.23 314.114   8
  -3   6  -7 2804.77 312.507  87
  -3   6  -7 2713.64 409.705  88
  -3   6  -7 2579.34 364.365  57
   3  -6   7 2232.61 291.956  54
   3  -6   8 22428.0 706.577  33
   3  -6   8 23741.3 827.834  10
   3  -6   8 21939.5 747.656   8
  -3   6  -8 18612.2 762.177  87
  -3   6  -8 21008.3 980.952  88
  -3   6  -8 22004.3 950.162  57
   3  -6   8 19713.5 822.990  54
   3  -6   9 1364.93 279.233  65
  -3   6  -9 1144.88 279.414  57
   3  -6   9 1334.19 245.948  10
   3  -6   9 1125.94 398.727  17
   3  -6   9 1667.42 359.236  15
   3  -6   9 1515.14 345.830   8
  -3   6  -9 1492.30 337.219  88
   3  -6  10 8025.29 443.637  10
   3  -6  10 7485.15 488.862  15
  -3   6 -10 7204.32 553.644  88
   3  -6  10 7763.23 483.824  54
   3  -6  11 92.1762 310.352  17
   3  -6  11-13.3497 240.300  15
  -3   6 -11 10.3910 191.521  57
  -3   6 -11-10.9079 222.614  64
   3  -6  11-9.45307 193.460  54
  -3   6 -12 10747.3 616.104  88
  -3   6 -12 10752.5 575.076  64
   3  -6  12 10633.5 540.352  54
   3  -6  12 8983.69 437.634  78
  -3   6 -13 724.725 231.069  88
  -3   6 -13 431.842 198.577  64
   3  -6  13 505.992 184.710  54
   3  -6  13 435.263 141.862  78
  -3   6 -14 13064.0 552.053  88
   3  -6  14 12951.9 515.088  54
   3  -6  14 11425.9 434.477  47
   3  -6  14 11148.3 432.442  78
  -3   6 -15 2445.10 205.841  88
   3  -6  15 2419.86 175.974  78
   3  -6  15 2558.74 216.997  54
  -3   5  13 468.059 134.198  90
   3  -5 -13 175.235 69.9550  86
   3  -5 -13 189.294 117.761  82
   3  -5 -12 2626.45 271.794  82
   3  -5 -12 5455.80 340.957  68
  -3   5  12 4994.40 326.858  69
   3  -5 -12 4906.46 285.026  38
   3  -5 -12 3093.60 218.059  86
  -3   5  12 4492.39 309.915  90
   3  -5 -12 5520.77 296.734  51
  -3   5  11 1931.18 247.460  90
   3  -5 -11 2753.57 285.499  38
   3  -5 -11 2448.48 290.978  40
  -3   5  11 1998.29 267.676  69
   3  -5 -11 2709.00 293.816  68
  -3   5  11 1535.66 217.144  75
   3  -5 -11 1991.27 228.626  32
   3  -5 -11 2514.67 291.453  51
   3  -5 -10 12931.0 550.382  38
   3  -5 -10 12592.9 559.899  40
   3  -5 -10 14458.8 607.565  68
  -3   5  10 11786.4 620.433  69
  -3   5  10 10364.0 533.530  75
   3  -5 -10 14075.0 556.447  32
   3  -5 -10 13606.2 567.259  51
   3  -5 -10 12982.5 609.134  45
  -3   5   9 6158.21 485.285  11
  -3   5   9 4566.96 381.168  90
   3  -5  -9 4011.71 388.433  84
   3  -5  -9 6813.46 436.915  38
   3  -5  -9 6805.86 419.955  40
   3  -5  -9 5199.74 335.438  29
   3  -5  -9 6748.98 421.581  32
   3  -5  -9 6985.47 440.142  45
  -3   5   8 927.798 260.319  11
  -3   5   8 1196.73 236.008  90
   3  -5  -8 880.924 228.780  84
   3  -5  -8 1195.50 255.021  40
   3  -5  -8 1134.75 279.095  68
   3  -5  -8 874.632 213.196  29
   3  -5  -8 782.436 240.256  32
   3  -5  -8 1102.40 249.021  45
   3  -5  -7 14336.8 680.922  84
   3  -5  -7 16276.2 681.101  68
  -3   5   7 15596.5 703.271  90
   3  -5  -7 16237.7 654.429  29
   3  -5  -7 18103.3 741.831  32
  -3   5   7 16949.6 861.115  11
  -3   5   6-77.5364 202.106  11
  -3   5   6 37.2931 164.012  90
   3  -5  -6-14.9917 228.969  68
   3  -5  -6 15.6124 192.372  29
   3  -5  -6-18.2299 211.322  32
   3  -5  -6 16.7598 193.542  48
   3  -5  -5 19990.2 759.454   6
  -3   5   5 22817.9 1026.61  11
  -3   5   5 21353.5 804.305  90
   3  -5  -5 20279.8 745.754  68
   3  -5  -5 20863.8 637.499  48
   3  -5  -5 22040.0 843.344  32
   3  -5  -4 209.844 167.471   6
  -3   5   4 41.7003 201.166  11
  -3   5   4 91.7010 162.371  90
   3  -5  -4 6.30295 200.080  68
   3  -5  -4 171.190 112.806  52
   3  -5  -3 11699.5 533.198   6
  -3   5   3 10400.6 629.378  11
  -3   5   3 10731.9 514.120  90
  -3   5   3 9830.48 592.564  69
   3  -5  -3 10041.8 470.341  68
   3  -5  -3 10111.8 448.034  52
   3  -5  -3 11470.6 558.477  32
   3  -5  -2 10642.9 494.097   6
  -3   5   2 9754.38 568.265  11
  -3   5   2 8589.30 525.426  69
  -3   5   2 9010.58 459.860  57
   3  -5  -2 9787.99 495.409  32
  -3   5   1 24370.3 940.140  69
   3  -5  -1 28434.5 889.821  32
  -3   5   1 25670.0 856.791  58
  -3   5   1 25651.3 901.047  57
   3  -5  -1 27948.7 894.278   6
  -3   5   1 25842.9 988.924  11
  -3   5   0 11952.3 591.275  69
   3  -5   0 10528.2 478.540  29
   3  -5   0 11980.9 506.329  32
  -3   5   0 11125.1 570.617  57
  -3   5   0 11200.9 496.238  58
   3  -5   1 4768.43 308.205  29
   3  -5   1 5571.82 320.803  32
   3  -5   1 5900.70 363.911   6
  -3   5  -1 5768.55 375.018  88
  -3   5  -1 5421.16 391.077  69
  -3   5  -1 5652.49 417.726  57
   3  -5   1 5289.93 317.275  62
  -3   5  -1 5511.95 323.027  58
   3  -5   1 5916.47 304.481  47
   3  -5   2 15643.4 573.491  29
   3  -5   2 17864.3 577.851  32
   3  -5   2 18384.2 635.010  10
  -3   5  -2 15981.6 692.887  88
  -3   5  -2 16666.5 689.839  69
  -3   5  -2 17256.8 770.350  57
   3  -5   2 16711.8 611.519  62
  -3   5  -2 16768.2 604.312  58
   3  -5   2 18585.2 593.572  47
   3  -5   3 3376.67 288.551  10
  -3   5  -3 3025.89 248.913  89
  -3   5  -3 3522.39 351.484  88
  -3   5  -3 3246.40 355.356  57
   3  -5   3 2600.94 226.881  29
   3  -5   3 2442.57 220.470  28
   3  -5   4 41372.5 1110.61  28
  -3   5  -4 40846.0 1157.72  89
  -3   5  -4 42960.5 1328.69  87
  -3   5  -4 44167.2 1401.96  88
   3  -5   4 48282.8 1262.40  10
   3  -5   4 46351.4 1164.69   5
  -3   5  -4 42773.1 1399.36  57
   3  -5   4 44090.5 1233.68  54
   3  -5   5 182.505 122.561  28
  -3   5  -5 387.624 151.636  89
  -3   5  -5 289.630 190.777  87
  -3   5  -5 556.959 261.679  88
   3  -5   5 375.223 134.253  35
   3  -5   5 241.168 185.832  10
   3  -5   5 317.799 170.693   5
  -3   5  -5 252.866 130.354  76
  -3   5  -5 344.617 226.490  57
   3  -5   5 529.118 197.676  54
   3  -5   6 36947.7 934.943  35
  -3   5  -6 32083.5 1042.63  64
  -3   5  -6 34380.0 1228.60  57
  -3   5  -6 30781.1 1078.51  87
  -3   5  -6 32759.0 1239.55  88
   3  -5   6 31243.7 1027.83  10
   3  -5   6 34990.7 961.976   5
  -3   5  -7 9354.57 609.159  57
  -3   5  -7 9926.68 536.666  64
  -3   5  -7 8909.27 509.824  87
  -3   5  -7 9253.96 624.831  88
   3  -5   7 10613.4 465.273   5
   3  -5   7 10537.3 521.694  10
  -3   5  -8 11104.2 567.816  87
  -3   5  -8 12932.3 746.346  88
  -3   5  -8 12241.8 698.453  57
  -3   5  -8 13032.9 660.435  64
   3  -5   8 14565.7 514.526  33
   3  -5   8 13584.3 610.550  10
   3  -5   8 13025.0 572.359   8
   3  -5   8 14689.1 672.400  15
   3  -5   9 13730.8 607.905  65
  -3   5  -9 16093.6 783.474  64
  -3   5  -9 14619.0 737.751  57
  -3   5  -9 11628.1 550.566  87
  -3   5  -9 12997.1 753.389  88
   3  -5   9 16076.2 648.644  10
   3  -5   9 14720.9 683.849  17
   3  -5   9 13389.7 624.370   8
   3  -5   9 15020.2 688.760  15
  -3   5 -10 6717.16 536.243  88
   3  -5  10 6475.12 410.627  10
   3  -5  10 5594.83 511.029  17
   3  -5  10 6456.86 464.318  15
  -3   5 -11 13567.8 748.311  88
   3  -5  11 16429.6 653.845  17
   3  -5  11 16250.4 635.265  15
  -3   5 -11 15569.4 828.585  64
  -3   5 -11 14385.1 679.808  57
   3  -5  11 16344.3 684.749  25
  -3   5 -12 984.090 279.421  88
  -3   5 -12 984.922 296.701  64
   3  -5  12 946.649 295.298  25
   3  -5  12 1097.32 185.913  78
  -3   5 -13 8132.81 493.192  88
  -3   5 -13 7668.05 495.695  64
   3  -5  13 7219.34 431.310  54
   3  -5  13 6662.50 358.977  78
  -3   5 -14 42.5979 148.098  88
  -3   5 -14-88.2062 169.049  64
   3  -5  14-39.7238 138.475  54
   3  -5  14-82.0625 111.433  78
  -3   5 -15 12378.2 480.419  64
   3  -5  15 13282.2 444.749  66
   3  -5  15 9328.70 369.393  78
   3  -5  15 10298.0 424.064  54
   3  -5  15 8591.08 352.087  47
  -3   4  14 987.234 145.927  90
   3  -4 -13 7522.21 376.105  68
   3  -4 -13 7783.91 349.075  51
   3  -4 -12 286.740 164.930  84
   3  -4 -12 439.011 219.290  38
  -3   4  12 377.530 158.277  69
   3  -4 -12 406.733 211.201  68
  -3   4  12 483.990 167.147  90
   3  -4 -12 414.470 223.119  51
  -3   4  11 18630.4 742.810  90
  -3   4  11 18776.0 760.269  69
   3  -4 -11 22386.4 769.393  68
  -3   4  11 16677.4 693.767  75
   3  -4 -11 22854.5 716.824  38
   3  -4 -11 21542.0 731.055  40
   3  -4 -11 19313.8 679.328  32
   3  -4 -11 23171.2 730.195  51
  -3   4  10 4054.45 354.996  90
   3  -4 -10 5215.13 417.418  38
   3  -4 -10 4913.13 394.788  40
   3  -4 -10 4972.36 402.227  68
   3  -4 -10 5064.29 371.786  32
   3  -4 -10 5439.09 437.131  51
   3  -4 -10 4999.47 411.074  45
  -3   4   9 2794.82 307.630  90
   3  -4  -9 3441.11 330.420  40
   3  -4  -9 2624.70 345.015  68
  -3   4   9 2655.50 346.767  69
  -3   4   9 2585.51 332.378  11
   3  -4  -9 2460.05 275.708  29
   3  -4  -9 2952.39 326.914  32
   3  -4  -9 3637.72 353.112  45
   3  -4  -8 11999.7 603.191  68
  -3   4   8 12511.5 694.583  11
   3  -4  -8 11423.5 551.292  29
  -3   4   8 11513.5 591.778  90
  -3   4   7 12604.7 609.746  90
   3  -4  -7 12595.1 609.887  68
   3  -4  -7 13974.7 674.673  32
   3  -4  -7 12817.0 493.451  48
   3  -4  -7 14754.0 576.539  45
  -3   4   7 13168.7 741.749  11
  -3   4   6 25717.0 917.338  90
   3  -4  -6 25471.4 900.102   6
  -3   4   6 29163.1 1136.04  11
   3  -4  -6 29104.8 1024.41  20
   3  -4  -6 27187.6 766.690  48
  -3   4   5 17795.5 693.167  90
   3  -4  -5 16706.8 689.184   6
  -3   4   5 18501.2 861.779  11
  -3   4   5 18200.9 836.135  69
   3  -4  -5 16761.8 551.360  48
  -3   4   4 23828.5 832.678  43
   3  -4  -4 25497.5 865.540   6
  -3   4   4 23611.0 980.747  11
  -3   4   4 23122.3 943.127  69
  -3   4   4 22089.3 800.262  90
  -3   4   3 3598.50 291.123  43
   3  -4  -3 3589.94 308.090   6
  -3   4   3 3633.16 363.649  11
  -3   4   3 3956.36 372.850  69
  -3   4   3 3194.90 260.938  73
  -3   4   3 3396.66 279.989  90
  -3   4   2 28216.3 892.640  43
  -3   4   2 26670.4 842.523  90
  -3   4   2 27709.5 992.191  69
  -3   4   2 26608.5 828.448  73
  -3   4   2 29314.1 911.586  57
   3  -4  -2 29228.3 923.531   6
  -3   4   1 279.586 148.938  73
  -3   4   1 354.118 192.992  69
   3  -4  -1 657.963 179.724   6
  -3   4   1 473.487 178.730  57
  -3   4   1 331.761 164.875  58
  -3   4   1 424.456 149.739  43
  -3   4   0 53656.9 1385.12  73
  -3   4   0 55335.9 1543.48  69
  -3   4   0 51886.8 1430.98  88
  -3   4   0 55601.7 1458.22  58
  -3   4   0 54523.9 1523.69  57
   3  -4   0 58709.9 1478.60   6
   3  -4   1 3669.33 292.380   6
   3  -4   1 3484.09 259.105  10
  -3   4  -1 2866.27 244.080  73
  -3   4  -1 2896.55 291.791  69
  -3   4  -1 2740.45 275.072  88
  -3   4  -1 3218.13 331.662  57
  -3   4  -1 2928.19 253.635  58
   3  -4   1 3254.80 260.674  32
   3  -4   2 54285.9 1357.17   6
   3  -4   2 56355.8 1328.46  10
  -3   4  -2 49034.9 1383.59  69
  -3   4  -2 47164.8 1271.86  64
  -3   4  -2 51422.5 1481.03  57
  -3   4  -2 49584.0 1303.84  58
   3  -4   2 44701.2 1210.72  32
  -3   4  -2 45809.2 1399.48  87
  -3   4  -2 47426.3 1394.66  88
   3  -4   3 1237.28 202.701   6
   3  -4   3 768.441 186.051  10
  -3   4  -3 1012.96 222.772  87
  -3   4  -3 915.937 239.697  88
  -3   4  -3 839.224 187.806  64
  -3   4  -3 601.618 226.023  57
   3  -4   3 611.183 148.083  29
   3  -4   4 6309.31 374.647  10
   3  -4   4 5964.07 336.033   5
  -3   4  -4 6034.06 420.269  87
  -3   4  -4 6922.22 474.795  88
  -3   4  -4 5683.07 336.467  76
  -3   4  -4 6298.71 373.498  64
  -3   4  -4 6354.22 477.164  57
   3  -4   5 20992.3 622.016  35
  -3   4  -5 16350.6 636.816  76
   3  -4   5 19388.0 721.709  10
   3  -4   5 23917.1 706.150   5
  -3   4  -5 19900.3 850.034  57
  -3   4  -5 19536.4 739.095  64
  -3   4  -5 18166.8 751.282  87
  -3   4  -5 19670.5 861.523  88
  -3   4  -6 5668.51 399.526  87
  -3   4  -6 5466.42 479.233  88
  -3   4  -6 4756.30 301.901  76
  -3   4  -6 5569.83 458.655  57
  -3   4  -6 5226.23 396.267  64
   3  -4   6 5746.72 293.352  33
   3  -4   6 4803.56 356.089  10
   3  -4   6 5732.92 341.347   5
  -3   4  -7 22917.6 886.805  87
  -3   4  -7 24914.6 1051.72  88
  -3   4  -7 26616.5 997.772  64
  -3   4  -7 25846.1 1023.06  57
   3  -4   7 29252.0 771.942  33
   3  -4   7 25906.8 895.534  10
   3  -4   7 27447.4 832.580   5
   3  -4   7 27884.8 843.916   8
  -3   4  -8 1412.89 283.712  57
  -3   4  -8 2028.52 357.862  64
  -3   4  -8 1351.43 233.915  87
  -3   4  -8 2112.75 356.708  88
   3  -4   8 1721.88 260.322  10
   3  -4   8 1916.90 360.981  15
   3  -4   8 1830.95 322.873   8
  -3   4  -9 20871.1 1064.12  64
  -3   4  -9 18252.6 817.706  57
  -3   4  -9 15703.8 650.466  87
  -3   4  -9 17953.7 865.394  88
   3  -4   9 19158.7 726.498  10
   3  -4   9 19097.1 772.158  17
   3  -4   9 16497.8 702.064   8
   3  -4   9 17858.9 741.187  15
  -3   4 -10 2478.60 376.117  88
  -3   4 -10 2509.18 806.655  64
  -3   4 -10 2649.92 319.662  57
   3  -4  10 2720.29 293.422  10
   3  -4  10 3123.89 474.521  17
   3  -4  10 2329.11 279.818   9
   3  -4  10 3148.30 351.594  15
   3  -4  10 1845.65 398.821  25
   3  -4  11 24061.2 808.827  17
   3  -4  11 22749.4 778.826  15
  -3   4 -11 21679.0 948.776  88
   3  -4  11 23463.3 833.251  25
  -3   4 -12 4456.42 456.436  64
   3  -4  12 4679.28 379.299  25
   3  -4  12 3787.98 282.298  78
  -3   4 -13 5953.58 417.362  88
  -3   4 -13 6466.13 476.568  64
   3  -4  13 5026.99 317.174  22
   3  -4  13 5485.32 317.256  78
  -3   4 -14 4934.47 327.947  88
   3  -4  14 4967.48 281.910  78
  -3   4 -15 4358.38 314.872  64
   3  -4  15 3368.34 215.993  78
   3  -4  15 3934.36 266.045  54
  -3   3  15 4082.77 231.227  90
   3  -3 -14 721.273 172.871  68
  -3   3  14 507.478 136.768  90
   3  -3 -13 4905.14 329.576  68
   3  -3 -13 4987.21 319.121  51
  -3   3  12 3733.87 317.961  90
   3  -3 -12 4770.08 364.687  68
  -3   3  12 3868.40 309.406  69
   3  -3 -12 4873.99 355.215  38
   3  -3 -12 4796.99 366.245  40
   3  -3 -12 3192.42 272.155  32
   3  -3 -12 5607.88 373.632  51
  -3   3  11 7032.77 444.744  69
   3  -3 -11 6944.00 451.940  68
   3  -3 -11 5967.35 399.492  32
   3  -3 -11 7154.11 471.374  51
   3  -3 -11 7150.22 458.153  38
   3  -3 -11 6226.83 429.832  40
  -3   3  10 13166.3 625.532  90
   3  -3 -10 16522.9 676.977  38
   3  -3 -10 14505.5 628.319  40
   3  -3 -10 11183.5 529.544  29
   3  -3 -10 16502.1 688.001  32
   3  -3 -10 14869.5 666.531  45
  -3   3   9 1170.55 266.750  69
   3  -3  -9 1223.57 283.085  20
  -3   3   9 1497.13 247.639  90
  -3   3   8 22057.2 866.961  90
  -3   3   8 23402.5 921.184  43
  -3   3   8 25227.2 1006.10  69
   3  -3  -8 26306.6 1008.32  20
   3  -3  -8 28637.9 863.463  45
   3  -3  -8 25087.9 755.852  48
   3  -3  -7 122.644 183.292   6
  -3   3   7 334.893 175.808  90
   3  -3  -7 405.810 258.950  79
  -3   3   7 256.330 167.068  43
  -3   3   7 304.385 227.519  69
   3  -3  -7 131.755 215.844  20
   3  -3  -7 210.077 184.779  45
   3  -3  -7 337.502 205.622  48
  -3   3   6 28013.2 923.143  90
  -3   3   6 29500.5 1006.77  43
   3  -3  -6 25652.7 945.574   6
  -3   3   6 28602.2 1070.30  69
   3  -3  -6 27992.8 1011.28  20
   3  -3  -6 28225.6 771.840  48
  -3   3   5 5779.10 367.330  90
  -3   3   5 6927.35 437.580  43
   3  -3  -5 7180.50 471.268   4
  -3   3   5 6470.67 475.643  69
   3  -3  -5 7155.36 454.878  20
   3  -3  -5 6458.57 308.939  48
  -3   3   4 11327.6 599.234  69
  -3   3   4 11998.4 495.911  90
  -3   3   4 11155.6 545.247  43
   3  -3  -3 21070.3 851.649   4
  -3   3   3 23494.6 837.768  43
  -3   3   3 22271.5 730.413  90
  -3   3   3 23454.9 898.118  69
  -3   3   3 24903.0 779.631  57
   3  -3  -3 26428.1 833.724  20
  -3   3   2 1123.76 202.174  43
   3  -3  -2 1156.90 184.825  20
  -3   3   2 1094.71 198.446  73
  -3   3   2 1451.73 249.340  69
  -3   3   2 1264.10 196.978  57
   3  -3  -2 923.635 201.450   4
   3  -3  -2 959.288 197.732   6
   3  -3  -1 33498.2 1019.89   6
   3  -3  -1 33769.1 1073.56   4
  -3   3   1 35149.1 1050.09  43
  -3   3   1 30899.4 946.347  88
  -3   3   1 31643.6 967.667  73
  -3   3   1 33974.2 1091.17  69
  -3   3   1 34364.2 1039.78  58
  -3   3   1 34115.1 1037.06  57
   3  -3  -1 35337.1 952.919  20
  -3   3   0 5043.16 365.132  87
  -3   3   0 5167.71 341.266  88
  -3   3   0 6222.59 369.164  43
  -3   3   0 5332.87 331.541  73
  -3   3   0 5828.70 394.324  69
  -3   3   0 5823.66 358.140  58
  -3   3   0 6164.17 385.823  57
   3  -3   0 5689.01 360.032   6
   3  -3   0 5680.61 365.933   4
  -3   3  -1 25721.7 806.668  83
   3  -3   1 27252.9 840.122   6
   3  -3   1 28173.7 786.129  10
   3  -3   1 23996.2 841.066   4
  -3   3  -1 25775.2 811.474  73
  -3   3  -1 26109.5 892.432  69
  -3   3  -1 25635.3 804.451  64
  -3   3  -1 26091.5 832.712  58
  -3   3  -1 25866.3 903.811  57
  -3   3  -1 23050.8 869.908  87
  -3   3  -1 24370.8 849.879  88
  -3   3  -2 55.5465 127.015  83
   3  -3   2 111.728 119.573   4
   3  -3   2-6.48739 139.954   6
   3  -3   2 113.442 153.566  10
  -3   3  -2 68.6377 140.862  73
  -3   3  -2 32.4317 132.012  58
  -3   3  -2 45.7883 165.289  57
  -3   3  -2 138.353 149.405  64
  -3   3  -2 8.34794 162.581  87
  -3   3  -2 58.2614 168.914  88
  -3   3  -3 14213.0 559.151  83
   3  -3   3 15872.2 588.973   6
   3  -3   3 15070.9 571.927  10
  -3   3  -3 14988.1 672.858  57
  -3   3  -3 13554.2 576.133  64
  -3   3  -3 13676.0 624.605  87
  -3   3  -3 14054.9 647.585  88
  -3   3  -4 6586.86 381.333  83
   3  -3   4 8749.53 415.415   6
   3  -3   4 7894.39 379.871   5
  -3   3  -4 6149.18 356.694  76
  -3   3  -4 7180.79 420.679  64
  -3   3  -4 7855.57 497.392  57
  -3   3  -4 7302.17 444.607  87
  -3   3  -4 6965.78 479.920  88
  -3   3  -5 21864.2 776.540  83
   3  -3   5 25759.8 750.598   5
  -3   3  -5 19604.6 705.857  76
  -3   3  -5 21712.5 828.347  64
  -3   3  -5 23017.0 907.929  57
  -3   3  -5 24071.8 929.918  88
  -3   3  -5 20989.0 809.388  87
  -3   3  -6 1324.99 246.133  87
  -3   3  -6 1319.02 299.852  88
   3  -3   6 1523.03 259.323   8
   3  -3   6 1666.12 224.262   5
  -3   3  -6 1316.05 236.600  83
  -3   3  -6 1449.50 197.204  76
  -3   3  -6 1484.74 285.657  57
  -3   3  -6 1354.79 271.050  64
   3  -3   6 1484.26 168.082  33
   3  -3   7 18998.5 659.796   5
   3  -3   7 18904.6 663.445   8
   3  -3   7 21381.5 754.040  15
  -3   3  -7 16935.7 725.847  83
  -3   3  -7 19427.6 860.089  64
  -3   3  -7 17891.3 803.307  57
  -3   3  -7 17343.9 837.574  88
  -3   3  -7 16468.5 696.292  87
   3  -3   8 45389.9 1175.97  17
   3  -3   8 39201.2 1094.20   8
   3  -3   8 38459.5 1148.71  15
  -3   3  -8 35980.5 1213.47  83
  -3   3  -8 42246.0 1461.94  64
  -3   3  -8 36450.6 1250.83  57
  -3   3  -8 30644.6 1066.88  87
  -3   3  -8 36320.8 1305.51  88
   3  -3   9 1964.25 443.584  17
   3  -3   9 1444.62 272.694   9
   3  -3   9 1971.42 374.521   8
   3  -3   9 1946.41 329.527  15
  -3   3  -9 1979.55 325.392  83
  -3   3  -9 2437.19 534.636  64
  -3   3  -9 2045.62 295.677  57
  -3   3  -9 1659.60 239.095  87
  -3   3  -9 1811.70 339.835  88
  -3   3 -10 10936.7 523.926  87
  -3   3 -10 13592.5 731.449  88
   3  -3  10 15853.6 683.390  17
   3  -3  10 12464.6 555.446   9
   3  -3  10 16499.9 612.220  15
  -3   3 -10 13387.0 743.863  83
  -3   3 -10 16714.6 1027.30  64
  -3   3 -10 13088.5 628.800  57
   3  -3  10 13911.1 674.432  25
  -3   3 -11 2424.81 350.771  88
   3  -3  11 3145.54 368.542  25
   3  -3  11 2837.40 372.317  17
  -3   3 -12 10430.1 645.230  64
   3  -3  12 8871.31 436.425  22
   3  -3  12 10757.2 490.569  25
  -3   3 -12 9656.15 557.894  88
   3  -3  13 322.423 122.690  78
   3  -3  13 154.996 174.943  22
  -3   3 -13 536.407 191.109  88
  -3   3 -14 21195.5 788.203  64
   3  -3  14 16897.7 580.347  78
  -3   3 -15 5188.76 348.737  64
   3  -3  15 6051.52 315.108  66
   3  -2 -15 1568.02 174.018  68
  -3   2  15 1395.13 163.157  90
  -3   2  14 9653.86 438.879  90
   3  -2 -14 8656.90 341.746  50
   3  -2 -13 331.426 204.199  68
   3  -2 -13 152.469 227.737  38
  -3   2  13 238.712 146.692  90
   3  -2 -13 277.536 227.004  51
  -3   2  12 10407.3 522.314  90
   3  -2 -12 10878.3 533.924  68
   3  -2 -12 12362.8 546.065  51
   3  -2 -12 12442.0 535.632  38
  -3   2  12 10661.5 543.279  43
   3  -2 -12 11808.9 534.664  40
   3  -2 -11 6750.17 466.731  38
   3  -2 -11 6362.94 438.811  40
  -3   2  11 6112.09 437.599  43
   3  -2 -11 6543.93 479.705  20
   3  -2 -11 5367.12 402.762  32
   3  -2 -11 6523.67 478.246  51
  -3   2  10 36976.9 1203.32  90
   3  -2 -10 43841.9 1255.04  79
   3  -2 -10 40900.2 1198.67  38
   3  -2 -10 37884.2 1148.16  40
  -3   2  10 39703.4 1326.02  43
  -3   2  10 37557.3 1230.72  69
   3  -2 -10 41246.5 1356.79  20
   3  -2 -10 38423.2 1198.17  45
  -3   2   9 334.901 177.638  90
   3  -2  -9 557.148 287.535  79
  -3   2   9 424.041 208.588  69
   3  -2  -9 637.748 263.637  20
   3  -2  -9 825.563 253.876  45
  -3   2   8 11070.2 554.557  90
   3  -2  -8 12874.5 611.039  79
  -3   2   8 11815.2 645.239  43
  -3   2   8 12255.8 642.865  69
   3  -2  -8 12397.2 669.863  20
   3  -2  -8 13916.7 547.628  45
  -3   2   7 502.936 182.289  90
  -3   2   7 623.558 214.291  43
   3  -2  -7 646.581 216.810   4
  -3   2   7 588.612 228.937  69
   3  -2  -7 794.969 272.452  24
   3  -2  -7 643.827 238.600  20
   3  -2  -7 676.468 193.463  45
   3  -2  -7 731.004 204.496  48
  -3   2   6 388.295 159.798  90
  -3   2   6 409.033 188.697  43
   3  -2  -6 152.935 166.723   4
  -3   2   6 344.807 204.806  69
   3  -2  -6 387.155 231.374  24
   3  -2  -6 10.2348 186.774  20
   3  -2  -6 268.355 175.280  48
  -3   2   5 24593.0 809.698  90
  -3   2   5 25191.5 828.277  87
  -3   2   5 28593.0 978.492  43
   3  -2  -5 24438.5 958.432   4
  -3   2   5 26587.6 966.774  69
   3  -2  -5 25861.1 932.431  20
   3  -2  -5 27817.8 903.561  24
   3  -2  -5 25826.4 694.459  48
  -3   2   4 13217.1 612.576  43
  -3   2   4 11791.6 522.670  87
  -3   2   4 12336.8 612.242  69
   3  -2  -4 12728.8 540.793  24
   3  -2  -4 12268.0 585.630   7
   3  -2  -4 11886.8 558.922  13
   3  -2  -3 16309.6 729.107   4
   3  -2  -3 17663.6 705.878   7
  -3   2   3 19157.3 749.698  43
  -3   2   3 17843.2 683.698  87
  -3   2   3 18608.8 754.760  69
  -3   2   3 19157.8 654.385  57
   3  -2  -3 20324.1 713.273  20
   3  -2  -2 2849.43 291.492   4
   3  -2  -2 2877.77 262.897   7
   3  -2  -2 2659.61 254.006  13
  -3   2   2 3142.78 290.180  43
  -3   2   2 2059.87 251.591  87
  -3   2   2 2623.34 228.604  88
  -3   2   2 2890.27 298.522  69
  -3   2   2 2579.22 247.381  57
   3  -2  -2 2919.04 251.833  20
   3  -2  -1 12817.8 582.753   4
   3  -2  -1 10686.5 495.866   7
  -3   2   1 11283.6 537.540  87
  -3   2   1 12489.0 509.857  88
  -3   2   1 13647.7 583.634  43
  -3   2   1 12535.9 531.055  73
  -3   2   1 13521.8 596.807  69
  -3   2   1 12880.5 561.515  58
  -3   2   1 12269.3 533.133  57
   3  -2  -1 12163.0 477.032  20
  -3   2   0 22010.9 809.349  87
  -3   2   0 23254.4 793.218  88
  -3   2   0 24703.3 809.264  83
  -3   2   0 25998.4 860.602  43
  -3   2   0 24248.1 801.804  73
  -3   2   0 25632.0 871.679  69
  -3   2   0 25131.7 802.888  64
  -3   2   0 24426.1 834.660  57
  -3   2   0 25092.9 829.207  58
   3  -2   0 25301.3 854.061   4
   3  -2   0 23584.2 766.860   7
  -3   2  -1 10542.9 478.582  83
  -3   2  -1 9322.65 494.041  87
  -3   2  -1 10403.9 498.990  88
  -3   2  -1 11404.8 490.559  73
  -3   2  -1 10499.2 483.138  64
  -3   2  -1 10401.3 521.190  57
  -3   2  -1 10215.3 475.040  58
   3  -2   1 9426.37 470.084   4
   3  -2   1 9587.28 458.008   6
  -3   2  -2 28455.1 903.863  83
  -3   2  -2 27545.2 932.156  87
  -3   2  -2 27446.6 941.456  88
  -3   2  -2 29653.9 900.527  73
  -3   2  -2 28307.0 915.088  64
  -3   2  -2 30365.9 998.536  57
  -3   2  -2 29461.3 895.407  58
   3  -2   2 29638.5 885.423   6
   3  -2   2 27313.6 880.716   4
  -3   2  -3 188.988 154.483  83
  -3   2  -3 251.752 168.991  87
  -3   2  -3 249.217 194.904  88
  -3   2  -3 235.610 135.348  76
  -3   2  -3 130.747 168.602  57
  -3   2  -3 178.136 174.878  64
   3  -2   3 180.527 112.019   4
   3  -2   3 161.617 146.023   6
  -3   2  -4 40557.1 1210.00  83
  -3   2  -4 41800.3 1234.20  87
  -3   2  -4 44010.4 1314.95  88
  -3   2  -4 42256.4 1254.45  64
  -3   2  -4 45465.1 1338.94  57
   3  -2   4 42683.8 1152.57   6
   3  -2   4 43305.8 1120.92   5
  -3   2  -5 470.099 191.747  83
  -3   2  -5 443.077 190.561  87
  -3   2  -5 188.977 202.060  88
  -3   2  -5 348.701 148.421  76
  -3   2  -5 350.347 193.269  57
  -3   2  -5 347.944 213.847  64
  -3   2  -5 371.882 169.141  59
   3  -2   5 309.676 168.432   5
  -3   2  -6 10771.6 539.449  87
  -3   2  -6 11812.4 648.688  88
  -3   2  -6 12285.4 640.341  64
  -3   2  -6 11373.7 578.086  59
  -3   2  -6 11105.9 607.170  57
   3  -2   6 13366.5 502.201   5
   3  -2   6 12519.1 508.000   8
  -3   2  -6 11904.1 594.177  83
  -3   2  -6 10877.4 489.450  76
  -3   2  -7 681.927 205.042  87
  -3   2  -7 717.926 258.936  88
  -3   2  -7 799.297 278.815  64
  -3   2  -7 732.532 227.043  57
   3  -2   7 1326.69 222.254   5
   3  -2   7 1254.88 303.201  15
   3  -2   7 1128.39 273.731   8
  -3   2  -7 844.231 258.009  83
  -3   2  -8 10736.7 529.227  87
  -3   2  -8 11765.4 667.109  88
  -3   2  -8 12622.8 761.964  64
  -3   2  -8 12687.3 627.299  57
   3  -2   8 13979.7 638.902  17
   3  -2   8 9368.50 520.972   9
   3  -2   8 11536.2 550.703   8
   3  -2   8 12596.4 573.060  15
  -3   2  -8 12611.4 700.115  83
   3  -2   9 4641.29 487.357  17
   3  -2   9 4177.51 342.777   9
   3  -2   9 4119.75 422.859   8
   3  -2   9 5780.47 387.314  15
  -3   2  -9 4258.20 336.131  87
  -3   2  -9 4530.03 438.443  88
  -3   2  -9 5107.42 554.342  64
  -3   2  -9 4924.54 391.928  57
   3  -2   9 4446.55 438.018  25
  -3   2  -9 5010.37 542.891  83
   3  -2  10 6204.81 382.408   9
   3  -2  10 7768.12 494.807  17
   3  -2  10 6885.98 396.768  15
  -3   2 -10 6445.83 492.552  88
  -3   2 -10 7631.38 622.103  64
   3  -2  10 7562.68 488.895  25
  -3   2 -10 6845.37 703.144  83
   3  -2  11 1557.89 320.102  17
  -3   2 -11 1598.79 285.218  88
  -3   2 -11 1676.81 364.706  64
   3  -2  11 1870.70 309.776  25
  -3   2 -11 1134.86 349.924  83
  -3   2 -12 1032.87 227.481  88
  -3   2 -12 1301.39 317.268  64
   3  -2  12 861.475 185.714  22
   3  -2  12 802.377 223.924  25
  -3   2 -12 1107.08 287.055  83
  -3   2 -13 6594.38 478.433  64
   3  -2  13 5855.31 327.308  22
  -3   2 -13 6240.83 444.426  83
   3  -2  13 5441.32 307.591  78
   3  -2  14 51.8055 101.097  78
  -3   2 -14 104.478 152.309  83
  -3   2 -14 62.1492 189.125  64
  -3   2 -15 22170.6 718.406  64
   3  -2  15 17919.5 593.316  66
  -3   1  16 1049.63 123.440  90
  -3   1  15 4257.47 267.883  90
   3  -1 -15 5914.48 284.978  68
   3  -1 -14 3726.56 281.906  68
  -3   1  14 3756.41 286.897  43
  -3   1  14 3107.81 259.981  90
   3  -1 -14 2998.79 218.104  50
   3  -1 -13 6635.82 399.081  68
  -3   1  13 5383.44 364.158  90
   3  -1 -13 7247.38 404.325  51
   3  -1 -13 7340.57 399.626  38
  -3   1  13 5822.52 405.696  43
   3  -1 -12 125.895 273.888  38
  -3   1  12 98.8890 165.925  43
   3  -1 -12-63.9130 197.679  20
   3  -1 -12 164.378 287.709  51
  -3   1  11 14853.7 668.061  90
   3  -1 -11 17299.5 690.977  38
   3  -1 -11 16535.0 666.309  40
  -3   1  11 16016.8 796.620  43
   3  -1 -11 19006.1 742.270  79
   3  -1 -11 15047.6 755.926  20
   3  -1 -11 17270.6 709.375  51
   3  -1 -10 42.8679 287.125  79
   3  -1 -10 215.673 342.421  38
   3  -1 -10-109.051 234.523  20
  -3   1  10 90.5237 165.704  90
   3  -1  -9 31144.1 1202.86   4
  -3   1   9 36112.1 1183.46  90
   3  -1  -9 41869.7 1251.79  79
   3  -1  -9 45527.8 1153.57  40
  -3   1   9 41145.0 1478.41  43
  -3   1   9 38356.8 1234.67  69
   3  -1  -9 41799.1 1374.39  20
   3  -1  -9 47934.0 1393.59  24
   3  -1  -9 39422.1 1163.55  45
  -3   1   8 1817.41 257.759  90
  -3   1   8 2851.95 365.458  43
   3  -1  -8 2468.79 305.723   4
  -3   1   8 2321.48 298.797  69
   3  -1  -8 2986.89 372.132  20
   3  -1  -8 3926.45 412.975  24
   3  -1  -8 3462.44 294.965  45
  -3   1   7 11499.5 532.819  90
  -3   1   7 11488.7 649.225  43
   3  -1  -7 13514.1 665.096  13
   3  -1  -7 11449.8 619.902   4
  -3   1   7 12305.9 610.839  69
   3  -1  -7 11270.7 630.855  20
   3  -1  -7 13785.8 507.721  45
   3  -1  -7 11856.1 452.368  48
  -3   1   6 12308.8 536.792  90
  -3   1   6 15188.2 710.516  43
   3  -1  -6 13585.8 666.503   7
   3  -1  -6 13311.8 677.249   4
   3  -1  -6 16486.3 707.127  13
  -3   1   6 13900.1 651.910  69
   3  -1  -6 16138.1 690.263  24
   3  -1  -6 13398.6 661.582  20
   3  -1  -6 14744.4 473.467  48
  -3   1   5 9556.00 519.846  69
   3  -1  -5 8704.28 494.359  24
   3  -1  -5 8558.94 505.683   7
   3  -1  -5 7602.21 505.664   4
   3  -1  -5 9686.17 519.560  13
  -3   1   5 9127.73 530.453  43
  -3   1   4 20729.1 807.349  43
  -3   1   4 17907.2 654.817  87
  -3   1   4 19518.8 769.580  69
   3  -1  -4 20596.1 780.105   7
   3  -1  -4 17590.3 776.946   4
   3  -1  -4 20218.0 755.910  13
   3  -1  -4 18618.0 715.858  24
  -3   1   3 20241.1 781.975  43
  -3   1   3 18276.8 663.757  87
  -3   1   3 19024.2 627.509  88
  -3   1   3 19418.9 747.981  69
   3  -1  -3 17507.0 657.775  24
   3  -1  -3 19376.7 728.375   7
  -3   1   2 38833.4 1139.67  87
  -3   1   2 39042.4 1101.26  88
  -3   1   2 42972.3 1260.26  43
  -3   1   2 41780.3 1225.82  69
  -3   1   2 41229.6 1206.89  58
  -3   1   2 42169.2 1153.88  57
   3  -1  -2 40930.7 1184.30   7
   3  -1  -2 37756.6 1233.94   4
  -3   1   1 85.0926 151.828  87
  -3   1   1 150.552 130.862  88
  -3   1   1 211.739 165.971  83
  -3   1   1 154.578 153.894  43
  -3   1   1 8.09949 151.829  69
  -3   1   1-28.6778 168.724  73
  -3   1   1 53.4128 136.742  58
  -3   1   1 6.89853 139.613  57
   3  -1  -1 76.5574 131.115  13
   3  -1  -1 92.7243 126.893   7
   3  -1  -1 106.163 140.254   4
  -3   1   0 16744.7 722.652  91
  -3   1   0 15855.3 633.278  87
  -3   1   0 15719.3 619.133  88
  -3   1   0 17380.3 663.747  83
  -3   1   0 18348.8 707.740  43
  -3   1   0 16092.5 633.544  73
  -3   1   0 17648.0 656.240  64
  -3   1   0 16828.0 646.642  57
  -3   1   0 17531.9 653.653  58
   3  -1   0 16462.4 671.589   4
   3  -1   0 14356.6 587.116   7
  -3   1  -1 495.544 176.387  87
  -3   1  -1 460.816 183.796  91
  -3   1  -1 578.603 177.513  88
  -3   1  -1 656.538 183.294  83
  -3   1  -1 851.476 193.694  43
  -3   1  -1 646.924 183.388  73
  -3   1  -1 693.737 167.854  58
  -3   1  -1 866.350 199.966  64
  -3   1  -1 861.210 191.675  57
   3  -1   1 755.129 160.944   4
  -3   1  -2 47255.7 1337.06  83
  -3   1  -2 46634.7 1326.31  87
  -3   1  -2 46530.8 1344.30  88
  -3   1  -2 47392.7 1398.26  91
  -3   1  -2 50574.9 1318.88  73
  -3   1  -2 42462.5 1252.44  76
  -3   1  -2 49491.6 1356.85  64
  -3   1  -2 50764.0 1420.70  59
  -3   1  -2 48850.5 1380.89  57
  -3   1  -2 50638.9 1316.84  58
   3  -1   2 44815.4 1291.46   4
   3  -1   2 48858.7 1280.46   6
  -3   1  -3 4538.40 344.157  83
  -3   1  -3 4437.44 338.448  87
  -3   1  -3 4699.57 369.974  88
  -3   1  -3 4513.10 364.874  91
  -3   1  -3 4356.37 301.697  76
  -3   1  -3 4489.76 354.427  64
  -3   1  -3 4470.48 361.851  59
  -3   1  -3 4617.16 366.240  57
   3  -1   3 4772.97 305.311   6
  -3   1  -4 32153.5 1056.57  83
  -3   1  -4 33111.2 1039.28  87
  -3   1  -4 31390.0 1059.37  91
  -3   1  -4 33013.3 1091.21  88
  -3   1  -4 29943.1 950.701  76
  -3   1  -4 33591.7 1084.27  64
  -3   1  -4 32240.9 1089.31  59
  -3   1  -4 33162.2 1076.34  57
   3  -1   4 33001.9 947.547   6
   3  -1   4 34430.8 937.221   5
  -3   1  -5 34564.6 1124.38  87
  -3   1  -5 37321.4 1226.42  88
  -3   1  -5 37474.5 1225.67  64
  -3   1  -5 36140.1 1204.28  59
  -3   1  -5 37000.3 1205.03  57
   3  -1   5 43379.8 1067.37   5
   3  -1   5 40831.6 1027.42   8
  -3   1  -5 36771.0 1203.87  83
  -3   1  -5 35339.0 1066.09  76
  -3   1  -6 18234.2 743.541  87
  -3   1  -6 21500.6 876.093  88
  -3   1  -6 22105.1 899.499  64
  -3   1  -6 19710.8 831.116  59
  -3   1  -6 19982.9 822.202  57
   3  -1   6 22920.5 702.972   5
   3  -1   6 23083.5 704.622   8
   3  -1   6 21620.9 739.288  15
  -3   1  -6 20568.7 865.337  83
  -3   1  -7 25500.5 919.351  87
  -3   1  -7 28723.5 1079.96  88
  -3   1  -7 30312.3 1143.60  64
  -3   1  -7 29798.2 1040.51  57
  -3   1  -7 27800.1 1034.02  59
   3  -1   7 30994.7 894.606   5
   3  -1   7 34849.4 963.699  17
   3  -1   7 24984.8 910.222   9
   3  -1   7 32328.5 902.152   8
   3  -1   7 29388.3 911.070  15
  -3   1  -7 30971.4 1161.93  83
  -3   1  -8 964.774 217.611  87
  -3   1  -8 980.130 269.279  88
  -3   1  -8 893.434 299.197  64
  -3   1  -8 594.155 214.274  57
   3  -1   8 1191.01 388.967  17
   3  -1   8 673.605 224.066   9
   3  -1   8 834.213 252.055  15
   3  -1   8 919.370 328.421   8
  -3   1  -8 984.337 367.414  83
   3  -1   9 4366.86 340.402   9
   3  -1   9 5102.53 464.231  17
   3  -1   9 4535.65 328.619  15
  -3   1  -9 3976.73 409.832  88
  -3   1  -9 3940.49 467.122  64
   3  -1   9 4632.02 425.443  25
  -3   1  -9 5645.87 857.107  83
  -3   1 -10 1245.09 278.811  88
   3  -1  10 2577.30 315.856  25
   3  -1  10 1776.14 237.561   9
   3  -1  10 2186.89 339.886  17
  -3   1 -10 1797.22 553.202  83
  -3   1 -11 24427.2 1029.30  64
   3  -1  11 21823.6 746.921  22
   3  -1  11 24816.6 772.193  25
  -3   1 -11 25096.5 1113.60  83
  -3   1 -12 180.454 237.880  64
   3  -1  12 139.643 150.921  22
   3  -1  12 97.2732 202.528  25
  -3   1 -12 414.796 257.263  83
  -3   1 -13 4230.80 376.896  83
   3  -1  13 3389.71 243.602  78
  -3   1 -13 4748.69 403.768  64
  -3   1 -14 1823.79 244.549  83
  -3   1 -14 2329.94 280.619  64
  -3   1 -15 107.291 122.985  83
  -3   1 -15 136.762 136.362  64
   3  -1  15 3.93865 108.485  66
  -3   0  16 337.301 97.4809  90
  -3   0  15 3310.49 241.429  90
   3   0 -15 4062.11 252.198  68
  -3   0  15 4180.08 281.998  43
   3   0 -14 1010.04 211.757  68
  -3   0  14 1018.91 182.256  90
   3   0 -14 1255.33 171.042  50
  -3   0  14 1302.41 205.704  43
  -3   0  13 5933.12 379.741  90
  -3   0  13 6585.06 451.623  43
   3   0 -12 5099.61 390.890  38
  -3   0  12 4129.55 407.040  43
   3   0 -12 4210.39 384.743  20
   3   0 -12 5060.43 399.424  51
   3   0 -11 11267.4 584.534  79
  -3   0  11 8166.81 483.478  90
   3   0 -11 10096.7 540.090  38
  -3   0  11 9805.93 697.614  43
   3   0 -11 10555.4 513.437  40
   3   0 -11 8162.88 558.761  20
   3   0 -11 10564.2 615.651  24
   3   0 -11 9865.21 546.269  51
   3   0 -10 33396.1 1051.65  38
   3   0 -10 34809.3 1101.41  79
  -3   0   9 4262.76 349.885  90
   3   0  -9 5858.69 460.595  79
   3   0  -9 5914.37 471.386  13
   3   0  -9 4858.39 400.705   4
   3   0  -9 6199.77 495.519  24
   3   0  -9 5029.42 453.353  20
   3   0  -9 6924.58 521.243  34
   3   0  -9 4989.46 371.830  40
  -3   0   9 6137.51 606.092  43
   3   0  -8 9328.29 562.192  34
   3   0  -8 10193.6 443.907  40
  -3   0   8 9352.86 642.158  43
   3   0  -8 7217.72 498.434   4
   3   0  -8 9274.93 567.592  13
  -3   0   8 8067.62 470.966  69
   3   0  -8 9788.10 592.959  24
  -3   0   8 7316.92 437.668  90
  -3   0   7 2021.06 313.677  43
   3   0  -7 1897.60 290.791   7
   3   0  -7 2259.82 294.802   4
   3   0  -7 1771.16 302.653  13
  -3   0   7 2025.69 273.719  74
  -3   0   7 2175.39 278.268  69
   3   0  -7 2370.18 364.219  34
  -3   0   7 1658.02 225.692  90
  -3   0   6 24607.7 911.946  74
  -3   0   6 24728.4 895.089  69
   3   0  -6 25550.6 952.090   7
   3   0  -6 26649.1 960.565  13
   3   0  -6 23575.8 969.504   4
   3   0  -6 25416.8 887.632  34
  -3   0   6 25240.9 994.599  43
  -3   0   5 5028.68 370.625  69
  -3   0   5 4438.81 332.545  55
   3   0  -5 4964.56 384.892   7
   3   0  -5 5211.95 394.883  13
   3   0  -5 5051.24 395.483  34
  -3   0   5 4937.46 404.056  43
  -3   0   4 32639.6 1095.84  43
  -3   0   4 28794.6 873.425  87
  -3   0   4 31032.6 1008.36  69
  -3   0   4 28944.0 975.950  55
   3   0  -4 30482.9 1016.38   7
   3   0  -4 32194.1 1016.69  13
   3   0  -3 28275.4 921.209  13
   3   0  -3 29643.7 966.996   7
  -3   0   3 28907.4 1014.16  43
  -3   0   3 26528.9 846.402  87
  -3   0   3 27072.9 843.780  88
  -3   0   3 27779.9 943.422  69
  -3   0   3 26915.3 938.047  58
  -3   0   3 27298.3 948.038  55
   3   0  -2 13022.8 506.629   1
   3   0  -2 13720.4 483.363   2
   3   0  -2 14334.9 523.465   3
  -3   0   2 12848.6 533.218  87
  -3   0   2 12959.3 531.184  88
  -3   0   2 13573.0 655.785  91
  -3   0   2 14004.7 641.375  43
  -3   0   2 13040.4 584.369  58
  -3   0   2 13643.6 616.687  55
   3   0  -1 8105.71 396.390   1
   3   0  -1 9650.46 399.093   2
  -3   0   1 7916.51 419.696  87
  -3   0   1 8112.46 417.445  88
  -3   0   1 7587.47 490.644  91
  -3   0   1 9317.45 489.052  83
  -3   0   1 9080.82 499.161  43
  -3   0   1 8748.55 454.453  58
  -3   0   1 8383.67 486.488  55
   3   0   0 6469.23 364.758   1
  -3   0   0 7100.54 400.426  87
  -3   0   0 7407.16 408.652  88
  -3   0   0 7329.85 468.273  91
  -3   0   0 7722.16 443.566  83
  -3   0   0 7373.66 445.951  43
  -3   0   0 7629.12 428.434  73
  -3   0   0 6184.65 371.818  76
  -3   0   0 7268.73 422.063  64
  -3   0   0 7160.91 409.144  57
  -3   0   0 7470.25 463.543  59
  -3   0   0 7324.88 404.497  58
  -3   0   0 7435.82 454.952  55
   3   0   1 48231.0 1329.15   1
  -3   0  -1 47627.6 1347.94  87
  -3   0  -1 46682.8 1342.56  88
  -3   0  -1 47664.1 1449.95  91
  -3   0  -1 49582.3 1400.76  83
  -3   0  -1 53308.2 1441.12  43
  -3   0  -1 51065.6 1369.25  73
  -3   0  -1 44095.6 1295.17  76
  -3   0  -1 51195.2 1402.12  64
  -3   0  -1 52448.0 1400.99  57
  -3   0  -1 50331.4 1451.75  59
  -3   0  -1 51312.4 1351.11  58
  -3   0  -1 50763.1 1456.92  55
  -3   0  -2 1122.75 221.481  88
  -3   0  -2 946.403 203.286  87
  -3   0  -2 1077.71 231.014  91
  -3   0  -2 1115.95 228.116  83
   3   0   2 776.092 166.330   1
  -3   0  -2 1128.96 209.682  73
  -3   0  -2 788.446 175.519  76
  -3   0  -2 1028.72 219.298  64
  -3   0  -2 826.112 211.578  59
  -3   0  -2 1046.27 202.383  57
  -3   0  -2 1064.75 231.687  55
  -3   0  -3 28881.0 998.730  83
   3   0   3 28249.9 875.259   6
   3   0   3 30478.6 952.450   1
  -3   0  -3 32910.3 972.219  73
  -3   0  -3 28428.6 899.341  76
  -3   0  -3 29435.3 1002.50  64
  -3   0  -3 32341.6 1023.30  57
  -3   0  -3 28919.5 1028.91  59
  -3   0  -3 29274.8 955.921  87
  -3   0  -3 28603.2 979.189  88
  -3   0  -3 28792.1 1028.63  91
   3   0   4 3414.66 288.649   1
   3   0   4 3372.75 253.229   5
  -3   0  -4 2800.32 287.453  87
  -3   0  -4 2903.35 314.779  88
  -3   0  -4 2447.76 304.382  91
  -3   0  -4 3061.12 333.880  64
  -3   0  -4 3395.33 329.954  57
  -3   0  -4 3212.98 331.185  59
  -3   0  -4 3267.44 269.955  76
  -3   0  -4 3172.46 331.320  83
   3   0   5 35068.9 930.093   5
   3   0   5 34778.4 909.886   8
  -3   0  -5 30005.7 1003.68  87
  -3   0  -5 31725.4 1100.00  88
  -3   0  -5 30124.6 1081.97  91
  -3   0  -5 33226.9 1133.36  64
  -3   0  -5 33854.1 1104.91  57
  -3   0  -5 32335.6 1147.47  59
  -3   0  -5 31544.5 1133.60  83
   3   0   6 9524.51 413.204   5
   3   0   6 7514.17 446.444   9
   3   0   6 9286.22 435.924   8
  -3   0  -6 7711.65 459.810  87
  -3   0  -6 7905.11 513.040  88
  -3   0  -6 9133.03 570.857  64
  -3   0  -6 8513.97 550.495  59
  -3   0  -6 8234.55 558.484  83
   3   0   7 29629.1 896.621  17
   3   0   7 24474.9 864.008   9
   3   0   7 25829.0 849.245   8
  -3   0  -7 27440.7 936.179  87
  -3   0  -7 28433.7 1031.86  88
  -3   0  -7 30087.3 1126.13  64
  -3   0  -7 26879.5 1044.41  59
  -3   0  -7 30579.3 1177.88  83
  -3   0  -8 10823.1 759.732  83
  -3   0  -8 9242.78 556.260  88
   3   0   8 10244.1 492.070   9
   3   0   8 10442.7 542.230  17
  -3   0  -8 9293.92 630.081  64
  -3   0  -8 9067.98 565.450  59
   3   0   8 7932.03 484.800  25
  -3   0  -9 9352.89 783.632  83
  -3   0  -9 7352.34 496.190  88
   3   0   9 7749.81 419.626   9
   3   0   9 9915.61 482.959  17
  -3   0  -9 8629.69 619.600  64
   3   0   9 9927.04 482.959  25
  -3   0 -10 16854.7 738.340  88
   3   0  10 17284.3 633.216  22
   3   0  10 20856.7 669.763  25
  -3   0 -10 19936.6 1022.58  83
   3   0  11 4012.25 286.713  22
   3   0  11 3337.32 265.224  25
  -3   0 -11 3699.78 328.561  88
  -3   0 -11 4241.00 432.233  64
   3   0  11 4551.49 375.749  46
   3   0  12 18729.9 700.577  46
  -3   0 -12 18076.3 795.123  64
  -3   0 -12 17557.4 801.152  83
  -3   0 -13 215.437 196.550  64
   3   0  13 209.921 174.033  46
  -3   0 -13 87.0949 194.840  83
  -3   0 -14 9447.91 457.067  83
  -3   0 -14 9934.50 473.206  64
  -3   0 -15 522.187 134.509  83
  -3  -1  16 3016.48 190.598  90
  -3  -1  15 731.146 156.957  43
  -3  -1  15 629.173 141.154  90
   3   1 -15 577.273 118.618  50
   3   1 -15 776.279 165.874  68
   3   1 -14 8600.62 411.496  68
  -3  -1  14 7659.79 404.261  90
   3   1 -14 7778.91 363.333  50
  -3  -1  13 1174.88 247.319  43
  -3  -1  13 1013.97 197.000  90
   3   1 -13 818.156 185.021  50
   3   1 -13 1050.88 259.590  51
   3   1 -13 1172.34 275.806  79
   3   1 -12 10894.6 506.177  38
  -3  -1  12 10483.0 669.071  43
   3   1 -12 11065.3 611.278  24
   3   1 -12 10787.0 510.311  51
   3   1 -11 67.7346 269.376  79
  -3  -1  11 94.6487 158.604  90
   3   1 -11 107.295 295.806  38
   3   1 -11 67.4754 313.649  34
  -3  -1  11 21.9017 322.188  43
   3   1 -11 155.454 269.419  24
   3   1 -11 132.344 216.381  20
   3   1 -11 117.618 285.257  51
  -3  -1  10 16016.6 699.382  90
   3   1 -10 21065.7 809.722  79
   3   1 -10 20235.0 870.211  13
   3   1 -10 21013.8 885.607  24
   3   1 -10 16405.0 821.190  20
   3   1 -10 19853.5 750.699  38
   3   1 -10 21053.2 855.865  34
  -3  -1   9 14431.6 852.970  43
   3   1  -9 15374.2 711.030  34
   3   1  -9 12644.1 651.116   4
   3   1  -9 13470.6 694.847  13
  -3  -1   9 11883.2 604.596  74
   3   1  -9 15592.2 746.198  24
  -3  -1   9 10342.1 533.756  90
  -3  -1   8 8999.08 609.416  43
   3   1  -8 7239.00 497.817   7
   3   1  -8 8173.90 535.199  13
   3   1  -8 7559.80 514.179   4
  -3  -1   8 8265.63 508.854  74
   3   1  -8 8794.75 567.027  24
  -3  -1   8 7126.13 418.100  90
  -3  -1   7 10221.0 588.475  74
   3   1  -7 10112.8 583.063   7
   3   1  -7 10675.1 603.280  13
   3   1  -7 11473.9 635.235  24
   3   1  -7 11714.1 612.982  34
  -3  -1   7 10954.0 647.006  43
  -3  -1   6 4976.96 412.587  74
   3   1  -6 4855.75 393.287   7
   3   1  -6 4934.67 407.769  13
   3   1  -6 5551.75 362.940  16
  -3  -1   6 4972.35 358.154  55
  -3  -1   6 5304.40 441.472  43
  -3  -1   5 57441.0 1672.17  43
   3   1  -5 55191.3 1586.34   7
   3   1  -5 56228.7 1572.44  13
   3   1  -5 59131.6 1436.29  16
  -3  -1   5 51105.3 1582.28  74
  -3  -1   5 51720.9 1522.40  55
   3   1  -5 55147.2 1394.19  26
   3   1  -4 615.500 192.304   7
   3   1  -4 608.629 187.349   3
  -3  -1   4 476.370 211.849  43
  -3  -1   4 661.595 231.943  91
  -3  -1   4 758.149 221.899  74
  -3  -1   4 718.966 197.056  58
  -3  -1   4 532.428 184.054  55
   3   1  -3 41936.4 1128.72   3
   3   1  -3 38956.2 1034.24   2
  -3  -1   3 37294.7 1057.78  87
  -3  -1   3 40955.3 1125.61  88
  -3  -1   3 37483.5 1261.92  91
  -3  -1   3 40417.9 1273.23  43
  -3  -1   3 37346.5 1232.54  74
  -3  -1   3 39727.8 1192.47  58
  -3  -1   3 37881.3 1217.96  55
   3   1  -2 13310.8 482.754   2
   3   1  -2 11991.2 475.271   1
   3   1  -2 13610.9 525.355   3
  -3  -1   2 10977.0 478.433  87
  -3  -1   2 10996.9 496.575  88
  -3  -1   2 10622.0 596.407  91
  -3  -1   2 12437.9 602.536  83
  -3  -1   2 12585.1 615.878  43
  -3  -1   2 9304.69 470.373  76
  -3  -1   2 11857.6 548.821  58
  -3  -1   2 11745.4 596.305  55
   3   1  -1 10249.5 434.464   2
   3   1  -1 9056.94 424.131   1
   3   1  -1 10056.6 447.699   3
  -3  -1   1 9318.02 445.448  87
  -3  -1   1 9060.82 451.796  88
  -3  -1   1 9183.83 551.433  91
  -3  -1   1 9781.45 529.090  83
  -3  -1   1 9668.55 523.223  43
  -3  -1   1 8097.95 427.280  76
  -3  -1   1 9138.68 524.640  59
  -3  -1   1 9809.93 478.604  58
  -3  -1   1 9410.06 531.932  55
   3   1   0 943.020 161.453   1
   3   1   0 835.612 163.891   2
  -3  -1   0 562.937 161.485  87
  -3  -1   0 623.508 178.682  88
  -3  -1   0 599.492 214.642  91
  -3  -1   0 1032.95 229.470  83
  -3  -1   0 982.477 204.991  43
  -3  -1   0 879.112 207.905  73
  -3  -1   0 826.638 180.918  76
  -3  -1   0 1026.78 187.184  58
  -3  -1   0 1123.72 226.384  64
  -3  -1   0 652.767 220.628  63
  -3  -1   0 692.215 207.445  59
  -3  -1   0 667.792 201.190  55
  -3  -1  -1 34626.4 1088.09  87
  -3  -1  -1 36152.7 1112.87  88
  -3  -1  -1 35077.0 1219.53  91
  -3  -1  -1 38139.0 1188.86  83
   3   1   1 38399.3 1104.36   1
  -3  -1  -1 39207.1 1129.99  73
  -3  -1  -1 36106.2 1075.67  76
  -3  -1  -1 39338.3 1174.54  64
  -3  -1  -1 38688.1 1285.66  63
  -3  -1  -1 38262.8 1233.44  59
  -3  -1  -1 41398.0 1130.97  58
  -3  -1  -1 38559.4 1238.20  55
  -3  -1  -2 6605.80 395.759  87
  -3  -1  -2 6947.52 422.318  88
  -3  -1  -2 6403.67 463.911  91
  -3  -1  -2 6291.62 443.157  83
   3   1   2 7499.00 403.503   1
  -3  -1  -2 7139.66 406.387  73
  -3  -1  -2 6347.14 374.677  76
  -3  -1  -2 6937.90 439.047  64
  -3  -1  -2 6713.20 502.329  63
  -3  -1  -2 6566.38 470.887  59
  -3  -1  -2 6383.91 449.928  55
  -3  -1  -3 2494.58 247.859  76
  -3  -1  -3 2094.70 294.336  83
  -3  -1  -3 1984.71 260.359  87
  -3  -1  -3 2397.48 282.218  88
  -3  -1  -3 2554.12 334.772  91
   3   1   3 2089.38 235.173   1
   3   1   3 2007.34 205.290   5
  -3  -1  -3 2159.68 294.125  64
  -3  -1  -3 2353.61 321.409  63
  -3  -1  -3 2441.16 312.881  59
  -3  -1  -3 2001.15 284.697  55
  -3  -1  -4 24238.0 950.526  83
  -3  -1  -4 23048.3 840.945  87
  -3  -1  -4 24265.6 900.072  88
  -3  -1  -4 21879.8 938.568  91
   3   1   4 26965.2 751.790   5
   3   1   4 25857.2 724.051   8
  -3  -1  -4 25887.8 952.401  64
  -3  -1  -4 24350.3 1000.57  63
  -3  -1  -4 23740.4 977.644  59
  -3  -1  -4 25240.0 956.731  55
   3   1   5 5712.44 300.178   5
   3   1   5 6601.85 408.795  17
   3   1   5 4199.57 341.554   9
   3   1   5 5597.68 341.104   8
  -3  -1  -5 4896.29 374.589  87
  -3  -1  -5 4834.03 400.476  88
  -3  -1  -5 4764.17 421.925  91
  -3  -1  -5 4974.24 426.892  64
  -3  -1  -5 5321.47 463.613  59
  -3  -1  -5 5212.39 448.684  83
   3   1   6 13076.9 563.780   9
   3   1   6 14773.0 588.370  17
   3   1   6 11876.4 524.698   8
  -3  -1  -6 12790.3 633.761  88
  -3  -1  -6 11537.2 633.573  91
  -3  -1  -6 13912.3 707.647  64
  -3  -1  -6 13143.5 744.002  59
  -3  -1  -6 13801.3 738.679  83
  -3  -1  -7 649.300 291.330  83
  -3  -1  -7 313.472 213.404  88
   3   1   7 469.750 326.198  17
   3   1   7 545.254 200.490   9
  -3  -1  -7 345.833 253.665  64
  -3  -1  -7 533.611 254.543  59
   3   1   7 732.593 276.008  25
  -3  -1  -8 11253.2 740.738  83
  -3  -1  -8 8899.45 531.167  88
   3   1   8 10386.8 475.886   9
   3   1   8 12219.8 502.642  17
  -3  -1  -8 11218.2 668.102  64
  -3  -1  -8 9338.14 614.226  59
   3   1   8 10065.2 453.048  22
   3   1   8 12651.8 503.442  25
  -3  -1  -9 5331.76 408.187  88
   3   1   9 6025.60 341.407  22
   3   1   9 7051.81 364.404  25
  -3  -1  -9 6125.95 587.707  83
  -3  -1 -10 9211.61 599.480  64
   3   1  10 7767.97 385.730  22
  -3  -1 -10 8876.07 636.492  83
   3   1  11 9038.07 496.530  46
  -3  -1 -11 8703.29 548.079  64
   3   1  11 7050.00 358.946  22
  -3  -1 -11 7583.27 560.956  83
  -3  -1 -12 5251.66 406.387  64
   3   1  12 4084.92 274.321  66
   3   1  12 5083.88 367.423  46
  -3  -1 -12 4257.19 402.237  83
  -3  -1 -13 8790.85 459.556  64
   3   1  13 8089.60 409.452  46
  -3  -1 -13 8146.04 468.378  83
  -3  -1 -14 1574.06 213.755  83
  -3  -1 -14 1613.43 200.716  64
  -3  -2  16 1738.62 147.983  90
  -3  -2  15 1478.88 193.328  43
   3   2 -15 1255.30 177.522  68
  -3  -2  15 957.513 153.463  90
   3   2 -15 1217.84 142.023  50
   3   2 -14 6969.18 356.345  42
  -3  -2  14 8320.83 473.534  43
  -3  -2  14 6669.17 365.621  90
   3   2 -14 6939.90 340.783  50
   3   2 -14 9105.14 429.299  79
   3   2 -13 5058.29 381.613  79
  -3  -2  13 5103.32 415.497  43
   3   2 -13 5547.31 426.859  24
   3   2 -13 4636.06 304.171  50
   3   2 -12 183.770 315.001  34
  -3  -2  12 159.103 208.185  43
   3   2 -12 302.695 185.927  50
   3   2 -12 130.896 252.240  51
   3   2 -12 353.206 259.934  24
   3   2 -12 66.1814 198.413  20
   3   2 -12 343.956 270.112  79
   3   2 -11 12688.4 674.287  13
  -3  -2  11 11306.4 553.424  90
   3   2 -11 13911.2 648.828  79
   3   2 -11 14439.6 577.039  38
   3   2 -11 13845.9 693.760  34
  -3  -2  11 15073.1 868.558  43
   3   2 -11 14086.5 710.958  24
   3   2 -11 10362.6 635.992  20
   3   2 -11 13860.8 576.880  51
  -3  -2  10 2534.37 278.447  90
   3   2 -10 3760.21 368.329  38
   3   2 -10 3762.94 434.201  37
  -3  -2  10 3649.42 471.324  43
   3   2 -10 4295.84 459.282  34
   3   2 -10 3291.42 386.185  13
  -3  -2  10 2922.97 325.750  74
   3   2 -10 3546.89 366.455  51
   3   2 -10 3394.79 418.954  24
   3   2  -9 11472.2 633.228  34
   3   2  -9 9985.79 588.220   7
   3   2  -9 11553.2 639.737  13
   3   2  -9 9973.76 592.556   4
  -3  -2   9 10413.3 597.723  74
   3   2  -9 10755.5 550.094  51
   3   2  -9 12557.8 679.623  24
  -3  -2   8 752.959 253.777  74
   3   2  -8 702.707 252.192  13
   3   2  -8 669.011 219.671   7
   3   2  -8 966.053 269.985  26
   3   2  -8 710.551 312.656  38
   3   2  -8 814.765 308.091  37
  -3  -2   8 826.753 260.487  43
  -3  -2   7 25016.7 1026.87  43
   3   2  -7 23961.3 937.153   7
   3   2  -7 24917.6 957.896  13
  -3  -2   7 25728.5 1037.58  74
  -3  -2   7 22696.9 857.589  55
   3   2  -7 26459.0 837.676  26
  -3  -2   6 15239.6 743.338  43
  -3  -2   6 12982.1 619.032  55
  -3  -2   6 13927.5 726.898  74
  -3  -2   6 11436.5 510.361  76
  -3  -2   6 14211.3 652.945  58
   3   2  -6 14920.5 685.608   7
   3   2  -6 15914.0 613.243  16
   3   2  -5 22316.7 872.677   7
   3   2  -5 25288.7 835.475   3
   3   2  -5 24087.2 787.396  16
  -3  -2   5 24015.9 951.491  43
  -3  -2   5 23258.4 939.134  91
  -3  -2   5 22214.7 919.535  74
  -3  -2   5 22903.2 855.746  58
  -3  -2   5 22011.1 858.375  55
   3   2  -4 16000.5 623.688   3
   3   2  -4 14858.8 591.424  16
  -3  -2   4 15675.0 730.028  43
  -3  -2   4 12956.4 686.353  91
  -3  -2   4 14569.2 707.609  74
  -3  -2   4 11777.9 524.517  76
  -3  -2   4 14893.3 643.094  58
  -3  -2   4 13276.9 660.719  55
   3   2  -3 23872.1 792.035   3
   3   2  -3 22861.2 714.136   2
  -3  -2   3 20596.2 674.950  87
  -3  -2   3 21560.3 893.469  91
  -3  -2   3 24157.9 914.070  43
  -3  -2   3 22097.7 888.842  74
  -3  -2   3 18890.2 710.458  76
  -3  -2   3 22199.6 802.092  58
  -3  -2   3 22064.6 888.583  55
   3   2  -2 20948.2 731.493   3
   3   2  -2 22214.6 695.295   2
  -3  -2   2 17880.2 637.781  87
  -3  -2   2 20514.6 728.203  88
  -3  -2   2 17877.5 818.563  91
  -3  -2   2 21812.2 852.494  83
  -3  -2   2 21053.5 830.329  43
  -3  -2   2 17203.3 663.902  76
  -3  -2   2 18733.8 832.481  63
  -3  -2   2 18772.4 806.794  59
  -3  -2   2 19900.9 733.669  58
  -3  -2   2 19988.0 836.909  55
   3   2  -1 1793.26 207.568   2
   3   2  -1 1183.63 179.606   1
  -3  -2   1 1566.35 199.723  87
  -3  -2   1 1972.40 243.450  88
  -3  -2   1 2009.93 298.876  91
  -3  -2   1 2293.19 305.420  83
  -3  -2   1 2108.90 273.379  43
  -3  -2   1 1895.98 259.129  73
  -3  -2   1 1839.43 219.654  76
  -3  -2   1 1691.64 290.151  63
  -3  -2   1 1749.97 272.355  59
  -3  -2   1 1882.75 229.867  58
  -3  -2   1 1895.14 290.588  55
   3   2   0 39173.8 1100.44   1
   3   2   0 40642.2 1116.85   2
  -3  -2   0 34396.2 1056.34  87
  -3  -2   0 36524.1 1112.13  88
  -3  -2   0 34591.0 1245.60  91
  -3  -2   0 38104.4 1214.98  83
  -3  -2   0 39272.4 1205.44  43
  -3  -2   0 37405.6 1134.94  73
  -3  -2   0 34962.4 1075.64  76
  -3  -2   0 39180.0 1191.91  64
  -3  -2   0 36703.3 1294.78  63
  -3  -2   0 37054.3 1232.38  59
  -3  -2   0 40041.8 1129.22  58
  -3  -2   0 37457.1 1246.37  55
  -3  -2  -1 4877.09 343.055  87
  -3  -2  -1 4703.25 354.343  88
  -3  -2  -1 4893.85 426.837  91
  -3  -2  -1 5030.67 408.733  83
  -3  -2  -1 5640.18 355.201  76
   3   2   1 6360.87 364.735   1
   3   2   1 6497.60 379.942   2
  -3  -2  -1 5507.94 372.009  73
  -3  -2  -1 5595.75 403.008  64
  -3  -2  -1 5450.98 471.910  63
  -3  -2  -1 5251.52 430.771  59
  -3  -2  -1 5486.47 439.746  55
  -3  -2  -2 32314.0 1016.18  87
  -3  -2  -2 32385.7 1045.68  88
  -3  -2  -2 31300.6 1179.41  91
  -3  -2  -2 32442.9 1121.68  83
   3   2   2 33266.5 891.279   5
  -3  -2  -2 34133.9 1034.71  73
  -3  -2  -2 34357.8 1110.16  64
  -3  -2  -2 34319.5 1258.27  63
  -3  -2  -2 32403.2 1169.56  59
  -3  -2  -2 33020.2 1160.93  55
  -3  -2  -3 3512.23 371.771  83
  -3  -2  -3 3299.73 313.510  87
  -3  -2  -3 2956.83 307.726  88
  -3  -2  -3 2996.89 386.703  91
   3   2   3 3390.33 232.457   5
   3   2   3 3176.89 283.510   9
  -3  -2  -3 3453.82 357.987  64
  -3  -2  -3 3390.33 395.876  63
  -3  -2  -3 3228.08 385.851  59
  -3  -2  -3 3472.81 354.670  55
  -3  -2  -4 9145.56 576.370  83
  -3  -2  -4 9615.60 521.882  88
  -3  -2  -4 9325.96 616.408  91
   3   2   4 9821.59 381.639   5
   3   2   4 8313.86 435.448   9
  -3  -2  -4 9022.27 546.587  64
  -3  -2  -4 8886.15 609.072  63
  -3  -2  -4 8934.55 616.482  59
  -3  -2  -4 9024.32 547.614  55
   3   2   5 4085.58 310.425   9
  -3  -2  -5 3789.42 408.704  83
  -3  -2  -5 3562.04 382.840  64
  -3  -2  -5 3121.34 381.503  63
  -3  -2  -5 3637.43 436.566  59
  -3  -2  -5 3739.83 348.828  88
  -3  -2  -5 2905.67 391.085  91
   3   2   6 613.507 196.653   9
  -3  -2  -6 481.923 270.984  83
  -3  -2  -6 394.804 239.049  64
  -3  -2  -6 132.697 212.399  63
  -3  -2  -6 283.242 304.386  59
  -3  -2  -6 154.027 182.940  88
  -3  -2  -6 348.093 239.337  91
  -3  -2  -7 18740.1 775.267  88
   3   2   7 20900.1 699.258   9
  -3  -2  -7 21122.8 970.757  83
  -3  -2  -7 21556.6 907.922  64
  -3  -2  -7 20603.8 1006.54  59
   3   2   7 17819.2 628.450  22
  -3  -2  -8 981.360 214.693  88
  -3  -2  -8 764.970 298.809  83
  -3  -2  -8 998.417 295.420  64
  -3  -2  -8 847.501 275.515  59
   3   2   8 804.495 189.136   9
   3   2   8 830.417 167.859  22
  -3  -2  -9 14234.5 788.686  83
   3   2   9 12431.9 498.430  22
  -3  -2  -9 14790.9 738.334  64
  -3  -2  -9 12794.1 710.005  59
   3   2  10 126.858 159.049  44
  -3  -2 -10 22.2901 210.286  64
  -3  -2 -10 78.7731 191.150  59
   3   2  10-42.9472 122.835  22
  -3  -2 -11 11568.1 635.696  83
  -3  -2 -11 12171.3 607.641  64
  -3  -2 -12 744.969 224.592  83
   3   2  12 687.248 198.752  46
  -3  -2 -12 569.599 197.000  64
   3   2  12 532.062 118.508  66
  -3  -2 -13 8051.03 394.937  64
  -3  -2 -13 7574.16 424.485  83
   3   2  13 7253.29 312.725  77
  -3  -2 -14 2989.35 232.092  83
   3   3 -15 5475.24 274.766  68
  -3  -3  15 5227.85 280.521  90
   3   3 -15 5348.77 253.137  50
   3   3 -14 187.966 136.200  42
  -3  -3  14 137.160 144.971  43
  -3  -3  14 34.9417 115.505  90
   3   3 -14 101.478 124.899  50
   3   3 -14 174.470 200.479  79
   3   3 -13 7283.95 426.349  79
  -3  -3  13 7323.19 484.585  43
   3   3 -13 5978.84 336.486  50
   3   3 -13 7120.18 464.030  24
   3   3 -12 2914.27 361.271  24
   3   3 -12 1707.91 295.104  20
  -3  -3  12 1449.19 217.644  90
   3   3 -12 2321.46 333.300  79
   3   3 -12 2946.68 394.590  34
  -3  -3  12 2527.14 340.204  43
  -3  -3  12 2102.36 246.442  58
   3   3 -12 2155.62 242.722  50
   3   3 -11 6331.04 490.389  37
   3   3 -11 5862.35 489.918  34
  -3  -3  11 6500.68 528.057  43
   3   3 -11 5526.75 452.229  13
   3   3 -11 4060.05 326.265  14
  -3  -3  11 4580.71 389.303  74
   3   3 -11 5407.96 350.252  50
   3   3 -11 5551.40 368.055  51
   3   3 -11 6075.04 485.768  24
  -3  -3  10 6767.42 495.321  74
   3   3 -10 7485.70 524.329  13
   3   3 -10 8020.41 565.317  34
   3   3 -10 7650.37 530.719  37
  -3  -3  10 8024.60 584.261  43
   3   3 -10 8133.48 561.357  24
   3   3  -9 2127.79 372.319  37
   3   3  -9 1803.70 291.595   7
   3   3  -9 1886.77 315.907  13
  -3  -3   9 2468.36 362.154  74
  -3  -3   9 2152.15 280.837  58
   3   3  -9 2072.39 391.345  34
   3   3  -9 1932.34 317.855  26
  -3  -3   8 21595.5 959.861  43
   3   3  -8 20939.7 866.711   7
   3   3  -8 20554.9 874.571  13
  -3  -3   8 21170.6 1050.88  74
  -3  -3   8 19199.1 801.270  58
   3   3  -8 23113.1 800.572  26
  -3  -3   7 1119.32 229.059  55
  -3  -3   7 1198.94 273.789  43
   3   3  -7 1027.94 239.015   7
   3   3  -7 1514.54 278.590  16
  -3  -3   7 1560.32 372.471  74
  -3  -3   7 1285.71 233.818  58
   3   3  -7 1392.10 229.845  21
   3   3  -7 1364.28 278.248  26
  -3  -3   6 24417.4 968.528  55
  -3  -3   6 29804.8 1108.02  43
   3   3  -6 26076.1 999.967   7
   3   3  -6 30356.2 980.582   3
   3   3  -6 28576.9 928.725  16
  -3  -3   6 26639.7 1116.32  74
  -3  -3   6 26475.8 947.235  58
   3   3  -6 26666.9 893.913  26
   3   3  -6 28416.8 883.753  21
   3   3  -5-46.7604 187.336  21
   3   3  -5 51.1016 177.183   3
   3   3  -5 75.2037 227.992  16
  -3  -3   5-12.1427 183.363  43
  -3  -3   5 36.2985 207.174  91
  -3  -3   5-37.9961 205.371  74
  -3  -3   5-6.14936 121.943  76
  -3  -3   5-52.7747 152.978  58
  -3  -3   5 11.1132 173.707  55
   3   3  -4 4153.86 344.497   3
   3   3  -4 4357.11 362.002  16
  -3  -3   4 4397.65 397.144  43
  -3  -3   4 4149.36 408.172  91
  -3  -3   4 4027.27 399.707  74
  -3  -3   4 3955.23 291.208  76
  -3  -3   4 4228.93 392.708  63
  -3  -3   4 4454.27 345.520  58
  -3  -3   4 4719.86 415.251  55
   3   3  -3 3346.68 313.845   3
  -3  -3   3 2674.16 354.532  91
  -3  -3   3 2866.45 325.392  43
  -3  -3   3 2999.75 355.554  74
  -3  -3   3 2806.46 246.098  76
  -3  -3   3 2617.51 330.037  63
  -3  -3   3 3201.78 287.278  58
  -3  -3   3 3369.82 381.516  55
   3   3  -2 15871.1 657.525   3
   3   3  -2 17484.3 632.766   2
  -3  -3   2 14117.4 743.191  91
  -3  -3   2 18161.3 782.902  83
  -3  -3   2 17656.3 747.437  43
  -3  -3   2 16785.4 773.085  74
  -3  -3   2 14683.5 596.491  76
  -3  -3   2 15958.5 787.098  63
  -3  -3   2 15951.1 742.421  59
  -3  -3   2 16696.7 652.344  58
  -3  -3   2 15651.0 780.927  55
   3   3  -1 21230.0 712.194   2
  -3  -3   1 15935.1 800.202  91
  -3  -3   1 18291.4 797.828  83
  -3  -3   1 17654.6 665.524  76
  -3  -3   1 19541.8 781.469  43
  -3  -3   1 16610.7 705.978  73
  -3  -3   1 18170.0 863.257  63
  -3  -3   1 18026.3 811.169  59
  -3  -3   1 18377.8 839.647  55
   3   3   0 8688.39 446.092   2
  -3  -3   0 7898.02 455.780  88
  -3  -3   0 7469.93 543.288  91
  -3  -3   0 7869.00 506.356  83
  -3  -3   0 8379.24 480.124  43
  -3  -3   0 7667.44 450.628  73
  -3  -3   0 7695.36 573.557  63
  -3  -3   0 8314.24 534.493  59
  -3  -3   0 7433.73 516.194  55
  -3  -3  -1 8580.02 474.206  88
  -3  -3  -1 7289.39 552.122  91
  -3  -3  -1 7973.39 518.568  83
   3   3   1 8935.76 467.807   2
   3   3   1 7089.33 368.821   9
  -3  -3  -1 8162.54 448.684  73
  -3  -3  -1 8768.74 507.557  64
  -3  -3  -1 7492.77 594.399  63
  -3  -3  -1 7660.59 541.373  59
  -3  -3  -1 8157.80 538.873  55
  -3  -3  -2 5467.18 387.933  88
  -3  -3  -2 5097.55 493.852  91
  -3  -3  -2 5422.53 444.769  83
   3   3   2 5908.68 386.337   2
   3   3   2 5568.60 323.013   9
  -3  -3  -2 6214.83 387.045  73
  -3  -3  -2 5124.05 410.784  64
  -3  -3  -2 5556.23 531.169  63
  -3  -3  -2 5323.37 475.608  59
  -3  -3  -2 5239.85 440.408  55
  -3  -3  -3 9937.47 601.638  83
  -3  -3  -3 10195.4 536.347  88
  -3  -3  -3 10172.1 708.209  91
   3   3   3 10913.1 539.102   2
   3   3   3 10856.7 452.539   9
  -3  -3  -3 11110.1 589.611  64
  -3  -3  -3 10198.8 700.123  63
  -3  -3  -3 10426.3 664.942  59
  -3  -3  -3 10979.1 621.737  55
  -3  -3  -4 3904.98 407.997  83
  -3  -3  -4 3508.12 336.877  88
  -3  -3  -4 4433.15 519.294  91
   3   3   4 4708.11 359.565   2
   3   3   4 4198.59 292.357   9
  -3  -3  -4 4235.05 393.270  64
  -3  -3  -4 3885.65 441.480  63
  -3  -3  -4 4236.89 486.554  59
  -3  -3  -4 4065.37 386.851  55
  -3  -3  -5 27295.3 1095.31  83
  -3  -3  -5 27157.6 961.959  88
  -3  -3  -5 26096.2 1168.34  91
   3   3   5 27983.3 844.396   9
  -3  -3  -5 28810.8 1048.16  64
  -3  -3  -5 26330.2 1117.19  63
  -3  -3  -5 29700.9 1384.35  59
  -3  -3  -5 26969.5 1024.03  55
   3   3   6 21058.2 704.740   9
  -3  -3  -6 23028.0 912.598  64
  -3  -3  -6 18681.6 910.961  63
  -3  -3  -6 19183.9 784.887  88
  -3  -3  -6 18382.5 925.673  91
  -3  -3  -6 21473.0 959.260  83
  -3  -3  -7 18927.7 745.414  88
  -3  -3  -7 20497.1 1062.86  59
  -3  -3  -7 20810.9 940.527  83
  -3  -3  -8 4612.93 347.602  88
  -3  -3  -8 5362.36 453.544  64
  -3  -3  -8 4935.35 498.247  59
  -3  -3  -8 4706.55 457.288  83
   3   3   8 3738.94 258.433  22
  -3  -3  -9 3739.89 369.612  64
  -3  -3  -9 3749.68 405.975  59
   3   3   9 2740.42 223.317  22
   3   3   9 2956.04 275.055  19
  -3  -3 -10 13073.3 696.578  83
  -3  -3 -10 13891.8 644.908  64
  -3  -3 -10 12567.8 655.046  59
  -3  -3 -11 503.545 192.323  64
   3   3  11 638.795 171.882  44
  -3  -3 -11 495.076 214.950  83
  -3  -3 -12 11198.2 539.358  83
   3   3  12 11416.7 408.312  77
  -3  -3 -12 10748.5 465.058  64
  -3  -3 -13 64.0607 127.198  83
   3   4 -15 848.376 170.469  79
   3   4 -14 14586.9 526.641  79
   3   4 -14 13720.6 515.407  42
  -3  -4  14 15838.4 629.919  43
  -3  -4  14 10713.7 453.764  90
   3   4 -14 12109.3 450.372  50
  -3  -4  13 309.776 134.470  90
   3   4 -13 433.563 229.420  79
  -3  -4  13 233.244 142.859  74
   3   4 -13 403.897 168.077  42
  -3  -4  13 401.748 185.369  43
   3   4 -13 251.072 218.299  24
   3   4 -13 273.590 269.617  34
   3   4 -13 330.705 145.599  50
  -3  -4  12 8817.08 457.181  90
   3   4 -12 13496.6 640.004  34
  -3  -4  12 13043.3 670.301  43
   3   4 -12 10663.1 467.671  50
   3   4 -12 12544.1 621.347  24
  -3  -4  12 10988.9 549.342  74
   3   4 -11 393.327 330.511  37
  -3  -4  11 307.621 199.961  43
  -3  -4  11 86.3398 185.596  74
   3   4 -11 290.605 180.872  50
   3   4 -11 453.552 278.856  24
   3   4 -11 152.049 307.206  34
   3   4 -10 17353.8 775.992  34
   3   4 -10 17158.7 730.650  37
  -3  -4  10 17664.4 834.697  43
   3   4 -10 16119.3 749.830  13
   3   4 -10 15140.0 594.465  50
   3   4 -10 16274.2 776.557  24
   3   4  -9 11009.3 596.491  37
  -3  -4   9 10618.6 645.434  43
  -3  -4   9 10233.1 764.876  74
   3   4  -9 9801.84 571.848   7
   3   4  -9 9506.45 587.029  13
   3   4  -9 9043.18 473.112  14
   3   4  -9 9414.71 450.942  50
   3   4  -9 11682.5 572.588  26
  -3  -4   8 4853.32 397.936  55
   3   4  -8 5600.43 438.598   7
   3   4  -8 5392.89 444.343  13
  -3  -4   8 5277.96 378.638  58
   3   4  -8 6430.83 445.143  26
   3   4  -8 6713.73 401.894  21
  -3  -4   7 3258.38 352.467  55
  -3  -4   7 4202.95 406.388  43
   3   4  -7 3026.07 337.300   7
   3   4  -7 4048.60 380.266  16
  -3  -4   7 4724.48 589.963  74
  -3  -4   7 3475.53 307.669  58
   3   4  -7 3956.58 368.966  26
   3   4  -7 4008.30 335.227  21
   3   4  -6 3917.28 371.283  26
   3   4  -6 3684.01 333.333  21
  -3  -4   6 3638.54 408.294  91
  -3  -4   6 4026.76 399.390  43
   3   4  -6 3541.13 348.575   3
   3   4  -6 3729.83 364.992  16
  -3  -4   6 3566.08 443.653  74
  -3  -4   6 3861.81 314.734  58
  -3  -4   6 3726.54 383.635  55
   3   4  -5 31314.4 975.837  21
  -3  -4   5 26222.1 1088.33  91
  -3  -4   5 31680.0 1138.73  43
   3   4  -5 32315.1 1035.77   3
   3   4  -5 29925.8 996.528  16
  -3  -4   5 27036.5 1136.83  74
  -3  -4   5 28594.9 950.392  58
  -3  -4   5 27096.0 1103.05  55
  -3  -4   4 4589.40 436.364  91
  -3  -4   4 5272.77 425.091  43
   3   4  -4 4990.51 393.184   3
  -3  -4   4 4999.97 455.135  74
  -3  -4   4 4766.37 429.081  63
  -3  -4   4 4798.44 338.027  58
  -3  -4   4 4617.21 470.741  55
  -3  -4   3 36673.8 1339.41  91
  -3  -4   3 40951.5 1308.96  43
   3   4  -3 41390.4 1239.33   3
  -3  -4   3 38858.0 1351.25  74
  -3  -4   3 36578.8 1337.80  63
  -3  -4   3 40622.2 1331.97  59
  -3  -4   3 39961.1 1165.09  58
  -3  -4   3 41351.7 1480.14  55
   3   4  -2 59.6769 122.216  18
   3   4  -2-36.2162 202.510   3
  -3  -4   2 13.1901 206.171  91
  -3  -4   2 80.4499 158.677  43
  -3  -4   2 59.8472 204.948  74
  -3  -4   2 26.4247 192.376  73
  -3  -4   2-110.450 211.651  63
  -3  -4   2 11.7434 192.099  59
  -3  -4   2 100.293 239.413  55
   3   4  -1 11750.9 512.292  18
   3   4  -1 11959.4 533.662   2
   3   4  -1 9182.73 422.488  14
  -3  -4   1 9661.40 637.960  91
  -3  -4   1 11677.9 638.063  83
  -3  -4   1 11964.8 581.971  43
  -3  -4   1 11114.9 548.704  73
  -3  -4   1 11201.1 708.752  63
  -3  -4   1 11075.9 631.710  59
  -3  -4   1 10483.1 654.797  55
  -3  -4   0 1601.27 327.769  91
  -3  -4   0 1963.09 312.313  83
   3   4   0 2360.96 264.902   2
   3   4   0 1578.12 213.920  14
  -3  -4   0 1865.70 253.072  73
  -3  -4   0 2224.10 399.356  63
  -3  -4   0 1856.58 303.003  59
  -3  -4   0 1787.25 309.543  55
  -3  -4  -1 44294.1 1615.28  91
  -3  -4  -1 46849.9 1484.09  83
   3   4   1 51428.9 1393.56   2
   3   4   1 49551.9 1337.13  12
  -3  -4  -1 48206.8 1342.21  73
  -3  -4  -1 47464.1 1788.30  63
  -3  -4  -1 45549.6 1545.61  59
  -3  -4  -1 45541.5 1530.90  55
  -3  -4  -2 3127.47 365.881  83
  -3  -4  -2 3470.53 468.219  91
   3   4   2 4630.72 355.274   2
  -3  -4  -2 3943.44 525.393  63
  -3  -4  -2 3586.72 428.037  59
  -3  -4  -2 3675.66 391.450  55
  -3  -4  -3 8346.97 556.541  83
  -3  -4  -3 8892.57 774.959  91
   3   4   3 7508.49 373.811   9
  -3  -4  -3 8867.51 527.098  64
  -3  -4  -3 7982.76 673.255  63
  -3  -4  -3 8452.76 647.616  59
  -3  -4  -3 8788.97 565.234  55
  -3  -4  -4 9969.89 614.148  83
  -3  -4  -4 9848.38 888.823  91
   3   4   4 8898.52 413.680   9
  -3  -4  -4 9801.47 562.330  64
  -3  -4  -4 9143.16 667.111  63
  -3  -4  -4 10559.4 806.160  59
  -3  -4  -4 9199.81 569.851  55
   3   4   5 2054.64 243.337  19
  -3  -4  -5 2038.74 440.174  91
  -3  -4  -5 2783.33 338.214  64
  -3  -4  -5 2574.25 385.776  63
  -3  -4  -5 3190.54 756.893  59
  -3  -4  -5 2385.82 310.550  55
  -3  -4  -5 2548.83 361.941  83
   3   4   6 11760.5 540.890  19
  -3  -4  -6 12037.6 753.421  91
  -3  -4  -7 2289.16 357.352  83
  -3  -4  -7 2000.88 303.521  64
  -3  -4  -7 1780.08 309.192  63
  -3  -4  -7 1955.30 393.868  59
   3   4   7 1623.49 221.144  19
  -3  -4  -8 6683.96 444.460  64
  -3  -4  -8 6681.42 542.447  59
   3   4   8 5534.09 359.783  19
  -3  -4  -9 608.730 210.535  64
  -3  -4  -9 734.562 243.510  59
  -3  -4  -9 758.932 249.098  83
   3   4   9 1082.40 218.416  44
  -3  -4 -10 10121.3 557.155  83
  -3  -4 -10 10196.4 479.779  64
  -3  -4 -10 9106.39 525.605  59
   3   4  11 3422.23 265.602  44
  -3  -4 -11 3219.35 305.237  83
  -3  -4 -12 3534.71 270.332  83
   3   5 -15 2277.50 191.241  79
   3   5 -14 3333.55 250.777  42
  -3  -5  14 4236.05 302.223  43
   3   5 -14 3917.04 285.861  79
  -3  -5  13 5618.71 360.036  74
   3   5 -13 6602.61 371.815  42
   3   5 -13 7730.06 466.546  34
  -3  -5  13 7120.31 429.598  43
   3   5 -13 5867.97 312.445  50
   3   5 -13 6962.78 398.054  79
  -3  -5  12 5244.85 385.646  74
   3   5 -12 5088.33 352.080  42
   3   5 -12 6355.58 455.341  37
   3   5 -12 6020.31 457.251  34
  -3  -5  12 5618.90 416.830  43
   3   5 -12 4762.25 304.994  50
   3   5 -12 5775.17 433.289  24
   3   5 -11 7339.64 392.359  50
  -3  -5  11 7447.40 512.848  74
   3   5 -11 9705.47 578.267  34
   3   5 -11 9172.03 551.425  37
  -3  -5  11 9435.05 562.577  43
   3   5 -11 8731.30 497.418  67
   3   5 -11 8262.67 534.389  24
   3   5 -10 601.757 177.043  50
   3   5 -10 817.653 345.071  37
  -3  -5  10 928.263 248.724  43
  -3  -5  10 663.710 277.894  74
   3   5 -10 732.011 311.371  67
   3   5 -10 675.297 325.053  34
   3   5  -9 32557.6 1033.23  37
  -3  -5   9 29957.1 1114.23  43
   3   5  -9 24265.6 839.013  14
   3   5  -9 26835.5 1023.62  13
   3   5  -9 33843.2 1027.92  26
   3   5  -9 25780.1 841.621  50
  -3  -5   8 64.0183 180.075  43
   3   5  -8 240.583 222.551  14
   3   5  -8 67.2560 184.961   7
   3   5  -8 113.028 245.276  16
  -3  -5   8-87.1268 338.843  74
   3   5  -8 127.776 197.266  21
   3   5  -8 74.5566 256.189  26
   3   5  -8 126.416 150.059  50
  -3  -5   7 11667.7 697.429  36
   3   5  -7 11180.8 618.615   7
   3   5  -7 11983.9 609.731  16
   3   5  -7 10143.6 499.970  14
  -3  -5   7 11331.4 754.957  74
   3   5  -7 11686.7 589.655  26
   3   5  -7 13102.3 578.339  21
  -3  -5   7 9955.83 603.967  55
  -3  -5   6 3333.06 393.851  91
  -3  -5   6 4318.50 548.113  36
   3   5  -6 4504.23 406.551  16
   3   5  -6 4131.30 330.714  14
  -3  -5   6 3326.01 426.704  74
  -3  -5   6 3990.47 421.359  55
   3   5  -6 4775.95 405.599  26
   3   5  -6 4849.41 385.607  21
   3   5  -5 12631.7 594.188  21
  -3  -5   5 10787.3 660.394  91
  -3  -5   5 13429.9 942.240  36
  -3  -5   5 12367.9 644.212  43
   3   5  -5 12076.5 607.213   3
   3   5  -5 11826.4 612.834  16
   3   5  -5 9901.62 481.247  14
  -3  -5   5 11383.7 678.033  74
  -3  -5   5 9484.74 600.107  63
  -3  -5   5 10779.1 715.671  55
  -3  -5   4 20196.9 953.493  91
  -3  -5   4 24976.2 1137.21  36
  -3  -5   4 24749.9 934.060  43
   3   5  -4 25406.7 913.130   3
   3   5  -4 21286.8 731.782  14
  -3  -5   4 21597.9 965.102  74
  -3  -5   4 21336.7 949.780  63
  -3  -5   4 25380.8 1264.88  55
  -3  -5   3 8895.75 611.304  91
  -3  -5   3 9440.43 538.248  43
   3   5  -3 10172.6 561.694   3
   3   5  -3 8823.48 428.306  14
  -3  -5   3 9795.10 618.367  74
  -3  -5   3 8834.02 510.076  73
  -3  -5   3 9258.79 614.882  63
  -3  -5   3 9729.58 585.994  59
  -3  -5   3 11189.9 802.465  55
   3   5  -2 26892.0 844.007  18
   3   5  -2 22599.7 735.167  14
   3   5  -2 25814.6 932.299   3
  -3  -5   2 20679.3 990.992  91
  -3  -5   2 26944.5 932.850  43
  -3  -5   2 24240.1 867.074  73
  -3  -5   2 22165.8 1050.35  63
  -3  -5   2 23779.2 984.905  59
  -3  -5   2 23490.7 1099.46  55
   3   5  -1 2002.22 240.666  18
  -3  -5   1 1465.05 340.915  91
  -3  -5   1 2197.29 340.771  83
   3   5  -1 1931.30 234.296  14
  -3  -5   1 2077.11 264.600  73
  -3  -5   1 2143.98 330.444  59
  -3  -5   1 1979.96 389.583  63
  -3  -5   1 2232.47 361.072  55
   3   5   0 9881.92 495.273  18
  -3  -5   0 8010.76 625.379  91
  -3  -5   0 9632.97 583.727  83
  -3  -5   0 8804.43 461.233  73
  -3  -5   0 9716.96 799.401  63
  -3  -5   0 8371.62 585.080  59
  -3  -5   0 8752.88 599.691  55
  -3  -5  -1 3668.18 383.971  83
  -3  -5  -1 4345.49 519.966  91
   3   5   1 3625.87 310.082  12
  -3  -5  -1 4591.59 779.802  63
  -3  -5  -1 3598.12 414.185  59
  -3  -5  -1 3284.97 393.799  55
  -3  -5  -2 53818.8 1680.59  83
  -3  -5  -2 55585.6 2072.52  91
   3   5   2 60671.8 1571.30  12
  -3  -5  -2 59429.6 2205.65  63
  -3  -5  -2 54171.1 1816.09  59
  -3  -5  -2 54295.4 1723.73  55
  -3  -5  -3 1444.73 305.532  83
  -3  -5  -3 1064.06 782.304  91
   3   5   3 1628.66 244.111  12
  -3  -5  -3 951.516 362.678  63
  -3  -5  -3 1407.45 342.372  59
  -3  -5  -3 1476.58 287.818  55
   3   5   4 13012.1 613.788  12
  -3  -5  -4 14532.7 1138.26  91
  -3  -5  -4 13446.7 709.151  83
   3   5   5 2182.13 276.948  12
  -3  -5  -5 2106.25 429.729  91
  -3  -5  -5 2532.91 354.113  83
  -3  -5  -6 3643.42 418.648  63
  -3  -5  -6 4133.57 496.466  59
   3   5   6 2896.22 272.073  30
  -3  -5  -7 3624.82 401.187  91
  -3  -5  -7 4470.76 413.631  63
  -3  -5  -7 4623.35 475.499  59
   3   5   7 4558.94 320.506  30
  -3  -5  -7 5154.97 439.373  83
  -3  -5  -8 14038.7 707.319  59
  -3  -5  -8 13849.6 660.440  83
  -3  -5  -9 11042.4 564.154  83
  -3  -5  -9 10428.1 579.235  59
   3   5  10 91.5215 122.417  44
  -3  -5 -10-23.6498 139.201  59
  -3  -5 -10-14.8826 151.866  83
  -3  -5 -11 3548.30 258.678  83
   3   6 -14 194.117 164.986  79
  -3  -6  13 7040.91 375.338  74
   3   6 -13 6459.71 351.428  42
  -3  -6  13 7157.18 388.159  43
   3   6 -13 6949.41 383.069  79
   3   6 -12 3414.41 329.597  67
  -3  -6  12 2940.03 297.247  74
   3   6 -12 3323.73 279.818  42
   3   6 -12 3915.37 378.452  37
   3   6 -12 3748.09 372.426  34
  -3  -6  12 3604.34 312.280  43
   3   6 -11 7265.56 379.709  50
  -3  -6  11 8590.59 524.219  74
   3   6 -11 8413.89 453.780  42
   3   6 -11 10031.9 545.631  37
   3   6 -11 8983.29 540.480  34
  -3  -6  11 9629.02 519.732  43
   3   6 -11 9560.99 499.446  67
   3   6 -11 8244.58 515.280  24
   3   6 -10 2898.35 255.451  50
  -3  -6  10 3091.05 378.459  74
   3   6 -10 2738.40 286.095  42
   3   6 -10 3443.22 408.793  37
  -3  -6  10 3175.89 329.424  43
   3   6 -10 3012.11 366.141  67
   3   6 -10 2961.77 389.652  34
   3   6  -9 5161.84 457.900  37
  -3  -6   9 4874.37 399.201  43
  -3  -6   9 5250.60 508.882  74
   3   6  -9 5949.67 436.084  26
  -3  -6   9 4053.95 354.832  55
   3   6  -9 4089.69 296.883  50
  -3  -6   8 646.807 214.232  43
   3   6  -8 862.318 232.310  21
   3   6  -8 795.475 289.880  26
  -3  -6   8 688.551 221.569  55
   3   6  -8 600.834 166.118  50
   3   6  -8 417.621 230.961  14
   3   6  -8 814.718 273.855  16
   3   6  -7 5914.74 393.998  14
   3   6  -7 7558.12 494.872  16
   3   6  -7 7309.50 480.359  26
   3   6  -7 6995.66 441.247  21
  -3  -6   7 6265.64 582.507  36
  -3  -6   7 6593.55 465.103  43
  -3  -6   6 15045.2 1161.52  36
  -3  -6   6 12511.1 629.048  43
   3   6  -6 9486.70 487.511  14
   3   6  -6 12290.3 623.004  16
  -3  -6   6 10585.0 667.698  74
  -3  -6   6 9510.02 635.820  91
   3   6  -6 13057.2 626.205  26
   3   6  -6 12918.8 602.030  21
   3   6  -5 1062.27 270.766  21
  -3  -6   5 683.777 255.365  91
  -3  -6   5 1359.16 248.113  43
  -3  -6   5 1538.61 416.627  36
   3   6  -5 1027.27 249.101  14
   3   6  -5 904.466 309.715  16
  -3  -6   5 736.769 267.137  74
  -3  -6   5 897.478 243.151  63
  -3  -6   5 835.867 377.140  55
  -3  -6   4 9391.10 625.420  91
  -3  -6   4 10979.4 722.160  36
  -3  -6   4 9497.61 616.119  74
  -3  -6   4 9573.78 503.979  73
  -3  -6   4 8588.00 595.722  63
   3   6  -4 8723.70 450.589  14
   3   6  -4 10782.9 589.452  16
   3   6  -3 4958.03 337.203  18
   3   6  -3 4540.54 334.041  14
  -3  -6   3 4140.25 447.799  91
  -3  -6   3 4430.92 431.973  74
  -3  -6   3 4670.38 353.776  73
  -3  -6   3 4535.58 416.517  59
  -3  -6   3 4273.09 451.927  63
  -3  -6   3 5076.08 601.095  55
   3   6  -2 15694.1 618.298  18
   3   6  -2 12377.1 529.218  14
  -3  -6   2 13783.6 582.316  73
  -3  -6   2 13556.3 816.273  63
  -3  -6   2 13008.5 700.538  59
  -3  -6   2 14860.5 837.005  55
  -3  -6   2 12514.6 761.660  91
   3   6  -1 1285.30 214.444  18
  -3  -6   1 919.721 299.721  91
  -3  -6   1 1226.57 377.448  63
  -3  -6   1 951.191 256.617  59
  -3  -6   1 1176.13 308.293  55
   3   6   0 3707.37 321.108  18
  -3  -6   0 3862.82 386.207  83
  -3  -6   0 3940.89 484.572  91
  -3  -6   0 3361.85 393.617  59
  -3  -6   0 3553.65 696.823  63
  -3  -6   0 3280.91 402.044  55
   3   6   1 30585.2 1001.15  18
  -3  -6  -1 30281.2 1099.29  83
  -3  -6  -1 26835.6 1265.34  91
   3   6   1 32013.6 993.099  12
  -3  -6  -1 35273.4 2015.81  63
  -3  -6  -1 28271.5 1159.21  59
  -3  -6  -1 27715.5 1123.96  55
   3   6   2 2344.37 272.145  12
  -3  -6  -2 2170.26 465.805  91
   3   6   2 2403.29 282.679  18
  -3  -6  -2 2224.47 322.281  83
  -3  -6  -3 31113.6 1117.71  83
   3   6   3 33181.8 1038.14  12
  -3  -6  -3 33701.9 1574.04  91
  -3  -6  -3 29242.1 1107.01  55
   3   6   3 31610.6 1042.56  18
   3   6   4-127.912 249.236  18
  -3  -6  -4 493.563 279.068  63
  -3  -6  -4 562.428 287.739  59
   3   6   4 368.259 153.876  27
  -3  -6  -5 7978.43 611.911  91
  -3  -6  -5 8174.12 592.211  63
  -3  -6  -5 9345.02 666.428  59
   3   6   5 7791.19 427.389  27
  -3  -6  -5 9633.01 547.719  83
  -3  -6  -6 398.094 235.465  91
  -3  -6  -6 609.381 228.861  63
  -3  -6  -6 915.579 280.486  59
   3   6   6 754.612 172.000  27
  -3  -6  -6 798.386 225.701  83
   3   6   7 7578.48 393.448  27
  -3  -6  -7 8215.41 513.931  91
  -3  -6  -7 9542.91 511.475  83
   3   6   7 8840.72 456.945  53
  -3  -6  -7 9010.12 567.547  59
  -3  -6  -8 2051.62 256.731  83
  -3  -6  -8 2217.59 293.326  59
  -3  -6  -9 6081.85 349.530  83
   3   6   9 6668.98 346.566  44
  -3  -6  -9 5653.72 373.709  59
  -3  -6 -10 2256.65 193.145  83
   3   7 -14 2959.17 202.996  79
  -3  -7  13 820.580 155.217  74
   3   7 -13 714.583 195.355  79
   3   7 -12 6872.72 376.998  67
  -3  -7  12 5916.74 370.700  74
   3   7 -12 5945.74 342.027  42
   3   7 -12 7438.54 424.997  37
  -3  -7  11 191.200 172.386  74
   3   7 -11 154.795 149.167  42
   3   7 -11 246.792 277.283  37
   3   7 -11 215.866 247.493  67
   3   7 -11 106.182 257.684  34
   3   7 -10 6019.90 423.424  67
   3   7 -10 4474.45 325.037  42
   3   7 -10 4910.84 425.056  34
   3   7 -10 5795.30 441.686  37
  -3  -7  10 5251.18 423.966  74
   3   7  -9 1574.29 225.863  42
   3   7  -9 1978.02 356.144  37
  -3  -7   9 1430.71 237.497  55
   3   7  -9 2133.80 318.412  26
  -3  -7   9 1884.56 317.334  74
   3   7  -8 3924.48 314.354  42
  -3  -7   8 4740.71 440.640  74
  -3  -7   8 4230.44 378.259  55
   3   7  -8 5377.34 416.449  26
   3   7  -8 4949.77 365.048  21
   3   7  -7 6584.79 402.388  42
  -3  -7   7 8927.79 620.332  36
   3   7  -7 9341.29 531.172  16
  -3  -7   7 7504.14 547.478  74
  -3  -7   7 7399.02 433.625  73
  -3  -7   7 7830.13 537.773  55
   3   7  -7 9481.68 522.005  26
   3   7  -7 9472.51 490.611  21
   3   7  -6 6323.37 384.233  42
  -3  -7   6 9612.01 698.771  36
   3   7  -6 6746.51 418.073  14
   3   7  -6 8845.65 520.400  16
  -3  -7   6 8004.17 552.279  74
  -3  -7   6 8340.22 602.175  55
   3   7  -6 8637.92 511.784  26
   3   7  -6 9378.13 500.182  21
   3   7  -5 13777.7 626.501  21
   3   7  -5 10755.1 512.679  14
   3   7  -5 13591.6 650.443  16
  -3  -7   5 9615.09 632.694  91
  -3  -7   5 14634.5 810.698  36
  -3  -7   5 10719.3 636.422  63
  -3  -7   5 14426.2 883.481  55
   3   7  -4 1258.07 283.980  21
   3   7  -4 865.459 231.221  14
   3   7  -4 1140.85 316.001  16
  -3  -7   4 755.259 259.391  63
  -3  -7   4 1412.51 402.007  55
  -3  -7   4 1088.44 279.536  91
  -3  -7   3 7602.82 594.546  63
  -3  -7   3 7889.93 575.991  91
  -3  -7   2 92.4332 187.394  59
   3   7  -2 252.746 156.210  18
  -3  -7   2 247.190 236.852  91
   3   7  -1 9705.30 486.515  18
   3   7  -1 9459.10 490.942  23
  -3  -7   1 8005.07 685.218  63
  -3  -7   1 7788.11 534.263  59
  -3  -7   1 8103.95 580.340  55
  -3  -7   1 6757.01 567.480  91
   3   7   0 377.867 190.550  18
  -3  -7   0 244.768 341.192  63
  -3  -7   0 226.359 212.865  59
  -3  -7   0 497.123 235.380  55
  -3  -7   0 431.058 276.690  91
  -3  -7  -1 21742.9 935.530  55
  -3  -7  -1 22104.9 1178.43  63
  -3  -7  -1 21364.6 954.617  59
   3   7   1 25162.2 851.437  18
  -3  -7  -2 5666.42 438.467  55
  -3  -7  -2 5426.29 562.035  63
  -3  -7  -2 5408.20 467.657  59
   3   7   2 5173.01 375.876  18
   3   7   2 4026.91 321.202  31
  -3  -7  -2 5188.82 406.261  83
   3   7   3 3882.66 310.106  31
  -3  -7  -3 4982.77 537.626  91
  -3  -7  -3 5475.75 511.667  63
  -3  -7  -3 5378.01 484.194  59
  -3  -7  -3 4397.24 375.751  55
  -3  -7  -3 5624.76 410.760  83
  -3  -7  -4 4534.52 468.892  91
  -3  -7  -4 4670.75 450.673  63
  -3  -7  -4 5049.15 464.503  59
   3   7   4 3554.32 295.634  31
  -3  -7  -4 5132.56 386.632  83
  -3  -7  -5 1871.99 319.617  91
  -3  -7  -5 2061.29 304.697  63
  -3  -7  -5 2481.67 338.097  59
   3   7   5 1375.86 198.506  31
  -3  -7  -5 2431.05 277.381  83
  -3  -7  -6 9965.49 572.464  91
  -3  -7  -6 10927.9 572.079  63
  -3  -7  -6 11726.3 619.022  59
   3   7   6 11598.5 522.634  53
  -3  -7  -6 11718.2 523.813  83
  -3  -7  -7 332.693 147.523  83
  -3  -7  -7 409.783 174.349  91
  -3  -7  -7 373.414 182.507  59
  -3  -7  -8 4516.44 265.546  83
  -3  -7  -8 5164.12 347.974  59
   3   8 -13 1725.69 178.115  79
  -3  -8  12 1315.69 180.561  74
  -3  -8  11 3388.57 292.416  74
   3   8 -11 3333.17 257.103  42
  -3  -8  10 130.348 171.811  74
   3   8 -10-21.2795 248.387  34
   3   8 -10 11.7670 247.741  67
   3   8 -10-30.7809 132.472  42
   3   8 -10 116.218 260.575  37
  -3  -8   9 16058.7 713.268  74
  -3  -8   9 13181.6 598.478  55
   3   8  -9 19517.2 686.201  67
   3   8  -9 14124.2 571.712  42
   3   8  -9 19531.8 701.077  37
  -3  -8   8 31.3851 178.428  74
  -3  -8   8 121.264 167.767  55
   3   8  -8 224.349 238.315  26
   3   8  -8 70.9967 132.101  42
   3   8  -7 13047.9 583.452  26
   3   8  -7 14023.7 573.981  21
  -3  -8   7 10638.4 606.376  74
  -3  -8   7 11304.8 616.796  55
  -3  -8   6 329.096 202.970  74
   3   8  -6 351.468 211.808  21
   3   8  -6 291.148 244.596  26
  -3  -8   6 353.182 226.925  55
  -3  -8   6 211.652 196.974  91
   3   8  -5 5759.16 424.220  26
   3   8  -5 6379.05 417.822  21
  -3  -8   5 4178.47 384.527  63
  -3  -8   5 5977.82 505.143  55
  -3  -8   5 4220.61 405.121  91
  -3  -8   4 3740.51 391.090  63
  -3  -8   4 4716.97 468.320  55
  -3  -8   4 3558.54 391.613  91
  -3  -8   3 8295.31 582.349  63
  -3  -8   3 9189.32 604.079  55
  -3  -8   3 8483.88 577.340  91
   3   8  -2 10075.0 481.153  23
  -3  -8   2 8734.44 622.227  63
  -3  -8   2 8243.56 567.157  55
  -3  -8   2 8381.23 580.494  91
   3   8  -1 2817.58 280.720  23
  -3  -8   1 3167.52 428.835  63
  -3  -8   1 2835.53 315.420  59
  -3  -8   1 2496.47 334.640  55
  -3  -8   1 2515.67 363.386  91
   3   8   0 9995.09 492.400  23
  -3  -8   0 9952.69 703.114  63
  -3  -8   0 9326.50 547.612  59
  -3  -8   0 9229.21 560.163  55
  -3  -8   0 8961.11 619.091  91
   3   8   1 792.848 198.730  23
  -3  -8  -1 629.778 278.478  63
  -3  -8  -1 558.260 208.220  59
  -3  -8  -1 477.730 198.854  55
  -3  -8  -1 493.339 271.378  91
   3   8   2 8741.96 463.036  23
  -3  -8  -2 8963.89 616.163  91
  -3  -8  -2 8850.63 607.383  63
  -3  -8  -2 9949.77 567.986  59
  -3  -8  -2 8853.12 499.739  55
  -3  -8  -3 423.023 224.617  63
  -3  -8  -3 441.405 202.532  59
  -3  -8  -3 253.835 213.897  91
   3   8   3 113.984 140.051  39
  -3  -8  -4 8170.84 523.929  91
  -3  -8  -4 8057.91 513.969  63
  -3  -8  -4 8434.74 510.490  59
  -3  -8  -5 1066.92 240.724  91
   3   8   5 1098.07 184.279  53
  -3  -8  -5 995.815 210.248  63
  -3  -8  -5 1262.34 233.237  59
  -3  -8  -6 3667.65 304.903  91
  -3  -8  -6 4067.90 310.468  59
   3   9 -10 4877.95 324.011  67
  -3  -9   9 7536.67 384.571  55
   3   9  -9 10344.0 456.520  67
  -3  -9   8 5743.73 367.937  55
   3   9  -8 7880.19 428.762  37
  -3  -9   7 2364.34 272.606  55
   3   9  -7 2750.66 236.995  49
   3   9  -7 2532.61 256.600  80
  -3  -9   6 9411.79 531.255  55
   3   9  -6 9368.39 426.390  49
  -3  -9   5 269.722 195.472  55
   3   9  -5 295.046 141.251  49
  -3  -9   5 110.209 164.147  91
  -3  -9   4 7363.85 473.642  91
  -3  -9   4 7163.21 468.632  63
  -3  -9   3 71.1386 171.233  91
  -3  -9   3 74.3896 180.519  55
   3   9  -3 107.693 130.359  49
  -3  -9   3 21.5507 176.270  63
  -3  -9   2 6665.52 472.498  91
  -3  -9   2 6778.52 464.589  55
   3   9  -2 7936.56 388.268  49
  -3  -9   2 6095.25 472.789  63
  -3  -9   1 1327.02 269.504  91
  -3  -9   1 1937.20 272.220  55
   3   9  -1 1936.00 226.659  49
  -3  -9   1 1944.17 307.529  63
  -3  -9   0 2144.10 302.376  91
  -3  -9   0 2176.52 265.175  55
  -3  -9   0 2292.94 331.534  63
  -3  -9   0 1872.18 232.387  59
  -3  -9  -1 1087.72 245.504  91
  -3  -9  -1 924.685 243.396  63
  -3  -9  -1 940.550 190.661  59
  -3  -9  -1 922.953 187.293  55
  -3  -9  -2 2688.75 316.391  63
  -3  -9  -2 2672.72 272.854  59
  -3  -9  -2 3216.51 334.012  91
   3   9   2 2754.32 255.811  39
  -3  -9  -3 9092.86 503.034  91
  -3  -9  -3 9334.19 502.270  63
  -3  -9  -3 9619.12 463.526  59
  -3  -9  -4 258.256 163.076  91
  -3  -9  -4 223.759 146.527  63
  -3  -9  -4 103.657 124.662  59
  -3  -9  -5 4432.73 288.766  91
   3  10  -8 10865.8 433.293  67
   3  10  -7 1862.37 247.385  67
  -3 -10   7 1471.81 188.414  55
  -3 -10   6 6898.06 383.590  55
   3  10  -6 6806.79 317.629  80
  -3 -10   5 4159.54 317.583  55
   3  10  -5 3757.69 253.596  80
  -3 -10   4 2117.97 244.798  55
  -3 -10   4 1604.28 197.371  91
  -3 -10   3 8315.41 430.368  91
  -3 -10   3 9820.52 476.019  55
  -3 -10   3 9546.51 461.479  63
  -3 -10   2 1228.92 206.258  91
  -3 -10   2 1172.72 194.255  55
  -3 -10   2 1290.70 208.663  63
  -3 -10   1 5646.99 364.955  91
  -3 -10   1 6381.01 355.372  55
  -3 -10   1 6017.09 389.353  63
  -3 -10   0 176.587 151.455  91
  -3 -10   0 181.195 138.634  63
  -3 -10  -1 6579.57 381.273  91
  -3 -10  -1 6384.16 375.389  63
  -3 -10  -2 2697.89 238.838  91
  -4  12   1 64.3634 81.6444  87
  -4  12   0 4461.17 241.498  87
  -4  12  -1 38.5596 96.4971  87
  -4  12  -2 3429.71 224.074  87
  -4  12  -3 769.259 124.167  87
  -4  11   3 701.187 114.434  89
  -4  11   3 612.238 132.485  87
  -4  11   2 3602.93 223.952  89
  -4  11   2 3867.10 265.079  87
  -4  11   1 2243.10 193.417  89
  -4  11   1 2524.73 247.880  87
  -4  11   0 786.345 142.707  89
  -4  11   0 989.278 196.428  87
   4 -11   0 1092.89 129.962  86
   4 -11   0 1021.23 147.219  48
   4 -11   0 941.480 138.255  62
  -4  11  -1 3855.51 254.190  89
  -4  11  -1 4078.09 311.330  87
  -4  11  -2 1222.27 164.458  89
  -4  11  -2 1086.61 200.333  87
   4 -11   2 1491.66 164.939  48
  -4  11  -3 6847.33 382.853  87
   4 -11   3 7296.60 298.126  48
  -4  11  -4 5.89356 133.044  87
   4 -11   4 75.2956 147.488  65
  -4  11  -4 73.6472 136.642  57
  -4  11  -5 3860.64 261.365  87
   4 -11   5 3732.56 252.958  52
  -4  11  -5 4951.02 343.554  57
   4 -11   5 5298.15 296.329  65
  -4  11  -6 624.341 128.312  87
   4 -11   6 1067.74 171.266  65
  -4  11  -6 972.032 189.274  57
  -4  11  -7 1955.94 221.132  57
   4 -11   7 2363.59 198.634  65
   4 -11   8 190.630 101.199  65
  -4  11  -8 311.951 128.877  57
  -4  10   5 2144.70 174.653  89
  -4  10   5 2517.46 188.821  87
  -4  10   5 2486.52 203.800  69
  -4  10   4 328.236 124.763  89
   4 -10  -4 331.362 95.3301  86
  -4  10   4 331.059 129.751  87
   4 -10  -4 253.065 101.829  62
   4 -10  -4 526.142 144.939  45
  -4  10   4 408.559 134.166  69
  -4  10   3 5947.62 317.856  89
  -4  10   3 5937.16 372.657  87
   4 -10  -3 8183.87 319.998  86
  -4  10   3 6383.21 351.152  69
   4 -10  -3 6048.39 320.036  62
   4 -10  -3 8791.84 359.956  45
   4 -10  -3 8775.19 307.557  48
   4 -10  -2 49.6122 99.1193  35
  -4  10   2 10.6500 122.116  89
   4 -10  -2-4.09041 95.0419  86
  -4  10   2 126.619 185.095  87
   4 -10  -2 120.317 103.193  62
   4 -10  -2 29.3152 143.238  48
   4 -10  -1 14028.6 452.824  35
  -4  10   1 9523.21 436.968  89
  -4  10   1 9714.79 565.481  87
   4 -10  -1 12210.5 433.462  86
   4 -10  -1 9663.73 434.086  62
   4 -10  -1 12493.4 410.450  48
   4 -10   0 1733.32 169.588  33
   4 -10   0 1297.98 156.369  35
  -4  10   0 776.474 167.499  89
  -4  10   0 569.169 217.009  87
   4 -10   0 1199.42 155.418  86
   4 -10   0 1104.96 164.182  62
   4 -10   0 1261.98 189.282  48
   4 -10   1 9769.16 353.131  33
   4 -10   1 9013.26 356.930  35
  -4  10  -1 6263.81 356.334  89
  -4  10  -1 6112.16 433.884  87
   4 -10   1 6880.62 329.290  86
   4 -10   1 6404.69 345.140  62
   4 -10   1 7288.82 329.334  48
   4 -10   1 6610.09 380.945  52
   4 -10   2 6631.32 296.606  33
   4 -10   2 5953.98 288.736  35
  -4  10  -2 3849.70 284.927  89
  -4  10  -2 3855.49 343.135  87
   4 -10   2 4406.99 265.758  86
  -4  10  -2 4511.63 337.418  57
   4 -10   2 3775.74 306.696  52
   4 -10   3 5048.85 272.459  33
   4 -10   3 4534.07 257.758  35
  -4  10  -3 2907.16 298.852  87
   4 -10   3 3433.16 238.097  86
  -4  10  -3 4069.44 356.226  57
   4 -10   3 3389.94 287.626  52
   4 -10   4 18540.7 553.507  33
  -4  10  -4 12993.1 601.958  87
  -4  10  -4 16388.6 749.511  57
   4 -10   4 12879.5 560.824  52
   4 -10   4 17799.3 546.502  35
  -4  10  -5 2316.22 253.686  87
   4 -10   5 3204.89 272.387  52
   4 -10   5 3288.74 286.353  65
  -4  10  -5 2838.52 366.047  57
   4 -10   6 12865.5 502.688  52
   4 -10   6 12618.0 518.652  65
  -4  10  -6 12884.1 633.956  57
  -4  10  -7-106.143 119.442  87
   4 -10   7 77.5935 152.249  65
  -4  10  -7 8.76366 165.419  57
  -4  10  -8 3871.31 290.685  88
   4 -10   8 5793.61 297.713  52
  -4  10  -8 4273.67 332.980  57
   4 -10   8 5265.23 296.512  65
  -4  10  -9 142.977 127.241  88
  -4  10  -9 254.000 141.774  57
   4 -10   9 42.4247 115.314  65
   4 -10  10 5453.92 225.423  78
  -4  10 -10 7672.96 325.007  88
   4  -9  -7 4559.39 198.714  86
  -4   9   7 4791.63 276.885  69
   4  -9  -6 2069.13 160.073  86
  -4   9   6 2066.13 225.257  69
   4  -9  -5 8315.21 333.772  40
   4  -9  -5 5792.24 283.590  86
  -4   9   5 4921.39 316.503  87
  -4   9   5 6052.30 386.007  69
   4  -9  -5 5185.36 304.436  62
   4  -9  -5 8512.97 356.976  45
   4  -9  -4 3866.64 240.217  35
   4  -9  -4 5015.74 266.270  86
  -4   9   4 3620.33 319.566  87
  -4   9   4 3852.65 336.435  69
   4  -9  -4 4028.39 271.335  62
   4  -9  -4 5567.76 306.389  45
   4  -9  -4 5903.49 276.421  48
   4  -9  -3 3384.02 235.793  28
   4  -9  -3 2532.34 200.566  33
   4  -9  -3 2806.67 215.393  35
   4  -9  -3 3495.44 235.391  86
  -4   9   3 2438.45 239.703  89
  -4   9   3 2998.45 360.970  87
  -4   9   3 2659.01 293.990  69
   4  -9  -3 2506.48 230.820  62
   4  -9  -3 3323.39 236.814  48
   4  -9  -2 9846.67 398.503  28
   4  -9  -2 8468.50 352.683  33
   4  -9  -2 8560.64 373.044  35
   4  -9  -2 7358.46 355.746  86
  -4   9   2 6742.69 378.602  89
  -4   9   2 7199.03 682.362  87
  -4   9   2 6897.65 432.108  69
   4  -9  -2 6713.52 367.102  62
   4  -9  -2 8343.53 355.005  48
   4  -9  -1 1029.01 168.085  28
   4  -9  -1 727.344 148.384  33
   4  -9  -1 699.572 150.525  35
  -4   9   1 652.005 169.688  89
   4  -9  -1 753.438 144.668  86
  -4   9   1 468.940 277.966  87
  -4   9   1 684.653 197.075  69
   4  -9  -1 711.499 142.085  62
   4  -9  -1 626.750 183.702  48
   4  -9   0 6295.50 321.103  35
  -4   9   0 4160.41 309.584  89
  -4   9   0 4023.13 416.687  87
   4  -9   0 5292.47 296.849  86
   4  -9   0 4094.23 327.952  52
   4  -9   0 7068.64 336.884  28
   4  -9   0 6148.30 303.726  33
   4  -9   1 1682.80 189.571  28
   4  -9   1 1398.53 174.682  33
   4  -9   1 1585.35 183.416  35
  -4   9  -1 1213.23 203.814  89
  -4   9  -1 1010.06 264.044  87
   4  -9   1 1153.30 169.796  86
  -4   9  -1 1067.00 221.459  57
   4  -9   1 679.277 224.970  52
   4  -9   2 21307.9 608.735  33
   4  -9   2 20513.6 619.715  35
  -4   9  -2 14672.2 600.099  89
  -4   9  -2 14355.9 724.010  87
   4  -9   2 15639.9 575.096  86
  -4   9  -2 17760.8 768.269  57
   4  -9   2 17978.7 684.492  52
   4  -9   3 3455.43 238.864  33
   4  -9   3 3065.43 228.837  35
  -4   9  -3 1547.64 211.800  89
  -4   9  -3 1584.28 279.905  87
   4  -9   3 1576.55 193.982  86
  -4   9  -3 2194.52 357.526  57
   4  -9   4 22983.7 653.917  33
   4  -9   4 21399.4 645.604  35
  -4   9  -4 15225.4 727.251  87
   4  -9   4 14750.0 594.136  86
  -4   9  -4 23314.0 1359.91  57
   4  -9   4 27095.4 839.972  52
   4  -9   5 700.930 161.138  33
   4  -9   5 769.335 149.923  35
  -4   9  -5 661.167 374.444  57
  -4   9  -5 78.6333 172.599  87
   4  -9   6 7155.49 348.687  33
  -4   9  -6 6279.26 405.683  87
  -4   9  -6 5898.51 438.720  88
   4  -9   6 8538.56 443.010  65
  -4   9  -6 7579.76 563.825  57
  -4   9  -7 861.636 194.929  87
  -4   9  -7 1265.65 291.549  88
   4  -9   7 1817.91 254.995  65
  -4   9  -7 1592.30 288.780  57
  -4   9  -8 3355.49 334.639  57
   4  -9   8 3041.73 275.697  65
  -4   9  -9 11269.2 589.185  88
  -4   9  -9 13314.0 608.704  57
  -4   9 -10 19.9232 142.907  88
   4  -9  10-80.7702 118.935  65
  -4   9 -10-31.2665 126.189  57
  -4   9 -11 4528.23 272.563  88
   4  -9  11 3197.21 174.058  78
   4  -8  -9 2434.39 124.458  86
  -4   8   8 6912.39 353.169  69
   4  -8  -8 6168.37 259.944  86
   4  -8  -7 259.323 177.409  40
   4  -8  -7 94.0021 95.2042  86
  -4   8   7 226.938 151.798  69
   4  -8  -7 78.3971 93.0156  62
   4  -8  -7 285.867 163.028  45
   4  -8  -6 16766.2 510.204  40
  -4   8   6 12562.0 624.623  69
   4  -8  -6 10919.3 445.237  86
   4  -8  -6 9099.98 453.597  62
   4  -8  -6 15971.5 525.082  45
   4  -8  -5 381.333 137.691  28
  -4   8   5 595.867 248.693  69
   4  -8  -5 411.675 126.546  86
  -4   8   5 319.911 168.475  87
   4  -8  -5 266.783 120.555  62
   4  -8  -5 373.945 167.716  45
   4  -8  -5 369.475 176.489  48
   4  -8  -4 12120.5 482.158  28
  -4   8   4 12108.4 652.045  69
   4  -8  -4 12389.7 483.510  86
  -4   8   4 10525.5 600.389  87
   4  -8  -4 9904.82 473.382  62
   4  -8  -4 13406.3 454.055  48
   4  -8  -3 697.679 155.209  86
  -4   8   3 607.036 368.771  87
   4  -8  -3 1037.80 198.239  29
   4  -8  -3 978.890 181.031  28
   4  -8  -3 778.703 197.901  48
  -4   8   3 600.380 234.262  69
   4  -8  -2 12659.8 510.463  86
  -4   8   2 11669.9 926.406  87
   4  -8  -2 15665.5 579.391  29
   4  -8  -2 15009.1 557.847  28
   4  -8  -2 13306.0 487.819  48
  -4   8   2 12106.2 632.262  69
   4  -8  -1 3607.90 262.298  86
  -4   8   1 2915.83 276.934  89
  -4   8   1 3791.26 360.440  69
   4  -8  -1 3460.65 293.860  52
   4  -8   0 7205.27 370.201  35
   4  -8   0 6554.22 350.758  86
  -4   8   0 7425.17 474.605  69
   4  -8   0 7178.41 422.324  52
   4  -8   1 13441.2 500.969  28
   4  -8   1 11377.2 457.005  33
   4  -8   1 11596.1 475.592  35
   4  -8   1 9250.69 430.879  86
  -4   8  -1 10554.1 593.762  57
   4  -8   1 13323.1 594.167  52
   4  -8   2 8387.11 386.236  28
   4  -8   2 8303.99 381.238  33
   4  -8   2 8160.82 385.928  35
  -4   8  -2 7720.62 547.592  57
   4  -8   3 16263.0 572.967  35
   4  -8   3 18456.0 776.321  52
  -4   8  -3 16631.6 919.306  57
   4  -8   3 14811.8 547.857  28
   4  -8   3 17108.2 568.549  33
   4  -8   4 4865.51 293.132  35
  -4   8  -4 4815.71 656.214  57
   4  -8   4 5245.02 298.376  33
   4  -8   5 3635.67 247.037  35
  -4   8  -5 3268.34 451.172  57
   4  -8   5 4088.22 258.684  33
  -4   8  -5 3062.52 342.136  87
  -4   8  -5 2827.96 357.586  88
   4  -8   5 2632.74 240.119  86
  -4   8  -6 26.2541 236.940  57
   4  -8   6 248.391 149.961  33
  -4   8  -6 99.8685 180.587  87
  -4   8  -6-79.5370 311.701  88
  -4   8  -7 4651.42 360.872  87
  -4   8  -7 6480.41 865.664  88
   4  -8   7 7850.75 423.724  65
  -4   8  -7 6000.65 469.603  57
  -4   8  -8 155.939 142.997  87
  -4   8  -8 139.854 274.060  88
   4  -8   8 301.321 189.891  65
  -4   8  -8 218.060 204.729  57
  -4   8  -9 10278.6 581.283  88
  -4   8  -9 10749.6 551.221  57
   4  -8   9 10373.0 460.098  65
  -4   8 -10 3163.98 310.544  88
  -4   8 -10 3480.33 297.462  57
   4  -8  10 4133.85 254.506  65
   4  -8  10 4384.16 252.893  47
   4  -8  11 779.808 118.083  78
  -4   8 -11 1354.93 209.950  88
  -4   8 -11 1251.50 176.599  57
  -4   8 -12 2689.75 215.797  88
   4  -8  12 1720.45 128.900  78
   4  -7 -10 3208.23 154.608  86
   4  -7  -9 142.906 157.732  40
   4  -7  -9 7.10712 86.7354  86
  -4   7   9 82.6929 121.555  69
  -4   7   8 11419.6 540.062  69
   4  -7  -8 12263.4 492.881  45
   4  -7  -8 12262.8 467.575  40
   4  -7  -7 11513.0 447.352  38
   4  -7  -7 9802.14 401.428  40
  -4   7   7 7044.42 503.878  69
   4  -7  -7 5838.23 337.286  86
   4  -7  -7 7861.00 375.871  29
   4  -7  -7 6859.87 344.975  28
   4  -7  -7 9439.20 417.408  45
  -4   7   6 6296.39 635.325  69
   4  -7  -6 5636.09 336.249  86
   4  -7  -6 6486.00 356.691  29
   4  -7  -6 5315.55 321.372  28
   4  -7  -6 6576.32 389.359  32
   4  -7  -6 7645.08 377.827  45
   4  -7  -6 6854.11 335.490  48
  -4   7   5 3770.83 548.132  69
   4  -7  -5 3610.87 277.115  86
  -4   7   5 2709.99 304.476  87
   4  -7  -5 3482.70 282.053  29
   4  -7  -5 3237.67 270.146  28
   4  -7  -5 3607.48 309.674  32
   4  -7  -5 3935.30 271.886  48
  -4   7   4 868.812 299.830  69
   4  -7  -4 729.339 172.673  86
  -4   7   4 493.123 236.451  87
   4  -7  -4 757.798 195.172  29
   4  -7  -4 654.532 183.558  28
   4  -7  -4 963.319 212.877  32
   4  -7  -4 761.906 201.060  48
   4  -7  -3 11856.5 523.982  29
   4  -7  -3 11488.8 517.834  28
  -4   7   3 10359.4 639.711  69
   4  -7  -3 11358.4 450.521  48
  -4   7   2 142.632 218.356  69
   4  -7  -2 353.864 176.510  29
   4  -7  -2 41.0801 162.176  28
   4  -7  -2 402.121 181.391  32
   4  -7  -2 160.960 142.031  52
  -4   7   2 14.7071 250.850  87
   4  -7  -1 19500.4 684.999  29
   4  -7  -1 19313.3 684.530  28
   4  -7  -1 20348.0 694.151  32
   4  -7   0 446.529 174.661  29
   4  -7   0 376.881 162.120  28
  -4   7   0 147.944 178.234  57
  -4   7   0 212.545 229.822  87
  -4   7  -1 5407.01 469.651  87
   4  -7   1 6589.49 361.659  28
   4  -7   1 5947.22 450.907  52
   4  -7   2 6228.98 347.011  35
   4  -7   2 7043.28 357.074  29
   4  -7   2 6188.25 341.093  28
   4  -7   3 2008.75 215.607  35
  -4   7  -3 1903.74 314.083  87
   4  -7   3 1827.26 205.096  28
   4  -7   3 1801.66 209.409  33
   4  -7   4 21573.8 651.889  35
  -4   7  -4 15264.4 766.292  87
  -4   7  -4 15127.6 763.203  88
  -4   7  -4 19583.9 979.179  57
   4  -7   4 17333.7 591.771  28
   4  -7   4 21687.0 645.453  33
   4  -7   5 5142.02 293.894  35
   4  -7   5 4487.65 328.395  47
  -4   7  -5 4205.47 457.597  57
   4  -7   6 14467.7 512.876  35
  -4   7  -6 13079.1 737.307  57
   4  -7   6 13876.6 572.745  47
   4  -7   7 715.188 166.932  33
  -4   7  -7 352.840 197.673  87
  -4   7  -7 642.126 360.748  88
   4  -7   7 524.188 162.488  47
  -4   7  -7 695.917 262.304  57
  -4   7  -8 9427.15 488.024  87
  -4   7  -8 11158.0 670.818  88
   4  -7   8 10600.5 466.716  47
   4  -7   8 12893.8 536.602  65
  -4   7  -8 11439.4 616.476  57
  -4   7  -9 331.375 141.296  87
  -4   7  -9 382.812 234.902  88
   4  -7   9 488.087 152.932  47
   4  -7   9 338.451 183.403  65
  -4   7  -9 533.952 207.892  57
  -4   7 -10 13619.3 649.288  88
  -4   7 -10 14264.6 622.712  57
  -4   7 -11 273.024 170.202  88
  -4   7 -11 496.812 151.063  57
   4  -7  11 295.671 109.476  78
   4  -7  11 513.445 123.065  47
   4  -7  12 2811.86 176.556  78
  -4   7 -12 4245.61 286.543  88
  -4   7 -13 1739.77 166.271  88
   4  -6 -11 2151.59 130.304  86
  -4   6  10 557.472 145.448  69
   4  -6 -10 429.958 108.378  86
   4  -6 -10 556.995 172.712  40
   4  -6  -9 11000.5 427.271  38
   4  -6  -9 9583.41 416.651  40
   4  -6  -9 8084.60 375.553  86
  -4   6   9 9243.07 470.389  69
  -4   6   9 8258.53 390.460  58
   4  -6  -9 10704.6 425.054  51
   4  -6  -9 9642.18 438.979  45
   4  -6  -8 159.563 144.989  29
   4  -6  -8-36.1772 124.401  28
   4  -6  -8 63.8702 163.028  32
   4  -6  -8 54.2222 235.866  38
   4  -6  -8 30.0075 192.998  40
   4  -6  -8-51.9332 118.094  86
   4  -6  -8 77.9378 172.738  68
  -4   6   8 91.0036 188.906  69
  -4   6   8 13.8222 123.394  58
   4  -6  -8 47.4125 172.243  45
   4  -6  -7 9202.36 405.645  40
   4  -6  -7 5751.29 356.874  68
  -4   6   7 7901.35 601.453  69
   4  -6  -7 8983.97 417.589  45
  -4   6   7 6908.12 410.533  58
   4  -6  -7 7043.60 384.193  29
   4  -6  -7 6146.27 357.060  28
   4  -6  -7 8074.38 433.249  32
  -4   6   6-78.4916 482.241  69
   4  -6  -6 147.345 172.006  45
   4  -6  -6 157.587 187.874  48
  -4   6   6 16.6120 147.767  58
   4  -6  -6 132.536 174.202  29
   4  -6  -6 78.3399 188.954  32
  -4   6   5 14419.0 859.154  69
  -4   6   5 12158.4 576.664  58
   4  -6  -5 12846.7 581.588  29
   4  -6  -5 14580.0 619.825  32
   4  -6  -5 15044.3 509.438  48
  -4   6   4 233.530 156.952  58
   4  -6  -4 269.236 187.391  48
   4  -6  -4 321.998 191.760  29
   4  -6  -4 348.602 209.650  32
  -4   6   3 6785.82 522.127  87
   4  -6  -3 7493.70 439.324  29
   4  -6  -3 7578.53 360.414  48
   4  -6  -2 6507.74 401.821  29
   4  -6  -2 6893.51 410.635  32
  -4   6   2 5150.73 453.769  69
  -4   6   2 5280.59 470.519  87
  -4   6   1 4054.48 401.433  69
  -4   6   1 3484.15 400.013  87
   4  -6  -1 3254.36 293.920  52
   4  -6  -1 3605.79 310.570  29
   4  -6  -1 3807.62 316.274  32
   4  -6   0 21227.8 714.368  29
   4  -6   0 20055.9 692.586  28
   4  -6   0 22388.7 703.528  32
  -4   6   0 19779.2 842.800  69
  -4   6   0 19199.3 797.658  57
  -4   6  -1 3291.31 386.005  87
   4  -6   1 4058.19 299.284  29
   4  -6   1 3341.80 275.608  28
  -4   6  -1 4017.96 412.674  57
  -4   6  -2 4639.93 438.659  87
  -4   6  -2 4846.29 465.443  57
   4  -6   2 5158.12 312.517  29
   4  -6   2 4691.30 303.246  28
  -4   6  -3 3105.41 299.784  76
   4  -6   3 3952.47 270.842  35
  -4   6  -3 3402.99 375.304  87
  -4   6  -3 2861.68 340.503  88
   4  -6   3 4050.47 269.299  28
   4  -6   4 9680.58 412.074  35
  -4   6  -4 8492.05 559.612  87
  -4   6  -4 8783.60 567.418  88
   4  -6   4 9666.33 415.428  33
   4  -6   5 12613.8 468.315  35
   4  -6   5 14259.3 492.299  33
  -4   6  -5 9479.80 588.096  87
  -4   6  -5 10795.7 682.620  88
  -4   6  -6 11723.3 684.398  57
   4  -6   6 13077.1 468.525  33
  -4   6  -6 9848.00 568.665  87
  -4   6  -6 11241.8 734.530  88
  -4   6  -7 5790.07 482.551  57
   4  -6   7 5000.87 340.587  47
  -4   6  -8 536.754 236.149  57
   4  -6   8 1222.66 240.666  65
   4  -6   8 558.549 166.199  47
  -4   6  -8 752.105 203.630  87
  -4   6  -8 524.667 266.580  88
   4  -6   9 8756.49 508.601  25
  -4   6  -9 8634.72 437.383  87
  -4   6  -9 10072.7 590.813  88
   4  -6   9 12256.1 481.003  47
  -4   6  -9 10945.5 569.581  57
  -4   6 -10 786.565 236.188  88
  -4   6 -10 1041.99 221.991  57
   4  -6  10 1235.12 173.932  47
  -4   6 -11 12208.6 556.484  88
  -4   6 -11 13135.4 516.229  57
   4  -6  11 13336.7 447.548  47
  -4   6 -12-12.7046 136.347  88
   4  -6  12-13.8338 80.7001  78
  -4   6 -13 5485.06 284.148  88
   4  -5 -12 298.334 67.0765  86
  -4   5  11 5160.69 269.224  58
   4  -5 -11 4535.70 235.016  86
  -4   5  10 5292.58 338.057  69
   4  -5 -10 5721.21 327.437  68
   4  -5 -10 7230.50 358.034  51
  -4   5  10 5340.38 330.033  58
   4  -5 -10 7274.68 351.362  38
   4  -5 -10 7146.84 351.613  40
   4  -5  -9 9660.69 453.241  38
   4  -5  -9 9841.80 445.274  40
   4  -5  -9 10419.4 475.681  51
   4  -5  -9 9631.16 457.646  45
  -4   5   9 9205.67 495.370  69
   4  -5  -9 9667.45 439.525  68
  -4   5   9 9462.29 482.370  58
   4  -5  -9 10004.1 455.125  32
   4  -5  -8 13774.2 511.616  40
   4  -5  -8 10002.9 481.332  68
  -4   5   8 10150.9 586.662  69
   4  -5  -8 13140.8 528.493  45
  -4   5   8 10391.5 565.259  58
   4  -5  -8 9241.92 459.060  29
   4  -5  -8 11873.3 540.528  32
   4  -5  -7 2078.60 276.460  68
  -4   5   7 2706.69 383.744  69
   4  -5  -7 2606.37 271.245  45
   4  -5  -7 2398.55 256.750  48
  -4   5   7 2036.39 282.734  58
   4  -5  -7 1553.87 248.347  29
   4  -5  -7 2262.06 292.544  32
   4  -5  -6 13324.5 589.938  68
  -4   5   6 17225.2 894.173  69
  -4   5   6 16041.7 715.220  58
   4  -5  -6 14239.8 636.678  29
   4  -5  -6 16159.9 695.482  32
   4  -5  -6 18250.3 634.653  45
   4  -5  -6 17715.0 564.584  48
   4  -5  -5 524.157 225.034  29
   4  -5  -5 524.289 237.004  32
  -4   5   5 489.051 196.765  87
  -4   5   5 382.453 184.456  58
   4  -5  -5 435.691 195.514  48
  -4   5   4 16943.5 846.324  69
  -4   5   4 15661.3 747.327  87
   4  -5  -4 16433.3 710.860  29
  -4   5   3 320.059 218.587  87
   4  -5  -3 365.577 208.826  29
   4  -5  -3 435.748 229.111  32
  -4   5   3 280.459 233.455  69
  -4   5   2 15639.8 771.626  87
  -4   5   2 16777.2 806.236  69
  -4   5   2 16766.0 699.838  58
   4  -5  -2 16912.1 693.928  29
  -4   5   1 742.013 252.393  87
  -4   5   1 1230.08 281.226  69
  -4   5   1 867.813 196.720  58
  -4   5   1 1130.78 237.114  57
   4  -5  -1 984.355 234.889  29
   4  -5  -1 1301.70 242.549  32
   4  -5  -1 1251.29 244.817   6
  -4   5   0 18234.0 858.087  87
  -4   5   0 20328.9 838.985  57
  -4   5   0 20723.0 767.773  58
   4  -5   0 19845.2 726.348  29
  -4   5  -1 1590.34 312.504  87
  -4   5  -1 1775.86 309.699  57
   4  -5   1 1464.86 225.781  29
  -4   5  -2 9130.07 574.262  87
  -4   5  -2 8366.97 497.786  88
   4  -5   2 8326.19 399.448  28
  -4   5  -2 7418.87 461.171  76
  -4   5  -3 5946.05 403.011  76
  -4   5  -3 7494.31 563.329  57
  -4   5  -3 6185.44 484.536  87
  -4   5  -3 6482.46 468.340  88
   4  -5   4 2472.35 220.544  35
  -4   5  -4 2221.19 264.482  76
  -4   5  -4 2610.92 376.917  57
   4  -5   4 2251.45 277.179  10
  -4   5  -4 2748.76 343.906  87
  -4   5  -4 2963.83 380.342  88
   4  -5   5 10998.0 553.077  10
  -4   5  -5 11081.4 629.859  87
  -4   5  -5 11492.4 688.089  88
   4  -5   6 25.0777 182.128  10
  -4   5  -6 20.3790 202.661  87
  -4   5  -6 98.5842 250.535  88
   4  -5   6 110.701 129.171  33
  -4   5  -7 16526.8 807.376  57
  -4   5  -7 16543.7 838.803  88
  -4   5  -8 415.665 235.744  57
   4  -5   8 576.221 359.870  17
  -4   5  -8 399.410 196.782  87
  -4   5  -9 11676.6 572.729  64
  -4   5  -9 10761.0 567.142  57
   4  -5   9 8778.23 517.275  25
  -4   5  -9 8293.36 440.038  87
  -4   5  -9 10919.6 617.207  88
  -4   5 -10 7524.89 449.555  57
  -4   5 -10 6615.06 462.588  88
   4  -5  11 1056.40 177.210  54
   4  -5  11 1235.82 163.860  47
  -4   5 -11 1284.64 230.655  88
  -4   5 -12 5237.66 328.984  88
   4  -5  12 4949.89 246.715  47
  -4   5 -13 1081.57 154.220  88
  -4   4  12 10350.6 396.553  58
   4  -4 -12 10412.2 384.690  68
   4  -4 -11 428.724 173.001  68
   4  -4 -11 615.008 194.966  51
  -4   4  11 350.205 134.873  58
   4  -4 -11 547.000 190.308  38
   4  -4 -11 400.488 176.688  40
   4  -4 -10 13578.9 517.761  38
   4  -4 -10 12551.5 498.465  40
   4  -4 -10 13358.3 527.023  51
   4  -4 -10 12904.1 519.044  68
  -4   4  10 10749.6 508.280  69
  -4   4  10 11369.3 561.126  58
   4  -4 -10 12183.0 508.736  32
   4  -4  -9 622.915 268.686  38
   4  -4  -9 425.894 221.161  40
   4  -4  -9 603.143 215.210  45
  -4   4   9 714.584 199.602  69
   4  -4  -9 587.652 224.737  68
  -4   4   9 263.107 232.743  58
   4  -4  -9 439.483 177.716  29
   4  -4  -9 620.363 212.033  32
   4  -4  -8 8269.43 407.635  40
  -4   4   8 6754.64 481.462  69
   4  -4  -8 6544.43 418.646  68
   4  -4  -8 8437.73 431.900  45
  -4   4   8 6922.50 550.694  58
   4  -4  -8 5330.38 374.073  29
   4  -4  -8 6301.02 438.455  32
   4  -4  -7 4733.81 381.385  68
  -4   4   7 5592.82 479.533  69
   4  -4  -7 6772.43 376.505  45
   4  -4  -7 5801.82 335.624  48
  -4   4   7 4755.61 450.069  58
   4  -4  -7 4453.03 366.734  29
   4  -4  -7 5620.00 442.967  32
   4  -4  -6 3732.22 358.726  68
   4  -4  -6 6382.24 365.320  45
   4  -4  -6 5603.87 323.696  48
  -4   4   6 4564.11 413.961  58
   4  -4  -6 5142.50 435.091  32
  -4   4   5 6749.16 528.013  69
   4  -4  -5 7291.53 349.063  48
   4  -4  -5 6992.95 494.361  32
  -4   4   4 6671.65 453.730  87
  -4   4   4 5970.85 492.011  69
  -4   4   4 6431.86 463.154  58
   4  -4  -4 6966.82 474.809  32
   4  -4  -3 15191.7 686.806   6
  -4   4   3 12233.0 645.968  87
  -4   4   3 11933.7 692.290  69
  -4   4   3 12463.9 632.983  58
   4  -4  -3 15959.1 688.425  32
   4  -4  -2 1325.10 246.539   6
  -4   4   2 971.895 267.345  87
  -4   4   2 903.890 272.246  69
  -4   4   2 1259.48 215.929  73
  -4   4   2 1083.73 231.740  58
  -4   4   2 1177.80 231.245  57
   4  -4  -2 1215.25 263.871  32
   4  -4  -1 15970.7 696.722   6
  -4   4   1 13130.3 692.272  87
  -4   4   1 15551.6 626.640  73
  -4   4   1 14978.9 675.584  57
  -4   4   1 14242.1 653.886  58
   4  -4  -1 16993.8 671.849  32
  -4   4   0 728.031 252.420  87
   4  -4   0 1369.09 247.938   6
  -4   4   0 1189.08 225.191  58
  -4   4   0 1122.41 254.963  57
  -4   4  -1 13921.9 716.955  87
  -4   4  -1 13662.5 641.060  88
  -4   4  -1 16631.9 754.480  57
   4  -4   1 16114.9 677.534   6
  -4   4  -2 4414.37 363.330  76
  -4   4  -2 4443.69 427.645  87
  -4   4  -2 4514.03 393.648  88
  -4   4  -2 5726.61 465.607  57
   4  -4   2 6366.65 413.113   6
  -4   4  -3 12304.5 605.971  76
  -4   4  -3 13840.2 710.617  87
  -4   4  -3 14353.7 699.970  88
  -4   4  -3 15999.6 788.234  57
   4  -4   3 13505.0 584.858  10
   4  -4   3 15820.8 597.795   5
  -4   4  -4 4532.87 353.966  76
  -4   4  -4 4985.12 438.431  87
  -4   4  -4 4800.64 442.058  88
  -4   4  -4 4923.37 452.852  57
   4  -4   4 4296.15 360.344  10
  -4   4  -5 4745.77 350.203  76
  -4   4  -5 5166.04 394.156  64
  -4   4  -5 6158.36 500.317  57
  -4   4  -5 5175.81 433.111  87
  -4   4  -5 5137.51 460.210  88
   4  -4   5 4375.50 361.113  10
   4  -4   5 5732.71 390.165   8
  -4   4  -6 8319.34 512.964  87
   4  -4   6 7323.04 452.245  10
  -4   4  -7 4034.40 396.934  64
  -4   4  -7 4129.82 410.057  57
  -4   4  -7 3680.34 352.642  87
  -4   4  -7 3937.23 420.159  88
   4  -4   7 4837.48 420.540  15
  -4   4  -8 10819.9 621.146  64
  -4   4  -8 10302.0 593.414  57
   4  -4   8 10672.3 577.167  17
  -4   4  -9 1605.72 344.630  64
  -4   4  -9 1613.53 271.248  57
   4  -4   9 1128.50 329.821  25
  -4   4  -9 1540.92 226.419  87
  -4   4  -9 1427.10 280.369  88
   4  -4  10 16932.6 611.206  25
  -4   4 -10 15504.8 772.964  64
  -4   4 -11 839.622 216.635  88
   4  -4  11 796.174 170.206  54
  -4   4 -11 1076.20 246.344  64
  -4   4 -12 4324.24 312.993  64
  -4   4 -12 4084.94 294.847  88
  -4   4 -13 1367.88 156.327  88
   4  -3 -12 6472.07 322.008  68
  -4   3  12 5781.42 324.068  58
   4  -3 -12 6814.81 309.504  51
   4  -3 -11 2370.50 253.361  68
   4  -3 -11 2623.52 264.994  38
   4  -3 -11 2436.10 251.172  40
  -4   3  11 2018.84 248.783  58
   4  -3 -11 2597.08 264.134  51
   4  -3 -10 3239.44 337.579  51
   4  -3 -10 2688.68 294.156  68
   4  -3 -10 3115.13 320.901  38
   4  -3 -10 2736.87 286.656  40
  -4   3  10 3133.30 383.187  58
   4  -3 -10 2934.19 295.458  32
   4  -3  -9 2958.69 302.022  45
   4  -3  -9 2900.20 316.867  68
  -4   3   9 2694.12 298.798  69
   4  -3  -9 3974.50 382.813  38
   4  -3  -9 3017.11 303.737  40
  -4   3   9 3786.69 942.186  58
   4  -3  -9 2046.05 258.520  29
   4  -3  -9 2979.14 332.469  32
   4  -3  -8 3725.91 312.352  45
  -4   3   8 2420.16 323.768  69
   4  -3  -8 2711.81 328.685  68
  -4   3   8 3078.29 483.604  58
   4  -3  -8 2749.85 346.898  32
   4  -3  -8 3776.98 314.351  40
  -4   3   8 2638.63 290.489  43
  -4   3   7 25506.7 1083.59  58
  -4   3   7 26314.2 979.956  43
  -4   3   6 3795.80 361.078  43
   4  -3  -6 3930.57 300.079  45
   4  -3  -6 3948.55 288.372  48
   4  -3  -6 2867.75 339.332  20
  -4   3   5 10358.6 595.715  58
  -4   3   5 10072.8 519.128  73
  -4   3   5 10664.6 631.840  69
  -4   3   5 11286.4 588.203  43
   4  -3  -4 1355.57 251.699   6
  -4   3   4 800.096 230.546  58
  -4   3   4 571.434 207.242  87
  -4   3   4 886.904 268.859  69
  -4   3   4 676.905 205.117  73
   4  -3  -3 10554.6 565.601   6
  -4   3   3 9863.51 564.697  58
  -4   3   3 9969.73 547.445  87
  -4   3   3 9701.28 504.808  73
  -4   3   3 9982.95 614.815  69
   4  -3  -2 5416.58 415.003   6
   4  -3  -2 4449.74 417.591   4
  -4   3   2 5234.42 411.139  58
  -4   3   2 4629.59 401.306  87
  -4   3   2 5056.56 370.689  73
   4  -3  -1 5965.40 418.885   6
   4  -3  -1 4345.47 407.327   4
  -4   3   1 5510.91 412.119  57
  -4   3   1 5592.34 408.839  58
  -4   3   1 4851.90 418.337  87
  -4   3   1 6467.24 407.658  73
   4  -3   0 39990.3 1198.23   6
  -4   3   0 37043.1 1215.66  57
  -4   3   0 38799.6 1195.22  58
  -4   3   0 31894.5 1172.86  87
  -4   3   0 32310.9 1092.83  88
  -4   3   0 40317.6 1168.48  73
   4  -3   1 430.510 209.442   6
  -4   3  -1 242.491 210.159  57
  -4   3  -1 640.218 245.297  87
  -4   3  -1 498.531 214.901  88
  -4   3  -1 332.168 191.137  76
   4  -3   2 7356.67 441.831   6
  -4   3  -2 7914.32 526.736  57
  -4   3  -2 6997.91 496.987  87
  -4   3  -2 7833.50 495.173  88
  -4   3  -2 6129.68 433.530  76
   4  -3   3 475.269 190.888   6
   4  -3   3 210.753 182.012  10
   4  -3   3 263.610 193.271   5
  -4   3  -3 435.048 200.778  64
  -4   3  -3 486.713 247.713  57
  -4   3  -3 155.848 223.437  87
  -4   3  -3 504.958 239.248  88
  -4   3  -3 171.862 175.732  76
   4  -3   4 14010.9 634.477  10
   4  -3   4 20333.0 680.566   5
  -4   3  -4 15235.6 669.101  76
  -4   3  -4 18222.8 746.167  64
  -4   3  -4 16685.1 797.020  57
  -4   3  -4 16023.4 752.531  87
  -4   3  -4 17221.3 797.203  88
   4  -3   5 1473.09 252.482  10
   4  -3   5 2983.66 320.565   8
  -4   3  -5 1955.57 257.340  76
  -4   3  -5 2420.60 317.429  64
  -4   3  -5 2109.80 326.589  57
  -4   3  -5 2145.16 307.088  87
  -4   3  -5 2672.89 369.939  88
   4  -3   6 12154.6 608.505  10
   4  -3   6 20526.6 717.717  15
  -4   3  -6 15314.8 697.344  87
  -4   3  -6 18521.7 835.289  88
  -4   3  -7 1148.77 300.470  64
  -4   3  -7 1159.33 267.014  57
   4  -3   7 1249.84 380.545  17
   4  -3   7 936.521 285.733  15
  -4   3  -7 1013.08 229.811  87
  -4   3  -7 1098.03 281.850  88
  -4   3  -8 2091.83 412.253  64
   4  -3   8 2482.29 409.006  17
  -4   3  -9 8442.76 530.063  88
   4  -3   9 7632.23 473.562  25
  -4   3 -10 914.230 232.388  88
   4  -3  10 714.059 249.829  25
  -4   3 -10 813.457 379.352  64
  -4   3 -11 8780.78 515.710  64
  -4   3 -11 7395.34 426.825  88
  -4   3 -12 705.104 195.691  64
  -4   3 -12 629.222 156.908  88
   4  -2 -13 2874.62 206.425  68
  -4   2  13 2919.83 207.245  58
   4  -2 -12-23.8346 159.808  68
  -4   2  12-19.8836 123.412  58
   4  -2 -12-79.5772 177.034  51
   4  -2 -11 4251.33 324.854  68
   4  -2 -11 5216.58 337.836  38
  -4   2  11 4382.47 353.783  58
   4  -2 -11 5181.94 339.710  51
   4  -2 -10 2233.51 322.175  51
   4  -2 -10 1911.05 286.735  68
   4  -2 -10 2178.06 287.607  32
   4  -2 -10 2539.71 328.033  38
   4  -2 -10 2257.99 280.209  40
  -4   2  10 2194.50 254.349  43
  -4   2  10 1984.17 337.751  58
   4  -2  -9 4975.08 424.404  20
   4  -2  -9 7204.08 462.191  38
   4  -2  -9 6136.96 393.111  40
  -4   2   9 5983.62 439.245  43
  -4   2   9 7136.74 607.031  58
   4  -2  -8 12234.6 500.246  40
  -4   2   8 10506.0 599.005  43
  -4   2   8 10121.1 655.033  58
   4  -2  -7 183.262 211.892  20
  -4   2   7 155.734 194.279  43
  -4   2   6 6815.55 458.182  73
  -4   2   6 7446.64 516.641  69
  -4   2   6 8176.00 532.807  43
  -4   2   5 2368.89 314.420  58
  -4   2   5 2126.31 297.835  73
   4  -2  -5 2138.05 292.033  20
  -4   2   4 23864.7 842.756  87
  -4   2   4 23892.4 887.000  73
  -4   2   4 25064.0 959.429  58
   4  -2  -4 26729.8 973.807   6
  -4   2   3 336.645 195.801  87
  -4   2   3 37.8228 196.729  73
  -4   2   3 45.1139 183.708  43
  -4   2   3 260.991 203.854  58
   4  -2  -3 130.550 187.886   4
   4  -2  -3-10.5429 212.153   6
  -4   2   2 21445.5 853.577  87
  -4   2   2 22917.6 855.374  73
  -4   2   2 25201.5 954.619  43
  -4   2   2 23980.8 911.204  58
   4  -2  -2 24181.0 898.821   6
   4  -2  -2 20398.7 911.243   4
  -4   2   1 6554.56 451.208  87
  -4   2   1 6494.50 403.358  88
  -4   2   1 6736.66 459.453  58
   4  -2  -1 7370.00 467.442   6
   4  -2  -1 6680.76 477.367   4
  -4   2   1 6864.43 446.889  73
  -4   2   0 27295.9 1010.86  87
  -4   2   0 26016.3 932.077  88
  -4   2   0 31474.6 1030.60  58
   4  -2   0 29626.7 988.046   6
   4  -2   0 26384.4 1005.18   4
  -4   2   0 30602.8 997.772  73
  -4   2   0 25238.4 956.610  76
  -4   2  -1 10848.2 608.344  87
  -4   2  -1 11853.4 591.164  88
  -4   2  -1 9933.36 563.548  76
  -4   2  -1 12483.4 649.483  57
   4  -2   1 13496.5 599.269   6
   4  -2   1 11215.0 582.313   4
  -4   2  -2 12930.5 629.868  83
  -4   2  -2 11410.3 625.774  87
  -4   2  -2 12067.0 618.824  88
  -4   2  -2 10635.2 572.988  76
  -4   2  -2 12789.1 675.858  57
   4  -2   2 13022.4 578.422   6
  -4   2  -3 15573.2 697.088  83
  -4   2  -3 13116.4 683.686  87
  -4   2  -3 13950.8 698.613  88
  -4   2  -3 13775.3 638.582  76
  -4   2  -3 15468.7 700.640  64
  -4   2  -3 15086.9 753.244  57
   4  -2   3 14730.5 620.563   6
   4  -2   3 16684.1 617.236   5
  -4   2  -4 4492.11 388.173  83
  -4   2  -4 4202.74 391.772  87
  -4   2  -4 4725.66 427.535  88
  -4   2  -4 5152.10 377.838  76
  -4   2  -4 4886.06 415.171  64
  -4   2  -4 4792.30 444.517  57
   4  -2   4 3394.44 319.911  10
   4  -2   4 5055.02 337.698   5
  -4   2  -5 11709.2 618.744  87
  -4   2  -5 13276.5 695.070  88
  -4   2  -5 13464.4 679.832  64
  -4   2  -5 13353.5 701.515  57
  -4   2  -5 12891.2 640.805  83
  -4   2  -6 9.53240 192.905  87
  -4   2  -6-85.5788 223.008  88
   4  -2   6-49.6022 191.248  10
  -4   2  -6 43.5475 199.282  83
  -4   2  -7 10634.8 556.422  87
  -4   2  -7 11421.0 646.805  88
  -4   2  -7 13252.8 733.617  64
   4  -2   7 13770.1 618.552  17
  -4   2  -8 2366.50 430.482  64
   4  -2   8 2494.12 387.700  17
  -4   2  -8 1708.72 314.747  83
  -4   2  -9 11938.8 622.045  88
  -4   2  -9 15065.2 888.306  64
   4  -2   9 15019.0 585.829  25
  -4   2  -9 11502.5 677.601  83
  -4   2 -10 1073.38 222.523  88
  -4   2 -10 1645.81 325.668  64
  -4   2 -11 3345.09 284.795  88
  -4   2 -11 3565.60 347.111  64
  -4   2 -12 3405.74 239.034  88
  -4   2 -12 4398.69 315.463  64
  -4   1  13 1381.96 164.020  58
   4  -1 -13 1642.28 183.255  68
   4  -1 -12 3462.00 271.807  68
  -4   1  12 2740.77 211.720  73
  -4   1  12 3259.10 270.804  58
   4  -1 -12 4001.40 270.988  51
   4  -1 -12 4051.84 268.418  38
  -4   1  12 3588.15 264.681  43
   4  -1 -11 1294.69 249.328  51
  -4   1  11 1046.21 215.380  58
   4  -1 -11 887.995 231.270  68
   4  -1 -11 717.795 202.953  32
  -4   1  11 1006.94 197.638  43
   4  -1 -11 1226.23 250.187  38
  -4   1  10 13538.8 694.664  58
   4  -1 -10 15400.6 618.078  51
   4  -1 -10 15965.9 611.571  38
  -4   1  10 15737.2 731.212  43
   4  -1  -9 1843.18 281.531  20
   4  -1  -9 2475.86 355.175  38
   4  -1  -9 2173.83 287.228  40
  -4   1   9 2257.73 368.579  43
  -4   1   9 2211.90 328.354  58
   4  -1  -8 8922.49 571.255  20
   4  -1  -8 12979.3 519.451  40
  -4   1   8 11209.3 689.356  43
  -4   1   8 10658.9 627.512  58
   4  -1  -7 6560.01 486.351  20
  -4   1   7 9837.12 619.486  43
   4  -1  -6 791.371 239.084  20
  -4   1   6 1591.07 288.430  43
  -4   1   5 3130.87 347.039  58
   4  -1  -5 2116.86 297.524  20
  -4   1   5 2729.07 335.940  73
  -4   1   4 10481.4 567.976  73
  -4   1   4 10708.2 596.469  58
   4  -1  -4 8127.52 546.223   7
   4  -1  -4 7858.75 557.802   4
  -4   1   3 10924.5 532.172  87
  -4   1   3 11015.6 587.447  73
  -4   1   3 13105.4 673.541  43
  -4   1   3 12429.0 634.677  58
   4  -1  -3 9074.21 565.693   7
   4  -1  -3 8107.24 574.278   4
  -4   1   2 116.920 186.133  87
  -4   1   2 118.078 164.683  88
  -4   1   2 59.0461 202.550  73
  -4   1   2 115.468 183.950  76
  -4   1   2 130.342 198.035  43
  -4   1   2 229.979 184.624  58
   4  -1  -2 535.697 183.585   4
  -4   1   1 18046.0 764.258  87
  -4   1   1 18197.8 729.169  88
  -4   1   1 20839.6 817.924  58
   4  -1  -1 18853.7 836.562   4
   4  -1  -1 19905.5 785.919   6
  -4   1   1 20593.1 808.462  73
  -4   1   1 16730.6 750.823  76
  -4   1   0 190.596 198.896  87
  -4   1   0 424.254 188.408  88
  -4   1   0 299.974 190.009  58
  -4   1   0 217.124 200.160  73
  -4   1   0 238.739 185.524  76
   4  -1   0 486.009 170.295   4
   4  -1   0 395.223 179.817   6
  -4   1  -1 12800.7 615.941  73
  -4   1  -1 10507.0 559.739  76
  -4   1  -1 10973.5 587.920  87
  -4   1  -1 11021.0 572.805  88
   4  -1   1 11914.0 556.287   6
   4  -1   1 9923.51 554.337   4
  -4   1  -2 137.129 170.223  76
  -4   1  -2-59.5043 198.978  87
  -4   1  -2 71.4523 188.783  88
   4  -1   2 49.2017 174.227   6
  -4   1  -2-43.6847 195.702  83
  -4   1  -3 27690.6 1041.62  83
  -4   1  -3 26180.0 988.623  87
  -4   1  -3 27692.5 1040.29  88
  -4   1  -3 26034.6 957.186  76
  -4   1  -3 31188.9 1082.34  64
   4  -1   3 32589.3 924.744   5
  -4   1  -4 4816.42 408.805  87
  -4   1  -4 4722.84 419.639  88
  -4   1  -4 5832.50 455.578  64
   4  -1   4 6051.25 380.675   8
  -4   1  -4 5332.49 440.910  83
  -4   1  -5 10886.6 583.110  87
  -4   1  -5 11161.9 637.837  88
  -4   1  -5 12096.0 665.955  64
   4  -1   5 13329.0 531.223   8
  -4   1  -5 11912.4 645.174  83
  -4   1  -6 7378.70 477.040  87
  -4   1  -6 8495.63 548.074  88
  -4   1  -6 8526.75 568.155  83
  -4   1  -7 2411.76 337.339  88
  -4   1  -7 3231.76 415.892  64
   4  -1   7 2584.43 381.340  17
  -4   1  -8 11904.1 630.213  88
   4  -1   8 13099.0 574.297  25
  -4   1  -8 13582.6 870.957  83
  -4   1  -9 136.970 182.687  88
  -4   1  -9 37.5637 237.800  64
   4  -1   9 20.8794 125.912  22
   4  -1   9 360.862 214.086  25
  -4   1  -9 37.0877 339.447  83
  -4   1 -10 10185.8 597.939  83
  -4   1 -10 10752.4 512.763  88
  -4   1 -10 11606.0 608.362  64
  -4   1 -11 431.029 182.256  83
  -4   1 -11 453.972 152.769  88
  -4   1 -11 547.513 199.273  64
  -4   1 -12 3518.14 214.975  88
   4  -1  12 3913.48 221.147  66
  -4   0  13 277.439 105.785  58
   4   0 -13 210.317 147.615  68
   4   0 -12 5183.90 323.942  68
  -4   0  12 5979.48 343.310  58
   4   0 -12 4706.53 275.389  50
   4   0 -12 6354.23 316.433  51
  -4   0  12 5400.19 351.930  43
   4   0 -11 12894.5 493.464  51
   4   0 -11 13668.2 496.846  38
  -4   0  11 12019.4 619.694  43
  -4   0  10 6660.16 454.310  58
   4   0 -10 7157.59 421.943  51
   4   0 -10 7404.78 421.243  38
  -4   0  10 6769.87 602.323  43
   4   0  -9 16581.5 653.844  51
  -4   0   9 15200.6 721.142  58
   4   0  -9 16124.6 633.329  38
  -4   0   9 17932.6 1089.50  43
  -4   0   8 4020.17 312.060  76
   4   0  -8 4204.97 406.987  20
  -4   0   8 5883.56 542.393  43
  -4   0   8 5698.87 439.247  58
  -4   0   7 8638.06 604.855  43
   4   0  -7 5239.95 442.392  20
  -4   0   6 624.386 185.341  76
   4   0  -6 447.375 221.747  20
   4   0  -6 671.518 248.848  13
  -4   0   6 619.659 250.575  43
  -4   0   5 19794.4 877.314  43
  -4   0   5 19739.0 816.301  58
   4   0  -5 17779.0 802.647   7
   4   0  -5 17880.7 771.073  13
  -4   0   4 602.507 225.367  58
   4   0  -4 692.518 233.453   7
   4   0  -4 409.742 226.531   4
  -4   0   4 355.888 237.461  73
  -4   0   4 447.977 192.988  76
  -4   0   3 18973.1 702.303  87
  -4   0   3 21635.7 854.018  73
  -4   0   3 18816.7 764.397  76
  -4   0   3 22614.1 868.190  58
   4   0  -3 19643.7 833.009   7
  -4   0   2 655.203 201.342  87
  -4   0   2 530.062 201.214  88
  -4   0   2 566.313 243.085  73
  -4   0   2 666.586 209.326  76
  -4   0   2 736.084 243.548  43
  -4   0   2 702.878 211.849  58
   4   0  -2 398.277 197.370   7
   4   0  -2 462.594 204.023   4
  -4   0   1 3845.91 336.355  87
  -4   0   1 3979.83 344.404  88
  -4   0   1 4384.26 373.760  58
  -4   0   1 4377.10 395.119  73
  -4   0   1 3303.00 334.557  76
   4   0  -1 3441.07 369.067   4
  -4   0   0 11286.8 576.765  76
  -4   0   0 10200.5 550.199  87
  -4   0   0 11784.9 585.259  88
   4   0   0 11331.3 612.107   4
   4   0   0 11667.8 566.588   6
  -4   0  -1 3643.50 357.363  73
  -4   0  -1 2893.16 311.544  76
  -4   0  -1 2919.05 320.972  87
  -4   0  -1 3316.72 336.393  88
   4   0   1 2928.22 298.605   6
  -4   0  -1 3248.87 380.927  83
  -4   0  -2 12369.6 626.549  87
  -4   0  -2 12689.7 645.110  88
   4   0   2 15108.0 568.530   5
  -4   0  -2 14263.1 717.497  83
  -4   0  -2 13530.1 637.960  76
  -4   0  -3 2996.94 327.142  87
  -4   0  -3 3023.57 342.535  88
  -4   0  -3 2947.14 350.607  64
   4   0   3 3028.66 298.009   8
  -4   0  -3 3330.52 377.598  83
  -4   0  -4 4785.26 391.019  87
  -4   0  -4 5344.35 428.709  88
  -4   0  -4 5976.50 461.394  64
  -4   0  -4 5643.15 464.851  83
  -4   0  -5 601.179 229.386  87
  -4   0  -5 442.613 223.541  88
   4   0   5 739.886 324.069  17
  -4   0  -5 450.213 241.347  83
  -4   0  -6 10269.3 592.267  88
  -4   0  -6 11472.9 703.821  83
  -4   0  -7 372.396 246.993  64
  -4   0  -8 5141.95 387.369  88
  -4   0  -8 5887.77 472.562  64
  -4   0  -8 5486.12 743.834  83
  -4   0  -9 4446.74 504.872  83
  -4   0  -9 3877.17 326.973  88
  -4   0  -9 4410.36 393.710  64
  -4   0 -10 2101.05 299.655  83
  -4   0 -10 2305.23 236.872  88
  -4   0 -10 2300.52 293.540  64
  -4   0 -11 5098.09 350.030  83
   4   0  11 4057.92 223.724  66
  -4   0 -12 654.397 143.753  83
  -4   0 -12 885.688 157.071  64
   4   1 -13 5431.79 285.568  68
  -4  -1  12-25.0425 129.229  43
  -4  -1  12 5.89272 119.249  58
   4   1 -12-21.1614 116.386  50
   4   1 -11 8310.32 368.712  38
  -4  -1  11 8182.90 545.977  43
   4   1 -11 7697.91 364.415  51
   4   1 -11 6411.80 339.660  50
  -4  -1  11 6964.29 400.297  58
   4   1 -11 6992.37 406.269  79
  -4  -1  10 5338.39 386.932  58
   4   1 -10 6091.04 362.823  51
   4   1 -10 6233.54 361.874  38
   4   1  -9 17873.0 625.395  51
  -4  -1   9 15768.4 703.676  58
   4   1  -9 14985.7 688.963  24
   4   1  -9 18128.9 625.698  38
  -4  -1   9 17441.7 995.007  43
   4   1  -8 8351.49 470.151  51
  -4  -1   8 7502.55 480.210  58
   4   1  -8 8495.83 468.232  38
  -4  -1   8 7743.83 588.133  43
   4   1  -8 6629.03 476.341  24
  -4  -1   7 22930.4 976.984  43
  -4  -1   7 21445.4 851.352  58
   4   1  -7 20736.2 863.464  13
  -4  -1   6 8851.34 585.330  43
   4   1  -6 7914.43 524.986  13
  -4  -1   5 1294.92 217.471  76
  -4  -1   5 1713.99 302.418  43
  -4  -1   5 1290.10 255.837  58
   4   1  -5 991.922 264.634  13
   4   1  -5 1207.90 265.722   7
  -4  -1   4 17920.9 766.294  58
   4   1  -4 17260.8 784.322   7
  -4  -1   4 17650.0 783.739  73
  -4  -1   3 175.698 181.819  58
   4   1  -3 158.748 184.683   7
   4   1  -3-54.0705 186.725   4
  -4  -1   3 21.4171 217.937  73
  -4  -1   3 52.8576 157.295  76
  -4  -1   2 13611.5 582.022  87
  -4  -1   2 17109.3 723.056  58
  -4  -1   2 15818.5 717.080  73
  -4  -1   2 13746.1 640.313  76
   4   1  -2 13448.0 671.550   7
   4   1  -2 11964.1 693.530   4
  -4  -1   1 20.4187 203.055  73
  -4  -1   1 127.068 169.004  76
   4   1  -1-31.4595 159.966   7
   4   1  -1 12.5192 171.876   4
  -4  -1   1 138.351 167.481  87
  -4  -1   1 174.380 179.837  88
  -4  -1   0 22318.9 849.432  73
  -4  -1   0 19891.3 787.668  76
  -4  -1   0 18817.5 749.081  87
  -4  -1   0 20810.2 811.735  88
  -4  -1   0 19419.6 953.477  91
   4   1   0 18995.1 833.875   4
  -4  -1  -1 5411.32 417.853  73
  -4  -1  -1 4120.55 353.546  87
  -4  -1  -1 4419.50 380.748  88
  -4  -1  -1 4338.61 468.320  91
   4   1   1 4400.76 307.918   5
  -4  -1  -1 4193.14 431.576  83
  -4  -1  -1 4647.61 372.311  76
  -4  -1  -2 1156.16 249.069  87
  -4  -1  -2 1066.24 257.530  88
  -4  -1  -2 679.341 286.363  91
   4   1   2 603.131 218.267   9
  -4  -1  -2 1369.64 303.259  83
  -4  -1  -3 2607.92 316.811  87
  -4  -1  -3 2353.93 311.805  88
  -4  -1  -3 2034.99 374.098  91
   4   1   3 1731.02 267.796   9
  -4  -1  -3 2506.34 352.054  83
  -4  -1  -4 1303.26 269.937  88
  -4  -1  -4 1097.52 298.518  91
  -4  -1  -4 1447.43 305.007  83
  -4  -1  -5 29788.7 1146.70  83
  -4  -1  -5 32241.2 1138.15  64
  -4  -1  -6 1032.86 281.552  64
  -4  -1  -7 21183.1 986.222  83
  -4  -1  -7 20065.0 858.360  64
  -4  -1  -8-120.113 277.678  83
  -4  -1  -8 49.0667 164.548  88
  -4  -1  -8 10.5656 209.518  64
  -4  -1  -9 5594.13 455.456  83
  -4  -1  -9 4879.39 331.050  88
  -4  -1  -9 6031.67 422.603  64
  -4  -1 -10 499.939 199.663  83
  -4  -1 -10 522.968 190.594  64
  -4  -1 -11 6984.18 380.251  83
  -4  -1 -11 8524.78 401.976  64
   4   2 -13 1655.92 183.989  68
  -4  -2  12 4895.51 346.174  43
   4   2 -12 3651.07 230.421  50
  -4  -2  12 4198.78 251.774  58
   4   2 -12 4455.70 302.768  79
  -4  -2  11 276.072 184.611  43
   4   2 -11 250.082 137.438  50
  -4  -2  11 344.660 133.881  58
   4   2 -11 229.475 210.246  79
  -4  -2  10 8136.61 429.439  58
  -4  -2  10 8929.59 613.341  43
  -4  -2   9 43.1580 148.385  58
  -4  -2   9 194.530 210.895  43
   4   2  -9-17.8582 217.504  24
  -4  -2   8 8781.48 490.850  58
  -4  -2   8 8994.07 597.987  43
   4   2  -8 7589.41 487.489  24
  -4  -2   7 972.909 221.698  58
  -4  -2   7 1200.38 280.892  43
   4   2  -7 716.101 266.922  24
  -4  -2   6 4838.69 440.605  43
  -4  -2   6 4515.15 367.370  58
   4   2  -6 3710.59 387.331  13
  -4  -2   5 2013.19 328.484  73
  -4  -2   5 2228.73 330.989  43
   4   2  -5 1590.92 292.640  13
  -4  -2   4 11617.2 625.575  73
  -4  -2   4 11183.2 527.110  76
   4   2  -4 10195.4 585.728  13
  -4  -2   3 11489.4 683.236  55
  -4  -2   3 12409.1 667.311  43
  -4  -2   3 10748.0 597.325  73
  -4  -2   3 9623.35 502.603  76
  -4  -2   3 11587.5 585.972  58
   4   2  -3 9637.98 581.270   7
  -4  -2   2 5528.67 430.567  73
  -4  -2   2 5089.90 490.865  55
   4   2  -2 4275.25 388.544   7
  -4  -2   2 4448.95 359.218  76
  -4  -2   1 17086.7 696.330  76
  -4  -2   1 16027.6 859.908  91
  -4  -2   1 18649.2 761.105  73
  -4  -2   1 17782.0 883.256  55
  -4  -2   0 457.349 221.260  73
  -4  -2   0 262.500 242.593  91
  -4  -2   0 259.848 236.238  55
  -4  -2  -1 11650.8 600.794  88
  -4  -2  -1 10850.5 724.743  91
  -4  -2  -1 12467.4 691.286  83
  -4  -2  -2 5883.18 427.535  88
  -4  -2  -2 4518.52 506.026  91
  -4  -2  -2 5792.24 489.217  83
  -4  -2  -3 15728.2 715.748  88
  -4  -2  -3 15514.0 880.432  91
  -4  -2  -3 16608.3 802.286  83
  -4  -2  -4 6133.14 495.702  83
  -4  -2  -4 6054.85 443.374  88
  -4  -2  -4 6252.68 607.739  59
  -4  -2  -5 15741.3 738.854  64
  -4  -2  -5 15908.3 967.827  59
  -4  -2  -6 7991.48 568.285  83
  -4  -2  -6 7018.41 449.266  88
  -4  -2  -6 9079.37 547.993  64
  -4  -2  -6 8113.57 630.565  59
  -4  -2  -7 2458.07 358.836  83
  -4  -2  -7 2698.78 283.718  88
  -4  -2  -7 2908.39 327.285  64
  -4  -2  -7 2316.77 345.240  59
  -4  -2  -8 12007.8 651.833  83
  -4  -2  -8 13406.0 620.870  64
  -4  -2  -9 579.300 202.331  83
  -4  -2  -9 617.261 191.376  64
  -4  -2 -10 5983.73 366.745  83
  -4  -2 -11 289.088 125.061  83
  -4  -3  13 173.801 104.544  73
   4   3 -12 4669.70 292.607  79
   4   3 -12 4028.64 232.313  50
   4   3 -11 2569.35 264.728  79
   4   3 -11 1954.05 190.147  50
  -4  -3  10 5723.19 321.438  58
  -4  -3  10 6607.72 455.419  43
   4   3  -9 5245.37 307.628  50
  -4  -3   9 7167.91 484.770  43
   4   3  -9 6017.83 428.028  24
  -4  -3   9 6529.93 370.590  58
  -4  -3   8 2628.19 328.999  43
   4   3  -8 2028.30 310.797  24
  -4  -3   8 2218.81 246.406  58
  -4  -3   7 17644.2 803.447  43
  -4  -3   7 16055.9 650.841  58
  -4  -3   6 322.433 187.193  55
  -4  -3   6 700.049 228.898  43
  -4  -3   6 443.797 237.099  73
  -4  -3   6 603.460 179.622  58
   4   3  -6 471.266 249.171  24
  -4  -3   5 9758.53 582.347  43
  -4  -3   5 7312.45 526.968  55
  -4  -3   5 9062.17 489.224  58
   4   3  -5 7677.10 507.917  13
   4   3  -4 224.054 204.984  13
  -4  -3   4 219.576 224.547  55
  -4  -3   4 324.133 209.655  43
  -4  -3   3 19287.0 848.711  43
  -4  -3   2 2873.12 397.002  91
   4   3  -2 1904.16 246.219  14
  -4  -3   1 7395.91 595.227  91
  -4  -3   0 10739.1 715.361  91
  -4  -3  -1 1596.23 374.406  91
  -4  -3  -1 1634.53 317.356  83
  -4  -3  -2 4216.46 432.848  83
  -4  -3  -2 3733.34 516.564  91
  -4  -3  -2 3679.34 462.167  59
  -4  -3  -3 18696.3 988.760  59
  -4  -3  -4 18751.3 953.756  91
  -4  -3  -4 24245.2 1298.14  59
  -4  -3  -5 1489.70 305.700  83
  -4  -3  -5 1196.06 288.920  91
  -4  -3  -5 2025.46 639.221  59
  -4  -3  -6 9665.57 591.215  83
  -4  -3  -6 10592.0 726.681  59
  -4  -3  -7 1837.81 295.793  83
  -4  -3  -7 1893.35 308.425  59
  -4  -3  -8 6526.21 426.668  83
  -4  -3  -9 1070.21 207.153  83
  -4  -3 -10 3363.15 251.272  83
  -4  -4  12 118.534 118.185  73
   4   4 -12 108.009 153.095  79
   4   4 -11 5811.04 334.940  79
   4   4 -11 5017.58 265.909  50
   4   4 -10 402.131 127.198  50
  -4  -4  10 575.729 177.942  43
   4   4  -9 4498.24 272.078  50
  -4  -4   9 6095.12 410.632  43
   4   4  -8 1866.78 298.626  24
  -4  -4   8 2218.23 282.862  73
  -4  -4   8 2878.45 313.214  43
  -4  -4   7 6983.64 453.667  73
  -4  -4   7 7322.60 479.305  43
  -4  -4   7 5505.95 401.025  55
   4   4  -7 5042.57 412.059  24
  -4  -4   6 2340.39 313.959  55
  -4  -4   6 2879.75 325.597  73
  -4  -4   5 4067.76 362.892  73
  -4  -4   5 4438.85 389.496  43
  -4  -4   5 3256.93 389.733  55
   4   4  -5 3623.05 336.744  26
  -4  -4   4 15439.9 865.284  55
   4   4  -4 16049.2 643.325  26
  -4  -4   4 15277.0 686.240  73
  -4  -4   3 508.169 214.946  73
   4   4  -3 593.736 249.478  16
  -4  -4   3 562.852 355.690  55
  -4  -4   2 12382.8 595.130  73
   4   4  -2 12049.3 588.551  16
  -4  -4   2 12168.7 806.100  55
  -4  -4   1 111.642 172.307  73
  -4  -4   1-15.1428 234.430  55
  -4  -4   0 7180.14 554.902  55
  -4  -4  -1 2050.02 335.754  55
  -4  -4  -2 8502.35 558.705  83
  -4  -4  -2 7453.43 873.444  91
  -4  -4  -2 8406.41 622.566  59
  -4  -4  -3 3592.36 382.970  83
  -4  -4  -3 2970.63 561.798  91
  -4  -4  -3 2960.33 464.189  59
  -4  -4  -4 3157.20 360.107  83
  -4  -4  -4 2879.04 417.429  91
  -4  -4  -4 4016.41 606.653  59
  -4  -4  -5 9627.82 550.828  83
  -4  -4  -5 10051.4 728.077  59
  -4  -4  -6 1341.11 255.573  83
  -4  -4  -6 1011.68 274.899  59
  -4  -4  -7 6060.34 405.986  83
  -4  -4  -8 103.310 152.621  83
  -4  -4  -9 6256.46 325.005  83
   4   5 -11 1988.56 212.339  79
  -4  -5  11 2308.55 203.700  73
  -4  -5  10 2293.34 230.569  73
   4   5 -10 1790.38 196.313  42
  -4  -5   9 135.776 144.239  73
   4   5  -9-29.0393 114.259  50
  -4  -5   9 91.9017 130.090  43
  -4  -5   8 6885.13 403.799  73
  -4  -5   8 8204.33 449.133  43
  -4  -5   7 233.341 165.730  73
  -4  -5   7 165.826 155.880  55
   4   5  -7 89.0299 247.686  34
  -4  -5   7 273.013 159.571  43
  -4  -5   6 11192.4 537.576  73
  -4  -5   6 10151.2 585.666  55
   4   5  -6 12771.7 536.458  26
  -4  -5   6 13079.8 595.850  43
   4   5  -5 2242.13 278.946  26
  -4  -5   5 1764.40 254.224  73
  -4  -5   5 1719.61 324.084  55
   4   5  -4 11189.2 527.744  26
  -4  -5   4 11168.9 532.788  73
  -4  -5   4 11794.5 903.014  55
  -4  -5   3 4591.28 342.090  73
   4   5  -3 4237.51 341.816  21
  -4  -5   3 4615.21 815.108  55
  -4  -5   3 3651.75 421.666  91
   4   5  -2 366.914 206.937  21
  -4  -5   2 394.892 302.150  55
  -4  -5   2 522.609 259.575  91
  -4  -5   1 9482.39 620.396  55
  -4  -5   1 8432.85 632.148  91
  -4  -5   0 1191.19 267.573  55
  -4  -5   0 1495.16 358.017  91
  -4  -5  -1 10986.8 622.325  55
  -4  -5  -1 11539.8 833.294  91
  -4  -5  -2 2155.99 605.469  91
  -4  -5  -2 1853.35 323.922  59
  -4  -5  -3 5375.13 546.592  91
  -4  -5  -3 5972.47 513.232  59
  -4  -5  -4 1334.60 249.656  83
  -4  -5  -4 1395.60 281.868  91
  -4  -5  -4 1518.44 328.539  59
  -4  -5  -5 3345.93 316.907  83
  -4  -5  -5 2959.25 304.741  91
  -4  -5  -5 3227.14 353.333  59
  -4  -5  -6 2316.13 261.133  83
  -4  -5  -7 2072.32 219.685  83
  -4  -6  10 1842.62 170.033  73
  -4  -6   9 4437.85 264.987  73
  -4  -6   8 3323.04 240.033  73
   4   6  -8 2080.13 197.613  42
  -4  -6   7 4532.89 337.730  55
  -4  -6   7 5449.13 313.164  73
  -4  -6   6 152.787 170.514  55
  -4  -6   6 117.125 134.319  73
  -4  -6   5 10112.6 608.179  55
  -4  -6   5 9144.73 425.751  73
  -4  -6   4 386.431 310.757  55
  -4  -6   4 165.246 135.392  73
  -4  -6   3 18705.7 920.697  55
  -4  -6   3 15600.7 770.415  91
  -4  -6   2 1005.39 268.292  55
  -4  -6   2 810.638 251.300  91
  -4  -6   1 13583.5 686.043  55
  -4  -6   1 13440.7 731.692  91
  -4  -6   0 4585.54 386.073  55
  -4  -6   0 4585.38 462.057  91
  -4  -6  -1 6437.07 547.110  91
  -4  -6  -2 8008.32 578.611  91
  -4  -6  -3 4139.83 390.008  91
  -4  -6  -4 2856.92 293.806  91
  -4  -7   7 3391.90 257.528  55
  -4  -7   6 2763.88 265.989  55
  -4  -7   5 813.693 202.491  55
  -4  -7   4 6850.12 466.807  55
  -4  -7   3 855.224 216.004  55
  -4  -7   2 7961.76 468.036  55
  -4  -7   2 7063.80 469.663  91
  -4  -7   1 34.0336 154.132  55
  -4  -7   1 284.270 194.061  91
  -4  -7   0 4807.21 403.807  91
  -4  -7  -1 3135.23 334.962  91
  -4  -7  -2 7092.61 435.815  91
  -4  -7  -3 646.492 175.619  91
  -4  -8   4 3186.85 265.372  55
  -4  -8   3 1691.19 202.137  55
  -4  -8   0 456.128 154.844  91
  -5   9   1 2854.02 228.507  87
   5  -9  -1 2964.38 160.796  86
  -5   9   0 1978.38 225.100  87
   5  -9   0 1978.70 141.456  86
  -5   9  -1 1485.17 206.062  87
  -5   9  -2 298.075 138.374  87
   5  -9   3 4508.98 244.787  65
  -5   9  -3 2745.80 222.011  87
  -5   9  -4 152.694 112.651  87
  -5   9  -5 3739.56 204.898  87
   5  -8  -3 4146.16 195.113  86
  -5   8   3 3569.10 226.198  76
   5  -8  -2 331.465 88.9497  86
  -5   8   2 443.972 158.867  87
  -5   8   2 286.305 109.732  76
   5  -8  -1 4477.57 216.152  86
  -5   8   1 4093.60 240.474  76
   5  -8   0 1187.25 130.060  86
  -5   8   0 1026.25 139.183  76
  -5   8  -1 1143.18 229.594  87
   5  -8   1 927.433 121.589  86
  -5   8  -2 4582.13 333.651  87
  -5   8  -3 222.919 148.214  87
  -5   8  -4 5893.56 326.227  87
   5  -8   5 289.562 130.459  65
  -5   8  -5 19.0524 113.989  87
  -5   8  -6 3715.28 216.737  87
   5  -7  -5 2514.91 153.838  86
  -5   7   5 2823.23 232.627  76
   5  -7  -4 4852.41 224.719  86
  -5   7   4 5076.44 340.309  76
   5  -7  -3 742.988 114.292  86
  -5   7   3 639.714 175.604  76
  -5   7   2 4957.74 379.504  87
  -5   7   2 4238.10 296.958  76
  -5   7   1 528.771 288.735  87
   5  -7  -1 177.963 131.353  48
  -5   7   1 174.186 123.110  76
  -5   7   0 5982.70 438.645  87
   5  -7   0 6396.02 268.756  48
  -5   7  -1 233.364 183.863  87
  -5   7  -1 263.514 121.185  76
  -5   7  -2 7805.54 431.111  87
   5  -7   2 7546.94 349.451  52
  -5   7  -2 7553.55 337.694  76
  -5   7  -3 1832.27 240.453  87
   5  -7   3 4555.96 299.570  52
  -5   7  -4 3240.44 285.104  87
   5  -7   4 7827.67 376.534  52
  -5   7  -5 2765.29 246.179  87
   5  -7   5 9061.74 409.107  52
  -5   7  -6 1783.72 182.400  87
  -5   7  -7 3650.69 218.735  87
  -5   7  -7 3993.20 296.410  88
   5  -6  -6 3898.54 200.847  86
  -5   6   6 4782.13 305.183  76
   5  -6  -5 182.795 86.2105  86
  -5   6   5 359.796 361.999  76
   5  -6  -4 8539.93 311.148  48
  -5   6   4 6347.37 481.427  76
   5  -6  -3 1255.19 167.336  48
  -5   6   3 594.965 183.719  76
  -5   6   2 3643.78 332.312  87
   5  -6  -2 4412.76 233.725  48
  -5   6   2 3489.35 295.361  76
  -5   6   1 4831.87 397.729  87
  -5   6   1 3935.45 302.782  76
  -5   6   0 1784.50 277.104  87
   5  -6   0 1324.96 154.195  35
  -5   6   0 2036.50 221.401  76
  -5   6  -1 6237.79 351.404  76
  -5   6  -1 6412.59 420.724  87
  -5   6  -2 346.555 136.998  76
  -5   6  -2 308.986 186.847  87
  -5   6  -3 11948.3 549.968  87
   5  -6   3 11317.5 490.794  52
  -5   6  -3 12865.3 476.436  76
  -5   6  -4 279.530 166.020  87
   5  -6   4 613.464 222.624  52
  -5   6  -5 9952.97 455.702  87
  -5   6  -6 271.294 145.162  87
  -5   6  -6 324.920 348.516  88
  -5   6  -7 4180.54 256.641  87
  -5   6  -7 5136.04 414.094  88
  -5   6  -8 2026.75 214.086  88
  -5   5   7 1930.25 180.086  76
   5  -5  -7 1170.44 122.441  86
  -5   5   6 3770.56 294.738  76
   5  -5  -6 2458.23 180.250  86
  -5   5   5 11362.4 603.296  76
  -5   5   4 180.977 170.467  76
   5  -5  -4 317.382 149.429  48
  -5   5   3 319.754 168.199  76
  -5   5   2 391.058 179.394  87
   5  -5  -2 211.214 123.314  28
  -5   5   2 341.906 160.887  76
  -5   5   1 6064.98 410.649  87
  -5   5   1 5981.32 377.310  76
  -5   5   0 1018.14 237.629  87
  -5   5   0 1440.46 216.693  76
  -5   5  -1 5083.34 380.358  87
  -5   5  -1 5176.41 346.377  76
  -5   5  -2 3568.54 323.779  87
  -5   5  -2 3587.12 277.309  76
  -5   5  -3 133.682 173.047  87
  -5   5  -3 251.812 129.544  76
  -5   5  -4 7066.27 414.991  87
  -5   5  -4 7913.01 429.417  88
  -5   5  -5 1917.26 228.106  87
  -5   5  -5 1850.24 271.164  88
  -5   5  -6 8795.54 427.153  87
  -5   5  -6 12659.0 628.599  88
  -5   5  -7 165.417 129.588  87
  -5   5  -7 45.2995 160.425  88
  -5   5  -8 5297.57 308.943  88
  -5   5  -9 1192.13 154.107  88
  -5   4   7 5810.40 348.793  58
  -5   4   7 4419.06 271.313  76
  -5   4   6 2010.94 239.819  58
   5  -4  -6 2204.88 211.979  40
  -5   4   5 6146.09 368.486  58
  -5   4   5 5303.95 370.271  76
   5  -4  -4 2891.88 251.898  29
  -5   4   4 3711.85 317.175  76
   5  -4  -3 2007.38 223.598  29
  -5   4   3 1936.06 246.890  76
  -5   4   2 5271.62 358.083  87
   5  -4  -2 5061.57 315.113  29
  -5   4   2 5039.28 362.419  76
  -5   4   1 841.156 214.114  87
   5  -4  -1 724.446 165.649  29
   5  -4  -1 253.700 122.713  28
  -5   4   1 779.756 198.607  76
  -5   4   0 8864.42 490.244  87
  -5   4   0 8246.39 449.121  76
  -5   4  -1-33.2958 169.880  87
  -5   4  -1 82.3205 146.637  76
  -5   4  -2 7489.39 453.251  87
  -5   4  -2 7998.70 421.044  76
  -5   4  -3 294.653 180.329  87
  -5   4  -3 398.201 173.021  88
  -5   4  -3 406.503 158.598  76
  -5   4  -4 506.558 188.035  87
  -5   4  -4 534.108 188.710  88
  -5   4  -5 1531.34 222.804  87
  -5   4  -5 1539.10 251.049  88
  -5   4  -6 1127.51 194.032  87
  -5   4  -6 973.996 226.713  88
  -5   4  -7 5945.75 363.451  88
  -5   4  -8 642.331 155.630  88
  -5   4  -9 3212.36 218.023  88
  -5   3   8 7135.25 409.250  58
  -5   3   8 4619.90 241.829  76
  -5   3   7 280.978 276.150  58
  -5   3   7 237.599 118.807  76
  -5   3   6 15176.0 650.842  58
  -5   3   6 11655.3 506.535  76
  -5   3   5 2211.32 260.878  58
  -5   3   5 1537.16 223.745  76
  -5   3   4 5297.38 357.918  76
   5  -3  -4 3991.34 302.628  29
  -5   3   3 350.650 166.414  76
   5  -3  -3 422.943 165.285  29
  -5   3   2 11100.7 532.636  76
   5  -3  -2 10396.6 458.651  29
  -5   3   2 10197.1 476.035  87
  -5   3   1 4910.71 355.213  76
   5  -3  -1 4407.52 291.861  29
  -5   3   1 4972.48 353.023  87
  -5   3   0 4061.56 325.432  76
  -5   3   0 3885.51 322.148  87
  -5   3  -1 8959.90 462.746  76
  -5   3  -1 8152.85 462.712  87
  -5   3  -2 2286.76 272.791  87
  -5   3  -2 2625.02 265.582  88
  -5   3  -2 2926.38 273.458  76
  -5   3  -3 4368.50 343.998  87
  -5   3  -3 4924.00 356.903  88
  -5   3  -4 149.816 164.822  87
  -5   3  -4 154.553 172.406  88
  -5   3  -5 5851.69 370.452  87
  -5   3  -5 6578.87 410.787  88
  -5   3  -6 927.706 202.093  88
  -5   3  -7 5829.97 349.258  88
  -5   3  -8 1686.65 194.576  88
  -5   3  -9 1753.33 169.740  88
  -5   2   8 4343.89 365.157  58
  -5   2   7 3314.33 334.330  58
   5  -2  -7 2935.37 277.894  51
  -5   2   7 2270.27 198.953  76
  -5   2   6 1939.41 252.735  58
  -5   2   6 1810.27 208.673  73
  -5   2   6 1351.34 184.603  76
  -5   2   5 8319.39 448.291  58
  -5   2   5 8489.13 413.020  73
  -5   2   4 1653.18 229.355  58
  -5   2   4 1406.93 213.134  76
  -5   2   3 6267.82 388.782  76
  -5   2   2 74.3752 135.367  87
  -5   2   2-8.04357 147.748  76
  -5   2   1 9263.57 457.250  87
  -5   2   1 10240.9 506.946  76
  -5   2   0 1254.57 216.280  87
  -5   2   0 1594.31 235.552  76
  -5   2  -1 10443.3 483.946  88
  -5   2  -1 10923.6 516.446  76
  -5   2  -2 1898.62 246.619  87
  -5   2  -2 2022.51 250.729  88
  -5   2  -3 3558.24 310.343  87
  -5   2  -3 3525.60 309.324  88
  -5   2  -4 6956.19 412.922  87
  -5   2  -4 7937.70 440.559  88
  -5   2  -5 1461.31 233.253  88
  -5   2  -6 5281.46 346.220  88
  -5   2  -7 171.195 136.476  88
  -5   2  -8 5693.26 306.451  88
  -5   1   9 8923.05 379.985  58
  -5   1   8-34.2180 130.806  58
  -5   1   8-56.2569 108.270  73
  -5   1   7 7657.80 415.633  58
  -5   1   7 7156.23 384.438  73
  -5   1   6 1423.47 224.019  58
  -5   1   6 1718.45 242.537  73
  -5   1   6 1167.19 166.714  76
  -5   1   5 9366.87 467.439  58
  -5   1   5 9014.95 463.219  73
  -5   1   4 5818.01 376.601  73
  -5   1   4 4293.62 312.338  76
  -5   1   3 1901.24 232.129  76
  -5   1   2 3823.02 309.214  76
  -5   1   1 2978.97 263.413  87
  -5   1   1 3270.01 293.592  76
  -5   1   0 5238.26 349.656  87
  -5   1   0 5581.20 369.783  76
  -5   1  -1 760.251 199.454  87
  -5   1  -3 1301.22 224.477  88
  -5   1  -4 3049.73 288.822  88
  -5   1  -5 510.998 176.708  88
  -5   1  -6 6640.28 371.818  88
  -5   1  -7 6094.54 330.264  88
  -5   0   8 1468.19 210.556  73
  -5   0   7 183.532 265.386  73
  -5   0   6 5525.82 411.815  73
  -5   0   5 242.537 187.485  73
  -5   0   5 215.652 123.419  76
  -5   0   4 11192.4 517.849  73
  -5   0   4 8643.87 426.768  76
  -5   0   3 608.602 164.710  76
  -5   0   2 5996.93 367.891  76
  -5  -1   8 6720.57 433.877  73
  -5  -1   7 929.844 276.405  73
  -5  -1   6 1685.93 253.091  73
  -5  -1   5 6904.20 405.212  73
  -5  -1   4 377.680 178.458  73
  -5  -2   8 609.047 156.095  73
  -5  -2   7 7711.11 392.268  73
  -5  -2   6 163.517 148.036  73
  -5  -2   5 5192.78 333.075  73
  -5  -3   7 1188.64 161.043  73
   0   0   0    0.00    0.00   0

TITL agn02_09 in P-1
REM P-1 (#2 in standard setting)
CELL 1.54184   4.657160  11.832286  15.386044 102.2711  90.6841 100.7614
ZERR    2.00   0.000119   0.000255   0.000345   0.0019   0.0019   0.0020
LATT  1
SFAC C H F Sb
UNIT 36.00 12.00 18.00 2.00
REM  CrysAlisPro recorded range (K): Min=149.9; max=150.0; aver:150.0
TEMP -123
SIZE 0.01 0.02 0.54
TREF
HKLF 4
END
;
_shelx_hkl_checksum              16372
_olex2_submission_special_instructions 'No special instructions were received'
_oxdiff_exptl_absorpt_empirical_details
;
Empirical correction (ABSPACK) includes:
- Absorption correction using spherical harmonics
- Frame scaling
;
_oxdiff_exptl_absorpt_empirical_full_max 1.666
_oxdiff_exptl_absorpt_empirical_full_min 0.380
loop_
_space_group_symop_operation_xyz
'x, y, z'
'-x, -y, -z'
loop_
_atom_site_label
_atom_site_type_symbol
_atom_site_fract_x
_atom_site_fract_y
_atom_site_fract_z
_atom_site_U_iso_or_equiv
_atom_site_adp_type
_atom_site_occupancy
_atom_site_site_symmetry_order
_atom_site_calc_flag
_atom_site_refinement_flags_posn
_atom_site_refinement_flags_adp
_atom_site_refinement_flags_occupancy
_atom_site_disorder_assembly
_atom_site_disorder_group
Sb1 Sb 0.27532(4) 0.34009(2) 0.72428(2) 0.02562(10) Uani 1 1 d . . . . .
F2 F 0.4161(6) 0.58492(19) 0.67604(15) 0.0420(6) Uani 1 1 d . . . . .
F4 F 1.1737(6) 0.8059(2) 0.88167(18) 0.0553(7) Uani 1 1 d . . . . .
F5 F 1.1810(5) 0.61755(19) 0.95277(14) 0.0427(5) Uani 1 1 d . . . . .
F8 F 0.1031(5) 0.11643(17) 0.57639(13) 0.0393(5) Uani 1 1 d . . . . .
F10 F 0.7394(6) 0.1683(2) 0.34714(14) 0.0463(6) Uani 1 1 d . . . . .
F11 F 1.0203(5) 0.37371(19) 0.44795(15) 0.0384(5) Uani 1 1 d . . . . .
F14 F 0.2352(5) 0.2998(2) 0.91767(14) 0.0427(5) Uani 1 1 d . . . . .
F16 F 0.7365(6) -0.0100(2) 0.91977(16) 0.0486(6) Uani 1 1 d . . . . .
F17 F 0.8599(5) -0.01744(18) 0.74934(15) 0.0412(5) Uani 1 1 d . . . . .
C1 C 0.6053(7) 0.4936(3) 0.7789(2) 0.0247(7) Uani 1 1 d . . . . .
C2 C 0.6079(9) 0.5927(3) 0.7457(2) 0.0315(8) Uani 1 1 d . . . . .
C3 C 0.7933(10) 0.6995(3) 0.7777(3) 0.0392(9) Uani 1 1 d . . . . .
H3 H 0.790113 0.765793 0.752270 0.047 Uiso 1 1 calc R U . . .
C4 C 0.9826(9) 0.7049(3) 0.8482(3) 0.0373(9) Uani 1 1 d . . . . .
C5 C 0.9874(8) 0.6081(3) 0.8847(2) 0.0321(8) Uani 1 1 d . . . . .
C6 C 0.7985(8) 0.5029(3) 0.8513(2) 0.0289(7) Uani 1 1 d . . . . .
H6 H 0.799605 0.437073 0.877415 0.035 Uiso 1 1 calc R U . . .
C7 C 0.4687(7) 0.2883(3) 0.5991(2) 0.0240(7) Uani 1 1 d . . . . .
C8 C 0.3335(8) 0.1820(3) 0.5443(2) 0.0302(8) Uani 1 1 d . . . . .
C9 C 0.4130(9) 0.1391(3) 0.4602(2) 0.0336(8) Uani 1 1 d . . . . .
H9 H 0.310986 0.066446 0.424883 0.040 Uiso 1 1 calc R U . . .
C10 C 0.6466(9) 0.2055(3) 0.4292(2) 0.0323(8) Uani 1 1 d . . . . .
C11 C 0.7892(8) 0.3116(3) 0.4806(2) 0.0293(7) Uani 1 1 d . . . . .
C12 C 0.7005(8) 0.3544(3) 0.5647(2) 0.0272(7) Uani 1 1 d . . . . .
H12 H 0.797768 0.428615 0.598796 0.033 Uiso 1 1 calc R U . . .
C13 C 0.4531(7) 0.2211(3) 0.7880(2) 0.0244(7) Uani 1 1 d . . . . .
C14 C 0.3905(8) 0.2200(3) 0.8747(2) 0.0290(7) Uani 1 1 d . . . . .
C15 C 0.4782(9) 0.1441(3) 0.9218(2) 0.0370(9) Uani 1 1 d . . . . .
H15 H 0.430596 0.146485 0.981985 0.044 Uiso 1 1 calc R U . . .
C16 C 0.6370(9) 0.0654(3) 0.8779(3) 0.0343(8) Uani 1 1 d . . . . .
C17 C 0.7011(8) 0.0619(3) 0.7902(2) 0.0302(7) Uani 1 1 d . . . . .
C18 C 0.6113(8) 0.1381(3) 0.7449(2) 0.0267(7) Uani 1 1 d . . . . .
H18 H 0.656219 0.134560 0.684439 0.032 Uiso 1 1 calc R U . . .
loop_
_atom_site_aniso_label
_atom_site_aniso_U_11
_atom_site_aniso_U_22
_atom_site_aniso_U_33
_atom_site_aniso_U_23
_atom_site_aniso_U_13
_atom_site_aniso_U_12
Sb1 0.02741(17) 0.02302(14) 0.02515(15) 0.00333(9) -0.00019(10) 0.00402(10)
F2 0.0539(15) 0.0327(11) 0.0412(13) 0.0117(9) -0.0132(11) 0.0094(10)
F4 0.0587(17) 0.0283(12) 0.0675(17) 0.0008(11) -0.0137(13) -0.0078(11)
F5 0.0445(14) 0.0395(12) 0.0370(12) -0.0018(9) -0.0104(10) 0.0030(10)
F8 0.0425(14) 0.0301(10) 0.0356(11) 0.0008(9) 0.0057(10) -0.0103(9)
F10 0.0592(16) 0.0437(13) 0.0298(11) -0.0018(9) 0.0147(10) 0.0045(11)
F11 0.0392(13) 0.0377(11) 0.0380(12) 0.0140(9) 0.0087(10) -0.0004(10)
F14 0.0529(15) 0.0448(12) 0.0318(11) 0.0055(9) 0.0086(10) 0.0161(11)
F16 0.0623(17) 0.0421(13) 0.0491(14) 0.0269(11) -0.0024(12) 0.0102(12)
F17 0.0506(14) 0.0282(10) 0.0473(13) 0.0075(9) 0.0024(11) 0.0146(10)
C1 0.0279(18) 0.0201(14) 0.0244(16) 0.0009(12) 0.0014(13) 0.0047(13)
C2 0.036(2) 0.0257(16) 0.0322(19) 0.0041(14) -0.0007(15) 0.0083(15)
C3 0.049(3) 0.0228(17) 0.045(2) 0.0082(15) 0.0007(18) 0.0032(16)
C4 0.041(2) 0.0214(16) 0.043(2) -0.0017(15) 0.0024(18) -0.0006(15)
C5 0.033(2) 0.0312(17) 0.0277(17) -0.0048(14) -0.0015(15) 0.0075(15)
C6 0.037(2) 0.0227(15) 0.0262(17) 0.0033(12) 0.0023(14) 0.0058(14)
C7 0.0267(18) 0.0234(15) 0.0214(15) 0.0042(12) 0.0017(13) 0.0037(13)
C8 0.035(2) 0.0257(16) 0.0266(17) 0.0053(13) 0.0010(14) -0.0027(14)
C9 0.038(2) 0.0268(17) 0.0311(18) -0.0007(14) -0.0003(16) 0.0031(15)
C10 0.042(2) 0.0299(17) 0.0256(17) 0.0037(14) 0.0033(15) 0.0110(16)
C11 0.031(2) 0.0294(16) 0.0293(17) 0.0112(13) 0.0025(14) 0.0046(14)
C12 0.0303(19) 0.0234(15) 0.0271(16) 0.0065(13) -0.0042(14) 0.0025(13)
C13 0.0249(18) 0.0190(14) 0.0266(16) 0.0042(12) -0.0022(13) -0.0015(12)
C14 0.031(2) 0.0273(16) 0.0272(17) 0.0059(13) 0.0011(14) 0.0016(14)
C15 0.044(2) 0.039(2) 0.0266(18) 0.0124(15) 0.0018(16) -0.0011(17)
C16 0.039(2) 0.0276(17) 0.0360(19) 0.0160(15) -0.0067(16) -0.0024(15)
C17 0.032(2) 0.0216(15) 0.0351(19) 0.0044(13) 0.0006(15) 0.0025(13)
C18 0.0295(19) 0.0215(15) 0.0279(16) 0.0047(12) 0.0005(14) 0.0027(13)
loop_
_atom_type_symbol
_atom_type_description
_atom_type_scat_dispersion_real
_atom_type_scat_dispersion_imag
_atom_type_scat_source
C C 0.0181 0.0091 'International Tables Vol C Tables 4.2.6.8 and 6.1.1.4'
H H 0.0000 0.0000 'International Tables Vol C Tables 4.2.6.8 and 6.1.1.4'
F F 0.0727 0.0534 'International Tables Vol C Tables 4.2.6.8 and 6.1.1.4'
Sb Sb -0.0562 5.8946 'International Tables Vol C Tables 4.2.6.8 and 6.1.1.4'
loop_
_exptl_crystal_face_index_h
_exptl_crystal_face_index_k
_exptl_crystal_face_index_l
_exptl_crystal_face_perp_dist
0 1 0 0.0180
0 -1 0 0.0010
-2 1 -1 0.1236
2 -1 1 0.4032
0 0 -1 0.0048
0 0 1 0.0097
loop_
_geom_angle_atom_site_label_1
_geom_angle_atom_site_label_2
_geom_angle_atom_site_label_3
_geom_angle
_geom_angle_site_symmetry_1
_geom_angle_site_symmetry_3
_geom_angle_publ_flag
C7 Sb1 C1 97.41(12) . . ?
C13 Sb1 C1 96.06(12) . . ?
C13 Sb1 C7 94.83(12) . . ?
C2 C1 Sb1 117.7(3) . . ?
C2 C1 C6 117.6(3) . . ?
C6 C1 Sb1 124.5(2) . . ?
F2 C2 C1 117.9(3) . . ?
F2 C2 C3 117.7(3) . . ?
C1 C2 C3 124.3(4) . . ?
C2 C3 H3 121.8 . . ?
C4 C3 C2 116.4(4) . . ?
C4 C3 H3 121.8 . . ?
F4 C4 C3 119.5(4) . . ?
F4 C4 C5 118.8(4) . . ?
C3 C4 C5 121.6(3) . . ?
F5 C5 C4 119.2(3) . . ?
F5 C5 C6 120.4(3) . . ?
C6 C5 C4 120.4(3) . . ?
C1 C6 H6 120.2 . . ?
C5 C6 C1 119.6(3) . . ?
C5 C6 H6 120.2 . . ?
C8 C7 Sb1 116.5(2) . . ?
C8 C7 C12 116.6(3) . . ?
C12 C7 Sb1 126.7(2) . . ?
F8 C8 C7 117.6(3) . . ?
F8 C8 C9 117.7(3) . . ?
C9 C8 C7 124.7(3) . . ?
C8 C9 H9 121.5 . . ?
C8 C9 C10 117.0(3) . . ?
C10 C9 H9 121.5 . . ?
F10 C10 C9 120.4(3) . . ?
F10 C10 C11 118.7(3) . . ?
C9 C10 C11 120.9(3) . . ?
F11 C11 C10 119.0(3) . . ?
F11 C11 C12 120.0(3) . . ?
C10 C11 C12 121.0(3) . . ?
C7 C12 H12 120.1 . . ?
C11 C12 C7 119.8(3) . . ?
C11 C12 H12 120.1 . . ?
C14 C13 Sb1 118.4(2) . . ?
C14 C13 C18 117.2(3) . . ?
C18 C13 Sb1 124.2(2) . . ?
F14 C14 C13 118.0(3) . . ?
F14 C14 C15 117.7(3) . . ?
C13 C14 C15 124.3(3) . . ?
C14 C15 H15 121.5 . . ?
C16 C15 C14 116.9(3) . . ?
C16 C15 H15 121.5 . . ?
F16 C16 C15 120.6(3) . . ?
F16 C16 C17 118.5(4) . . ?
C15 C16 C17 120.9(3) . . ?
F17 C17 C16 118.9(3) . . ?
F17 C17 C18 120.0(3) . . ?
C18 C17 C16 121.1(3) . . ?
C13 C18 H18 120.2 . . ?
C17 C18 C13 119.7(3) . . ?
C17 C18 H18 120.2 . . ?
loop_
_geom_bond_atom_site_label_1
_geom_bond_atom_site_label_2
_geom_bond_distance
_geom_bond_site_symmetry_2
_geom_bond_publ_flag
Sb1 C1 2.156(3) . ?
Sb1 C7 2.155(3) . ?
Sb1 C13 2.152(3) . ?
F2 C2 1.364(4) . ?
F4 C4 1.348(4) . ?
F5 C5 1.346(4) . ?
F8 C8 1.365(4) . ?
F10 C10 1.350(4) . ?
F11 C11 1.351(4) . ?
F14 C14 1.362(4) . ?
F16 C16 1.348(4) . ?
F17 C17 1.358(4) . ?
C1 C2 1.373(5) . ?
C1 C6 1.396(5) . ?
C2 C3 1.380(5) . ?
C3 H3 0.9500 . ?
C3 C4 1.373(6) . ?
C4 C5 1.382(5) . ?
C5 C6 1.376(5) . ?
C6 H6 0.9500 . ?
C7 C8 1.389(4) . ?
C7 C12 1.389(5) . ?
C8 C9 1.367(5) . ?
C9 H9 0.9500 . ?
C9 C10 1.372(5) . ?
C10 C11 1.377(5) . ?
C11 C12 1.384(5) . ?
C12 H12 0.9500 . ?
C13 C14 1.371(5) . ?
C13 C18 1.397(5) . ?
C14 C15 1.380(5) . ?
C15 H15 0.9500 . ?
C15 C16 1.369(6) . ?
C16 C17 1.379(5) . ?
C17 C18 1.370(5) . ?
C18 H18 0.9500 . ?
loop_
_geom_torsion_atom_site_label_1
_geom_torsion_atom_site_label_2
_geom_torsion_atom_site_label_3
_geom_torsion_atom_site_label_4
_geom_torsion
_geom_torsion_site_symmetry_1
_geom_torsion_site_symmetry_2
_geom_torsion_site_symmetry_3
_geom_torsion_site_symmetry_4
_geom_torsion_publ_flag
Sb1 C1 C2 F2 -4.7(4) . . . . ?
Sb1 C1 C2 C3 175.8(3) . . . . ?
Sb1 C1 C6 C5 -175.5(3) . . . . ?
Sb1 C7 C8 F8 -4.0(4) . . . . ?
Sb1 C7 C8 C9 175.3(3) . . . . ?
Sb1 C7 C12 C11 -176.2(3) . . . . ?
Sb1 C13 C14 F14 -4.3(4) . . . . ?
Sb1 C13 C14 C15 176.6(3) . . . . ?
Sb1 C13 C18 C17 -176.3(3) . . . . ?
F2 C2 C3 C4 179.6(3) . . . . ?
F4 C4 C5 F5 0.4(5) . . . . ?
F4 C4 C5 C6 -179.0(3) . . . . ?
F5 C5 C6 C1 -178.0(3) . . . . ?
F8 C8 C9 C10 -179.4(3) . . . . ?
F10 C10 C11 F11 -1.3(5) . . . . ?
F10 C10 C11 C12 179.2(3) . . . . ?
F11 C11 C12 C7 -177.9(3) . . . . ?
F14 C14 C15 C16 -179.3(3) . . . . ?
F16 C16 C17 F17 0.4(5) . . . . ?
F16 C16 C17 C18 -178.6(3) . . . . ?
F17 C17 C18 C13 -178.7(3) . . . . ?
C1 C2 C3 C4 -0.9(7) . . . . ?
C2 C1 C6 C5 -1.8(5) . . . . ?
C2 C3 C4 F4 178.8(4) . . . . ?
C2 C3 C4 C5 0.3(6) . . . . ?
C3 C4 C5 F5 178.8(4) . . . . ?
C3 C4 C5 C6 -0.6(6) . . . . ?
C4 C5 C6 C1 1.3(5) . . . . ?
C6 C1 C2 F2 -178.8(3) . . . . ?
C6 C1 C2 C3 1.7(6) . . . . ?
C7 C8 C9 C10 1.3(6) . . . . ?
C8 C7 C12 C11 -1.5(5) . . . . ?
C8 C9 C10 F10 179.4(3) . . . . ?
C8 C9 C10 C11 -1.2(6) . . . . ?
C9 C10 C11 F11 179.3(3) . . . . ?
C9 C10 C11 C12 -0.2(6) . . . . ?
C10 C11 C12 C7 1.6(5) . . . . ?
C12 C7 C8 F8 -179.2(3) . . . . ?
C12 C7 C8 C9 0.1(5) . . . . ?
C13 C14 C15 C16 -0.2(6) . . . . ?
C14 C13 C18 C17 -1.3(5) . . . . ?
C14 C15 C16 F16 178.6(3) . . . . ?
C14 C15 C16 C17 -0.9(6) . . . . ?
C15 C16 C17 F17 179.8(3) . . . . ?
C15 C16 C17 C18 0.9(6) . . . . ?
C16 C17 C18 C13 0.3(5) . . . . ?
C18 C13 C14 F14 -179.6(3) . . . . ?
C18 C13 C14 C15 1.3(5) . . . . ?
loop_
_exptl_oxdiff_crystal_face_indexfrac_h
_exptl_oxdiff_crystal_face_indexfrac_k
_exptl_oxdiff_crystal_face_indexfrac_l
_exptl_oxdiff_crystal_face_x
_exptl_oxdiff_crystal_face_y
_exptl_oxdiff_crystal_face_z
0.0002 0.9991 0.0007 0.0311 0.1250 -0.0426
-0.0002 -0.9991 -0.0007 -0.0311 -0.1250 0.0426
-1.9987 0.9941 -0.9722 0.0108 0.1963 0.6402
1.9987 -0.9941 0.9722 -0.0108 -0.1963 -0.6402
-0.0003 0.0005 -0.9996 -0.1010 0.0065 0.0169
0.0003 -0.0005 0.9996 0.1010 -0.0065 -0.0169
