#------------------------------------------------------------------------------
#$Date: 2020-08-27 02:07:50 +0300 (Thu, 27 Aug 2020) $
#$Revision: 255668 $
#$URL: file:///home/coder/svn-repositories/cod/cif/1/55/89/1558917.cif $
#------------------------------------------------------------------------------
#
# This file is available in the Crystallography Open Database (COD),
# http://www.crystallography.net/
#
# All data on this site have been placed in the public domain by the
# contributors.
#
data_1558917
loop_
_publ_author_name
'Tang, Shuang'
'Zhang, Xin-Tian'
'Ma, Yun-Bao'
'Huang, Xiao-Yan'
'Geng, Chang-An'
'Li, Tian-Ze'
'Zhang, Xue-Mei'
'Shen, Cheng'
'Su, Li-Hua'
'Gao, Zhen'
'Chen, Ji-Jun'
_publ_section_title
;
 Artemyrianolides A--S, Cytotoxic Sesquiterpenoids from Artemisia
 myriantha
;
_journal_name_full               'Journal of Natural Products'
_journal_paper_doi               10.1021/acs.jnatprod.0c00396
_journal_year                    2020
_chemical_absolute_configuration ad
_chemical_formula_moiety         'C15 H20 O4'
_chemical_formula_sum            'C15 H20 O4'
_chemical_formula_weight         264.31
_space_group_crystal_system      monoclinic
_space_group_IT_number           4
_space_group_name_Hall           'P 2yb'
_space_group_name_H-M_alt        'P 1 21 1'
_atom_sites_solution_hydrogens   geom
_cell_angle_alpha                90
_cell_angle_beta                 98.2000(10)
_cell_angle_gamma                90
_cell_formula_units_Z            2
_cell_length_a                   5.6085(2)
_cell_length_b                   15.2308(4)
_cell_length_c                   7.9538(2)
_cell_measurement_reflns_used    9885
_cell_measurement_temperature    100.(2)
_cell_measurement_theta_max      72.2660
_cell_measurement_theta_min      2.9013
_cell_volume                     672.48(3)
_computing_cell_refinement       'SAINT V8.38A (Bruker AXS Inc., 2017)'
_computing_data_collection       'Bruker Instrument Service vV6.2.9'
_computing_data_reduction        'SAINT V8.38A (Bruker AXS Inc., 2017)'
_computing_structure_refinement  'SHELXL-2017/1 (Sheldrick, 2017)'
_computing_structure_solution    'SHELXT 2014/5 (Sheldrick, 2014)'
_diffrn_ambient_temperature      100.(2)
_diffrn_detector_area_resol_mean 7.3910
_diffrn_measured_fraction_theta_full 0.985
_diffrn_measured_fraction_theta_max 0.985
_diffrn_measurement_device_type  'Bruker D8 QUEST PHOTON II'
_diffrn_radiation_monochromator  'Helixos MX multilayer Optic'
_diffrn_radiation_type           'Cu K\a'
_diffrn_radiation_wavelength     1.54178
_diffrn_reflns_av_R_equivalents  0.0358
_diffrn_reflns_av_unetI/netI     0.0290
_diffrn_reflns_limit_h_max       5
_diffrn_reflns_limit_h_min       -6
_diffrn_reflns_limit_k_max       18
_diffrn_reflns_limit_k_min       -18
_diffrn_reflns_limit_l_max       9
_diffrn_reflns_limit_l_min       -9
_diffrn_reflns_number            11282
_diffrn_reflns_theta_full        72.26
_diffrn_reflns_theta_max         72.26
_diffrn_reflns_theta_min         10.41
_diffrn_source                   'Ius Diamond'
_diffrn_source_type              Microfocus
_exptl_absorpt_coefficient_mu    0.767
_exptl_absorpt_correction_T_max  0.77
_exptl_absorpt_correction_T_min  0.61
_exptl_absorpt_correction_type   multi-scan
_exptl_absorpt_process_details
;
SADABS-2016/2 - Bruker AXS area detector scaling and absorption correction
;
_exptl_crystal_colour            'translucent light colourless'
_exptl_crystal_density_diffrn    1.305
_exptl_crystal_density_method    'not measured'
_exptl_crystal_description       block
_exptl_crystal_F_000             284
_exptl_crystal_size_max          0.850
_exptl_crystal_size_mid          0.680
_exptl_crystal_size_min          0.370
_refine_diff_density_max         0.221
_refine_diff_density_min         -0.153
_refine_ls_abs_structure_details
;

Flack x determined using 1229 quotients [(I+)-(I-)]/[(I+)+(I-)]
(Parsons, Flack and Wagner, Acta Cryst. B69 (2013) 249-259).
;
_refine_ls_abs_structure_Flack   0.05(4)
_refine_ls_extinction_coef       0.094(7)
_refine_ls_extinction_method     'SHELXL-2017/1 (Sheldrick 2017)'
_refine_ls_goodness_of_fit_ref   1.084
_refine_ls_hydrogen_treatment    mixed
_refine_ls_matrix_type           full
_refine_ls_number_parameters     176
_refine_ls_number_reflns         2591
_refine_ls_number_restraints     1
_refine_ls_restrained_S_all      1.084
_refine_ls_R_factor_all          0.0265
_refine_ls_R_factor_gt           0.0265
_refine_ls_shift/su_max          0.000
_refine_ls_shift/su_mean         0.000
_refine_ls_structure_factor_coef Fsqd
_refine_ls_weighting_details
'w=1/[\s^2^(Fo^2^)+(0.0323P)^2^+0.1392P] where P=(Fo^2^+2Fc^2^)/3'
_refine_ls_weighting_scheme      calc
_refine_ls_wR_factor_gt          0.0692
_refine_ls_wR_factor_ref         0.0692
_reflns_number_gt                2590
_reflns_number_total             2591
_reflns_threshold_expression     'I > 2\s(I)'
_cod_data_source_file            np0c00396_si_004.cif
_cod_data_source_block           jss59
_cod_depositor_comments
;
The following automatic conversions were performed:

data item '_exptl_absorpt_correction_type' value 'Multi-Scan' was
changed to 'multi-scan' in accordance with the
/home/data/users/saulius/crontab/automatic-downloads/rss-feeds/ACS/lib/dictionaries/cif_core.dic
dictionary named 'cif_core.dic' version 2.4.2 last updated on
2011-04-26.

Automatic conversion script
Id: cif_fix_values 7556 2019-12-06 15:28:31Z antanas 
;
_cod_database_code               1558917
_shelx_res_file
;

TITL jss59_0m_a.res in P2(1)
    jss59_0m.res
    created by SHELXL-2017/1 at 13:57:44 on 20-Dec-2019
CELL 1.54178 5.6085 15.2308 7.9538 90.000 98.200 90.000
ZERR 2.00 0.0002 0.0004 0.0002 0.000 0.001 0.000
LATT -1
SYMM -x, y+1/2, -z
SFAC C H O
UNIT 30 40 8
LIST 4 ! automatically inserted. Change 6 to 4 for CHECKCIF!!
TEMP -173.160
SIZE 0.370 0.680 0.850
ACTA
EQIV $1 -x+2, y-1/2, -z+1
HTAB O6 O1_$1
L.S. 4
FMAP 2
PLAN -3 0 0.00
HTAB
BOND $H
CONF
WGHT    0.032300    0.139200
EXTI    0.094318
FVAR       2.76987
O1    3    1.139808    0.724847    0.159849    11.00000    0.02529    0.02074 =
         0.02246   -0.00288    0.00526   -0.00954
O2    3    0.863379    0.675494    0.311516    11.00000    0.02242    0.01315 =
         0.01807   -0.00262    0.00553   -0.00491
O4    3    0.363089    0.481215    0.331472    11.00000    0.01370    0.01532 =
         0.01461   -0.00180    0.00025    0.00137
O6    3    0.769984    0.400671    0.700331    11.00000    0.02700    0.01564 =
         0.01802    0.00290   -0.00477    0.00251
AFIX 148
H6A   2    0.817329    0.350717    0.735973    11.00000   -1.50000
AFIX   0
C1    1    0.980219    0.673306    0.175892    11.00000    0.01885    0.01370 =
         0.01688    0.00224    0.00141    0.00042
C2    1    0.680733    0.605978    0.305303    11.00000    0.01514    0.01128 =
         0.01740   -0.00117    0.00285   -0.00080
AFIX  13
H2    2    0.521511    0.632952    0.317399    11.00000   -1.20000
AFIX   0
C3    1    0.754009    0.544150    0.452655    11.00000    0.01540    0.01435 =
         0.01415   -0.00145    0.00121   -0.00085
AFIX  23
H4    2    0.809497    0.578578    0.556452    11.00000   -1.20000
H3    2    0.889371    0.506857    0.427961    11.00000   -1.20000
AFIX   0
C4    1    0.539196    0.485228    0.483339    11.00000    0.01574    0.01272 =
         0.01297    0.00000    0.00046   -0.00012
C5    1    0.627535    0.392247    0.536891    11.00000    0.01844    0.01319 =
         0.01433    0.00012   -0.00004   -0.00061
AFIX  13
H5    2    0.734939    0.371481    0.454920    11.00000   -1.20000
AFIX   0
C6    1    0.427112    0.324830    0.539701    11.00000    0.02549    0.01564 =
         0.01973    0.00388    0.00355   -0.00345
AFIX  23
H1    2    0.318735    0.345175    0.619649    11.00000   -1.20000
H6    2    0.499765    0.268661    0.583787    11.00000   -1.20000
AFIX   0
C7    1    0.885328    0.600544    0.060862    11.00000    0.01580    0.01342 =
         0.01559    0.00238   -0.00111   -0.00004
C8    1    0.666559    0.563722    0.126382    11.00000    0.01599    0.01290 =
         0.01335    0.00067    0.00150   -0.00019
AFIX  13
H15   2    0.520290    0.587455    0.054047    11.00000   -1.20000
AFIX   0
C15   1    0.988880    0.577203   -0.071953    11.00000    0.01701    0.02055 =
         0.01526    0.00112    0.00036   -0.00165
AFIX  93
H15A  2    1.128409    0.607283   -0.096197    11.00000   -1.20000
H15B  2    0.923618    0.530383   -0.142961    11.00000   -1.20000
AFIX   0
C9    1    0.275224    0.307822    0.364970    11.00000    0.02008    0.01457 =
         0.02219   -0.00044    0.00365   -0.00522
AFIX  23
H11   2    0.232575    0.244770    0.355332    11.00000   -1.20000
H7    2    0.123634    0.341854    0.356951    11.00000   -1.20000
AFIX   0
C10   1    0.407498    0.333134    0.219870    11.00000    0.01739    0.01622 =
         0.01764   -0.00099    0.00004   -0.00361
C11   1    0.419030    0.431660    0.187985    11.00000    0.01622    0.01495 =
         0.01253   -0.00163    0.00077   -0.00110
AFIX  13
H10   2    0.285285    0.444247    0.093831    11.00000   -1.20000
AFIX   0
C12   1    0.649235    0.463246    0.123826    11.00000    0.01818    0.01334 =
         0.01398   -0.00167    0.00284   -0.00033
AFIX  23
H9    2    0.650655    0.441881    0.006420    11.00000   -1.20000
H8    2    0.791219    0.438273    0.196295    11.00000   -1.20000
AFIX   0
C13   1    0.401015    0.527745    0.613650    11.00000    0.01873    0.02042 =
         0.01671   -0.00190    0.00450    0.00144
AFIX 137
H14   2    0.342622    0.585612    0.572541    11.00000   -1.50000
H13   2    0.507833    0.534369    0.721667    11.00000   -1.50000
H12   2    0.263748    0.490591    0.630523    11.00000   -1.50000
AFIX   0
C14   1    0.504187    0.274610    0.126852    11.00000    0.03490    0.01411 =
         0.02674   -0.00436    0.00936   -0.00450
AFIX  93
H14A  2    0.491799    0.213757    0.150346    11.00000   -1.20000
H14B  2    0.586002    0.293441    0.036566    11.00000   -1.20000
REM #####
AFIX   0
HKLF 4 1 1 0 0 0 1 0 0 0 1




REM  jss59_0m_a.res in P2(1)
REM R1 =  0.0265 for    2590 Fo > 4sig(Fo)  and  0.0265 for all    2591 data
REM    176 parameters refined using      1 restraints

END

WGHT      0.0308      0.1436

REM Instructions for potential hydrogen bonds
HTAB O6 O1_$1

REM Highest difference peak  0.221,  deepest hole -0.153,  1-sigma level  0.033
Q1    1   0.5831  0.4390  0.5019  11.00000  0.05    0.22
Q2    1   0.6632  0.5147  0.1197  11.00000  0.05    0.20
Q3    1   0.4271  0.3798  0.2112  11.00000  0.05    0.19
;
_shelx_res_checksum              83872
_shelx_hkl_file
;
   2   0   0    3.00    0.90
  -2   0   0    5.00    1.90
  -2   0   0    3.60    0.70
   3   0   0  386.06   20.10
  -3   0   0  435.16   25.90
  -3   0   0  452.95   19.20
  -4   0   0 1153.58   54.49
  -4   0   0 1206.58   55.79
  -4   0   0 1214.68   53.59
  -4   0   0 1218.78   53.79
  -4   0   0 1257.97   55.59
  -4   0   0 1174.48   56.19
  -4   0   0 1230.68   55.89
  -4   0   0 1230.58   53.69
  -4   0   0 1180.48   58.29
  -4   0   0 1314.67   61.09
  -4   0   0 1311.17   56.79
  -4   0   0 1211.28   60.59
  -4   0   0 1296.27   63.39
  -5   0   0  200.28   13.70
  -5   0   0  216.98   16.30
  -5   0   0  193.28   13.50
  -5   0   0  223.78   12.90
  -5   0   0  212.48   11.90
  -5   0   0  186.38   17.20
  -5   0   0  211.68   14.20
  -5   0   0  225.58   13.90
  -5   0   0  189.18   12.90
  -5   0   0  229.28   17.80
  -5   0   0  222.08   11.80
  -6   0   0   21.40    2.50
  -6   0   0   24.50    3.40
  -6   0   0   24.50    4.80
  -6   0   0   21.90    2.80
  -6   0   0   24.00    3.40
  -6   0   0   22.50    4.80
  -6   0   0   24.70    4.30
  -6   0   0   22.10    2.40
   0  -1   0    3.00    0.50
   0   1   0    4.30    0.60
   2  -1   0 3120.79  134.39
  -2  -1   0 3378.76  132.89
   2   1   0 3227.48  134.19
  -2   1   0 3147.08  132.49
   3  -1   0 1731.13   77.19
  -3  -1   0 1861.61   76.69
   3   1   0 1775.52   78.49
  -3   1   0 1890.51   86.29
  -3   1   0 1883.41   76.49
  -4  -1   0  807.92   36.50
  -4  -1   0  861.51   44.70
  -4  -1   0  859.01   39.70
  -4  -1   0  772.92   41.50
  -4  -1   0  884.61   37.30
  -4  -1   0  817.52   38.40
  -4  -1   0  819.42   39.00
  -4  -1   0  839.32   39.20
  -4  -1   0  827.52   43.70
  -4  -1   0  849.32   37.30
  -4  -1   0  833.22   36.90
  -4  -1   0  793.32   38.10
  -4  -1   0  844.72   43.60
  -4   1   0  754.42   41.30
   4   1   0  749.62   39.30
  -4   1   0  818.92   43.70
  -4   1   0  878.11   39.90
  -4   1   0  842.22   44.10
  -4   1   0  838.52   39.30
  -4   1   0  851.91   37.20
  -4   1   0  811.92   39.60
  -4   1   0  813.52   37.90
  -4   1   0  811.42   46.70
  -4   1   0  834.32   38.80
  -4   1   0  811.82   37.10
  -4   1   0  820.12   37.30
  -4   1   0  830.82   39.10
  -5  -1   0  162.48   11.60
  -5  -1   0  146.69    9.10
  -5  -1   0  145.19   10.90
  -5  -1   0  141.99   11.40
  -5  -1   0  172.28   11.70
  -5  -1   0  149.19   14.00
  -5  -1   0  166.18   10.70
  -5  -1   0  153.48   13.30
  -5  -1   0  152.68    9.40
  -5  -1   0  148.49   10.80
  -5  -1   0  149.29    9.60
  -5  -1   0  156.58   14.80
  -5   1   0  176.98   15.30
   5   1   0  150.78    8.80
  -5   1   0  164.88    9.60
  -5   1   0  156.88    9.50
  -5   1   0  161.78   10.40
  -5   1   0  160.18   11.80
  -5   1   0  163.18   11.00
  -5   1   0  152.88   15.00
  -5   1   0  167.98   11.50
  -5   1   0  155.28   11.20
  -5   1   0  159.68    9.60
  -5   1   0  155.18   17.10
  -5   1   0  178.58   14.00
  -5   1   0  163.78   11.60
  -6  -1   0  173.58   14.30
  -6  -1   0  209.58   13.90
  -6  -1   0  182.78   11.30
  -6  -1   0  159.68   10.10
  -6  -1   0  184.48    9.50
  -6  -1   0  172.08   13.60
  -6  -1   0  180.78    9.80
  -6   1   0  187.28   14.90
  -6   1   0  186.18    9.90
  -6   1   0  210.08   12.30
  -6   1   0  178.28   11.00
  -6   1   0  180.28   10.70
  -6   1   0  173.68    9.50
  -6   1   0  156.58   14.00
  -6   1   0  187.08   11.30
  -2  -2   0 1377.66   56.29
   2  -2   0 1305.67   56.49
  -2   2   0 1338.47   55.79
   2   2   0 1355.86   58.09
  -3  -2   0 4416.76  182.28
   3  -2   0 4187.18  182.28
   3   2   0 4620.84  184.98
  -4  -2   0  167.98   13.90
  -4  -2   0  168.68    9.40
  -4  -2   0  142.19    8.50
  -4  -2   0  162.78    9.00
  -4  -2   0  152.78   10.50
  -4  -2   0  149.59   10.70
  -4  -2   0  145.89   12.90
  -4  -2   0  171.18   10.90
  -4  -2   0  155.98    8.80
  -4  -2   0  147.69   10.80
   4  -2   0  136.79    7.50
  -4  -2   0  142.19    9.70
  -4  -2   0  167.98   13.80
  -4  -2   0  150.38    9.90
  -4   2   0  146.49   12.10
  -4   2   0  147.49    9.30
  -4   2   0  143.59   10.70
  -4   2   0  152.48   13.60
   4   2   0  134.29   10.50
  -4   2   0  140.59   15.50
  -4   2   0  133.09    8.80
  -4   2   0  138.59   10.50
  -4   2   0  134.99    9.90
  -4   2   0  132.19   10.10
  -4   2   0  125.29   12.80
  -4   2   0  144.39    9.00
  -4   2   0  136.19   10.00
  -5  -2   0  975.90   55.79
  -5  -2   0 1120.39   51.79
  -5  -2   0 1198.88   56.89
  -5  -2   0 1129.29   48.40
  -5  -2   0 1089.29   49.20
  -5  -2   0  995.30   50.59
  -5  -2   0 1115.89   52.19
  -5  -2   0 1108.89   48.90
  -5  -2   0 1184.98   55.19
  -5  -2   0 1166.58   50.69
  -5  -2   0 1126.89   51.79
  -5   2   0 1152.08   51.89
  -5   2   0 1086.99   54.59
  -5   2   0 1130.19   49.20
  -5   2   0 1043.00   48.80
  -5   2   0 1071.19   50.49
  -5   2   0 1042.50   51.49
  -5   2   0 1133.69   51.99
  -5   2   0 1129.29   62.09
  -5   2   0 1156.18   57.49
  -5   2   0 1157.28   51.69
  -5   2   0 1088.29   48.90
  -6  -2   0  858.81   39.90
  -6  -2   0  935.91   38.40
  -6  -2   0  831.32   39.50
  -6  -2   0  844.82   42.60
  -6  -2   0  962.50   40.40
  -6  -2   0  842.82   42.10
  -6   2   0  839.02   44.30
  -6   2   0  803.72   37.30
  -6   2   0  783.22   37.30
   0  -3   0    3.80    0.80
   0  -3   0    5.20    0.80
   0   3   0    3.80    1.10
   1  -3   0  632.54   26.60
  -1  -3   0  643.74   27.00
  -1  -3   0  650.53   29.10
   1  -3   0  631.44   26.40
   1  -3   0  610.54   27.40
  -1  -3   0  591.34   39.90
  -1  -3   0  643.74   27.10
  -1   3   0  585.54   41.00
   1   3   0  697.93   27.80
   1   3   0  650.03   28.60
  -1   3   0  646.74   27.30
  -1   3   0  694.73   32.40
  -2  -3   0 1034.30   44.70
   2  -3   0 1003.80   44.70
  -2  -3   0 1125.19   59.09
   2  -3   0  947.41   43.90
  -2   3   0 1225.48   54.89
   2   3   0 1022.50   46.80
  -3  -3   0 1004.90   41.90
   3  -3   0  893.01   40.70
  -3   3   0  990.70   52.49
   3   3   0  996.10   44.80
  -4  -3   0  428.96   25.50
  -4  -3   0  392.76   21.10
  -4  -3   0  389.06   19.70
  -4  -3   0  405.46   25.30
  -4  -3   0  431.46   22.60
  -4  -3   0  418.86   22.10
  -4  -3   0  406.96   20.30
  -4  -3   0  394.16   22.30
  -4  -3   0  440.66   20.20
  -4  -3   0  427.56   19.70
  -4  -3   0  460.05   21.50
  -4  -3   0  414.36   24.20
  -4  -3   0  417.16   22.00
  -4   3   0  433.76   26.70
  -4   3   0  413.36   26.20
  -4   3   0  418.46   22.30
  -4   3   0  402.26   20.10
  -4   3   0  408.06   22.60
  -4   3   0  387.06   21.60
  -4   3   0  413.16   20.40
  -4   3   0  388.76   23.70
   4   3   0  393.96   22.90
  -4   3   0  436.66   22.30
  -4   3   0  381.16   32.30
  -4   3   0  414.86   20.40
  -4   3   0  406.06   20.50
  -4   3   0  384.86   21.50
  -5  -3   0  739.03   39.10
  -5  -3   0  777.62   35.70
  -5  -3   0  744.53   36.60
  -5  -3   0  725.33   32.80
  -5  -3   0  768.82   35.40
  -5  -3   0  784.42   33.80
  -5  -3   0  769.72   41.00
  -5  -3   0  718.13   40.00
  -5  -3   0  762.22   36.30
  -5   3   0  646.44   34.60
  -5   3   0  824.72   37.00
  -5   3   0  746.13   50.69
  -5   3   0  654.53   35.60
  -5   3   0  719.13   33.50
  -5   3   0  745.03   39.30
  -5   3   0  664.93   33.70
  -5   3   0  713.03   36.20
  -5   3   0  765.12   34.30
  -5   3   0  750.62   36.00
  -6  -3   0  632.94   32.80
  -6  -3   0  579.94   29.60
  -6  -3   0  517.45   27.00
  -6  -3   0  552.64   31.60
  -6  -3   0  584.14   25.00
  -6  -3   0  570.14   26.70
  -6  -3   0  576.74   27.60
  -6   3   0  566.54   27.00
  -6   3   0  536.05   25.70
  -6   3   0  568.64   25.60
  -6   3   0  555.64   28.40
   0  -4   0  702.83   49.99
   0  -4   0  767.32   34.00
   0  -4   0  798.22   32.10
   0  -4   0  772.22   33.00
   0  -4   0  735.03   32.10
   0   4   0  840.52   33.80
   1  -4   0 4692.03  191.08
  -1  -4   0 4970.00  191.78
   1  -4   0 4250.37  216.08
   1  -4   0 4726.63  192.58
  -1   4   0 4661.63  224.08
  -2  -4   0  741.73   48.00
   2  -4   0  675.93   29.60
  -2  -4   0  728.73   30.50
   2  -4   0  666.93   30.40
   2   4   0  724.43   33.00
  -3  -4   0  986.20   44.10
  -3  -4   0 1048.50   51.99
   3   4   0  969.10   46.40
  -4  -4   0  898.61   38.10
  -4  -4   0  892.11   41.10
  -4  -4   0  878.91   43.70
  -4  -4   0  845.12   38.80
  -4  -4   0  844.12   40.50
  -4  -4   0  886.21   44.00
  -4  -4   0  879.91   37.10
  -4  -4   0  844.32   39.40
  -4  -4   0  871.91   40.20
  -4  -4   0  845.42   37.70
  -4  -4   0  848.62   38.20
  -4   4   0  805.92   39.40
  -4   4   0  817.62   44.70
  -4   4   0  794.52   39.50
  -4   4   0  817.62   38.10
  -4   4   0  828.92   39.80
  -4   4   0  847.92   38.40
  -4   4   0  763.12   41.50
  -4   4   0  850.71   45.00
  -4   4   0  810.62   40.40
  -4   4   0  832.52   37.90
  -4   4   0  834.52   37.90
  -4   4   0  819.12   39.60
   4   4   0  820.12   41.90
  -4   4   0  843.02   51.19
  -5  -4   0  185.28   14.40
  -5  -4   0  165.28   13.30
  -5  -4   0  174.98   14.70
  -5  -4   0  177.98   11.80
  -5  -4   0  166.08    9.00
  -5  -4   0  161.38   10.80
  -5  -4   0  159.78   11.70
  -5  -4   0  154.88   10.90
  -5   4   0  166.48   11.60
  -5   4   0  161.78   15.00
  -5   4   0  154.48   18.60
  -5   4   0  162.48   11.70
  -5   4   0  160.28    9.90
  -5   4   0  159.18   15.00
  -5   4   0  146.09   10.80
  -5   4   0  159.88    9.60
  -5   4   0  172.88   10.90
  -5   4   0  166.48   10.10
  -6  -4   0  213.68   13.40
  -6  -4   0  209.38   11.70
  -6  -4   0  191.28   11.20
  -6  -4   0  186.08   11.80
  -6  -4   0  198.98   14.80
  -6  -4   0  201.68   12.00
  -6   4   0  218.28   15.90
  -6   4   0  197.48   11.80
  -6   4   0  209.18   11.80
  -6   4   0  200.28   10.40
  -6   4   0  205.98   10.60
  -6   4   0  180.88   11.00
   1  -5   0 9188.88  385.56
   1  -5   0 9643.24  387.86
   2  -5   0 2039.50   85.79
  -2  -5   0 2054.29  111.99
   2  -5   0 1905.91   87.09
  -2  -5   0 2084.09   86.89
  -2  -5   0 2099.19   86.89
   2   5   0 2164.68   90.29
  -2   5   0 2227.38   97.79
  -3  -5   0 2330.57   96.89
   3  -5   0 2275.77   93.59
  -3  -5   0 2367.66  100.19
  -3  -5   0 2172.58   94.29
  -3  -5   0 2126.59   95.89
  -3  -5   0 2333.47  112.49
  -3  -5   0 2209.68   96.49
  -3  -5   0 2179.78   99.39
  -3   5   0 2235.28   95.49
  -3   5   0 2435.76  101.19
  -3   5   0 2375.76   99.09
  -3   5   0 1902.71   97.59
  -4  -5   0  489.15   25.40
  -4  -5   0  520.75   25.30
  -4  -5   0  511.25   26.10
  -4  -5   0  458.25   28.70
  -4  -5   0  509.75   28.60
  -4  -5   0  515.85   22.60
  -4  -5   0  469.75   23.30
  -4  -5   0  496.35   27.40
  -4  -5   0  482.55   24.20
   4   5   0  482.55   28.10
  -4   5   0  494.85   24.90
  -4   5   0  491.85   23.70
  -4   5   0  500.25   24.10
  -4   5   0  480.15   29.80
  -4   5   0  505.15   25.20
  -4   5   0  460.85   35.60
  -4   5   0  452.05   29.30
  -4   5   0  491.85   23.60
  -4   5   0  483.95   25.10
  -4   5   0  500.95   26.10
  -5  -5   0  244.48   23.60
  -5  -5   0  224.28   17.40
  -5  -5   0  239.68   13.90
  -5  -5   0  242.08   14.10
  -5  -5   0  226.08   14.60
  -5  -5   0  246.48   14.60
  -5  -5   0  218.38   16.10
  -5   5   0  234.48   14.50
  -5   5   0  185.88   17.00
  -5   5   0  238.78   18.60
  -5   5   0  236.98   14.80
  -5   5   0  234.58   12.80
  -5   5   0  221.98   13.50
  -6  -5   0  204.68   15.90
  -6  -5   0  178.48   14.50
  -6  -5   0  212.88   12.50
  -6  -5   0  217.18   12.30
  -6  -5   0  201.68   11.80
  -6  -5   0  187.88   11.80
  -6  -5   0  214.98   11.60
  -6   5   0  201.68   11.40
  -6   5   0  224.18   11.90
  -6   5   0  223.68   11.20
  -6   5   0  188.08   15.30
   0  -6   0   52.09    2.60
   1  -6   0 4182.78  173.58
   1  -6   0 3815.72  211.68
  -1  -6   0 4399.56  174.58
  -1   6   0 4396.06  175.88
   1   6   0 4335.37  177.48
   2  -6   0 1444.96   69.79
  -2  -6   0 1625.74   98.49
  -2  -6   0 1677.03   69.19
  -2  -6   0 1647.64   69.29
   2  -6   0 1613.64   68.09
   2   6   0 1727.83   73.19
  -2   6   0 1800.52  107.59
  -3  -6   0  256.47   15.20
  -3  -6   0  255.17   13.90
  -3  -6   0  274.97   28.50
  -3  -6   0  275.27   17.90
  -3  -6   0  257.47   13.10
  -3  -6   0  249.48   14.70
  -3  -6   0  283.77   15.70
  -3   6   0  268.47   13.80
  -3   6   0  274.97   24.20
  -3   6   0  243.68   16.60
   3   6   0  243.98   16.40
  -3   6   0  246.08   17.60
  -3   6   0  247.28   14.30
  -3   6   0  250.27   15.90
  -4  -6   0  296.07   14.90
  -4  -6   0  288.47   19.00
  -4  -6   0  277.87   16.40
  -4  -6   0  281.57   18.20
  -4  -6   0  286.17   16.90
  -4  -6   0  276.97   19.10
  -4  -6   0  286.07   15.40
  -4  -6   0  291.07   16.20
  -4   6   0  270.07   15.60
  -4   6   0  265.87   20.10
  -4   6   0  268.27   25.60
  -4   6   0  280.17   15.30
  -4   6   0  278.37   14.90
  -4   6   0  274.97   16.10
  -4   6   0  269.87   17.00
  -4   6   0  280.87   16.70
  -4   6   0  260.07   15.10
   5  -6   0  546.25   30.70
  -5  -6   0  628.94   30.90
  -5  -6   0  600.64   32.30
  -5  -6   0  614.44   35.60
  -5  -6   0  616.14   29.70
  -5  -6   0  612.34   30.50
  -5  -6   0  642.94   33.10
  -5  -6   0  656.63   30.60
  -5   6   0  538.35   29.60
  -5   6   0  616.84   30.10
  -5   6   0  642.04   31.40
  -5   6   0  656.13   28.70
  -5   6   0  629.74   28.20
  -5   6   0  604.34   35.40
  -5   6   0  580.54   28.70
  -6  -6   0  134.69    8.10
  -6  -6   0  140.99    9.70
  -6  -6   0  123.29   10.50
  -6  -6   0  125.49    8.40
  -6  -6   0  129.89    8.00
  -6   6   0  133.69    7.30
  -6   6   0  145.99   11.10
  -6   6   0  139.69    8.50
  -6   6   0  144.79    7.70
   0   7   0    9.90    2.20
  -1  -7   0 6136.69  247.68
   1  -7   0 5323.27  292.97
   1  -7   0 5882.51  246.58
  -1  -7   0 6252.37  246.98
   1  -7   0 5868.61  249.28
   1   7   0 6028.20  251.17
  -1   7   0 5961.70  249.28
  -1   7   0 6593.64  258.07
  -2  -7   0 1208.58   52.19
   2  -7   0 1170.58   50.89
  -2  -7   0 1239.98   52.09
  -2  -7   0 1212.08   84.69
  -2   7   0 1262.27   94.89
   2   7   0 1265.77   56.69
  -2   7   0 1218.48   64.69
  -3  -7   0   95.99    7.00
  -3  -7   0   78.59    7.60
  -3  -7   0   92.49    8.90
  -3  -7   0   80.39    6.20
  -3  -7   0   84.89    7.20
  -3  -7   0   91.79    7.20
  -3  -7   0   79.09    5.60
  -3   7   0   87.89    7.00
  -3   7   0   75.69    6.30
  -3   7   0   72.19   12.00
  -3   7   0   81.29    6.40
  -3   7   0   79.89    5.90
  -3   7   0   80.19    7.40
  -3   7   0   80.49    6.10
   3   7   0   71.59    8.20
  -3   7   0   73.39   10.40
  -4  -7   0  445.96   22.90
  -4  -7   0  442.46   23.40
  -4  -7   0  448.26   26.50
  -4  -7   0  474.15   23.90
  -4  -7   0  453.65   25.40
   4  -7   0  392.46   23.90
  -4  -7   0  440.36   22.10
  -4   7   0  440.96   21.50
  -4   7   0  429.46   24.20
  -4   7   0  415.16   34.50
  -4   7   0  423.26   22.80
  -4   7   0  434.66   22.10
  -4   7   0  458.95   23.00
  -4   7   0  440.46   21.60
   5  -7   0  166.98   12.50
  -5  -7   0  189.78   12.10
  -5  -7   0  181.08   14.50
  -5  -7   0  185.98   12.00
  -5  -7   0  204.78   12.30
  -5  -7   0  172.68   13.20
  -5   7   0  181.18   10.00
  -5   7   0  185.58   10.40
  -5   7   0  170.38   12.20
  -5   7   0  201.98   11.00
  -5   7   0  173.18   14.80
  -6  -7   0  550.64   26.80
  -6  -7   0  575.44   28.00
  -6  -7   0  609.74   26.50
  -6   7   0  579.34   26.60
  -6   7   0  582.64   25.70
  -6   7   0  574.44   25.40
   0  -8   0 2508.55  156.78
   0  -8   0 2717.53  112.19
   0   8   0 2774.22  114.59
  -1  -8   0  254.67   11.70
   1  -8   0  226.58   38.00
  -1  -8   0  264.57   12.60
   1  -8   0  253.37   14.00
  -1  -8   0  246.08   35.90
   1   8   0  261.17   15.70
  -1   8   0  275.47   19.70
  -1   8   0  240.48   13.90
   2  -8   0   46.40    5.20
  -2  -8   0   46.00   15.80
  -2  -8   0   58.09    4.10
  -2  -8   0   57.99    4.00
  -2   8   0   51.29    8.90
   2   8   0   47.90    6.40
  -2   8   0   43.80    3.70
  -3  -8   0  579.64   27.70
  -3  -8   0  603.54   52.59
  -3  -8   0  574.74   28.40
  -3  -8   0  579.74   27.10
  -3  -8   0  591.34   31.60
  -3  -8   0  567.14   28.20
  -3  -8   0  579.94   29.80
  -3  -8   0  644.14   27.50
   3  -8   0  506.75   28.80
  -3   8   0  534.35   31.00
  -3   8   0  574.44   27.40
  -3   8   0  580.74   29.40
   3   8   0  507.45   25.60
  -3   8   0  564.24   26.60
  -3   8   0  529.65   24.90
  -3   8   0  551.34   26.40
   3   8   0  561.34   31.80
   4  -8   0 1524.55   74.09
  -4  -8   0 1655.03   72.29
  -4  -8   0 1704.93   73.09
  -4  -8   0 1645.74   75.19
  -4  -8   0 1652.83   76.69
  -4  -8   0 1562.44   72.59
  -4  -8   0 1685.43   71.39
  -4   8   0 1674.33   70.69
  -4   8   0 1686.73   90.19
  -4   8   0 1634.84   70.59
  -4   8   0 1577.94   73.69
  -5  -8   0  271.37   18.20
  -5  -8   0  258.77   16.80
  -5  -8   0  288.27   15.50
  -5  -8   0  272.07   15.80
   5  -8   0  269.27   17.00
  -5  -8   0  274.97   15.30
  -5  -8   0  273.77   14.70
  -5   8   0  262.27   15.90
  -5   8   0  283.87   13.90
  -5   8   0  225.38   17.60
  -5   8   0  256.67   14.10
  -5   8   0  277.97   13.30
  -6  -8   0  280.17   13.80
  -6  -8   0  302.97   14.80
  -6  -8   0  273.27   15.10
  -6  -8   0  310.87   14.70
  -6  -8   0  254.97   16.70
  -6   8   0  317.47   14.00
  -6   8   0  296.77   14.40
  -6   8   0  312.97   13.60
   0  -9   0    4.60    1.40
   0  -9   0    1.20    6.10
   1  -9   0  425.76   57.49
  -1  -9   0  473.75   20.20
   1  -9   0  453.15   22.90
  -1  -9   0  440.96   53.59
  -1  -9   0  471.35   21.20
  -1   9   0  438.16   29.10
  -1   9   0  461.35   23.30
   1   9   0  469.75   25.40
  -2  -9   0 2289.37  107.79
  -2  -9   0 2381.66   96.09
   2  -9   0 2195.38   99.09
  -2  -9   0 2331.37   95.69
  -2  -9   0 2329.87   97.69
   2  -9   0 2175.88   95.99
  -2   9   0 2285.77   98.39
  -2   9   0 2171.08   95.69
   2   9   0 2324.57  102.19
  -2   9   0 2320.77   96.69
  -3  -9   0 1160.28   51.79
  -3  -9   0 1227.78   50.79
  -3  -9   0 1178.38   49.80
  -3  -9   0 1204.58   62.29
  -3  -9   0 1145.89   53.69
   3  -9   0 1085.29   49.30
  -3  -9   0 1171.68   51.49
   3  -9   0 1130.09   55.59
  -3   9   0 1095.49   48.40
  -3   9   0  943.61   57.79
   3   9   0 1099.19   58.89
  -3   9   0 1210.88   50.19
  -3   9   0 1091.49   54.49
  -3   9   0 1165.58   49.80
  -3   9   0 1142.09   51.79
   3   9   0 1100.89   49.30
   4  -9   0  427.26   23.90
  -4  -9   0  429.26   22.00
  -4  -9   0  431.36   24.10
  -4  -9   0  429.06   21.80
  -4  -9   0  372.96   21.80
  -4  -9   0  444.26   21.00
  -4  -9   0  395.86   24.90
  -4   9   0  382.66   23.00
  -4   9   0  406.26   21.10
  -4   9   0  423.06   20.20
  -4   9   0  431.96   20.30
  -4   9   0  399.46   24.90
  -4   9   0  424.26   35.10
   4   9   0  385.76   19.30
  -5  -9   0  527.35   25.30
  -5  -9   0  537.45   26.30
  -5  -9   0  550.54   26.60
  -5  -9   0  548.55   25.00
  -5  -9   0  475.35   28.20
  -5  -9   0  549.35   27.60
  -5   9   0  499.25   23.70
  -5   9   0  478.75   24.30
  -5   9   0  531.65   26.60
  -6  -9   0  391.86   19.00
  -6  -9   0  338.47   16.70
  -6   9   0  330.87   15.40
  -6   9   0  356.36   16.10
   0 -10   0 1589.84   69.69
   0 -10   0 1536.65  123.89
   0  10   0 1579.04   68.99
   0  10   0 1664.23   73.39
   0  10   0 1589.44   68.59
   0  10   0 1729.63   75.19
   1 -10   0  216.38   11.40
  -1 -10   0  217.68   10.90
  -1 -10   0  201.68   38.10
  -1 -10   0  224.98   11.70
   1 -10   0  213.48   13.10
   1  10   0  235.28   16.00
  -1  10   0  225.68   11.70
   1  10   0  208.58   11.40
  -1  10   0  204.28   11.00
  -1  10   0  231.58   14.90
  -1  10   0  235.38   19.30
  -2 -10   0  480.95   25.30
  -2 -10   0  518.45   23.60
   2 -10   0  463.95   21.90
  -2 -10   0  455.05   21.50
   2 -10   0  453.35   24.70
  -2 -10   0  429.46   55.19
  -2 -10   0  457.35   21.80
  -2  10   0  455.55   33.50
   2  10   0  419.46   21.60
  -2  10   0  490.45   23.20
  -2  10   0  443.26   21.60
  -2  10   0  499.25   22.60
   2  10   0  473.15   27.90
  -3 -10   0  557.54   29.30
   3 -10   0  506.75   25.20
   3 -10   0  536.55   29.30
  -3 -10   0  575.84   26.60
  -3 -10   0  571.04   27.40
  -3 -10   0  563.54   56.69
  -3 -10   0  583.84   28.10
  -3  10   0  576.94   29.70
  -3  10   0  555.44   27.00
  -3  10   0  524.75   25.30
  -3  10   0  540.45   26.00
   3  10   0  529.65   25.40
  -3  10   0  538.75   40.50
  -3  10   0  542.15   24.60
  -4 -10   0  121.59   10.80
   4 -10   0  158.48   14.90
   4 -10   0  132.09    7.40
  -4 -10   0  145.69    9.80
  -4 -10   0  125.29   13.70
  -4 -10   0  133.89    8.70
  -4 -10   0  144.19   11.10
  -4 -10   0  141.19    9.30
   4  10   0  139.59    7.80
  -4  10   0  118.79   11.60
  -4  10   0  144.89    8.20
  -4  10   0  137.59    9.50
  -4  10   0  134.99    8.30
  -5 -10   0  238.28   13.10
  -5 -10   0  201.68   11.00
  -5 -10   0  203.38   11.50
  -5 -10   0  202.58   14.10
  -5 -10   0  200.48   12.80
  -5  10   0  186.78   12.50
  -5  10   0  198.78   10.90
  -5  10   0  209.38   10.30
   0 -11   0    2.90    7.70
   0 -11   0    2.00    1.20
   0  11   0    4.30    1.50
   0  11   0    1.70    1.10
   1 -11   0  789.32   36.80
  -1 -11   0  768.92   33.50
   1 -11   0  808.42   34.50
  -1 -11   0  744.73   81.89
  -1 -11   0  811.22   34.90
  -1  11   0  742.93   44.60
  -1  11   0  728.53   33.80
   1  11   0  758.32   34.40
   1  11   0  795.12   41.00
  -1  11   0  762.52   34.60
   1  11   0  751.22   34.70
  -1  11   0  781.82   41.20
  -2 -11   0 2989.80  254.67
  -2 -11   0 2879.91  126.29
  -2 -11   0 3045.60  130.59
   2 -11   0 3231.48  127.69
  -2 -11   0 2949.41  127.69
   2 -11   0 2883.51  136.39
  -2  11   0 2928.91  126.39
  -2  11   0 3130.49  127.19
   2  11   0 3082.99  135.09
  -3 -11   0  943.01   52.19
   3 -11   0 1113.29   51.49
  -3 -11   0 1088.69   48.70
   3 -11   0 1056.79   46.80
  -3 -11   0 1024.10   49.30
  -3 -11   0 1150.98   88.19
  -3 -11   0 1128.09   48.00
  -3 -11   0 1052.69   50.79
  -3  11   0 1098.99   51.29
  -3  11   0 1003.80   46.30
  -3  11   0 1095.99   47.60
  -3  11   0 1112.69   48.60
  -3  11   0 1088.89   46.00
   3  11   0 1045.60   46.90
   4 -11   0  659.33   28.80
  -4 -11   0  671.63   33.20
  -4 -11   0  645.64   34.70
   4 -11   0  696.53   33.70
  -4 -11   0  627.34   31.60
  -4 -11   0  684.43   30.10
  -4 -11   0  666.93   31.00
  -4  11   0  575.14   30.10
  -4  11   0  624.44   32.70
   4  11   0  681.03   29.20
  -4  11   0  631.34   29.00
  -5 -11   0  223.28   14.70
  -5 -11   0  249.68   13.10
  -5 -11   0  236.38   14.10
  -5 -11   0  268.37   12.70
  -5 -11   0  242.08   12.00
  -5  11   0  217.58   11.30
  -5  11   0  260.37   13.80
  -5  11   0  228.18   12.00
   0 -12   0 1349.77   59.39
   0 -12   0 1421.06   61.29
   0  12   0 1374.96   60.29
   0  12   0 1411.96   59.89
   0  12   0 1398.66   66.49
  -1 -12   0  439.86   21.00
  -1 -12   0  408.56   20.00
  -1 -12   0  426.46   63.89
   1 -12   0  403.66   26.20
   1 -12   0  455.25   20.70
  -1  12   0  391.06   40.40
  -1  12   0  429.06   19.90
  -1  12   0  436.06   21.50
  -1  12   0  401.36   24.30
  -1  12   0  434.06   21.30
   1  12   0  430.46   20.80
   1  12   0  450.15   27.40
   1  12   0  446.66   20.90
  -2 -12   0 1602.24   65.49
  -2 -12   0 1539.05   68.79
   2 -12   0 1535.55   64.69
  -2 -12   0 1497.95   65.79
   2 -12   0 1499.65   68.09
   2  12   0 1487.95   64.69
  -2  12   0 1494.25   65.19
  -2  12   0 1420.16   64.29
  -2  12   0 1497.25   81.09
  -2  12   0 1447.76   65.69
  -3 -12   0  331.77   18.00
  -3 -12   0  306.77   18.60
   3 -12   0  317.57   15.50
  -3 -12   0  303.27   17.40
  -3 -12   0  303.47   20.40
   3 -12   0  333.07   19.30
  -3  12   0  315.57   16.70
  -3  12   0  306.67   19.10
  -3  12   0  273.87   18.20
  -3  12   0  307.37   14.70
   3  12   0  310.07   15.60
  -4 -12   0   21.50    4.20
  -4 -12   0   16.80    2.80
  -4 -12   0   16.90    3.20
   4  12   0   17.90    2.20
  -4  12   0   17.80    3.40
  -4  12   0   21.80    2.80
  -5 -12   0  260.27   16.10
  -5 -12   0  236.68   12.60
  -5 -12   0  242.38   12.60
  -5 -12   0  223.78   13.30
  -5  12   0  259.17   13.20
   0 -13   0    5.30    1.50
   0  13   0    4.10    1.40
  -1 -13   0  730.63  107.69
   1 -13   0  890.11   41.00
   1 -13   0  909.21   38.50
  -1 -13   0  882.01   37.50
  -1 -13   0  864.71   39.10
  -1  13   0  865.01   38.70
  -1  13   0  871.21   39.30
   1  13   0  904.81   38.70
   1  13   0  843.62   38.60
  -1  13   0  858.81   37.70
  -2 -13   0  387.26   21.70
   2 -13   0  427.16   22.00
  -2 -13   0  359.46   18.90
  -2 -13   0  399.96   19.10
  -2 -13   0  377.06   58.09
   2 -13   0  380.86   18.40
  -2  13   0  363.96   18.20
  -2  13   0  373.26   19.30
  -2  13   0  388.96   18.90
   2  13   0  359.06   18.40
  -2  13   0  328.67   29.90
  -3 -13   0  643.64   33.10
  -3 -13   0  668.33   30.30
  -3 -13   0  684.33   32.40
  -3 -13   0  656.63   30.90
  -3 -13   0  647.24   35.50
   3 -13   0  658.63   29.70
   3 -13   0  708.63   33.90
   3  13   0  683.03   30.10
  -3  13   0  660.43   34.40
  -3  13   0  644.44   30.10
  -3  13   0  646.54   30.80
  -3  13   0  666.03   29.00
  -4 -13   0   43.80    5.60
  -4 -13   0   45.60    4.00
  -4 -13   0   41.00    3.80
   4 -13   0   56.49    3.40
  -4 -13   0   45.40    4.70
  -4 -13   0   46.50    4.50
  -4  13   0   46.60    3.90
   4  13   0   51.09    3.50
  -4  13   0   50.09    5.20
   0 -14   0 2178.68  100.19
   0 -14   0 2256.77   94.89
   0  14   0 2326.57   95.39
   0  14   0 2263.67   95.69
   1 -14   0 1453.05   62.79
  -1 -14   0 1385.16   60.99
  -1 -14   0 1472.45   64.19
  -1 -14   0 1408.66  133.69
  -1 -14   0 1398.36   59.09
   1 -14   0 1378.56   59.99
  -1  14   0 1374.06   60.29
  -1  14   0 1342.87   59.19
   1  14   0 1373.86   60.19
   1  14   0 1447.16   60.49
  -1  14   0 1324.57   60.49
  -2 -14   0  413.56   21.50
   2 -14   0  416.66   19.40
  -2 -14   0  382.46   22.10
  -2 -14   0  399.56   60.79
   2 -14   0  414.96   22.30
  -2  14   0  411.96   19.80
   2  14   0  404.76   19.50
  -2  14   0  402.86   19.20
  -2  14   0  401.36   24.50
   3 -14   0  162.38    8.10
  -3 -14   0  134.69    9.90
  -3 -14   0  139.79   11.60
   3 -14   0  162.88   12.30
  -3 -14   0  142.79    8.40
  -3 -14   0  147.29    9.80
  -3  14   0  133.59    8.50
  -3  14   0  133.99   10.90
   3  14   0  142.59    8.10
  -3  14   0  140.79    7.30
  -4 -14   0  231.68   14.80
  -4 -14   0  259.37   12.10
  -4 -14   0  246.88   13.40
  -4 -14   0  246.68   13.30
  -4  14   0  278.07   14.70
   4  14   0  279.17   12.00
  -4  14   0  257.57   12.50
   0  15   0    9.00    1.90
   1 -15   0 1015.10   45.00
   1 -15   0  957.10   42.30
  -1 -15   0  947.21   43.50
  -1  15   0  948.71   41.40
   1  15   0  953.30   42.60
   1  15   0  993.60   42.80
  -1  15   0  990.10   42.80
  -2 -15   0  291.77   17.00
   2 -15   0  315.77   14.60
   2 -15   0  308.57   17.20
  -2 -15   0  279.87   18.70
  -2 -15   0  295.37   16.40
  -2  15   0  303.57   19.70
   2  15   0  284.47   14.60
  -2  15   0  296.37   14.40
  -2  15   0  295.37   14.80
  -2  15   0  284.17   15.20
  -3 -15   0  171.08   11.60
  -3 -15   0  175.18   10.70
  -3 -15   0  172.98   12.50
   3 -15   0  185.28    9.30
   3  15   0  193.48   11.80
  -3  15   0  181.28    9.70
  -3  15   0  186.08    8.60
  -3  15   0  197.48   12.50
  -4 -15   0  255.77   12.60
  -4 -15   0  237.48   13.80
   4  15   0  239.18   11.30
  -4  15   0  287.97   14.50
   0 -16   0  775.02   35.10
   0 -16   0  742.63   32.90
   0  16   0  749.73   33.60
   0  16   0  758.12   33.10
  -1 -16   0  339.77   19.00
   1 -16   0  343.37   17.90
   1 -16   0  342.57   15.60
  -1 -16   0  290.27   16.90
  -1  16   0  335.77   15.90
   1  16   0  326.57   15.70
   1  16   0  324.97   15.70
  -1  16   0  314.67   17.70
  -2 -16   0   98.59    7.50
  -2 -16   0   95.59    8.90
  -2 -16   0   91.59    6.90
   2 -16   0  101.39    5.90
   2  16   0  102.59    6.10
  -2  16   0  111.49    9.10
  -2  16   0  103.89    5.80
  -3 -16   0  114.19    8.60
   3 -16   0  111.09    6.70
  -3 -16   0  105.89    6.80
  -3  16   0  106.99    8.00
   3  16   0  117.79    6.10
  -3  16   0  123.19    5.70
   0 -17   0    4.60    2.30
   0  17   0   10.00    2.60
  -1 -17   0  265.67   14.10
   1 -17   0  314.87   15.80
   1  17   0  267.07   13.00
  -1  17   0  281.27   13.00
  -1  17   0  241.98   14.30
   1  17   0  283.47   13.30
  -2 -17   0  117.39    9.10
  -2 -17   0  116.79    7.30
   2 -17   0  128.49    6.60
   2  17   0  125.49    6.60
  -2  17   0  127.89    6.40
  -2  17   0  137.49    9.10
   0  18   0  836.32   40.90
   0  18   0  956.30   39.80
  -1 -18   0  642.14   33.00
   1  18   0  647.14   28.90
  -1  18   0  672.63   33.20
   1  18   0  682.83   28.80
  -1  18   0  744.33   30.70
  -2 -18   0   92.79    6.50
   2  18   0   88.49    4.50
  -2  18   0   88.29    4.20
  -2  18   0   79.19    5.80
  -6   0   1 1362.86   61.39
  -6   0   1 1467.65   65.89
  -6   0   1 1261.27   61.09
  -6   0   1 1470.65   64.49
  -6   0   1 1203.28   64.69
  -6   0   1 1430.86   59.79
  -6   0   1 1462.15   58.79
  -6   0   1 1289.37   58.89
  -6   0   1 1388.86   59.19
  -5   0   1    9.60    2.20
  -5   0   1   10.40    1.90
  -5   0   1    8.10    2.50
  -5   0   1    9.10    1.90
  -5   0   1    8.50    2.60
  -5   0   1   10.90    3.20
  -4   0   1 1188.28   53.99
  -4   0   1 1252.77   54.59
  -4   0   1 1186.08   57.29
  -4   0   1 1308.07   56.49
  -4   0   1 1269.17   57.89
   4   0  -1 1169.28   57.19
  -4   0   1 1258.07   57.59
  -4   0   1 1371.56   62.09
  -4   0   1 1297.97   55.29
  -4   0   1 1213.58   54.69
  -4   0   1 1285.17   60.09
  -4   0   1 1301.97   56.79
  -4   0   1 1266.07   55.99
  -3   0   1   25.40    2.30
  -2   0   1 1819.92   75.59
   2   0   1 3685.73  163.28
  -2   0  -1 4232.78  170.28
  -3   0  -1  155.28   13.30
   3   0   1  123.69    7.40
  -4   0  -1  654.53   32.90
  -4   0  -1  634.24   31.80
  -4   0  -1  711.83   30.70
  -4   0  -1  638.64   39.10
  -4   0  -1  688.33   35.30
  -4   0  -1  639.64   31.50
  -4   0  -1  680.33   37.30
  -4   0  -1  648.24   30.70
  -4   0  -1  656.13   32.20
  -4   0  -1  646.34   32.70
  -4   0  -1  667.63   37.90
  -4   0  -1  694.73   33.00
  -4   0  -1  694.63   30.50
  -5   0  -1  631.04   37.80
  -5   0  -1  639.24   29.80
  -5   0  -1  654.83   35.10
   5   0   1  621.94   28.90
  -5   0  -1  613.94   32.70
  -5   0  -1  649.34   31.20
  -5   0  -1  679.63   38.00
  -5   0  -1  700.13   32.90
  -5   0  -1  648.34   30.00
  -5   0  -1  655.33   31.90
  -6   0  -1  208.38   15.20
  -6   0  -1  208.78   14.90
  -6   0  -1  203.48    9.90
  -6   0  -1  168.98   11.30
  -6   0  -1  177.58   11.50
  -6   0  -1  208.08   10.50
  -6   0  -1  164.58   12.00
  -6  -1   1 1166.68   55.19
  -6  -1   1 1234.08   54.29
  -6  -1   1 1260.27   53.59
  -6  -1   1 1237.98   53.09
  -6  -1   1 1157.78   54.39
  -6  -1   1 1189.48   57.39
  -6  -1   1 1296.07   58.99
  -6  -1   1 1307.07   52.59
  -6   1   1 1289.87   57.89
  -6   1   1 1205.18   53.09
  -6   1   1 1200.88   54.39
  -6   1   1 1179.78   59.19
  -6   1   1 1275.07   55.29
  -6   1   1 1211.78   52.99
  -6   1   1 1237.08   55.39
  -6   1   1 1294.57   55.49
  -6   1   1 1142.69   52.59
  -6   1   1 1148.39   52.49
  -5  -1   1 1089.49   47.50
  -5  -1   1 1101.19   54.59
  -5  -1   1 1093.09   49.70
  -5  -1   1 1093.09   48.30
  -5  -1   1 1079.99   49.30
  -5  -1   1 1062.59   54.99
  -5  -1   1 1018.60   50.09
  -5  -1   1 1029.10   48.60
  -5  -1   1 1081.89   53.09
  -5  -1   1 1046.60   46.30
  -5  -1   1 1027.20   46.90
  -5  -1   1 1062.79   50.09
  -5   1   1 1132.79   55.39
  -5   1   1 1116.59   59.89
  -5   1   1 1068.39   55.49
  -5   1   1 1045.10   47.70
  -5   1   1 1082.99   49.50
  -5   1   1  959.20   52.19
  -5   1   1 1057.69   46.70
  -5   1   1 1069.49   50.29
  -5   1   1  951.00   49.30
  -5   1   1 1122.69   49.50
  -5   1   1  947.61   46.60
  -4  -1   1  273.27   14.80
  -4  -1   1  322.77   20.80
  -4  -1   1  289.57   16.30
  -4  -1   1  305.57   15.10
  -4  -1   1  318.17   18.10
  -4  -1   1  287.87   15.30
  -4  -1   1  309.27   17.10
  -4  -1   1  311.67   19.60
   4  -1  -1  274.67   16.90
  -4  -1   1  301.77   20.40
  -4  -1   1  326.47   22.40
  -4  -1   1  312.67   16.70
  -4  -1   1  293.47   17.60
  -4  -1   1  319.87   16.00
  -4  -1   1  290.37   17.50
  -4   1   1  291.57   20.60
  -4   1   1  339.97   23.90
   4   1  -1  277.77   18.00
  -4   1   1  307.27   16.80
  -4   1   1  297.17   17.70
  -4   1   1  306.27   15.60
  -4   1   1  297.77   15.30
  -4   1   1  293.87   17.40
  -4   1   1  292.37   15.70
  -4   1   1  316.57   20.90
  -4   1   1  287.37   17.60
  -4   1   1  313.97   19.60
  -4   1   1  289.57   14.70
   3  -1  -1 3738.03  159.58
  -3  -1   1 3836.62  157.28
  -3   1   1 3758.12  156.98
   3   1  -1 3849.51  167.98
  -2  -1   1 2579.54  105.19
  -2   1   1 2503.35  104.99
  -2  -1  -1  766.72   35.50
  -2  -1  -1  712.93   42.20
  -2  -1  -1  711.83   30.50
  -2   1  -1  702.33   37.00
   2   1   1  686.43   31.30
  -3  -1  -1  613.54   32.80
  -3   1  -1  593.34   34.70
   3   1   1  553.24   26.80
  -4  -1  -1 3860.21  175.88
  -4  -1  -1 4058.69  170.18
  -4  -1  -1 4261.47  178.28
  -4  -1  -1 4155.58  177.88
   4  -1   1 3798.92  167.58
  -4  -1  -1 4133.39  168.78
  -4  -1  -1 3868.51  171.38
  -4  -1  -1 4083.79  170.68
  -4  -1  -1 4065.49  171.48
  -4  -1  -1 4512.35  171.88
  -4  -1  -1 3740.33  173.38
  -4  -1  -1 4134.39  168.98
  -4   1  -1 4033.20  168.98
  -4   1  -1 3973.70  170.88
  -4   1  -1 3855.81  169.08
  -4   1  -1 3807.82  173.68
  -4   1  -1 3963.20  171.38
  -4   1  -1 4272.77  171.98
  -4   1  -1 3926.01  168.58
  -4   1  -1 4357.46  171.88
  -4   1  -1 3942.61  169.68
  -4   1  -1 4205.08  177.58
  -5  -1  -1  149.99   12.60
  -5  -1  -1  128.99    9.60
  -5  -1  -1  136.79   13.50
  -5  -1  -1  129.79   13.70
   5  -1   1  151.38    8.50
  -5  -1  -1  159.88   10.90
  -5  -1  -1  153.58    9.00
  -5  -1  -1  166.78   10.80
  -5  -1  -1  152.08   11.20
  -5  -1  -1  148.39   10.90
  -5  -1  -1  150.78    8.90
   5   1   1  144.09    8.40
  -5   1  -1  147.79    8.80
  -5   1  -1  145.39    8.90
  -5   1  -1  144.49   10.80
  -5   1  -1  154.68    9.30
  -5   1  -1  145.09    9.80
  -5   1  -1  139.29   12.10
  -5   1  -1  138.69   11.00
  -5   1  -1  153.48   10.50
  -5   1  -1  162.78   15.20
  -5   1  -1  153.08   14.60
  -6  -1  -1   19.00    4.10
  -6  -1  -1   19.80    2.80
  -6  -1  -1   17.10    2.90
  -6  -1  -1   19.80    2.10
  -6  -1  -1   15.00    2.80
  -6  -1  -1   18.50    4.00
  -6   1  -1   18.10    4.00
  -6   1  -1   19.80    3.00
  -6   1  -1   20.30    4.50
  -6   1  -1   17.70    2.40
  -6   1  -1   19.70    3.00
  -6   1  -1   24.00    2.30
  -6   1  -1   20.00    2.20
  -6  -2   1  254.27   13.50
  -6  -2   1  251.47   12.40
  -6  -2   1  256.37   14.20
  -6  -2   1  268.27   14.30
  -6  -2   1  250.57   16.70
  -6  -2   1  235.58   17.40
  -6  -2   1  237.38   14.80
  -6   2   1  272.87   14.70
  -6   2   1  253.27   14.70
  -6   2   1  244.88   12.80
  -6   2   1  245.08   13.40
  -6   2   1  244.28   12.70
  -6   2   1  246.58   18.00
  -6   2   1  255.07   18.40
  -6   2   1  245.08   13.90
  -5  -2   1    7.80    4.60
  -5  -2   1   11.10    3.50
  -5  -2   1   13.20    2.70
  -5  -2   1   11.60    3.10
  -5  -2   1    9.20    2.00
  -5  -2   1    9.00    3.30
  -5  -2   1    9.60    2.20
  -5  -2   1   11.90    2.80
  -5  -2   1    8.10    2.30
  -5  -2   1   10.70    2.80
  -5   2   1   16.30    6.70
  -5   2   1    8.80    4.50
  -5   2   1   10.30    3.80
  -5   2   1   12.40    2.80
  -5   2   1   11.90    2.60
  -5   2   1    9.50    1.90
  -5   2   1    9.40    3.00
  -5   2   1    6.20    2.50
  -5   2   1    9.20    2.00
  -5   2   1   10.10    2.50
  -5   2   1    9.20    2.00
  -5   2   1    8.90    2.60
  -4  -2   1  145.79   12.30
  -4  -2   1  137.99   12.00
  -4  -2   1  123.89    7.90
  -4  -2   1  121.59    7.50
  -4  -2   1  125.89    8.80
  -4  -2   1  122.29    8.80
  -4  -2   1  122.79   10.80
  -4  -2   1  146.79   10.50
  -4  -2   1  138.09    8.50
  -4  -2   1  128.49    9.80
  -4  -2   1  131.59    9.40
  -4  -2   1  116.69    9.50
  -4   2   1  128.89   11.10
  -4   2   1  124.49    8.10
  -4   2   1  126.39    9.20
  -4   2   1  126.59    8.30
  -4   2   1  148.99   10.30
  -4   2   1  120.69    9.40
  -4   2   1  112.69    7.70
  -4   2   1  124.09    7.30
  -4   2   1  113.79   13.60
  -4   2   1  122.89   12.20
  -4   2   1  126.29    9.10
  -4   2   1  117.19    9.70
   4   2  -1  133.59   10.90
  -4   2   1  121.79    8.50
  -4   2   1  122.99   12.00
  -3  -2   1 1502.85   63.59
  -3   2   1 1472.85   62.99
   3   2  -1 1535.65   66.99
  -2  -2   1 2123.39   85.69
  -2  -2   1 2210.68   93.79
  -2  -2   1 1929.21   93.69
   2   2  -1 1873.51   87.69
  -2   2   1 2201.68   92.29
  -2   2   1 2019.40   85.09
  -2  -2  -1  169.58    8.50
  -2  -2  -1  192.08   18.80
  -2  -2  -1  195.08   11.50
   2  -2   1  163.78    8.20
  -2   2  -1  180.48   14.20
   2   2   1  166.58    9.60
  -3  -2  -1 1034.60   46.40
   3  -2   1  890.71   39.80
   3   2   1  885.51   41.90
  -4  -2  -1   17.90    3.80
  -4  -2  -1   13.50    2.80
  -4  -2  -1   16.70    2.80
  -4  -2  -1   14.20    2.90
  -4  -2  -1   13.20    2.70
  -4  -2  -1   13.20    4.00
  -4  -2  -1   14.40    2.20
  -4  -2  -1   15.40    3.20
  -4   2  -1   11.90    3.30
  -4   2  -1   12.60    2.90
  -4   2  -1   19.10    2.50
  -4   2  -1   13.70    2.60
  -4   2  -1   15.40    2.90
  -4   2  -1   16.50    2.50
  -4   2  -1   13.00    2.40
  -4   2  -1   12.70    3.90
  -4   2  -1   14.10    3.40
  -4   2  -1   13.80    2.30
  -5  -2  -1  102.09    8.20
  -5  -2  -1  138.09   10.60
  -5  -2  -1  110.49   11.60
  -5  -2  -1  126.89    9.80
  -5  -2  -1  118.79   10.90
  -5  -2  -1  112.39    9.20
  -5  -2  -1  111.99    7.30
  -5  -2  -1  115.89   12.10
  -5  -2  -1  116.79    7.30
  -5   2  -1  116.49   11.00
  -5   2  -1  106.89    7.60
  -5   2  -1  115.19   12.50
  -5   2  -1  104.69    7.90
  -5   2  -1  129.49   13.00
  -5   2  -1  110.89    8.70
   5   2   1  115.99    7.10
  -5   2  -1  110.89   15.80
  -5   2  -1  131.29    9.80
  -5   2  -1  112.39    7.50
  -5   2  -1  112.19    7.20
  -5   2  -1  117.59    9.40
  -6  -2  -1   55.99    6.80
  -6  -2  -1   46.10    5.40
  -6  -2  -1   50.39    3.40
  -6  -2  -1   49.70    4.80
  -6  -2  -1   52.49    8.20
  -6  -2  -1   49.70    4.40
  -6  -2  -1   56.69    5.10
  -6   2  -1   49.70    3.70
  -6   2  -1   45.40    4.60
  -6   2  -1   44.50    5.20
  -6   2  -1   51.29    3.80
  -6   2  -1   44.20    3.80
  -6   2  -1   47.60    6.90
  -6  -3   1  346.97   19.60
  -6  -3   1  405.46   22.30
  -6  -3   1  370.36   19.20
  -6  -3   1  396.76   22.70
  -6  -3   1  384.76   19.10
  -6  -3   1  374.46   18.50
  -6   3   1  419.76   24.50
  -6   3   1  368.76   17.70
  -6   3   1  352.66   18.30
  -6   3   1  349.96   17.90
  -6   3   1  365.96   19.60
  -6   3   1  354.26   17.50
  -6   3   1  345.57   18.50
  -5  -3   1 1760.42   73.09
  -5  -3   1 1742.53   77.39
  -5  -3   1 1769.82   76.29
  -5  -3   1 1739.73   73.99
  -5  -3   1 1673.63   75.29
  -5  -3   1 1819.32   80.89
  -5  -3   1 1622.94   76.09
  -5   3   1 1850.01   77.29
  -5   3   1 1714.33   75.49
  -5   3   1 1585.94   81.69
  -5   3   1 1721.73   74.09
  -5   3   1 1645.44   73.69
  -5   3   1 1729.83   79.59
  -5   3   1 1753.72   76.29
  -5   3   1 1779.02   76.39
  -5   3   1 1625.24   73.89
  -5   3   1 1638.24   76.69
  -5   3   1 1688.43   89.59
  -4  -3   1  857.71   39.40
  -4  -3   1  862.01   41.80
  -4  -3   1  811.32   41.30
  -4  -3   1  870.41   42.10
  -4  -3   1  877.51   39.20
  -4  -3   1  883.91   43.60
  -4  -3   1  927.01   45.20
  -4  -3   1  881.41   40.20
  -4  -3   1  873.91   38.30
  -4  -3   1  900.31   41.20
  -4  -3   1  898.51   44.90
  -4  -3   1  887.61   40.70
  -4   3   1  866.11   51.39
  -4   3   1  842.12   39.30
  -4   3   1  857.41   43.50
  -4   3   1  938.41   41.30
  -4   3   1  913.71   40.90
  -4   3   1  903.81   46.20
  -4   3   1  826.02   41.60
  -4   3   1  867.91   41.60
  -4   3   1  911.81   46.10
  -4   3   1  880.11   39.50
   4   3  -1  827.92   43.00
  -4   3   1  855.61   39.00
  -4   3   1  863.91   41.40
  -4   3   1  807.32   39.10
  -3  -3   1 2868.21  123.89
   3   3  -1 3066.09  127.99
  -3   3   1 2989.50  122.99
  -2  -3   1 3636.34  150.28
  -2   3   1 3488.05  164.68
  -2   3   1 3712.63  149.59
   2   3  -1 3718.13  153.08
   1  -3  -1 1556.14   67.49
  -1  -3   1 1553.34   84.59
  -1  -3   1 1619.04   66.59
   1  -3  -1 1544.65   68.19
  -1  -3   1 1669.23   66.69
  -1   3   1 1716.53   66.09
  -1   3   1 1563.54   90.09
   1   3  -1 1647.44   68.69
   0  -3  -1 3404.56  141.59
  -2  -3  -1 2643.64  122.49
   2  -3   1 2218.28  100.49
  -2  -3  -1 2445.56  101.09
   2   3   1 2443.06  103.19
  -2   3  -1 2433.06  110.99
   3  -3   1  972.60   41.80
  -3  -3  -1  962.20   53.39
  -3   3  -1 1008.40   54.49
   3   3   1 1003.60   45.00
  -4  -3  -1 1562.14   65.49
  -4  -3  -1 1679.03   65.79
   4  -3   1 1505.75   64.29
  -4  -3  -1 1603.54   68.59
  -4  -3  -1 1536.55   68.19
  -4  -3  -1 1458.15   68.09
  -4  -3  -1 1470.25   72.19
  -4  -3  -1 1539.55   67.19
  -4  -3  -1 1416.86   66.89
  -4  -3  -1 1387.56   69.89
  -4  -3  -1 1521.35   73.29
  -4   3  -1 1538.85   73.49
  -4   3  -1 1579.64   68.69
  -4   3  -1 1514.05   67.89
  -4   3  -1 1502.75   65.49
  -4   3  -1 1507.85   74.09
  -4   3  -1 1440.06   66.69
  -4   3  -1 1582.24   66.39
  -4   3  -1 1489.75   66.29
  -4   3  -1 1578.44   70.79
  -4   3  -1 1665.63   68.79
  -4   3  -1 1423.56   79.19
  -4   3  -1 1547.35   66.39
  -5  -3  -1 1826.72   85.49
  -5  -3  -1 1793.72   80.69
  -5  -3  -1 1831.42   83.59
  -5  -3  -1 1707.23   79.09
  -5  -3  -1 1884.91   79.69
  -5  -3  -1 1894.51   81.19
  -5  -3  -1 1706.03   85.29
  -5   3  -1 1834.92   86.59
  -5   3  -1 1872.21   80.89
  -5   3  -1 1750.52   80.69
  -5   3  -1 1912.81   80.49
  -5   3  -1 1724.33   77.49
  -5   3  -1 2020.50   88.49
  -5   3  -1 1745.13   78.19
  -5   3  -1 1835.52   78.39
  -6  -3  -1  277.77   13.30
  -6  -3  -1  287.07   19.30
  -6  -3  -1  270.17   15.90
  -6  -3  -1  274.67   15.50
  -6  -3  -1  277.57   15.30
  -6  -3  -1  258.67   17.50
  -6   3  -1  311.77   19.40
  -6   3  -1  313.67   14.40
  -6   3  -1  246.48   16.20
  -6   3  -1  300.07   15.60
  -6   3  -1  311.47   13.90
  -6   3  -1  274.47   14.30
  -6  -4   1  280.97   14.90
  -6  -4   1  268.07   14.50
  -6  -4   1  296.77   16.00
  -6  -4   1  294.77   15.80
  -6   4   1  283.57   15.70
  -6   4   1  273.27   13.80
  -6   4   1  267.97   14.00
  -5  -4   1  685.93   36.20
  -5  -4   1  703.23   32.40
  -5  -4   1  697.33   36.40
  -5  -4   1  723.83   37.70
  -5  -4   1  685.23   32.40
  -5  -4   1  655.33   32.80
  -5  -4   1  639.84   33.00
   5  -4  -1  610.94   32.20
  -5  -4   1  694.33   30.10
  -5   4   1  604.64   30.80
  -5   4   1  679.13   32.20
  -5   4   1  689.43   33.30
  -5   4   1  638.94   33.50
  -5   4   1  649.24   35.60
  -5   4   1  643.04   32.60
  -5   4   1  718.03   39.60
  -5   4   1  713.23   38.90
  -5   4   1  676.93   44.30
  -5   4   1  629.54   30.60
  -5   4   1  618.14   30.80
  -4  -4   1  207.98   12.00
  -4  -4   1  213.38   13.90
  -4  -4   1  194.28   11.00
  -4  -4   1  222.78   11.70
  -4  -4   1  207.68   14.70
  -4  -4   1  205.08   15.30
  -4  -4   1  191.28   14.80
  -4  -4   1  207.58   12.80
  -4  -4   1  210.28   11.80
  -4  -4   1  202.18   13.20
  -4  -4   1  191.68   13.20
  -4  -4   1  204.98   10.60
  -4  -4   1  204.08   12.50
  -4   4   1  195.68   12.90
  -4   4   1  180.08   19.00
  -4   4   1  200.68   13.60
  -4   4   1  186.38   11.10
  -4   4   1  193.18   11.50
  -4   4   1  196.28   12.90
  -4   4   1  202.28   11.50
  -4   4   1  200.58   12.30
   4   4  -1  186.98   14.60
  -4   4   1  166.58   15.20
  -4   4   1  193.88   14.20
  -4   4   1  199.38   16.20
  -4   4   1  208.58   12.80
  -3  -4   1  430.96   20.60
  -3  -4   1  406.06   20.20
  -3  -4   1  353.86   18.10
   3   4  -1  360.86   21.40
  -3   4   1  369.26   27.60
  -2  -4   1 4677.43  187.58
  -2   4   1 5228.08  198.88
   2   4  -1 4312.97  190.48
  -2   4   1 4354.46  186.38
  -2   4   1 4159.28  208.88
  -1  -4   1   55.49    3.20
   1  -4  -1   52.19    3.90
   1  -4  -1   56.59   11.90
  -1  -4   1   53.39    3.00
  -1   4   1   67.39    4.30
   1   4  -1   56.99    4.60
   0  -4  -1  404.56   35.40
   0  -4   1  445.06   19.60
   0  -4   1  463.45   19.50
   0  -4   1  413.26   38.00
   0  -4  -1  457.55   20.30
   0   4  -1  494.95   21.30
   0   4   1  495.45   21.50
   0   4   1  510.15   21.80
   1  -4   1 3219.58  128.39
  -1  -4  -1 3175.88  129.09
   1  -4   1 2744.63  157.78
  -1  -4  -1 3243.88  128.49
  -1   4  -1 3097.39  128.59
   1   4   1 3225.78  130.89
  -2  -4  -1 1713.63   91.29
  -2  -4  -1 1575.04   67.19
   2  -4   1 1487.95   66.59
  -2   4  -1 1672.93   78.69
   2   4   1 1578.04   69.79
  -3  -4  -1  310.27   19.00
   3  -4   1  272.87   13.50
  -3  -4  -1  279.37   15.50
  -3  -4  -1  310.17   26.90
  -3  -4  -1  313.37   16.50
  -3  -4  -1  285.07   15.50
  -3  -4  -1  294.77   16.10
  -3   4  -1  305.67   17.80
  -3   4  -1  316.67   15.50
  -3   4  -1  289.97   24.20
  -3   4  -1  300.87   15.50
   3   4   1  295.67   16.90
  -3   4  -1  275.27   22.70
  -4  -4  -1 1037.20   42.70
  -4  -4  -1  947.21   49.40
   4  -4   1  940.81   41.70
  -4  -4  -1  993.80   47.80
  -4  -4  -1  943.31   44.80
  -4  -4  -1 1004.00   43.10
  -4  -4  -1  925.21   46.00
  -4  -4  -1  996.10   50.19
  -4  -4  -1  933.01   45.30
  -4   4  -1  874.21   44.70
  -4   4  -1  984.80   42.90
  -4   4  -1  943.01   50.59
  -4   4  -1 1012.70   46.00
  -4   4  -1  985.90   43.80
  -4   4  -1  939.01   44.00
  -4   4  -1  952.20   44.00
  -4   4  -1 1023.10   50.79
  -4   4  -1 1009.60   48.70
  -4   4  -1 1001.70   43.80
  -4   4  -1  971.20   45.50
  -5  -4  -1  517.15   30.40
  -5  -4  -1  572.24   27.90
  -5  -4  -1  506.95   31.30
  -5  -4  -1  549.85   26.90
  -5  -4  -1  563.84   28.10
  -5  -4  -1  537.85   23.90
  -5   4  -1  492.35   25.00
  -5   4  -1  492.85   31.60
  -5   4  -1  552.64   29.20
  -5   4  -1  485.65   27.20
  -5   4  -1  530.85   25.50
  -5   4  -1  555.54   25.50
  -5   4  -1  521.05   32.90
  -5   4  -1  564.94   29.00
  -5   4  -1  490.55   24.10
  -6  -4  -1  726.93   34.00
  -6  -4  -1  767.02   34.80
  -6   4  -1  805.42   33.50
  -6   4  -1  784.52   39.10
  -6   4  -1  716.73   34.80
  -6  -5   1  905.61   41.60
  -6  -5   1  870.71   40.30
  -6  -5   1  882.41   44.70
  -6  -5   1 1023.60   41.80
  -6   5   1  902.31   45.50
  -6   5   1  897.61   39.80
  -6   5   1  956.90   39.60
  -6   5   1  829.82   43.00
   5  -5  -1  133.09   11.30
  -5  -5   1  151.48   13.30
  -5  -5   1  142.59    9.90
  -5  -5   1  143.09   12.30
  -5  -5   1  135.69    9.50
  -5  -5   1  134.29   12.50
  -5  -5   1  138.99   10.20
  -5  -5   1  148.09   10.50
  -5  -5   1  137.09   10.70
  -5   5   1  131.49    8.50
  -5   5   1  137.49    8.90
  -5   5   1  142.79    8.90
  -5   5   1  156.38   25.20
  -5   5   1  142.29   13.70
  -5   5   1  155.48   10.20
  -5   5   1  136.39   10.70
  -5   5   1  140.59   10.20
  -4  -5   1   99.89    6.40
  -4  -5   1  116.99    9.20
  -4  -5   1  103.79   10.10
  -4  -5   1   95.49    8.00
  -4  -5   1   99.39    7.40
  -4  -5   1  100.69    8.00
   4  -5  -1   91.79    8.00
  -4  -5   1  103.79    7.30
  -4  -5   1  100.19    9.90
  -4  -5   1  102.79    9.80
  -4  -5   1  116.49    8.80
  -4  -5   1  110.19    7.20
  -4   5   1  102.29    7.90
  -4   5   1  103.09   14.10
  -4   5   1   92.89    7.90
  -4   5   1   99.19    8.70
  -4   5   1   92.89    7.90
  -4   5   1  105.49    8.40
  -4   5   1  104.39    7.00
  -4   5   1   99.49    7.20
  -4   5   1  117.19   10.00
  -4   5   1   97.89    7.20
  -4   5   1   94.49   10.60
   4   5  -1   95.29   10.30
  -3  -5   1  529.65   26.90
  -3  -5   1  541.75   28.90
  -3  -5   1  526.05   25.30
  -3  -5   1  547.35   37.60
  -3  -5   1  510.95   36.10
  -3  -5   1  571.44   26.20
  -3  -5   1  599.14   30.40
  -3  -5   1  560.54   27.30
  -3   5   1  521.45   26.00
  -3   5   1  557.14   26.90
   3   5  -1  639.44   30.40
  -3   5   1  562.64   30.60
  -3   5   1  626.34   40.00
  -3   5   1  535.95   27.90
   1  -5  -1 3352.56  189.48
  -1  -5   1 3772.72  151.28
  -1  -5   1 3503.15  151.08
   1  -5  -1 3552.24  152.48
  -1   5   1 4176.78  158.38
  -1   5   1 3619.94  152.88
   1   5  -1 3702.73  154.28
  -1  -5  -1  863.91   61.09
   1  -5   1  896.81   37.50
  -1  -5  -1  920.11   37.70
   1  -5   1  790.92   65.89
  -1  -5  -1  891.61   38.30
  -1   5  -1  982.80   46.60
   1   5   1  908.21   40.40
  -2  -5  -1 2565.34  108.69
  -2  -5  -1 2676.13  137.59
  -2  -5  -1 2564.14  108.09
   2  -5   1 2456.15  107.49
  -2   5  -1 2744.73  122.29
   2   5   1 2604.54  111.29
  -3  -5  -1  991.40   47.00
  -3  -5  -1 1044.70   63.29
   3  -5   1  900.41   40.50
  -3  -5  -1  937.31   45.30
  -3  -5  -1  963.80   43.80
  -3  -5  -1  913.01   42.90
  -3  -5  -1  954.90   42.90
  -3   5  -1  937.81   42.40
   3   5   1  895.91   45.30
  -3   5  -1  903.31   47.90
  -3   5  -1  990.00   44.60
  -3   5  -1 1023.10   43.90
  -3   5  -1  860.21   53.89
  -3   5  -1  986.60   42.90
  -3   5  -1 1008.00   47.80
  -3   5  -1  944.71   43.30
  -4  -5  -1  110.09    8.70
  -4  -5  -1  111.49   10.00
  -4  -5  -1  124.29   11.30
  -4  -5  -1  116.39    8.30
  -4  -5  -1  125.39   10.80
  -4  -5  -1  108.99    8.40
  -4  -5  -1  110.79   11.10
  -4   5  -1  109.19    7.80
  -4   5  -1   97.89    7.50
  -4   5  -1   97.29    8.40
  -4   5  -1   95.49   10.80
  -4   5  -1  115.79   15.80
  -4   5  -1  125.79   12.40
  -4   5  -1  115.89    7.30
  -5  -5  -1  358.76   20.40
  -5  -5  -1  385.26   20.00
  -5  -5  -1  352.86   19.20
  -5  -5  -1  363.76   19.50
  -5  -5  -1  349.37   23.10
  -5  -5  -1  356.86   21.70
  -5  -5  -1  354.66   22.60
  -5   5  -1  327.77   18.00
  -5   5  -1  375.56   19.90
  -5   5  -1  365.46   20.10
  -5   5  -1  359.16   18.20
  -6  -5  -1  204.48   12.90
  -6  -5  -1  206.68   12.10
  -6  -5  -1  215.68   11.30
  -6  -5  -1  234.58   14.80
  -6  -5  -1  205.58   12.50
  -6  -5  -1  204.78   11.60
  -6   5  -1  216.28   10.90
  -6   5  -1  202.78   14.40
  -6   5  -1  212.28   10.60
  -6   5  -1  219.58   10.70
  -6  -6   1   68.99    6.50
  -6  -6   1   64.39    5.20
  -6  -6   1   64.29    4.70
  -6  -6   1   56.69    5.20
  -6  -6   1   62.79    4.90
  -6  -6   1   60.49    6.90
  -6   6   1   70.89    4.80
  -6   6   1   65.99    4.40
  -6   6   1   59.19    4.30
  -5  -6   1  211.28   11.90
  -5  -6   1  178.68   12.80
   5  -6  -1  195.18   12.80
  -5  -6   1  195.38   13.50
  -5  -6   1  201.68   12.80
  -5  -6   1  188.38   18.10
  -5  -6   1  189.98   15.70
  -5   6   1  155.88   11.90
  -5   6   1  193.18   10.90
  -5   6   1  182.08   14.50
  -5   6   1  161.08   11.00
  -5   6   1  189.98   11.60
  -5   6   1  183.68   17.80
  -4  -6   1  989.60   48.50
  -4  -6   1  996.50   46.80
  -4  -6   1  977.90   45.70
  -4  -6   1  992.80   45.70
  -4  -6   1  955.20   48.00
  -4  -6   1 1000.00   43.70
   4  -6  -1  865.71   45.40
  -4  -6   1  966.40   45.80
  -4  -6   1 1029.10   45.50
  -4   6   1  995.40   45.30
  -4   6   1  988.80   44.80
  -4   6   1  981.80   50.49
  -4   6   1 1027.60   47.10
  -4   6   1  928.41   43.90
  -4   6   1  967.00   43.50
  -4   6   1 1014.40   45.80
  -4   6   1  963.20   57.99
   4   6  -1  971.90   51.69
   3  -6  -1   82.89    7.20
  -3  -6   1  102.19   10.10
  -3  -6   1   89.69   15.60
  -3  -6   1   96.99    6.30
  -3  -6   1   78.89    8.90
  -3  -6   1   90.59   15.50
  -3  -6   1   93.39    7.90
  -3   6   1   91.89    9.30
  -3   6   1  103.19    6.80
  -3   6   1  101.99    6.30
  -3   6   1  100.19    6.70
  -3   6   1   86.29    8.20
   3   6  -1   98.39    9.20
  -2  -6   1 7526.95  310.87
   2  -6  -1 7005.80  313.27
  -2  -6   1 7953.70  311.67
   2   6  -1 8204.58  316.47
  -2   6   1 7153.68  352.96
  -1  -6   1  438.16   19.20
  -1  -6   1  400.56   42.20
   1  -6  -1  443.36   44.10
  -1  -6   1  445.66   19.20
   1  -6  -1  440.26   20.60
   1   6  -1  403.86   21.80
  -1   6   1  472.95   21.30
  -1  -6  -1  952.80   38.40
  -1  -6  -1  924.21   39.20
   1  -6   1  902.41   38.30
   1  -6   1  924.51   37.70
  -1  -6  -1  882.11   65.99
   1  -6   1  792.02   70.79
  -1   6  -1  899.01   39.40
  -1   6  -1 1002.00   48.40
   1   6   1  897.61   41.70
   2  -6   1  684.33   30.10
  -2  -6  -1  715.73   31.30
  -2  -6  -1  704.13   30.70
  -2  -6  -1  701.13   56.79
   2   6   1  708.53   34.30
  -2   6  -1  711.23   42.50
  -3  -6  -1  557.94   29.70
   3  -6   1  500.45   23.40
  -3  -6  -1  542.65   26.00
  -3  -6  -1  557.04   25.90
  -3  -6  -1  566.74   31.80
  -3  -6  -1  536.55   26.60
  -3  -6  -1  535.85   26.60
  -3  -6  -1  601.24   47.10
  -3   6  -1  504.05   25.20
  -3   6  -1  526.15   25.70
  -3   6  -1  480.15   23.60
  -3   6  -1  510.05   26.20
  -3   6  -1  550.44   28.10
  -3   6  -1  485.55   29.80
  -3   6  -1  577.54   26.90
   3   6   1  501.05   28.40
  -3   6  -1  570.14   39.00
  -4  -6  -1  169.08   11.50
  -4  -6  -1  165.78   13.60
  -4  -6  -1  159.28   12.50
  -4  -6  -1  159.68   11.20
  -4  -6  -1  166.18   13.80
  -4  -6  -1  159.48   10.70
  -4  -6  -1  158.78   10.60
  -4   6  -1  166.68   11.50
  -4   6  -1  174.08   10.60
  -4   6  -1  159.38   11.60
  -4   6  -1  156.68   10.90
   4   6   1  171.88   17.10
  -4   6  -1  174.28   10.40
  -4   6  -1  163.68   19.80
  -4   6  -1  163.78   14.80
  -5  -6  -1  292.27   20.50
  -5  -6  -1  310.97   19.40
  -5  -6  -1  326.07   18.20
  -5  -6  -1  331.07   17.40
  -5  -6  -1  348.07   18.00
  -5  -6  -1  314.57   17.50
  -5  -6  -1  327.67   20.20
  -5   6  -1  353.56   18.30
  -5   6  -1  298.87   16.40
  -5   6  -1  315.57   22.10
  -5   6  -1  323.97   16.50
  -5   6  -1  316.67   18.10
  -5   6  -1  307.37   17.40
  -6  -6  -1  225.08   11.70
  -6  -6  -1  242.18   12.90
  -6  -6  -1  212.78   12.00
  -6  -6  -1  200.78   13.80
  -6  -6  -1  237.18   11.60
  -6   6  -1  209.38   10.70
  -6   6  -1  213.18   11.40
  -6   6  -1  224.68   10.70
  -6   6  -1  203.48   14.00
  -6  -7   1   92.39    7.50
  -6  -7   1   99.69    6.20
  -6  -7   1   91.39    6.20
  -6  -7   1   89.99    6.40
  -6  -7   1   94.69    8.40
  -6  -7   1  100.59    6.60
  -6   7   1  100.19    5.90
  -6   7   1   91.29    5.20
  -6   7   1   97.89    5.60
  -6   7   1  104.99    6.90
  -5  -7   1   62.59    7.20
  -5  -7   1   67.19    6.00
   5  -7  -1   66.39    6.90
  -5  -7   1   57.59    7.40
  -5  -7   1   60.09    6.10
  -5  -7   1   60.99    5.30
  -5  -7   1   63.09    6.00
  -5   7   1   51.19    7.50
  -5   7   1   64.59    5.00
  -5   7   1   60.79    6.70
  -5   7   1   60.69    5.10
  -5   7   1   56.19    4.60
  -4  -7   1  230.58   14.40
  -4  -7   1  225.58   13.70
  -4  -7   1  226.18   12.50
  -4  -7   1  203.78   13.10
  -4  -7   1  204.38   15.80
  -4  -7   1  208.28   15.00
  -4  -7   1  209.38   12.00
   4  -7  -1  197.28   13.70
  -4   7   1  213.38   13.30
  -4   7   1  215.18   11.70
  -4   7   1  235.98   12.60
  -4   7   1  212.38   14.40
  -4   7   1  205.88   12.20
  -4   7   1  203.88   22.10
  -4   7   1  187.58   16.10
  -3  -7   1  706.03   34.30
  -3  -7   1  717.63   36.10
  -3  -7   1  785.12   34.70
  -3  -7   1  737.53   34.30
  -3  -7   1  713.13   32.40
  -3  -7   1  705.33   55.29
  -3  -7   1  748.73   35.30
  -3  -7   1  740.93   33.10
   3  -7  -1  692.83   34.60
  -3  -7   1  727.93   37.20
  -3   7   1  741.63   33.30
   3   7  -1  681.33   37.40
  -3   7   1  726.33   35.50
  -3   7   1  726.63   32.90
  -3   7   1  648.14   30.90
  -2  -7   1 1834.12  113.89
  -2  -7   1 1597.64   76.69
   2  -7  -1 1748.72   78.09
  -2  -7   1 1995.70   76.29
   2   7  -1 1771.62   85.19
   2   7  -1 1878.41   77.29
  -2   7   1 1808.32  121.89
   1  -7  -1  295.17   15.30
  -1  -7   1  287.87   13.90
  -1  -7   1  274.27   37.00
   1  -7  -1  337.87   40.80
  -1  -7   1  309.77   13.90
  -1   7   1  317.37   16.20
   1   7  -1  295.27   17.70
   1   7  -1  299.27   17.00
   0  -7   1 4541.95  186.48
   0  -7  -1 4495.95  186.08
   0  -7   1 4750.52  184.58
   0  -7   1 4425.96  184.88
   0  -7   1 4111.39  230.88
   0  -7  -1 4344.77  227.78
   0   7  -1 4544.55  188.08
   0   7   1 4686.23  188.58
   1  -7   1 8935.31  367.16
   1  -7   1 8488.85  425.56
  -1   7  -1 9414.86  369.26
   2  -7   1  571.24   25.80
  -2  -7  -1  608.54   26.60
  -2  -7  -1  624.54   55.99
  -2  -7  -1  605.04   27.20
  -2   7  -1  598.94   56.69
   2   7   1  591.14   30.70
  -3  -7  -1  811.92   42.70
  -3  -7  -1  931.31   43.90
   3  -7   1  738.63   37.80
  -3  -7  -1  897.31   41.80
  -3  -7  -1  875.31   40.30
  -3  -7  -1  861.51   39.30
  -3  -7  -1  964.80   67.29
  -3  -7  -1  870.31   39.50
   3  -7   1  808.02   36.60
  -3   7  -1  819.02   44.00
  -3   7  -1  806.22   37.10
  -3   7  -1  927.31   40.60
  -3   7  -1  940.01   41.50
  -3   7  -1  891.21   38.90
  -3   7  -1  882.81   39.50
  -3   7  -1  885.01   39.40
   3   7   1  790.92   37.70
  -3   7  -1  729.03   40.30
   3   7   1  877.01   43.30
  -4  -7  -1  586.64   29.80
  -4  -7  -1  573.84   31.30
  -4  -7  -1  553.84   32.60
  -4  -7  -1  589.94   29.00
  -4  -7  -1  602.24   32.50
  -4  -7  -1  610.54   29.70
  -4  -7  -1  609.04   28.90
  -4   7  -1  575.64   34.10
  -4   7  -1  632.64   28.90
  -4   7  -1  577.14   30.30
  -4   7  -1  584.74   28.90
  -4   7  -1  566.04   42.90
  -4   7  -1  593.24   29.90
  -4   7  -1  629.24   28.50
  -5  -7  -1  358.46   23.20
  -5  -7  -1  430.26   20.50
  -5  -7  -1  412.16   20.10
   5  -7   1  369.46   22.00
  -5  -7  -1  381.26   20.80
  -5  -7  -1  401.16   20.30
  -5   7  -1  389.76   20.70
  -5   7  -1  393.66   19.10
  -5   7  -1  350.06   24.10
  -6  -7  -1  239.98   13.70
  -6  -7  -1  285.47   16.50
  -6  -7  -1  283.27   13.50
  -6   7  -1  285.57   12.90
  -6   7  -1  264.77   12.80
  -6  -8   1   91.39    5.50
  -6  -8   1   76.69    5.90
  -6  -8   1   71.69    5.20
  -6  -8   1   79.69    5.50
  -6   8   1   84.39    5.10
  -6   8   1   86.39    4.70
   5  -8  -1  992.70   48.60
  -5  -8   1  866.61   44.10
  -5  -8   1  914.51   41.30
  -5  -8   1  873.71   39.50
  -5  -8   1  893.31   40.50
  -5  -8   1  840.42   40.60
  -5  -8   1  832.72   43.00
  -5   8   1  875.31   41.80
  -5   8   1  812.92   44.30
  -5   8   1  868.71   38.90
  -4  -8   1 1070.49   45.20
   4  -8  -1  973.00   47.20
  -4  -8   1 1054.49   46.60
  -4  -8   1 1025.30   44.90
  -4  -8   1  987.00   48.70
  -4  -8   1 1016.90   47.30
  -4  -8   1  981.50   49.80
  -4  -8   1  984.20   46.70
  -4   8   1 1001.50   45.00
  -4   8   1  893.81   49.99
  -4   8   1  973.00   60.29
  -4   8   1 1035.50   45.20
  -4   8   1 1014.40   44.20
  -4   8   1  979.20   48.00
  -3  -8   1 2267.87   90.29
  -3  -8   1 2137.09  124.49
  -3  -8   1 2233.08   91.89
  -3  -8   1 1960.10   93.09
  -3  -8   1 2283.47   90.89
  -3  -8   1 2229.08   92.59
   3  -8  -1 1807.42   91.09
  -3  -8   1 2249.18   95.39
  -3  -8   1 2162.78   91.49
   3  -8  -1 2057.09   92.29
  -3   8   1 2047.70   95.09
  -3   8   1 2174.38   90.39
  -3   8   1 2121.99  105.09
  -3   8   1 1993.80   87.79
  -3   8   1 2119.19   89.29
  -3   8   1 2132.19   89.99
   3   8  -1 1907.61   88.99
  -3   8   1 2075.99   92.89
   3   8  -1 2115.29   96.19
   2  -8  -1  109.79    8.20
  -2  -8   1  116.79    6.30
  -2  -8   1  120.19    6.80
  -2  -8   1  100.09   22.90
   2   8  -1  109.69    9.80
  -2   8   1  103.49    6.20
  -2   8   1  118.79   13.40
  -1  -8   1 2757.12  103.59
   1  -8  -1 2221.58  150.58
   1  -8  -1 2413.46  105.79
  -1  -8   1 2252.97  149.09
  -1  -8   1 2475.85  103.79
   1   8  -1 2700.63  109.59
  -1   8   1 2464.85  106.69
   1   8  -1 2613.24  108.39
   0  -8  -1 2627.74  105.99
   0  -8   1 2627.64  103.89
   0  -8   1 2451.75  106.09
   0  -8   1 2424.26  156.08
   0  -8   1 2448.66  104.49
   0  -8  -1 2375.66  149.49
   0   8  -1 2550.74  108.19
   0   8   1 2620.44  108.79
   1  -8   1  714.63   31.10
  -1  -8  -1  700.03   32.10
   1  -8   1  698.73   33.90
  -1  -8  -1  685.53   64.49
  -1   8  -1  780.72   42.70
   1   8   1  777.22   36.20
  -1   8  -1  720.43   33.10
  -2  -8  -1 2465.25  104.69
   2  -8   1 2403.66  101.69
  -2  -8  -1 2464.75  103.19
  -2  -8  -1 2535.55  147.89
  -2   8  -1 2260.77  102.79
  -2   8  -1 2477.35  119.39
   2   8   1 2520.55  108.59
   2   8   1 2477.85  104.69
   3  -8   1 1638.64   77.39
  -3  -8  -1 1784.12   79.19
  -3  -8  -1 1835.32   81.29
  -3  -8  -1 1921.41   79.09
  -3  -8  -1 1790.82   79.69
  -3  -8  -1 2017.40  116.09
  -3  -8  -1 1859.41   79.09
  -3   8  -1 1809.72   78.29
  -3   8  -1 1858.51   79.09
  -3   8  -1 1771.52   83.79
  -3   8  -1 1954.10   81.39
   3   8   1 1727.73   76.99
  -3   8  -1 1732.73   95.79
   3   8   1 1838.62   84.09
  -3   8  -1 1762.72   76.69
  -4  -8  -1   34.70    5.70
  -4  -8  -1   35.50    4.30
  -4  -8  -1   37.90    4.70
  -4  -8  -1   38.20    4.50
  -4  -8  -1   38.10    5.30
  -4  -8  -1   40.90    4.40
  -4   8  -1   37.30    4.00
  -4   8  -1   38.80    4.30
  -4   8  -1   33.80    6.20
  -4   8  -1   28.60   10.90
   4   8   1   46.30    3.60
  -4   8  -1   39.70    5.20
  -5  -8  -1  202.68   13.70
  -5  -8  -1  209.08   12.30
   5  -8   1  212.58   14.60
  -5  -8  -1  206.88   15.10
  -5  -8  -1  212.18   13.20
  -5  -8  -1  224.98   12.50
  -5   8  -1  220.08   11.90
  -5   8  -1  237.38   11.80
  -5   8  -1  220.18   13.00
  -5   8  -1  207.38   15.50
  -6  -8  -1  562.04   25.50
  -6  -8  -1  634.74   26.20
  -6   8  -1  546.15   25.30
  -6   8  -1  572.94   25.00
  -6  -9   1  576.64   29.40
  -6  -9   1  572.94   26.30
  -6  -9   1  511.15   27.00
  -6  -9   1  651.13   26.30
  -6   9   1  615.54   26.20
  -6   9   1  607.04   26.60
  -5  -9   1  316.77   16.80
  -5  -9   1  299.97   18.40
  -5  -9   1  320.37   17.10
  -5  -9   1  295.17   19.00
  -5  -9   1  309.77   16.50
  -5   9   1  308.47   14.80
  -5   9   1  296.87   17.50
  -5   9   1  302.77   15.50
  -5   9   1  307.67   15.10
  -4  -9   1   60.69    7.00
  -4  -9   1   56.29    5.60
  -4  -9   1   60.79    6.10
  -4  -9   1   52.09    5.60
  -4  -9   1   61.29    7.50
   4  -9  -1   47.80    6.10
  -4  -9   1   58.09    5.50
  -4  -9   1   53.29    4.80
  -4   9   1   49.90    4.20
   4   9  -1   45.70    4.00
  -4   9   1   42.20   11.00
  -4   9   1   55.79    5.00
  -4   9   1   47.60    6.90
  -4   9   1   48.20    6.10
  -4   9   1   54.49    4.90
  -3  -9   1  437.46   25.20
  -3  -9   1  455.25   23.30
  -3  -9   1  450.75   22.70
  -3  -9   1  402.16   27.90
  -3  -9   1  458.55   21.30
   3  -9  -1  390.16   19.80
   3  -9  -1  419.86   23.30
  -3  -9   1  387.16   28.40
  -3  -9   1  452.85   21.00
  -3   9   1  449.36   33.50
  -3   9   1  439.36   21.50
   3   9  -1  417.26   20.40
  -3   9   1  420.06   19.30
   3   9  -1  421.76   27.40
  -3   9   1  447.16   20.40
  -3   9   1  429.66   21.20
  -3   9   1  422.56   25.30
  -2  -9   1 1112.19   48.10
   2  -9  -1 1046.70   50.39
   2  -9  -1 1017.30   47.80
  -2  -9   1 1260.17   53.89
  -2   9   1 1048.20   47.60
  -2   9   1 1191.18   60.89
   2   9  -1 1079.79   53.89
  -2   9   1 1146.69   49.20
   1  -9  -1  513.05   24.40
  -1  -9   1  523.35   22.30
   1  -9  -1  440.86   57.99
  -1  -9   1  464.55   57.49
  -1  -9   1  516.75   22.70
  -1   9   1  487.15   25.50
   1   9  -1  525.25   27.40
   1   9  -1  518.45   27.00
  -1   9   1  480.05   22.80
   0  -9  -1 2501.15  110.69
   0  -9   1 2571.84  110.99
   0  -9   1 2747.72  108.49
   0   9  -1 2585.34  113.59
   0   9   1 2739.43  118.69
   1  -9   1  816.52   37.30
  -1  -9  -1  812.02   74.99
   1  -9   1  699.93   80.89
  -1  -9  -1  821.82   35.20
   1  -9   1  740.13   35.20
   1  -9   1  808.02   34.00
  -1   9  -1  771.32   36.40
  -1   9  -1  820.72   47.10
   1   9   1  831.02   39.90
   1   9   1  756.92   34.60
  -2  -9  -1  405.86   19.50
  -2  -9  -1  410.56   20.90
   2  -9   1  384.66   22.10
   2  -9   1  395.36   19.50
  -2  -9  -1  422.76   22.10
  -2  -9  -1  393.06   20.10
   2  -9   1  388.36   18.10
  -2  -9  -1  455.25   52.49
   2   9   1  404.86   24.30
  -2   9  -1  398.16   31.70
  -2   9  -1  391.86   19.30
   2   9   1  382.96   18.90
   3  -9   1   85.49    6.20
  -3  -9  -1   84.59    7.00
  -3  -9  -1  102.19    7.90
  -3  -9  -1   98.19   22.50
  -3  -9  -1   84.59    9.30
   3  -9   1   97.19    9.20
  -3  -9  -1   91.89    7.00
  -3  -9  -1   92.79   10.60
   3   9   1   89.69   10.90
   3   9   1   86.99    7.00
  -3   9  -1   90.39    5.70
  -3   9  -1   93.59   15.10
  -3   9  -1   90.19    8.30
  -3   9  -1   82.49    7.00
  -3   9  -1   76.49    8.70
  -4  -9  -1 1054.49   49.40
  -4  -9  -1 1061.29   50.89
   4  -9   1 1034.20   47.30
  -4  -9  -1 1112.19   49.30
   4  -9   1 1083.19   51.99
  -4  -9  -1 1088.19   52.89
  -4  -9  -1 1153.88   48.50
  -4   9  -1 1111.29   50.49
  -4   9  -1 1035.00   48.10
  -4   9  -1 1071.09   47.50
   4   9   1  955.40   48.90
  -5  -9  -1  887.61   36.50
  -5  -9  -1  788.92   39.70
  -5  -9  -1  805.02   37.00
  -5  -9  -1  821.42   36.30
  -5  -9  -1  795.72   37.80
  -5   9  -1  674.93   39.30
  -5   9  -1  765.82   37.90
  -5   9  -1  842.22   35.90
  -5 -10   1   95.49    8.10
  -5 -10   1   93.09    7.00
  -5 -10   1   99.89    6.80
  -5 -10   1   90.29    5.90
  -5 -10   1   95.49    6.80
  -5 -10   1   92.09    8.50
  -5  10   1   91.89    7.60
  -5  10   1   94.49    5.70
  -5  10   1   92.19    6.10
  -5  10   1   86.89    5.40
   4 -10  -1  743.63   42.20
   4 -10  -1  708.43   32.00
  -4 -10   1  803.82   35.80
  -4 -10   1  763.02   33.70
  -4  10   1  683.93   32.50
  -4  10   1  758.62   34.10
  -4  10   1  673.63   35.60
   4  10  -1  751.72   32.80
  -3 -10   1 1604.74  110.59
  -3 -10   1 1721.53   72.89
   3 -10  -1 1647.14   73.39
  -3 -10   1 1605.34   72.39
   3 -10  -1 1560.64   69.19
  -3 -10   1 1622.94   70.19
  -3 -10   1 1713.83   72.29
  -3 -10   1 1672.73   74.59
  -3 -10   1 1705.33   70.69
  -3  10   1 1619.74   68.49
  -3  10   1 1590.44   71.89
   3  10  -1 1595.24   69.79
  -3  10   1 1566.64   73.59
  -3  10   1 1592.54   70.49
  -2 -10   1  192.58   13.40
  -2 -10   1  180.48   11.40
  -2 -10   1  177.38   35.00
   2 -10  -1  188.28   12.10
  -2 -10   1  171.68    9.70
  -2  10   1  169.88   17.60
  -2  10   1  184.28   10.70
   2  10  -1  176.88   14.90
  -2  10   1  170.78    9.40
   2  10  -1  167.68    9.90
   1 -10  -1 3279.57  138.09
  -1 -10   1 3061.49  201.38
  -1 -10   1 3611.74  137.79
  -1 -10   1 3299.27  138.39
   1 -10  -1 3386.06  140.49
  -1  10   1 3290.67  138.29
   1  10  -1 3575.34  144.99
  -1  10   1 3211.98  137.69
   1  10  -1 3117.09  138.39
  -1  10   1 3337.27  142.49
   0 -10  -1  681.83   75.39
   0 -10   1  690.23   79.99
   0 -10  -1  726.23   34.30
   0 -10  -1  767.52   34.50
   0 -10   1  764.52   34.60
   0  10  -1  841.32   44.00
   0  10  -1  802.32   37.50
   0  10   1  800.92   38.50
   0  10  -1  757.62   37.70
   0  10   1  710.73   33.40
   1 -10   1  520.55   24.90
  -1 -10  -1  516.15   23.80
  -1 -10  -1  564.44   64.89
   1 -10   1  528.95   27.00
  -1 -10  -1  550.74   25.30
   1  10   1  548.85   30.00
   1  10   1  514.85   24.80
  -1  10  -1  520.05   25.10
  -1  10  -1  584.94   37.10
  -1  10  -1  544.75   27.00
   1  10   1  534.45   24.60
  -2 -10  -1 1271.17   55.99
   2 -10   1 1210.88   57.69
  -2 -10  -1 1203.08   54.29
  -2 -10  -1 1314.67  103.39
  -2 -10  -1 1241.28   54.99
  -2 -10  -1 1298.77   57.29
   2 -10   1 1254.97   54.39
  -2  10  -1 1229.48   54.09
   2  10   1 1279.37   61.19
  -2  10  -1 1203.78   54.09
   2  10   1 1205.18   53.79
  -2  10  -1 1285.57   55.79
  -2  10  -1 1201.48   70.19
   3 -10   1 1195.18   53.19
  -3 -10  -1 1215.58   56.69
  -3 -10  -1 1248.28   54.49
   3 -10   1 1182.78   57.79
  -3 -10  -1 1287.97   55.69
  -3 -10  -1 1254.67  104.99
  -3  10  -1 1235.88   54.79
  -3  10  -1 1252.77   57.09
  -3  10  -1 1164.98   71.89
   3  10   1 1201.98   52.79
  -3  10  -1 1201.98   53.49
  -3  10  -1 1190.28   52.29
   4 -10   1  141.79    8.10
  -4 -10  -1  148.29   10.90
  -4 -10  -1  146.19    9.30
  -4 -10  -1  142.49   12.20
  -4 -10  -1  144.29   10.20
  -4 -10  -1  150.78    9.60
   4 -10   1  155.78   12.20
  -4  10  -1  146.49   10.70
  -4  10  -1  131.59   11.50
  -4  10  -1  138.09    8.60
   4  10   1  148.19    8.10
  -4  10  -1  138.29    9.40
  -5 -10  -1   64.89    5.50
  -5 -10  -1   66.19    5.00
  -5 -10  -1   65.49    6.20
  -5 -10  -1   65.19    6.80
  -5 -10  -1   75.39    5.20
  -5  10  -1   69.49    5.60
  -5  10  -1   73.69    5.40
  -5  10  -1   68.59    4.50
  -5 -11   1  311.27   18.90
  -5 -11   1  354.76   18.60
  -5 -11   1  326.77   17.10
  -5 -11   1  335.07   16.70
  -5  11   1  348.77   16.10
  -5  11   1  333.47   15.30
  -5  11   1  348.27   18.10
  -4 -11   1  193.18   13.50
  -4 -11   1  188.38   12.20
  -4 -11   1  192.08   11.90
   4 -11  -1  182.08    9.60
  -4 -11   1  173.18   13.80
  -4 -11   1  191.68   11.80
   4 -11  -1  199.48   13.10
  -4  11   1  197.08   11.10
  -4  11   1  210.28   14.20
  -4  11   1  189.98   10.90
  -4  11   1  178.18    9.80
   4  11  -1  207.68   10.40
   3 -11  -1   56.99    4.30
  -3 -11   1   65.49    7.70
  -3 -11   1   50.69   18.40
  -3 -11   1   51.09    5.50
  -3 -11   1   53.69    5.80
  -3 -11   1   57.69    6.80
  -3 -11   1   62.29    5.70
   3 -11  -1   53.69    6.40
  -3 -11   1   64.39    5.80
   3  11  -1   58.79    4.70
  -3  11   1   47.50   11.00
  -3  11   1   55.59    5.00
  -3  11   1   55.09    4.90
  -3  11   1   61.59    3.90
  -2 -11   1  511.65   37.20
   2 -11  -1  609.14   32.80
  -2 -11   1  665.63   30.40
   2 -11  -1  556.54   29.80
  -2 -11   1  651.63   28.30
  -2  11   1  649.74   29.20
  -2  11   1  651.93   28.20
   2  11  -1  629.04   35.70
  -2  11   1  611.34   39.70
  -1 -11   1  329.77   16.10
  -1 -11   1  301.07   52.09
  -1 -11   1  343.07   15.40
  -1 -11   1  324.27   15.20
  -1 -11   1  327.37   17.50
   1 -11  -1  351.76   15.90
  -1  11   1  313.97   15.40
   1  11  -1  305.97   16.10
  -1  11   1  302.67   19.40
  -1  11   1  354.76   23.80
  -1  11   1  323.37   16.00
   1  11  -1  334.07   21.70
   1  11  -1  303.57   16.50
   0 -11  -1   34.90    4.00
   0 -11   1   30.30   18.10
   0 -11   1   38.30    4.10
   0 -11   1   44.60    3.60
   0 -11  -1   35.80   18.70
   0  11  -1   36.80    3.50
   0  11  -1   37.00    6.10
   0  11  -1   37.40    3.80
   0  11   1   33.10    3.30
   0  11   1   39.00    3.40
  -1 -11  -1   41.30   19.40
   1 -11   1   28.40    3.10
   1 -11   1   30.20    4.30
  -1 -11  -1   35.60    3.80
  -1 -11  -1   25.40    2.40
   1  11   1   36.10    3.50
  -1  11  -1   24.40    3.10
  -1  11  -1   25.80    2.90
   1  11   1   33.30    3.20
  -1  11  -1   21.00    6.90
   2 -11   1  158.48    9.50
  -2 -11  -1  166.78   11.70
  -2 -11  -1  153.18    9.80
  -2 -11  -1  180.28   11.10
  -2 -11  -1  163.28   10.20
  -2 -11  -1  171.18   35.60
   2 -11   1  155.28   12.00
   2  11   1  146.99    9.00
   2  11   1  169.98   15.40
  -2  11  -1  146.79   19.00
  -2  11  -1  158.98   10.50
  -2  11  -1  152.08    9.30
  -3 -11  -1  846.52   40.30
   3 -11   1  853.81   37.20
  -3 -11  -1  913.41   76.19
  -3 -11  -1  761.22   42.20
   3 -11   1  877.61   46.00
  -3 -11  -1  858.61   38.30
  -3 -11  -1  821.42   38.00
  -3  11  -1  827.02   40.70
  -3  11  -1  821.62   36.20
  -3  11  -1  778.12   36.70
  -3  11  -1  827.02   38.60
  -3  11  -1  734.23   63.79
   3  11   1  816.52   36.70
  -4 -11  -1  659.13   32.40
   4 -11   1  713.63   35.10
  -4 -11  -1  644.64   35.10
  -4 -11  -1  725.83   31.70
  -4 -11  -1  683.93   33.50
   4 -11   1  707.13   30.00
  -4  11  -1  630.84   30.10
  -4  11  -1  600.94   31.20
  -4  11  -1  690.03   33.50
   4  11   1  695.93   29.90
  -5 -11  -1  136.49    8.70
  -5 -11  -1  161.88    8.80
  -5 -11  -1  158.68    8.50
  -5 -11  -1  164.18   11.00
  -5 -11  -1  162.08    9.20
  -5  11  -1  167.58    9.20
  -5  11  -1  144.49    8.30
  -5  11  -1  160.28    7.70
  -5 -12   1  169.88    9.30
  -5 -12   1  171.08   10.50
  -5 -12   1  184.78    9.90
  -5 -12   1  181.98   12.10
  -5  12   1  182.48    8.90
  -5  12   1  158.78   10.20
  -4 -12   1   72.09    7.10
  -4 -12   1   71.99    6.50
  -4 -12   1   74.69    6.00
  -4  12   1   76.49    5.40
  -4  12   1   64.99    5.10
  -4  12   1   68.69    7.10
   4  12  -1   79.09    4.90
  -3 -12   1  345.87   21.00
   3 -12  -1  314.77   18.60
  -3 -12   1  313.27   19.30
  -3 -12   1  324.37   44.00
  -3 -12   1  330.37   18.20
   3 -12  -1  309.97   15.40
  -3 -12   1  310.87   17.20
  -3  12   1  315.27   14.60
   3  12  -1  302.87   15.80
  -3  12   1  293.07   16.20
  -3  12   1  294.37   16.20
   2 -12  -1  849.12   37.60
   2 -12  -1  894.11   41.10
  -2 -12   1  859.21   39.70
  -2 -12   1  888.51   42.50
  -2  12   1  845.62   38.50
  -2  12   1  868.81   39.10
   2  12  -1  822.32   38.10
  -2  12   1  844.12   50.59
  -2  12   1  833.52   37.50
  -2  12   1  813.22   42.30
  -1 -12   1 4228.08  178.88
  -1 -12   1 3951.70  260.17
  -1 -12   1 4435.36  180.48
   1 -12  -1 4412.96  178.48
   1 -12  -1 4432.46  181.38
   1  12  -1 4260.37  178.98
  -1  12   1 4383.76  178.28
  -1  12   1 4085.39  184.28
   1  12  -1 4537.85  187.98
  -1  12   1 4284.67  178.68
   1  12  -1 4234.18  179.38
   0 -12   1  847.32   38.40
   0 -12   1  795.22   98.99
   0 -12  -1  733.63   37.90
   0 -12  -1  886.61   99.09
   0 -12  -1  874.91   38.70
   0  12  -1  844.32   37.80
   0  12   1  861.41   44.90
   0  12   1  837.92   37.20
   0  12   1  835.52   37.80
   0  12  -1  852.31   43.40
   0  12  -1  804.92   38.10
  -1 -12  -1  508.75   68.99
   1 -12   1  525.75   28.10
  -1 -12  -1  574.74   28.40
   1 -12   1  564.04   25.70
  -1 -12  -1  627.14   32.00
  -1  12  -1  527.95   25.80
   1  12   1  530.25   25.30
   1  12   1  516.55   32.10
   1  12   1  580.04   26.40
  -1  12  -1  526.65   37.60
  -2 -12  -1  985.10   48.30
   2 -12   1  989.00   48.30
  -2 -12  -1 1022.00   46.70
  -2 -12  -1 1040.80   47.80
  -2 -12  -1 1011.00   45.30
  -2 -12  -1 1063.39   98.29
   2 -12   1 1041.60   45.00
  -2  12  -1  994.30   46.20
  -2  12  -1  998.80   44.70
  -2  12  -1  990.20   61.69
   2  12   1 1004.60   44.50
  -3 -12  -1  265.17   14.10
  -3 -12  -1  266.57   14.30
  -3 -12  -1  260.07   15.20
  -3 -12  -1  268.37   16.00
   3 -12   1  267.57   21.30
   3 -12   1  268.47   13.50
  -3  12  -1  217.08   15.00
  -3  12  -1  234.78   17.50
   3  12   1  250.67   13.30
  -3  12  -1  265.77   13.30
  -4 -12  -1  521.65   24.10
   4 -12   1  536.65   23.10
  -4 -12  -1  512.55   25.60
   4 -12   1  555.44   27.70
  -4 -12  -1  498.05   27.60
  -4 -12  -1  479.55   24.90
  -4 -12  -1  538.85   26.40
   4  12   1  539.35   25.30
  -4  12  -1  491.15   24.40
  -4  12  -1  477.15   22.70
  -5 -12  -1   94.99    5.70
  -5 -12  -1  100.89    6.40
  -5 -12  -1   85.79    7.00
  -5 -12  -1  107.69    5.40
  -5  12  -1  102.09    5.70
  -5  12  -1  106.79    6.00
  -5 -13   1  110.69    6.20
  -5 -13   1   95.29    5.30
  -5  13   1   98.19    6.30
  -4 -13   1   89.49    8.30
  -4 -13   1   98.89    6.60
  -4 -13   1   93.09    9.50
   4 -13  -1   99.29    5.40
  -4 -13   1  105.59    7.50
  -4  13   1  100.69    8.00
   4  13  -1  101.19    5.70
  -4  13   1   98.29    6.10
  -4  13   1   87.79    5.80
  -3 -13   1  973.10   45.20
  -3 -13   1  905.71   47.50
  -3 -13   1  982.90   44.10
  -3 -13   1  944.11   46.30
   3 -13  -1 1072.99   46.20
   3 -13  -1  993.20   42.10
   3  13  -1  981.80   42.70
  -3  13   1  988.30   43.40
  -3  13   1  978.10   41.40
  -3  13   1  945.41   42.70
  -3  13   1  906.11   46.40
  -2 -13   1  354.26   21.20
  -2 -13   1  361.86   18.80
  -2 -13   1  358.36   57.29
   2 -13  -1  366.66   20.20
   2 -13  -1  365.46   17.20
   2  13  -1  354.16   17.70
  -2  13   1  359.36   17.70
  -2  13   1  324.47   21.20
  -2  13   1  338.97   17.00
  -2  13   1  375.86   18.70
  -1 -13   1  780.82   36.00
   1 -13  -1  819.72   35.50
   1 -13  -1  833.12   38.20
  -1 -13   1  778.52   34.80
  -1  13   1  788.72   34.90
   1  13  -1  817.72   36.20
  -1  13   1  791.42   35.70
   1  13  -1  792.62   36.30
   0 -13   1  318.87   14.90
   0 -13   1  297.77   16.10
   0 -13  -1  300.07   16.40
   0  13  -1  295.87   15.10
   0  13   1  286.97   15.00
   0  13   1  287.37   14.70
   0  13  -1  278.67   15.30
  -1 -13  -1  533.75   26.80
  -1 -13  -1  434.96   94.49
   1 -13   1  525.05   26.30
   1 -13   1  509.45   24.10
  -1 -13  -1  498.05   24.80
  -1  13  -1  515.15   24.30
   1  13   1  527.25   24.00
  -1  13  -1  500.35   23.30
   1  13   1  513.85   23.80
   2 -13   1  470.75   25.10
  -2 -13  -1  452.85   22.40
   2 -13   1  466.05   21.90
  -2 -13  -1  439.66   23.30
  -2 -13  -1  438.96   23.90
  -2 -13  -1  479.85   63.59
  -2 -13  -1  455.05   22.50
  -2  13  -1  435.56   22.90
  -2  13  -1  441.16   21.60
   2  13   1  477.65   21.80
  -3 -13  -1  200.48   12.40
   3 -13   1  211.58   11.00
  -3 -13  -1  215.68   11.40
  -3 -13  -1  179.48   14.50
  -3 -13  -1  202.28   12.80
  -3 -13  -1  207.98   11.60
   3 -13   1  214.18   14.30
  -3  13  -1  210.98   13.90
  -3  13  -1  196.88   10.20
   3  13   1  207.68   10.80
  -3  13  -1  204.38   12.10
  -4 -13  -1  612.84   29.00
  -4 -13  -1  656.03   30.20
  -4 -13  -1  666.03   32.90
  -4 -13  -1  660.53   28.90
  -4  13  -1  628.64   29.40
   4  13   1  662.43   28.30
  -4  13  -1  669.53   31.20
  -4 -14   1   26.70    3.70
  -4 -14   1   26.50    2.60
  -4 -14   1   22.40    2.80
   4  14  -1   23.60    2.10
  -4  14   1   21.10    2.00
  -4  14   1   26.70    3.50
   3 -14  -1  871.11   37.00
  -3 -14   1  898.61   38.60
  -3 -14   1  779.32   41.80
  -3 -14   1  825.82   39.60
   3  14  -1  893.61   37.60
  -3  14   1  865.11   38.40
  -3  14   1  870.51   36.30
  -3  14   1  813.82   41.00
  -2 -14   1  251.17   16.40
  -2 -14   1  241.68   13.80
  -2 -14   1  258.57   48.80
   2 -14  -1  265.67   13.00
   2 -14  -1  292.17   16.10
  -2  14   1  254.17   12.80
   2  14  -1  243.68   13.30
  -2  14   1  239.68   14.30
  -2  14   1  266.07   14.10
  -2  14   1  262.97   17.10
   1 -14  -1    8.30    1.60
  -1 -14   1   14.10   16.30
   1  14  -1    7.00    1.80
  -1  14   1    6.90    1.50
   1  14  -1    8.60    1.70
   0 -14   1 1706.33   71.59
   0 -14   1 1698.83   73.29
   0 -14  -1 1734.53   73.79
   0 -14  -1 1654.43   71.29
   0  14  -1 1651.73   72.39
   0  14   1 1674.43   71.59
   0  14  -1 1664.73   71.89
   0  14   1 1679.03   71.99
  -1 -14  -1  953.10  105.79
  -1 -14  -1  975.80   45.70
   1 -14   1 1057.39   46.70
  -1 -14  -1  908.91   50.89
   1 -14   1 1025.10   44.30
  -1 -14  -1 1019.50   45.40
   1  14   1 1049.30   44.20
  -1  14  -1 1022.70   43.60
   1  14   1 1038.60   44.20
  -1  14  -1  995.60   44.50
  -2 -14  -1  122.29    8.70
  -2 -14  -1  129.59    8.30
  -2 -14  -1  123.39   11.20
  -2 -14  -1  122.79    9.10
   2 -14   1  127.49    7.70
   2 -14   1  135.29   10.20
   2  14   1  126.29    7.60
  -2  14  -1  122.09    7.60
  -2  14  -1  111.19    8.20
  -2  14  -1  130.89   11.00
  -3 -14  -1  267.17   17.00
  -3 -14  -1  250.57   13.80
  -3 -14  -1  241.98   13.90
   3 -14   1  273.27   16.00
   3 -14   1  258.87   12.60
  -3  14  -1  248.08   11.90
   3  14   1  258.77   12.60
  -3  14  -1  228.18   13.30
  -4 -14  -1   15.80    2.10
  -4 -14  -1   14.30    1.90
   4 -14   1   18.90    1.50
  -4 -14  -1   19.30    3.10
  -4  14  -1   13.70    1.80
  -4  14  -1   16.70    2.50
   4  14   1   15.40    2.10
  -4 -15   1  330.67   16.10
  -4 -15   1  321.77   16.60
  -4  15   1  333.57   16.90
   4  15  -1  355.06   14.80
   3 -15  -1  527.15   22.00
  -3 -15   1  487.75   24.30
  -3 -15   1  424.46   27.30
  -3 -15   1  473.85   22.70
  -3 -15   1  494.75   24.70
  -3  15   1  481.55   23.60
  -3  15   1  506.95   25.80
  -3  15   1  523.75   21.10
   2 -15  -1  291.17   14.20
   2 -15  -1  297.07   16.80
  -2 -15   1  281.67   17.20
  -2 -15   1  288.47   16.40
  -2 -15   1  295.67   18.70
  -2  15   1  275.67   18.20
   2  15  -1  297.37   14.70
  -2  15   1  297.67   15.20
  -2  15   1  306.67   14.10
   1 -15  -1  246.38   14.40
  -1 -15   1  245.68   11.40
   1 -15  -1  243.58   12.10
   1  15  -1  242.68   12.70
  -1  15   1  233.58   11.20
   1  15  -1  237.78   12.60
  -1  15   1  230.18   12.20
   0 -15   1  794.12   36.30
   0 -15   1  802.92   34.60
   0 -15  -1  799.42   36.80
   0 -15  -1  738.53   34.40
   0  15  -1  791.82   35.00
   0  15   1  791.92   35.00
   0  15  -1  793.42   35.50
   0  15  -1  773.22   35.60
   0  15   1  798.82   34.70
   1 -15   1  509.35   23.60
  -1 -15  -1  500.65   38.90
  -1 -15  -1  511.25   25.00
   1 -15   1  525.75   25.80
   1  15   1  509.15   23.50
  -1  15  -1  501.65   36.40
  -1  15  -1  509.35   24.00
   1  15   1  523.35   23.60
  -1  15  -1  505.95   22.60
  -2 -15  -1  294.27   16.40
   2 -15   1  316.77   15.40
  -2 -15  -1  299.17   19.60
   2 -15   1  320.87   19.30
  -2 -15  -1  314.87   15.80
   2  15   1  310.87   15.20
  -2  15  -1  303.47   16.10
  -2  15  -1  320.07   15.30
  -2  15  -1  352.56   19.90
  -3 -15  -1  376.46   19.00
   3 -15   1  412.46   18.10
  -3 -15  -1  373.76   18.30
  -3 -15  -1  367.46   21.50
   3  15   1  418.26   18.10
  -3  15  -1  409.96   17.20
  -3  15  -1  398.66   21.00
  -3  15  -1  395.96   18.70
  -3 -16   1  282.07   15.00
  -3 -16   1  261.07   14.70
  -3 -16   1  303.47   16.60
  -3  16   1  302.17   12.70
   3  16  -1  305.77   13.70
  -3  16   1  313.07   16.20
   2 -16  -1  390.16   17.90
  -2 -16   1  370.76   21.90
  -2 -16   1  374.16   20.50
  -2 -16   1  396.86   20.10
  -2  16   1  386.36   17.70
   2  16  -1  386.86   18.20
  -2  16   1  426.46   18.80
  -2  16   1  395.06   21.40
   1 -16  -1  144.89    7.90
   1 -16  -1  164.18   10.50
  -1 -16   1  143.29   10.50
  -1  16   1  143.29    8.00
   1  16  -1  137.39    8.10
  -1  16   1  145.09   11.10
   1  16  -1  141.59    8.20
  -1  16   1  147.39    9.00
   0 -16   1  140.69    7.70
   0 -16  -1  149.49   10.00
   0  16  -1  151.38    8.10
   0  16  -1  151.28    8.50
   0  16   1  145.39    7.80
   0  16   1  146.59    8.20
  -1 -16  -1  156.48    9.30
   1 -16   1  156.38    8.50
  -1 -16  -1  173.08    9.00
   1  16   1  156.48    8.50
  -1  16  -1  152.68    8.80
  -1  16  -1  152.68    8.70
   1  16   1  159.08    8.60
  -2 -16  -1  307.37   15.00
  -2 -16  -1  288.47   18.90
   2 -16   1  321.87   15.00
  -2 -16  -1  313.27   15.90
   2  16   1  326.47   14.90
  -2  16  -1  321.47   14.80
  -2  16  -1  319.77   18.40
  -2  16  -1  308.77   15.60
  -3 -16  -1  101.29    6.00
   3 -16   1  108.29    5.60
  -3  16  -1  108.99    7.40
  -3  16  -1   98.69    5.50
   3  16   1  114.29    6.00
  -2 -17   1  141.29    9.80
  -2 -17   1  127.29    8.10
  -2 -17   1  147.09    9.70
  -2  17   1  138.59    6.80
  -2  17   1  134.89    7.10
  -2  17   1  135.69    9.20
   2  17  -1  134.09    7.10
  -1 -17   1   32.20    4.10
  -1 -17   1   39.50    3.80
  -1  17   1   39.50    3.30
   1  17  -1   37.30    3.10
  -1  17   1   37.90    4.60
   1  17  -1   39.10    3.00
   0 -17   1 1943.61   78.89
   0  17   1 1890.71   79.29
   0  17   1 1859.61   78.69
   0  17  -1 1893.11   79.69
   0  17  -1 1868.91   78.89
   1 -17   1  286.87   13.20
  -1  17  -1  284.87   13.50
   1  17   1  273.07   13.10
  -1  17  -1  280.07   16.90
   1  17   1  290.27   14.40
   2 -17   1  345.67   15.60
  -2 -17  -1  366.06   19.10
   2  17   1  333.47   15.50
  -2  17  -1  339.87   15.40
  -2  17  -1  336.37   18.10
  -1 -18   1  327.97   17.00
  -1 -18   1  287.67   14.50
   1  18  -1  305.47   13.70
   1  18  -1  307.17   13.70
  -1  18   1  302.67   15.70
  -1  18   1  302.37   14.60
   0 -18   1  373.56   17.80
   0  18  -1  393.06   17.30
   0  18   1  391.26   17.20
   0  18   1  388.86   19.30
   0  18   1  387.46   17.60
  -1 -18  -1   64.29    5.90
   1  18   1   56.59    4.40
   1  18   1   64.69    3.60
   1  18   1   60.89    3.80
  -1  18  -1   63.19    3.70
  -1  18  -1   68.59    5.80
  -6   0   2  551.74   27.50
  -6   0   2  600.04   31.30
  -6   0   2  617.14   28.60
  -6   0   2  632.54   33.00
  -6   0   2  547.65   27.50
  -6   0   2  628.14   27.20
  -6   0   2  598.94   29.10
  -6   0   2  662.13   33.20
  -6   0   2  594.84   29.70
  -6   0   2  580.24   27.10
  -5   0   2   45.60    4.80
  -5   0   2   49.40    4.20
  -5   0   2   53.79    7.90
  -5   0   2   51.29    5.50
  -5   0   2   43.40    4.30
  -5   0   2   48.30    6.00
  -5   0   2   48.90    5.80
  -5   0   2   46.60    4.60
  -5   0   2   49.10    5.30
  -5   0   2   39.20    5.40
  -5   0   2   48.20    7.30
  -5   0   2   50.69    5.30
  -4   0   2  511.35   25.40
  -4   0   2  529.65   27.40
  -4   0   2  545.55   26.00
  -4   0   2  487.75   23.70
  -4   0   2  506.55   24.70
   4   0  -2  488.75   28.00
  -4   0   2  501.75   23.80
  -4   0   2  500.65   26.80
  -4   0   2  539.55   29.00
  -4   0   2  466.85   26.60
  -4   0   2  534.05   30.20
  -4   0   2  569.04   25.90
  -3   0   2 1219.48   49.10
   3   0  -2 1076.79   48.50
  -2   0   2 4933.71  195.38
   2   0  -2 4556.04  194.88
  -1   0   2 1657.43   68.59
   0   0  -2 1154.38   46.00
   0   0   2 1047.40   43.20
   0   0  -2 1007.30   58.99
   0   0  -2  969.10   43.70
  -1   0  -2    9.90    1.40
  -1   0  -2   11.60    5.10
  -3   0  -2  870.91   38.30
  -3   0  -2  826.92   39.00
  -3   0  -2  857.31   44.40
  -3   0  -2  862.81   46.10
  -3   0  -2  812.92   39.00
  -4   0  -2 2749.92  104.59
  -4   0  -2 2402.66  109.39
  -4   0  -2 2445.56  115.69
  -4   0  -2 2609.24  112.69
   4   0   2 2477.15  103.49
  -4   0  -2 2288.87  105.69
  -4   0  -2 2740.83  106.59
  -4   0  -2 2378.36  108.69
  -4   0  -2 2484.85  106.69
  -4   0  -2 2074.49  119.29
  -5   0  -2  335.07   21.50
  -5   0  -2  365.16   18.10
  -5   0  -2  281.17   27.20
  -5   0  -2  322.17   23.60
  -5   0  -2  358.96   16.60
   5   0   2  353.46   16.40
  -6   0  -2  137.39    7.00
  -6   0  -2  132.99   10.40
  -6   0  -2  139.49    8.50
  -6   0  -2  127.39   11.20
  -6   0  -2  130.39    8.60
  -6   0  -2  121.49    7.50
  -6  -1   2   34.60    4.40
  -6  -1   2   36.60    5.40
  -6  -1   2   29.80    5.20
  -6  -1   2   34.40    5.00
  -6  -1   2   35.50    3.20
  -6  -1   2   30.10    3.60
  -6  -1   2   29.30    4.00
  -6  -1   2   29.70    4.10
  -6  -1   2   28.50    3.60
  -6  -1   2   29.80    3.40
  -6  -1   2   33.10    3.40
  -6   1   2   34.70    3.90
  -6   1   2   37.30    3.50
  -6   1   2   33.70    5.50
  -6   1   2   41.50    4.80
  -6   1   2   33.40    4.00
  -6   1   2   33.00    5.80
  -6   1   2   29.80    4.60
  -6   1   2   35.70    3.30
  -6   1   2   37.10    3.60
  -6   1   2   38.10    4.50
  -5  -1   2  194.38   14.30
  -5  -1   2  221.38   12.70
  -5  -1   2  238.98   16.90
  -5  -1   2  225.78   14.90
  -5  -1   2  231.78   12.20
  -5  -1   2  221.38   12.80
  -5  -1   2  218.18   13.60
  -5  -1   2  258.07   18.30
  -5  -1   2  240.78   13.60
  -5  -1   2  235.48   15.60
  -5  -1   2  233.98   18.10
  -5  -1   2  224.88   12.90
  -5  -1   2  217.28   13.60
  -5   1   2  205.38   12.40
  -5   1   2  226.58   13.90
  -5   1   2  240.88   18.40
  -5   1   2  233.88   16.90
  -5   1   2  220.58   13.50
  -5   1   2  214.78   12.80
  -5   1   2  226.88   13.00
  -5   1   2  214.98   12.10
  -5   1   2  233.18   15.00
  -5   1   2  231.28   18.00
  -5   1   2  236.28   15.30
  -4  -1   2 1053.19   48.90
  -4  -1   2 1058.59   48.40
  -4  -1   2 1045.20   50.29
  -4  -1   2 1046.70   45.10
  -4  -1   2 1077.99   47.10
   4  -1  -2  951.80   48.80
  -4  -1   2 1006.00   44.70
  -4  -1   2 1114.79   47.00
  -4  -1   2 1019.90   46.00
  -4  -1   2 1029.40   48.50
  -4  -1   2 1050.99   51.39
  -4  -1   2 1046.60   46.80
  -4  -1   2 1031.00   45.40
  -4   1   2 1051.89   50.19
  -4   1   2  966.00   48.10
  -4   1   2 1090.99   47.10
  -4   1   2 1013.30   55.39
  -4   1   2  922.51   48.00
  -4   1   2 1036.00   46.70
  -4   1   2  954.20   44.50
  -4   1   2  971.50   45.30
   4   1  -2  983.80   49.70
  -4   1   2  978.10   45.70
  -4   1   2 1022.00   52.09
  -4   1   2 1051.29   45.00
  -4   1   2 1037.70   48.30
  -4   1   2 1107.59   52.39
  -4   1   2 1052.09   46.90
   3  -1  -2 1267.77   58.49
  -3  -1   2 1394.16   58.59
  -3   1   2 1415.26   67.69
  -3   1   2 1442.46   58.39
   2  -1  -2 1400.16   61.79
  -2  -1   2 1481.35   61.89
  -2  -1   2 1512.75   75.99
  -2  -1   2 1637.84   76.39
  -2   1   2 1362.16   74.49
  -1  -1   2 3355.36  141.29
  -1  -1   2 3717.53  161.98
   1  -1  -2 3193.78  141.59
  -1   1   2 3499.65  141.09
   0  -1  -2 3003.00  141.79
   0  -1   2 3582.84  140.29
   0  -1  -2 3482.25  140.79
   0   1   2 3593.44  140.19
  -1  -1  -2 7014.40  289.17
   2  -1   2 4433.16  172.18
  -2  -1  -2 3816.52  173.68
   2   1   2 4280.97  173.28
   3  -1   2 2283.87   95.79
  -3  -1  -2 2277.37   98.49
  -3  -1  -2 2284.87   97.69
  -3  -1  -2 2235.38  103.89
  -3  -1  -2 2477.55  105.59
  -3  -1  -2 2216.78   97.99
  -3  -1  -2 2373.96   99.29
   3   1   2 2167.18   95.79
  -3   1  -2 2316.27   98.79
  -3   1  -2 2363.66  104.69
  -3   1  -2 2319.67   98.59
  -3   1  -2 2278.97   97.29
  -3   1  -2 2255.57   97.49
   4  -1   2   85.39    5.50
  -4  -1  -2   73.29    9.10
  -4  -1  -2   79.59    9.50
  -4  -1  -2   86.09    8.50
  -4  -1  -2   66.79    7.90
  -4  -1  -2   75.69    8.90
  -4  -1  -2   94.09    6.10
  -4  -1  -2   70.89    8.70
  -4  -1  -2   96.69    6.60
  -4   1  -2   77.99    8.40
  -4   1  -2   79.79   12.00
  -4   1  -2   85.89    6.20
  -4   1  -2   80.79    6.70
  -4   1  -2   84.69    9.80
  -4   1  -2   89.59   15.50
  -4   1  -2   93.39    7.50
  -4   1  -2   88.99    5.80
  -4   1  -2   78.89    7.20
  -4   1  -2   92.19    7.10
   5  -1   2  295.27   13.70
  -5  -1  -2  286.07   21.70
  -5  -1  -2  243.28   16.80
  -5  -1  -2  266.47   17.80
  -5  -1  -2  264.07   18.70
  -5  -1  -2  287.27   14.10
  -5  -1  -2  219.78   25.30
  -5   1  -2  295.07   14.00
  -5   1  -2  243.98   15.00
  -5   1  -2  264.27   21.80
  -5   1  -2  245.38   15.80
   5   1   2  281.17   13.50
  -6  -1  -2   69.69    5.50
  -6  -1  -2   74.99    5.90
  -6  -1  -2   70.49    4.20
  -6  -1  -2   67.29    5.00
  -6  -1  -2   72.49    7.10
  -6  -1  -2   65.29    7.20
  -6   1  -2   70.19    4.40
  -6   1  -2   73.79    8.00
  -6   1  -2   69.19    5.40
  -6   1  -2   66.99    5.70
  -6  -2   2  311.37   17.10
  -6  -2   2  317.57   18.40
  -6  -2   2  283.47   18.50
  -6  -2   2  260.47   17.20
  -6  -2   2  269.77   14.50
  -6  -2   2  267.77   14.80
  -6  -2   2  258.77   14.50
  -6  -2   2  280.87   15.70
  -6   2   2  269.67   15.20
  -6   2   2  261.87   13.80
  -6   2   2  311.47   19.60
  -6   2   2  293.47   16.30
  -6   2   2  248.38   13.90
  -5  -2   2 1556.94   70.39
  -5  -2   2 1569.74   71.29
  -5  -2   2 1580.14   70.29
  -5  -2   2 1655.03   73.89
  -5  -2   2 1586.34   70.09
  -5  -2   2 1719.13   69.69
  -5  -2   2 1537.65   72.79
  -5  -2   2 1706.03   71.99
  -5  -2   2 1640.04   71.59
  -5  -2   2 1554.24   76.99
  -5  -2   2 1621.04   75.99
  -5   2   2 1546.75   73.09
  -5   2   2 1783.42   76.49
  -5   2   2 1696.53   69.79
  -5   2   2 1527.55   73.39
  -5   2   2 1654.43   72.09
  -5   2   2 1757.32   73.59
  -5   2   2 1522.55   70.39
  -4  -2   2  413.86   24.40
  -4  -2   2  450.65   25.80
  -4  -2   2  476.15   21.30
   4  -2  -2  355.16   21.10
   4  -2  -2  407.26   23.60
  -4  -2   2  435.06   20.70
  -4  -2   2  411.26   23.10
  -4  -2   2  441.66   21.60
  -4  -2   2  429.86   23.20
  -4  -2   2  438.96   23.60
  -4  -2   2  458.65   22.30
  -4  -2   2  434.86   19.90
  -4  -2   2  402.96   20.30
  -4  -2   2  434.96   25.40
  -4  -2   2  427.36   21.80
   4   2  -2  396.06   24.50
  -4   2   2  404.46   19.50
  -4   2   2  457.75   22.10
  -4   2   2  436.06   20.20
  -4   2   2  383.86   23.90
  -4   2   2  401.36   22.70
  -4   2   2  429.76   20.60
  -4   2   2  350.66   22.50
  -4   2   2  405.16   20.80
  -4   2   2  382.96   30.10
  -4   2   2  425.46   26.20
  -4   2   2  432.96   23.20
  -4   2   2  432.26   23.10
   3  -2  -2 2704.83  119.89
  -3  -2   2 2889.81  119.69
  -3   2   2 2766.82  129.09
   3   2  -2 3049.20  124.69
  -3   2   2 2938.11  119.19
   2  -2  -2  119.59    6.80
  -2  -2   2  127.69    6.70
  -2  -2   2  148.99   16.10
  -2   2   2  122.69    6.30
  -2   2   2  115.69   15.30
  -2   2   2  142.09   11.30
  -1  -2   2 4652.93  204.48
   1  -2  -2 4400.86  181.88
  -1   2   2 4198.18  205.68
   0  -2  -2 3144.99  131.39
   0  -2   2 3219.58  130.89
  -1  -2  -2 5263.47  213.48
   1  -2   2 5745.03  255.47
   1  -2   2 4883.71  212.88
  -1   2  -2 4811.42  212.38
   2  -2   2  734.23   33.10
  -2  -2  -2  828.02   38.40
  -2  -2  -2  804.92   54.89
   2   2   2  753.72   34.80
  -3  -2  -2  152.88   12.20
  -3  -2  -2  132.39    8.80
  -3  -2  -2  136.69    9.10
   3  -2   2  140.79    7.40
  -3  -2  -2  133.79    9.30
  -3  -2  -2  134.49   12.40
  -3  -2  -2  135.19    9.40
  -3   2  -2  141.09    9.60
   3   2   2  144.79    8.80
  -3   2  -2  155.28   10.80
  -3   2  -2  138.29   12.70
  -3   2  -2  128.39    8.50
  -3   2  -2  141.89    8.60
  -4  -2  -2  297.87   16.30
  -4  -2  -2  268.87   21.60
  -4  -2  -2  285.67   17.00
  -4  -2  -2  279.37   18.20
  -4  -2  -2  295.47   16.10
   4  -2   2  288.67   14.00
  -4  -2  -2  300.17   15.10
  -4  -2  -2  278.87   18.90
  -4  -2  -2  320.17   14.80
  -4   2  -2  273.57   15.50
  -4   2  -2  279.17   21.40
  -4   2  -2  259.97   19.00
  -4   2  -2  280.47   17.10
  -4   2  -2  270.77   23.20
  -4   2  -2  304.97   15.30
  -4   2  -2  298.07   16.70
  -4   2  -2  289.57   24.90
   5  -2   2 2133.19   99.59
  -5  -2  -2 2075.49   98.79
  -5  -2  -2 2378.16  105.99
  -5  -2  -2 2313.37  105.59
  -5   2  -2 2284.27  100.89
  -5   2  -2 2375.86  105.39
  -5   2  -2 2375.26   97.99
  -5   2  -2 2264.97   97.19
  -5   2  -2 2601.64  109.69
   5   2   2 2208.58   96.69
  -6  -2  -2  441.16   19.50
  -6  -2  -2  461.55   21.90
  -6  -2  -2  483.15   24.70
  -6  -2  -2  392.16   20.80
  -6   2  -2  482.15   20.40
  -6   2  -2  438.46   21.60
  -6   2  -2  462.25   22.20
  -6   2  -2  436.86   19.70
  -6  -3   2  122.29    8.60
  -6  -3   2  109.49    7.30
  -6  -3   2  109.09    7.30
  -6  -3   2  116.39    9.60
  -6  -3   2  104.89   10.00
  -6  -3   2  106.09    8.50
  -6  -3   2  102.89    7.10
  -6   3   2  103.69    6.80
  -6   3   2  125.59    8.10
  -6   3   2  107.19    8.50
  -6   3   2  119.59   10.90
  -6   3   2  100.69    6.50
  -6   3   2  106.89    7.00
  -5  -3   2   36.50    4.20
  -5  -3   2   34.90    5.90
  -5  -3   2   32.50    3.60
  -5  -3   2   27.80    4.20
  -5  -3   2   26.40    4.90
  -5  -3   2   28.20    3.80
  -5  -3   2   34.20    4.10
  -5  -3   2   36.70    4.00
  -5  -3   2   28.80    4.50
  -5  -3   2   29.80    3.10
  -5  -3   2   27.30    4.30
  -5   3   2   32.50    3.60
  -5   3   2   25.00    3.10
  -5   3   2   26.00    4.80
  -5   3   2   32.80    5.90
  -5   3   2   29.30    4.30
  -5   3   2   34.00    4.30
  -5   3   2   30.40    4.60
  -5   3   2   29.90    6.40
  -5   3   2   31.50    4.70
  -5   3   2   26.90    3.50
  -4  -3   2  417.36   23.60
   4  -3  -2  375.16   20.80
  -4  -3   2  432.56   21.30
  -4  -3   2  500.75   26.60
  -4  -3   2  444.36   22.50
  -4  -3   2  463.15   26.00
  -4  -3   2  415.66   20.70
  -4  -3   2  456.25   25.30
  -4  -3   2  453.65   20.40
  -4  -3   2  411.26   23.40
  -4  -3   2  402.86   20.90
  -4  -3   2  439.96   21.70
  -4  -3   2  436.86   22.20
  -4  -3   2  415.66   23.30
   4  -3  -2  398.76   23.60
  -4   3   2  402.96   19.70
  -4   3   2  409.96   20.40
  -4   3   2  448.56   23.50
  -4   3   2  451.35   26.80
  -4   3   2  435.86   24.90
  -4   3   2  442.46   21.00
  -4   3   2  403.96   30.10
  -4   3   2  443.76   26.80
   4   3  -2  396.16   25.40
  -4   3   2  458.95   22.50
  -4   3   2  415.16   23.30
  -4   3   2  421.66   23.30
  -4   3   2  413.16   21.30
  -3  -3   2 2413.16  100.19
   3  -3  -2 2250.27  100.69
  -3   3   2 2516.65   99.39
  -3   3   2 2430.16  111.39
   3   3  -2 2334.17  104.49
   2  -3  -2 8232.48  348.37
  -2   3   2 8695.53  347.17
   1  -3  -2 2835.82  114.69
  -1  -3   2 2742.83  114.39
   1  -3  -2 2581.84  135.79
  -1  -3   2 2798.32  113.99
  -1   3   2 2861.21  113.69
   0  -3   2 2592.44  107.49
   0  -3   2 2576.94  149.19
   0  -3  -2 2667.93  131.49
   0   3   2 2597.74  109.49
   1  -3   2 4045.10  161.68
   1  -3   2 3983.00  203.68
  -1  -3  -2 4143.89  162.78
  -1   3  -2 3963.10  161.48
  -1   3  -2 3533.95  161.38
   1   3   2 3919.61  163.98
  -2  -3  -2 1637.74   90.49
   2  -3   2 1402.56   62.19
  -2  -3  -2 1573.24   65.69
   2   3   2 1440.16   64.59
  -2   3  -2 1400.96   72.59
   3  -3   2  468.55   21.70
  -3  -3  -2  453.05   24.20
  -3  -3  -2  513.75   41.10
  -3  -3  -2  483.55   28.70
  -3  -3  -2  513.55   27.40
  -3  -3  -2  482.75   24.30
  -3  -3  -2  485.95   23.80
  -3  -3  -2  487.75   24.00
  -3   3  -2  492.45   34.10
  -3   3  -2  509.55   23.60
   3   3   2  501.85   24.50
  -3   3  -2  492.45   26.00
  -3   3  -2  482.45   27.60
  -3   3  -2  496.35   29.40
  -3   3  -2  471.45   23.80
  -3   3  -2  482.75   23.30
  -3   3  -2  485.15   24.50
  -4  -3  -2  116.79    8.60
  -4  -3  -2  117.89   11.30
  -4  -3  -2  115.19    9.00
  -4  -3  -2  100.49    8.00
  -4  -3  -2  117.19   12.00
  -4  -3  -2  112.19    7.30
  -4  -3  -2  109.89    8.60
   4  -3   2  105.49    6.60
  -4   3  -2  109.19    7.90
  -4   3  -2  125.89    9.00
  -4   3  -2  115.89    9.20
  -4   3  -2  116.39    7.80
  -4   3  -2  100.69   10.90
  -4   3  -2  119.69   12.40
  -4   3  -2  106.69    7.70
  -4   3  -2  110.49    8.70
  -5  -3  -2 1511.25   65.29
  -5  -3  -2 1446.36   60.49
  -5  -3  -2 1401.76   68.69
  -5  -3  -2 1501.05   62.99
  -5  -3  -2 1419.66   63.59
   5   3   2 1402.56   60.69
  -5   3  -2 1398.76   61.89
  -5   3  -2 1454.25   61.39
  -5   3  -2 1313.67   63.69
  -5   3  -2 1345.47   68.29
  -5   3  -2 1375.96   61.59
  -6  -3  -2   25.60    4.00
  -6  -3  -2   32.60    3.10
  -6  -3  -2   34.50    3.50
  -6  -3  -2   30.30    3.40
  -6  -3  -2   27.60    4.10
  -6   3  -2   32.50    4.90
  -6   3  -2   30.00    3.40
  -6   3  -2   30.00    2.60
  -6   3  -2   27.20    3.00
  -6   3  -2   28.20    2.50
  -6  -4   2  747.83   32.80
  -6  -4   2  691.93   33.10
  -6  -4   2  741.83   32.40
  -6  -4   2  733.73   36.90
  -6  -4   2  717.63   35.90
  -6  -4   2  738.83   34.30
  -6   4   2  728.23   34.30
  -6   4   2  675.33   32.00
  -6   4   2  678.83   33.00
  -6   4   2  689.73   31.80
  -5  -4   2  640.04   30.10
  -5  -4   2  672.03   34.60
  -5  -4   2  592.04   34.70
  -5  -4   2  635.64   31.00
  -5  -4   2  698.23   31.00
  -5  -4   2  625.84   31.10
  -5  -4   2  588.94   34.20
  -5  -4   2  635.94   31.90
  -5  -4   2  631.74   32.80
  -5  -4   2  647.04   30.20
  -5   4   2  554.74   29.50
  -5   4   2  676.73   29.50
  -5   4   2  622.24   30.00
  -5   4   2  670.53   32.20
  -5   4   2  574.84   31.60
  -5   4   2  702.53   33.40
  -5   4   2  637.34   42.90
  -5   4   2  686.93   31.70
  -4  -4   2  204.48   14.70
  -4  -4   2  215.68   10.80
  -4  -4   2  187.18   13.40
  -4  -4   2  199.48   12.40
   4  -4  -2  170.18   11.50
  -4  -4   2  205.48   11.90
  -4  -4   2  202.98   13.70
  -4  -4   2  193.08   12.30
  -4  -4   2  216.58   13.60
  -4  -4   2  201.38   14.90
  -4  -4   2  192.08   11.10
  -4  -4   2  196.98   11.50
  -4  -4   2  188.98   11.30
  -4  -4   2  198.68   14.80
  -4   4   2  191.08   15.40
  -4   4   2  222.38   12.80
  -4   4   2  172.28   18.20
  -4   4   2  195.48   13.20
  -4   4   2  207.38   13.20
  -4   4   2  196.58   16.00
  -4   4   2  192.68   11.60
  -4   4   2  199.58   13.40
  -4   4   2  191.98   11.20
   4   4  -2  192.98   15.60
  -4   4   2  181.58   13.70
  -4   4   2  191.78   10.80
  -3  -4   2  256.37   13.30
  -3  -4   2  253.97   20.20
   3  -4  -2  253.27   14.00
  -3  -4   2  280.17   19.80
  -3  -4   2  268.17   16.80
  -3  -4   2  306.77   21.20
  -3   4   2  267.67   15.40
   3   4  -2  264.07   17.10
  -3   4   2  270.77   12.20
  -3   4   2  263.57   20.90
  -3   4   2  239.88   19.00
  -2  -4   2 4372.56  174.88
  -2  -4   2 4332.87  200.98
   2  -4  -2 4123.19  175.58
   2   4  -2 4478.95  178.98
  -2   4   2 4281.97  173.78
  -2   4   2 3782.22  203.78
  -1  -4   2  930.61   67.09
   1  -4  -2  964.20   41.40
  -1  -4   2  962.10   40.50
   1  -4  -2  911.11   63.49
  -1  -4   2  966.90   40.70
  -1   4   2  974.20   40.00
   1   4  -2 1036.90   43.80
  -1  -4  -2 3060.59  152.08
   1  -4   2 2972.80  121.89
  -1  -4  -2 2960.80  122.79
  -1  -4  -2 3114.09  122.79
   1  -4   2 2930.81  165.98
  -1   4  -2 2804.72  121.69
   1   4   2 3073.69  124.69
  -1   4  -2 2699.63  130.29
   2  -4   2 4898.31  215.48
  -2  -4  -2 5712.93  252.07
   2   4   2 5106.09  218.78
  -3  -4  -2  481.45   25.90
   3  -4   2  459.25   21.90
  -3  -4  -2  500.75   24.70
  -3  -4  -2  499.95   28.90
  -3  -4  -2  482.95   23.90
  -3  -4  -2  488.75   28.90
  -3  -4  -2  494.85   24.60
  -3  -4  -2  506.95   24.30
  -3   4  -2  523.05   25.10
  -3   4  -2  482.35   24.20
  -3   4  -2  485.15   27.60
  -3   4  -2  494.55   35.20
  -3   4  -2  495.85   23.40
  -3   4  -2  457.45   38.10
  -3   4  -2  493.05   23.70
   3   4   2  487.55   25.40
  -3   4  -2  512.55   26.40
  -4  -4  -2 1902.21   74.49
  -4  -4  -2 1854.11   81.59
  -4  -4  -2 1851.11   76.29
  -4  -4  -2 1682.53   75.69
  -4  -4  -2 1847.02   83.19
  -4  -4  -2 1683.33   76.69
  -4  -4  -2 1761.62   76.49
  -4  -4  -2 1780.82   78.89
   4  -4   2 1798.32   75.89
  -4   4  -2 1781.42   75.39
  -4   4  -2 1760.32   75.09
  -4   4  -2 1696.73   76.39
  -4   4  -2 1564.64   82.99
  -4   4  -2 1536.05   80.29
  -4   4  -2 1577.64   76.59
  -4   4  -2 1656.23   90.69
  -5  -4  -2  100.99   10.50
  -5  -4  -2  112.39    8.50
  -5  -4  -2  115.59    9.40
  -5  -4  -2  100.39    8.60
  -5  -4  -2  105.69   10.60
  -5  -4  -2  106.29    7.70
  -5   4  -2   84.49    8.10
  -5   4  -2   99.09    6.80
   5   4   2   98.39    6.50
  -5   4  -2  110.69    7.30
  -5   4  -2   96.89    7.80
  -5   4  -2   96.59   11.10
  -6  -4  -2  903.01   40.50
  -6  -4  -2  950.80   43.40
  -6  -4  -2  829.72   41.70
  -6  -4  -2  893.41   39.70
  -6   4  -2  950.40   39.00
  -6   4  -2  917.11   39.00
  -6  -5   2  145.69    8.70
  -6  -5   2  151.98    8.30
  -6  -5   2  129.59    8.40
  -6  -5   2  139.19   11.10
  -6  -5   2  136.39    9.40
  -6  -5   2  142.79   10.60
  -6   5   2  147.69    8.10
  -6   5   2  146.49    9.60
  -6   5   2  135.69    8.50
  -6   5   2  152.78    8.10
  -6   5   2  143.29    8.20
  -5  -5   2  230.68   16.60
  -5  -5   2  210.98   15.40
  -5  -5   2  219.78   14.00
  -5  -5   2  210.18   13.30
  -5  -5   2  204.68   15.40
  -5  -5   2  220.38   13.30
  -5  -5   2  209.08   14.30
  -5   5   2  251.17   18.30
  -5   5   2  213.88   11.70
  -5   5   2  207.58   12.30
  -5   5   2  209.58   14.10
  -5   5   2  217.98   16.10
  -5   5   2  214.18   14.90
  -5   5   2  209.58   12.20
  -4  -5   2 1705.63   70.99
   4  -5  -2 1558.54   69.29
  -4  -5   2 1423.76   71.19
  -4  -5   2 1699.03   73.19
  -4  -5   2 1613.04   69.89
  -4  -5   2 1635.44   73.39
  -4  -5   2 1614.84   74.19
  -4  -5   2 1672.43   68.89
  -4   5   2 1509.95   71.59
  -4   5   2 1415.46   78.39
   4   5  -2 1493.15   74.79
  -4   5   2 1543.65   69.29
  -4   5   2 1531.15   67.69
  -4   5   2 1752.12   70.59
  -4   5   2 1566.64   79.49
  -4   5   2 1398.76   70.49
  -4   5   2 1606.24   70.79
  -3  -5   2 1223.08   53.89
  -3  -5   2 1274.47   53.99
  -3  -5   2 1211.18   55.09
   3  -5  -2 1083.59   52.79
  -3  -5   2 1210.18   55.79
  -3  -5   2 1180.78   51.99
  -3  -5   2 1298.57   52.99
  -3  -5   2 1033.30   67.19
  -3  -5   2 1068.59   57.89
  -3  -5   2 1184.28   67.99
  -3  -5   2 1248.48   57.39
  -3   5   2 1213.08   52.69
  -3   5   2 1245.68   64.39
   3   5  -2 1187.28   57.29
  -3   5   2 1203.88   54.89
  -3   5   2 1226.18   52.39
  -3   5   2 1207.38   57.89
  -3   5   2 1239.18   53.39
  -3   5   2 1183.68   51.79
  -3   5   2 1358.06   61.09
  -2  -5   2  860.71   61.59
   2  -5  -2  815.72   37.50
  -2  -5   2  785.42   61.79
  -2  -5   2  796.72   36.50
  -2   5   2  938.51   45.50
   2   5  -2  868.01   40.60
  -1  -5   2  938.21   38.30
   1  -5  -2  881.81   65.09
   1  -5  -2  888.31   39.00
  -1  -5   2  852.11   37.70
  -1  -5   2  924.81   38.10
  -1  -5   2  888.81   68.49
  -1   5   2  895.91   37.20
  -1   5   2  991.40   43.90
  -1   5   2  866.71   40.30
   1   5  -2  865.51   41.10
   0  -5  -2  732.23   55.69
   0  -5  -2  720.93   30.50
   0  -5   2  637.64   59.19
   0  -5   2  728.03   29.70
   0  -5   2  715.43   29.50
   0   5  -2  699.33   31.80
   0   5   2  637.74   31.90
   1  -5   2 1517.25  109.49
   1  -5   2 1684.43   66.69
  -1   5  -2 1587.34   66.69
   2  -5   2 5319.67  224.28
  -2  -5  -2 5929.11  265.27
  -2  -5  -2 5101.69  225.58
   2   5   2 5432.66  228.18
  -3  -5  -2  919.31   41.90
   3  -5   2  850.81   39.10
  -3  -5  -2  928.81   42.10
  -3  -5  -2  904.51   46.70
  -3  -5  -2  880.41   41.10
  -3  -5  -2  936.41   66.09
  -3  -5  -2  927.71   45.40
  -3  -5  -2  905.71   41.50
  -3  -5  -2  888.71   43.30
  -3   5  -2  937.01   41.20
  -3   5  -2  913.81   41.50
  -3   5  -2  955.90   41.60
  -3   5  -2  956.80   42.40
  -3   5  -2  929.61   41.20
   3   5   2  911.01   43.70
  -3   5  -2  845.12   39.40
  -3   5  -2  867.31   47.20
  -3   5  -2  973.60   46.10
  -3   5  -2  929.71   42.60
  -3   5  -2  809.82   53.59
  -4  -5  -2 2099.09  101.79
  -4  -5  -2 2157.98   98.09
  -4  -5  -2 2330.77   97.99
  -4  -5  -2 2322.07   97.69
  -4  -5  -2 2329.97  104.19
   4  -5   2 2262.87   94.99
  -4  -5  -2 2256.87   99.99
  -4   5  -2 2384.36   98.59
  -4   5  -2 2209.28   97.69
  -4   5  -2 2333.87   96.99
  -4   5  -2 2196.08  114.29
  -4   5  -2 2265.27   96.89
  -4   5  -2 2307.77   96.59
  -4   5  -2 2227.98   98.79
  -4   5  -2 2208.38  104.79
  -5  -5  -2    3.60    2.20
  -5  -5  -2    0.60    2.50
  -5  -5  -2    7.60    3.60
  -5  -5  -2    2.30    1.90
  -5  -5  -2    8.00    3.80
  -5  -5  -2    5.20    1.90
  -5   5  -2    1.10    1.60
  -5   5  -2    2.90    1.50
  -5   5  -2    3.90    1.70
  -5   5  -2    4.10    1.70
  -5   5  -2    4.70    2.70
  -6  -5  -2  194.88   10.00
  -6  -5  -2  164.28   10.10
  -6  -5  -2  161.28    9.30
  -6  -5  -2  187.98   11.70
  -6  -5  -2  194.38   10.30
  -6   5  -2  171.28    8.90
  -6   5  -2  177.18   12.10
  -6   5  -2  179.18    8.70
  -6  -6   2  236.68   12.50
  -6  -6   2  255.67   15.60
  -6  -6   2  247.78   14.80
  -6  -6   2  238.18   12.50
  -6  -6   2  233.48   12.40
  -6  -6   2  228.78   13.30
  -6   6   2  227.48   11.80
  -6   6   2  228.98   11.70
  -6   6   2  257.17   12.20
  -5  -6   2   97.09    9.80
  -5  -6   2   92.49    7.70
  -5  -6   2   89.79    7.30
  -5  -6   2   95.59    7.50
  -5  -6   2   96.19    6.90
  -5  -6   2   96.79    9.70
  -5  -6   2   97.99    8.50
  -5   6   2  100.69    8.70
  -5   6   2   83.39    6.40
  -5   6   2   87.39    6.10
  -5   6   2   79.89    7.30
  -5   6   2   87.39    6.70
  -4  -6   2    9.90    3.20
  -4  -6   2    8.90    3.40
  -4  -6   2   10.40    4.50
  -4  -6   2   10.40    2.40
  -4  -6   2    4.00    2.00
  -4  -6   2   10.90    2.60
  -4  -6   2    9.00    4.30
  -4   6   2    8.70    1.70
  -4   6   2    9.90    3.50
   4   6  -2    4.80    3.60
  -4   6   2    6.50    2.60
  -4   6   2    8.50    2.70
  -3  -6   2 2675.63  108.49
  -3  -6   2 2542.15  109.69
  -3  -6   2 2616.54  110.99
  -3  -6   2 2650.93  112.19
  -3  -6   2 2341.87  119.19
  -3  -6   2 2765.42  110.49
  -3  -6   2 2416.86  107.59
   3  -6  -2 2336.97  108.79
  -3   6   2 2576.44  110.69
  -3   6   2 2628.44  108.39
  -3   6   2 2593.04  131.69
   3   6  -2 2662.93  114.59
  -3   6   2 2616.24  107.39
  -3   6   2 2601.04  114.99
  -3   6   2 2561.74  120.49
  -3   6   2 2226.88  105.99
  -3   6   2 2710.23  111.09
   2  -6  -2   33.50    3.60
  -2  -6   2   36.00   12.60
  -2  -6   2   32.10   13.20
  -2   6   2   38.70    6.50
   2   6  -2   46.80    5.70
  -2   6   2   34.10   15.20
  -1  -6   2  957.10   39.50
  -1  -6   2  883.21   73.29
  -1  -6   2  950.60   39.40
   1  -6  -2  863.81   69.59
   1  -6  -2  953.50   40.50
  -1  -6   2  886.11   39.00
  -1   6   2  965.90   42.20
   1   6  -2  933.61   43.10
   0  -6  -2  426.06   20.10
   0  -6   2  432.66   19.30
   0  -6   2  444.86   19.30
   0  -6   2  480.25   51.89
   0  -6  -2  442.76   44.40
   0   6  -2  422.06   21.50
   0   6  -2  418.26   26.50
   0   6   2  448.36   22.30
   1  -6   2 6099.19  237.48
  -1  -6  -2 5872.11  238.48
   1  -6   2 6049.89  237.08
   1  -6   2 5099.39  293.17
  -1   6  -2 5527.45  237.98
   1   6   2 5967.80  241.68
  -2  -6  -2 1218.48   82.89
  -2  -6  -2 1090.89   48.40
   2  -6   2 1065.09   47.00
  -2   6  -2 1077.79   61.79
   2   6   2 1089.69   51.29
  -3  -6  -2  870.61   41.40
  -3  -6  -2  859.71   39.30
   3  -6   2  771.92   38.70
  -3  -6  -2  897.61   43.70
  -3  -6  -2  977.50   68.99
  -3  -6  -2  844.02   39.90
  -3  -6  -2  884.41   44.90
  -3  -6  -2  852.81   39.50
  -3  -6  -2  872.41   40.00
   3  -6   2  819.12   37.20
  -3   6  -2  812.62   53.69
  -3   6  -2  862.31   39.30
  -3   6  -2  893.71   40.90
  -3   6  -2  891.81   39.40
  -3   6  -2  864.91   39.20
  -3   6  -2  800.92   37.40
  -3   6  -2  816.72   44.80
   3   6   2  841.62   42.20
   3   6   2  791.42   40.10
  -3   6  -2  928.71   40.90
  -4  -6  -2 1204.58   53.39
  -4  -6  -2 1160.58   53.19
  -4  -6  -2 1182.18   57.69
  -4  -6  -2 1137.09   52.89
  -4  -6  -2 1149.58   53.89
  -4  -6  -2 1170.18   55.39
  -4  -6  -2 1214.38   58.89
  -4   6  -2 1169.88   54.49
  -4   6  -2 1231.78   52.89
   4   6   2 1134.19   51.39
  -4   6  -2 1229.68   54.19
  -4   6  -2 1178.48   53.19
  -4   6  -2 1167.38   52.59
  -5  -6  -2  299.97   16.50
  -5  -6  -2  292.57   18.80
  -5  -6  -2  278.67   15.60
  -5  -6  -2  265.37   16.40
  -5  -6  -2  284.17   15.40
  -5  -6  -2  288.77   18.20
  -5   6  -2  287.87   16.10
  -5   6  -2  258.17   14.50
  -5   6  -2  274.37   16.40
  -5   6  -2  271.37   19.70
  -5   6  -2  278.27   14.50
  -6  -6  -2    8.80    2.00
  -6  -6  -2    5.50    1.30
  -6  -6  -2    6.40    1.40
  -6  -6  -2    9.10    1.40
  -6   6  -2    6.50    1.00
  -6   6  -2    6.20    2.60
  -6   6  -2    8.70    1.10
  -6  -7   2  176.48    9.70
  -6  -7   2  167.68    9.60
  -6  -7   2  166.98   10.20
  -6  -7   2  185.58   11.60
  -6  -7   2  178.08   11.80
  -6   7   2  181.18    9.00
  -6   7   2  170.58    9.20
  -6   7   2  189.88   10.70
  -5  -7   2  268.77   17.30
  -5  -7   2  255.37   17.20
  -5  -7   2  226.28   15.00
  -5  -7   2  241.08   13.20
  -5  -7   2  237.58   14.10
  -5  -7   2  256.47   14.40
  -5   7   2  231.78   13.20
  -5   7   2  248.68   14.40
  -5   7   2  249.58   13.30
  -5   7   2  247.28   12.70
  -5   7   2  223.78   15.40
  -4  -7   2 1822.72   78.09
  -4  -7   2 1722.83   79.49
  -4  -7   2 1771.32   74.69
  -4  -7   2 1748.03   79.09
  -4  -7   2 1716.73   76.29
   4  -7  -2 1603.34   75.59
  -4  -7   2 1822.52   76.69
  -4  -7   2 1703.03   74.49
  -4   7   2 1664.53   77.59
  -4   7   2 1755.72   76.89
  -4   7   2 1686.03   73.49
  -4   7   2 1607.54   88.69
  -4   7   2 1811.32   75.29
  -3  -7   2  591.74   29.30
  -3  -7   2  604.44   30.00
  -3  -7   2  547.85   25.30
  -3  -7   2  542.95   27.90
   3  -7  -2  494.55   26.30
  -3  -7   2  561.44   27.10
  -3  -7   2  566.14   27.10
  -3  -7   2  509.55   47.30
   3   7  -2  476.75   24.90
  -3   7   2  547.35   25.40
  -3   7   2  549.05   48.90
  -3   7   2  521.05   35.50
  -3   7   2  575.14   28.00
  -3   7   2  533.55   27.80
  -3   7   2  526.05   30.30
   3   7  -2  533.15   30.80
  -3   7   2  526.25   24.50
  -3   7   2  544.65   25.70
  -3   7   2  492.45   23.20
   2  -7  -2 1128.39   49.90
  -2  -7   2 1168.08   48.60
  -2  -7   2 1060.39   84.09
   2   7  -2 1140.39   53.69
  -1  -7   2 2781.62  119.79
   1  -7  -2 2948.10  121.49
  -1  -7   2 2950.70  120.29
  -1  -7   2 3147.49  120.29
   1  -7  -2 2682.53  163.88
  -1  -7   2 2620.64  166.58
   1   7  -2 3043.70  124.89
  -1   7   2 2965.30  123.49
   0  -7   2 2989.80  188.98
   0  -7   2 3342.27  136.89
   0  -7   2 3171.78  138.49
   0  -7   2 3343.57  137.09
   0  -7  -2 3354.76  182.28
   0  -7  -2 3428.46  138.19
   0   7  -2 3366.96  147.79
   0   7   2 3529.15  141.39
   0   7  -2 3282.77  140.19
   1  -7   2  756.22   32.50
  -1  -7  -2  756.52   34.00
   1  -7   2  725.13   87.49
  -1  -7  -2  784.32   66.49
   1  -7   2  789.32   33.00
  -1   7  -2  757.42   33.80
   1   7   2  813.02   37.50
  -1   7  -2  745.33   44.50
   2  -7   2 1361.66   59.29
  -2  -7  -2 1463.45   64.69
  -2  -7  -2 1361.36   60.69
  -2  -7  -2 1494.15   99.79
  -2  -7  -2 1471.85   65.69
  -2   7  -2 1247.88   60.09
  -2   7  -2 1428.36   62.39
   2   7   2 1425.26   64.59
  -2   7  -2 1449.46   76.59
  -2   7  -2 1354.26   60.89
  -3  -7  -2 2825.02  125.29
  -3  -7  -2 2958.40  121.29
  -3  -7  -2 2804.32  120.79
   3  -7   2 2671.83  119.69
  -3  -7  -2 2830.22  121.59
  -3  -7  -2 2810.02  122.89
   3  -7   2 2895.81  118.79
  -3  -7  -2 2898.81  126.79
  -3  -7  -2 2863.11  120.99
  -3   7  -2 2916.71  120.49
  -3   7  -2 2710.43  118.99
  -3   7  -2 3003.80  122.79
   3   7   2 2785.22  124.99
   3   7   2 2678.53  118.79
  -3   7  -2 2682.03  126.39
  -3   7  -2 3055.89  121.59
  -3   7  -2 2892.61  120.69
  -3   7  -2 2961.50  122.49
  -4  -7  -2  704.23   36.30
  -4  -7  -2  680.33   31.80
  -4  -7  -2  637.54   33.30
  -4  -7  -2  702.13   31.80
  -4  -7  -2  632.44   32.20
  -4  -7  -2  650.23   35.40
   4  -7   2  652.23   30.40
  -4   7  -2  591.14   36.40
  -4   7  -2  669.33   31.30
  -4   7  -2  622.84   57.19
   4   7   2  628.14   29.10
  -4   7  -2  663.73   33.10
  -4   7  -2  705.73   32.90
  -5  -7  -2  194.48   12.60
   5  -7   2  159.88   12.70
  -5  -7  -2  198.68   12.70
  -5  -7  -2  179.68   13.50
  -5  -7  -2  190.58   11.60
  -5  -7  -2  187.68   11.00
  -5  -7  -2  190.38   10.90
  -5   7  -2  193.38   10.80
  -5   7  -2  172.08   10.20
  -5   7  -2  167.28   10.10
  -5   7  -2  172.98   14.00
  -6  -7  -2   88.69    5.50
  -6  -7  -2   98.29    6.60
  -6  -7  -2   85.89    5.60
  -6   7  -2  104.59    5.10
  -6   7  -2   94.19    4.90
  -6  -8   2   93.99    7.60
  -6  -8   2  101.39    6.20
  -6  -8   2   75.89    6.10
  -6  -8   2   81.29    5.70
  -6  -8   2  102.69    7.60
  -6   8   2   96.69    5.10
  -6   8   2   91.89    5.50
  -6   8   2   99.89    7.60
  -5  -8   2   83.69    8.50
  -5  -8   2   87.09    7.00
  -5  -8   2   90.19    7.00
  -5  -8   2   89.09    7.60
  -5  -8   2   88.19    8.70
  -5   8   2   90.09    8.30
  -5   8   2   87.89    6.20
  -5   8   2   78.69    6.40
  -5   8   2   76.19    5.90
  -5   8   2   87.69    5.70
  -4  -8   2  428.06   22.10
  -4  -8   2  431.96   20.90
  -4  -8   2  413.26   23.10
   4  -8  -2  416.96   22.00
  -4  -8   2  424.46   24.40
  -4  -8   2  435.26   22.30
  -4  -8   2  424.46   24.80
  -4   8   2  409.26   21.00
  -4   8   2  416.16   22.30
  -4   8   2  391.16   19.50
  -4   8   2  389.36   32.10
  -4   8   2  380.46   23.00
   3  -8  -2 2624.44  112.39
  -3  -8   2 2489.55  147.19
  -3  -8   2 2716.63  113.99
  -3  -8   2 2816.22  116.09
   3  -8  -2 2354.36  109.09
  -3  -8   2 2791.12  110.89
  -3  -8   2 2780.62  112.99
  -3  -8   2 2740.53  112.39
  -3   8   2 2508.25  108.39
  -3   8   2 2506.25  124.19
   3   8  -2 2497.75  117.59
  -3   8   2 2755.62  110.79
  -3   8   2 2617.24  110.99
   3   8  -2 2480.05  110.09
  -3   8   2 2526.85  109.49
  -3   8   2 2691.43  113.49
  -3   8   2 2629.04  113.99
  -2  -8   2 1425.46   59.89
   2  -8  -2 1359.46   61.29
  -2  -8   2 1287.67  101.49
  -2  -8   2 1433.96   62.59
   2   8  -2 1273.87   60.49
   2   8  -2 1495.75   66.69
  -2   8   2 1354.86   59.39
  -2   8   2 1492.05   63.39
   2   8  -2 1434.46   66.89
   1  -8  -2  404.76   20.30
  -1  -8   2  420.86   19.10
  -1  -8   2  394.66   18.80
  -1  -8   2  374.96   50.69
   1   8  -2  425.16   23.30
  -1   8   2  409.46   22.20
  -1   8   2  443.06   25.20
   1   8  -2  479.15   27.30
   0  -8   2  290.67   13.20
   0  -8   2  291.47   13.60
   0  -8   2  275.07   14.80
   0  -8  -2  308.17   41.40
   0  -8   2  265.67   44.10
   0  -8  -2  287.87   14.50
   0   8   2  298.77   17.30
   0   8  -2  268.67   21.40
   0   8  -2  293.67   16.50
  -1  -8  -2  756.02   35.50
  -1  -8  -2  871.41   74.19
   1  -8   2  690.53   82.19
   1  -8   2  821.92   33.80
   1   8   2  848.52   39.70
  -1   8  -2  810.62   48.90
  -1   8  -2  784.32   35.70
  -2  -8  -2  492.05   23.00
  -2  -8  -2  531.15   55.79
  -2  -8  -2  443.16   25.80
   2  -8   2  469.35   21.30
  -2  -8  -2  504.25   23.00
   2  -8   2  494.15   23.30
   2   8   2  470.65   26.70
  -2   8  -2  424.66   22.10
   2   8   2  435.06   21.60
   3  -8   2   60.19    4.50
  -3  -8  -2   48.00    7.30
  -3  -8  -2   54.69    5.60
  -3  -8  -2   57.79   17.90
  -3  -8  -2   50.69    6.30
  -3  -8  -2   57.49    6.10
  -3  -8  -2   60.09    7.40
   3  -8   2   56.59    4.90
  -3   8  -2   54.39    5.00
  -3   8  -2   57.99    5.50
   3   8   2   54.19    4.40
  -3   8  -2   46.00    6.80
  -3   8  -2   48.60    7.10
  -3   8  -2   50.69   11.50
   3   8   2   53.39    8.30
   4  -8   2 1402.76   68.29
  -4  -8  -2 1578.84   71.59
  -4  -8  -2 1604.44   67.39
  -4  -8  -2 1504.65   66.99
  -4  -8  -2 1497.25   67.89
  -4   8  -2 1524.05   66.59
  -4   8  -2 1575.54   67.09
   4   8   2 1507.35   66.99
  -5  -8  -2  233.68   13.80
  -5  -8  -2  265.27   16.30
  -5  -8  -2  237.58   13.30
  -5  -8  -2  241.88   13.10
  -5  -8  -2  255.17   14.00
  -5   8  -2  246.48   14.00
  -5   8  -2  235.88   12.60
  -5   8  -2  248.38   12.80
  -6  -9   2  150.78    9.80
  -6  -9   2  140.79    7.20
  -6  -9   2  135.19    7.40
  -6  -9   2  128.29    7.90
  -6  -9   2  131.39    8.50
  -6   9   2  137.89    6.90
  -6   9   2  123.09    8.60
  -5  -9   2  913.41   45.60
  -5  -9   2  953.90   43.60
  -5  -9   2  958.10   43.00
  -5   9   2  879.81   40.80
  -5   9   2  916.81   41.50
  -5   9   2 1042.00   46.20
  -4  -9   2   65.29    6.10
  -4  -9   2   68.09    7.70
  -4  -9   2   62.19    6.50
   4  -9  -2   62.99    6.40
  -4  -9   2   59.09    7.10
  -4  -9   2   71.89    6.40
  -4  -9   2   67.19    6.40
  -4   9   2   59.29    4.50
   4   9  -2   63.29    4.80
  -4   9   2   63.49   12.10
  -4   9   2   59.49    5.10
  -4   9   2   60.19    6.80
  -3  -9   2  453.25   25.60
  -3  -9   2  482.05   24.20
  -3  -9   2  451.55   26.60
  -3  -9   2  464.45   22.70
  -3  -9   2  487.65   27.20
  -3  -9   2  422.66   50.19
   3  -9  -2  474.25   28.50
   3  -9  -2  433.16   20.80
   3   9  -2  444.26   28.60
   3   9  -2  432.96   21.60
  -3   9   2  475.95   22.20
  -3   9   2  440.36   21.00
  -3   9   2  466.95   25.20
  -3   9   2  464.85   24.30
  -3   9   2  473.45   22.70
  -3   9   2  453.35   33.00
  -2  -9   2  685.13   71.79
   2  -9  -2  684.63   33.10
  -2  -9   2  700.03   31.60
   2  -9  -2  674.03   30.80
  -2  -9   2  731.93   34.60
  -2   9   2  719.93   34.20
  -2   9   2  701.93   34.80
   2   9  -2  666.53   31.60
  -2   9   2  682.13   30.70
  -2   9   2  734.03   31.90
   2   9  -2  727.23   37.80
  -1  -9   2 1439.46   59.39
  -1  -9   2 1284.87  111.09
  -1  -9   2 1366.26   59.09
  -1  -9   2 1321.97   59.19
   1  -9  -2 1337.27   58.99
   1  -9  -2 1378.36   60.89
   1   9  -2 1436.76   64.99
  -1   9   2 1364.96   63.39
   1   9  -2 1489.95   69.69
   1   9  -2 1372.06   59.99
  -1   9   2 1347.17   59.59
  -1   9   2 1582.74   67.39
   0  -9   2  377.66   56.69
   0  -9   2  373.66   19.00
   0  -9  -2  460.85   55.39
   0  -9   2  400.66   18.60
   0  -9   2  374.86   19.80
   0  -9  -2  389.36   19.60
   0  -9   2  422.56   18.10
   0  -9  -2  429.16   18.40
   0   9  -2  374.66   19.10
   0   9   2  400.86   18.70
   0   9   2  414.46   23.00
   0   9  -2  425.46   29.10
   0   9  -2  405.76   22.30
   0   9   2  396.86   21.30
  -1  -9  -2  893.81   80.69
   1  -9   2  849.32   38.50
  -1  -9  -2  879.41   38.40
   1  -9   2  864.41   40.30
   1  -9   2  834.82   37.00
  -1   9  -2  812.72   38.20
   1   9   2  820.62   37.30
  -1   9  -2  915.01   52.89
   1   9   2  899.81   43.10
  -1   9  -2  780.62   37.30
   2  -9   2  733.13   31.40
  -2  -9  -2  715.73   32.80
   2  -9   2  685.93   32.50
  -2  -9  -2  762.52   72.19
  -2  -9  -2  732.33   33.70
  -2  -9  -2  716.23   32.90
  -2   9  -2  662.13   32.30
   2   9   2  719.33   37.80
   2   9   2  684.53   31.70
  -2   9  -2  713.23   32.90
  -3  -9  -2 5175.28  212.58
  -3  -9  -2 4916.01  212.78
  -3  -9  -2 5068.79  217.18
   3  -9   2 5077.89  211.28
  -3  -9  -2 5104.89  213.98
  -3  -9  -2 5039.70  211.88
  -3   9  -2 4951.90  210.28
   3   9   2 5039.70  210.28
  -3   9  -2 5293.07  212.98
   4  -9   2  315.77   15.80
   4  -9   2  308.57   20.20
  -4  -9  -2  306.37   20.10
  -4  -9  -2  328.87   18.40
  -4  -9  -2  315.47   17.20
  -4  -9  -2  322.27   17.90
  -4  -9  -2  334.17   17.20
  -4   9  -2  339.07   17.60
  -4   9  -2  336.77   18.30
   4   9   2  334.97   15.40
  -4   9  -2  333.37   16.90
  -4   9  -2  279.27   19.60
  -5  -9  -2  544.25   25.40
  -5  -9  -2  546.05   25.10
  -5  -9  -2  561.94   26.00
  -5  -9  -2  555.14   28.20
  -5   9  -2  570.24   25.20
  -5   9  -2  561.14   25.00
  -5   9  -2  529.35   24.50
  -5   9  -2  472.15   27.20
  -5 -10   2  370.56   18.70
  -5 -10   2  368.56   22.40
  -5 -10   2  358.56   18.60
  -5  10   2  366.46   17.50
  -5  10   2  363.36   19.70
  -5  10   2  368.26   17.60
  -4 -10   2  168.98   12.80
   4 -10  -2  165.18    8.60
  -4 -10   2  170.68   11.70
  -4 -10   2  168.28   11.40
  -4 -10   2  178.48   11.40
  -4 -10   2  163.18   13.00
   4 -10  -2  180.78   11.70
  -4  10   2  172.98   12.90
  -4  10   2  182.28   10.10
   4  10  -2  169.38    9.40
  -4  10   2  147.49    8.90
  -4  10   2  170.28   10.50
   3 -10  -2 1039.90   45.80
  -3 -10   2 1045.10   51.29
  -3 -10   2 1064.59   47.30
  -3 -10   2 1032.30   51.89
  -3 -10   2 1162.08   49.70
   3 -10  -2 1084.79   49.30
  -3  10   2 1034.60   50.39
  -3  10   2 1041.90   60.29
  -3  10   2 1067.69   45.20
   3  10  -2 1054.99   46.80
  -3  10   2 1082.29   47.80
   2 -10  -2 3386.36  142.19
  -2 -10   2 3595.34  141.69
  -2 -10   2 3036.50  200.88
  -2 -10   2 3600.94  142.59
   2 -10  -2 3254.77  139.19
  -2 -10   2 3483.35  143.09
  -2  10   2 2817.82  162.48
  -2  10   2 3473.15  140.29
   2  10  -2 3238.28  140.19
   2  10  -2 3481.75  148.19
  -2  10   2 3420.96  142.99
  -2  10   2 3371.86  139.19
  -1 -10   2 3149.68  134.49
   1 -10  -2 3401.06  136.89
  -1 -10   2 2976.00  204.08
  -1 -10   2 3146.89  134.59
  -1 -10   2 3536.05  135.29
  -1  10   2 3312.47  140.09
   1  10  -2 3028.70  135.99
   1  10  -2 3416.56  142.09
  -1  10   2 3153.18  134.29
  -1  10   2 3258.67  134.79
   1  10  -2 3191.78  135.39
   0 -10  -2   95.59    7.00
   0 -10  -2  101.19    5.90
   0 -10   2   98.39   32.80
   0 -10  -2   95.39   27.50
   0 -10   2  106.49    6.90
   0 -10   2   95.39    7.10
   0 -10   2   99.59    6.50
   0  10   2   98.29    6.20
   0  10  -2   93.99    7.00
   0  10   2  105.19    6.20
   0  10  -2  102.49    6.60
   0  10  -2  109.29    9.60
   0  10  -2  104.29   13.40
   1 -10   2  516.95   26.20
  -1 -10  -2  506.45   24.30
   1 -10   2  502.25   24.00
  -1 -10  -2  462.85   29.20
   1 -10   2  516.55   23.10
   1  10   2  501.75   23.30
   1  10   2  523.55   29.20
  -1  10  -2  463.05   23.10
   1  10   2  519.65   23.30
  -1  10  -2  486.35   24.10
  -1  10  -2  563.34   38.20
  -2 -10  -2 2441.26  106.19
  -2 -10  -2 2855.31  236.48
  -2 -10  -2 2450.45  106.59
   2 -10   2 2342.77  115.79
   2 -10   2 2573.64  105.09
   2 -10   2 2621.64  109.99
  -2 -10  -2 2478.65  107.29
  -2  10  -2 2390.06  106.19
  -2  10  -2 2461.15  106.89
   2  10   2 2489.45  113.19
   3 -10   2  833.62   37.00
  -3 -10  -2  774.32   38.70
   3 -10   2  709.33   40.70
  -3 -10  -2  810.22   37.90
  -3 -10  -2  926.11   76.09
  -3 -10  -2  793.82   41.80
  -3 -10  -2  790.82   38.20
  -3  10  -2  759.42   55.89
  -3  10  -2  821.92   37.20
  -3  10  -2  864.51   38.50
  -3  10  -2  842.32   39.90
  -3  10  -2  807.72   36.00
   3  10   2  833.32   36.10
  -4 -10  -2  739.13   33.40
  -4 -10  -2  703.83   33.70
  -4 -10  -2  659.93   36.30
   4 -10   2  747.53   32.00
  -4 -10  -2  737.03   34.20
   4 -10   2  745.23   37.30
  -4  10  -2  699.63   34.10
   4  10   2  702.13   31.30
  -4  10  -2  675.73   32.40
  -5 -10  -2  273.97   13.40
  -5 -10  -2  282.77   13.90
  -5 -10  -2  237.48   13.30
  -5 -10  -2  267.17   15.40
  -5  10  -2  252.67   12.90
  -5 -11   2  433.46   21.90
  -5 -11   2  413.36   20.20
  -5 -11   2  407.46   20.20
  -5  11   2  429.06   19.80
  -5  11   2  392.66   21.10
  -4 -11   2  624.64   32.40
   4 -11  -2  644.04   30.30
  -4 -11   2  576.04   31.70
  -4 -11   2  648.04   30.20
  -4  11   2  557.04   30.80
   4  11  -2  646.34   27.90
  -4  11   2  592.04   28.80
  -3 -11   2  375.76   20.40
   3 -11  -2  341.17   16.90
   3 -11  -2  381.26   26.00
  -3 -11   2  337.17   21.40
  -3 -11   2  366.66   22.40
  -3 -11   2  349.96   20.50
  -3 -11   2  387.86   20.30
  -3  11   2  386.76   18.10
  -3  11   2  367.56   21.30
  -3  11   2  368.96   16.50
   3  11  -2  355.66   17.90
  -3  11   2  340.97   18.60
  -2 -11   2 1617.54   67.39
  -2 -11   2 1388.56  122.49
   2 -11  -2 1567.64   68.89
  -2 -11   2 1604.04   69.09
  -2 -11   2 1583.24   69.49
   2 -11  -2 1522.15   65.79
  -2  11   2 1506.35   70.69
  -2  11   2 1524.95   65.69
   2  11  -2 1464.55   66.59
   2  11  -2 1716.63   81.29
   1 -11  -2  274.07   13.70
   1 -11  -2  283.67   15.80
  -1 -11   2  282.07   16.20
  -1 -11   2  252.67   50.39
  -1 -11   2  271.27   13.70
  -1 -11   2  322.07   14.30
   1  11  -2  270.77   15.10
   1  11  -2  273.97   14.50
  -1  11   2  303.37   25.00
   1  11  -2  299.67   20.30
  -1  11   2  279.77   13.50
  -1  11   2  286.47   14.10
  -1  11   2  259.57   18.20
   0 -11   2 1282.27   54.89
   0 -11   2 1233.58   55.69
   0 -11  -2 1280.77   55.99
   0 -11  -2 1308.07  117.29
   0 -11  -2 1243.88   53.89
   0 -11   2 1136.39  122.99
   0  11  -2 1219.88   55.59
   0  11   2 1253.47   60.89
   0  11   2 1265.07   54.29
   0  11   2 1315.07   54.59
   0  11  -2 1341.57   69.49
   0  11  -2 1285.27   60.19
   0  11  -2 1260.17   54.89
  -1 -11  -2  980.50   94.99
   1 -11   2  921.61   45.00
  -1 -11  -2  950.50   43.70
  -1 -11  -2  994.90   44.10
   1 -11   2  983.10   45.70
   1  11   2 1038.50   52.89
   1  11   2  968.70   42.50
  -1  11  -2  925.61   42.40
   1  11   2  989.60   43.60
  -1  11  -2  961.70   44.00
  -2 -11  -2  216.38   12.60
  -2 -11  -2  220.68   13.00
  -2 -11  -2  226.08   43.40
   2 -11   2  215.88   15.00
   2 -11   2  219.28   12.30
  -2  11  -2  208.78   11.80
  -2  11  -2  203.78   24.10
   2  11   2  214.48   11.50
  -2  11  -2  219.28   13.40
   3 -11   2  206.88   15.00
   3 -11   2  223.38   12.40
  -3 -11  -2  183.78   12.50
  -3 -11  -2  219.98   12.50
  -3 -11  -2  187.98   12.40
  -3 -11  -2  191.78   15.00
  -3 -11  -2  219.98   35.00
  -3  11  -2  170.78   13.30
  -3  11  -2  210.28   12.70
  -3  11  -2  209.58   14.00
  -3  11  -2  202.68   10.70
   3  11   2  210.68   11.10
  -4 -11  -2  120.19    8.20
  -4 -11  -2  113.79    7.30
   4 -11   2  117.79   10.80
  -4 -11  -2  113.29    9.70
  -4 -11  -2  117.59    7.70
  -4  11  -2  119.99    8.40
   4  11   2  116.29    6.50
  -4  11  -2  105.59    6.90
  -4  11  -2  107.99    7.60
  -5 -11  -2  295.47   16.30
  -5 -11  -2  294.87   13.00
  -5 -11  -2  257.37   14.40
  -5  11  -2  276.57   16.30
  -5  11  -2  278.37   13.30
  -5 -12   2  423.26   20.00
  -5 -12   2  388.66   20.90
  -5 -12   2  429.36   19.60
  -5  12   2  421.46   18.60
  -5  12   2  410.46   18.50
  -5  12   2  449.66   22.00
  -4 -12   2  111.59    8.00
  -4 -12   2  109.39    9.40
  -4 -12   2  108.59    7.60
   4 -12  -2  116.39    8.80
  -4 -12   2  103.99    8.00
  -4  12   2  108.79    6.80
   4  12  -2  116.49    8.10
  -4  12   2  114.39    7.40
  -3 -12   2  211.88   17.20
  -3 -12   2  214.48   14.70
  -3 -12   2  208.58   18.40
  -3 -12   2  214.48   13.10
  -3 -12   2  208.28   15.30
   3 -12  -2  202.98   10.80
   3 -12  -2  211.38   15.90
  -3  12   2  228.48   12.40
  -3  12   2  192.78   11.00
  -3  12   2  220.98   14.20
  -3  12   2  180.48   15.40
   3  12  -2  220.08   13.80
   2 -12  -2 3847.91  161.38
  -2 -12   2 3851.51  164.68
   2 -12  -2 4006.50  164.78
  -2 -12   2 3991.40  164.68
  -2 -12   2 3790.62  238.98
  -2  12   2 3945.51  176.48
   2  12  -2 3874.41  162.48
  -2  12   2 3783.22  161.28
   1 -12  -2 2760.22  114.99
  -1 -12   2 2710.23  114.79
   1 -12  -2 2840.62  117.89
  -1 -12   2 2889.61  117.89
   1  12  -2 2734.43  115.99
  -1  12   2 2836.02  123.69
  -1  12   2 2658.33  114.59
   1  12  -2 2698.33  116.69
  -1  12   2 2643.54  115.19
   0 -12   2  427.66   75.89
   0 -12  -2  468.35   72.29
   0 -12   2  477.45   23.30
   0 -12  -2  480.65   23.70
   0 -12   2  472.75   22.30
   0  12   2  499.95   22.00
   0  12   2  499.45   22.20
   0  12  -2  469.95   23.10
   0  12  -2  465.45   34.40
   0  12   2  461.65   28.70
   0  12  -2  441.36   29.90
   0  12  -2  481.45   22.60
  -1 -12  -2  379.86   19.70
   1 -12   2  382.56   21.10
  -1 -12  -2  410.76   61.39
  -1 -12  -2  377.76   19.70
   1 -12   2  381.36   19.10
   1  12   2  384.86   18.40
   1  12   2  381.36   18.40
  -1  12  -2  385.66   19.40
  -1  12  -2  376.66   18.30
  -1  12  -2  368.76   32.20
  -2 -12  -2 1225.08   58.89
   2 -12   2 1282.77   54.29
  -2 -12  -2 1331.37  111.49
  -2 -12  -2 1218.68   54.99
   2  12   2 1249.88   53.29
  -2  12  -2 1222.18   53.99
  -2  12  -2 1078.19   84.19
  -3 -12  -2  188.98   11.40
  -3 -12  -2  180.88   14.10
  -3 -12  -2  187.48   10.70
   3 -12   2  182.28   13.80
  -3 -12  -2  187.38   11.70
   3 -12   2  200.78   10.90
  -3  12  -2  187.28   11.90
  -3  12  -2  194.48   12.90
  -3  12  -2  192.48   10.00
   3  12   2  210.58   10.40
  -3  12  -2  188.08   10.40
   4 -12   2  124.49    6.80
  -4 -12  -2  130.09    7.90
  -4 -12  -2  135.19    8.10
  -4 -12  -2  124.39    7.70
  -4  12  -2  112.39    6.70
  -4  12  -2  128.79    8.00
   4  12   2  130.49    6.80
  -4  12  -2  120.19    8.40
  -4 -13   2   13.90    2.20
  -4 -13   2   11.70    2.20
  -4 -13   2   12.10    2.80
  -4 -13   2   13.10    3.30
  -4  13   2   10.50    2.40
   4  13  -2   10.40    1.60
  -4  13   2    8.50    1.50
  -4  13   2   10.10    1.80
  -3 -13   2   36.90    4.30
   3 -13  -2   51.19    3.60
  -3 -13   2   35.30    5.30
  -3 -13   2   42.60    5.60
   3 -13  -2   40.20    5.20
  -3  13   2   42.70    2.90
  -3  13   2   47.00    3.60
  -3  13   2   50.19    4.50
   3  13  -2   40.70    3.80
  -2 -13   2 1063.79  105.89
  -2 -13   2 1159.08   54.59
   2 -13  -2 1197.98   52.49
   2 -13  -2 1145.69   49.30
  -2  13   2 1133.99   49.10
   2  13  -2 1153.48   50.19
  -1 -13   2  371.66   19.40
   1 -13  -2  376.26   19.70
  -1 -13   2  338.87   64.59
  -1 -13   2  372.36   16.90
   1  13  -2  357.46   18.30
  -1  13   2  343.27   16.60
  -1  13   2  347.77   17.30
   1  13  -2  367.06   18.10
   0 -13  -2  305.17   17.30
   0 -13   2  314.07   16.00
   0 -13   2  317.77   16.80
   0  13  -2  329.37   16.30
   0  13   2  322.67   15.60
   0  13  -2  308.17   16.70
   0  13   2  343.77   16.00
  -1 -13  -2  108.59    7.80
  -1 -13  -2  104.39    9.90
  -1 -13  -2  111.39   35.20
   1 -13   2  118.09    7.60
   1  13   2  116.39    7.00
  -1  13  -2  111.49    7.70
  -1  13  -2  108.49    6.70
   1  13   2  111.69    6.90
  -2 -13  -2  220.98   12.70
   2 -13   2  230.28   15.20
   2 -13   2  216.28   14.90
  -2 -13  -2  180.48   15.90
  -2 -13  -2  207.88   12.40
   2  13   2  192.68   13.00
  -2  13  -2  209.88   13.50
  -2  13  -2  233.88   15.70
  -3 -13  -2  743.03   41.00
   3 -13   2  841.62   37.20
  -3 -13  -2  814.62   38.20
   3 -13   2  858.51   42.10
  -3  13  -2  882.51   40.30
   3  13   2  884.01   36.80
  -3  13  -2  857.01   36.40
  -4 -13  -2  249.68   12.60
   4 -13   2  224.88   12.10
  -4 -13  -2  227.78   14.10
  -4 -13  -2  230.38   12.40
  -4  13  -2  247.98   12.40
  -4  13  -2  256.27   13.40
   4  13   2  255.97   11.40
  -4 -14   2  259.27   15.50
  -4 -14   2  244.38   13.00
  -4 -14   2  287.67   15.10
  -4 -14   2  267.57   13.80
   4  14  -2  270.87   12.40
  -4  14   2  267.57   14.70
  -4  14   2  256.87   13.40
   3 -14  -2  590.04   27.80
  -3 -14   2  548.55   27.50
  -3 -14   2  541.15   26.50
  -3 -14   2  577.24   29.40
  -3  14   2  561.54   26.40
  -3  14   2  548.05   24.10
   3  14  -2  555.84   25.50
   2 -14  -2  124.09    9.20
  -2 -14   2  110.99   10.10
  -2 -14   2  115.09   10.10
  -2 -14   2  116.99    8.30
  -2  14   2  113.29    9.70
   2  14  -2  111.49    7.40
  -2  14   2  136.09    8.50
  -2  14   2  130.59    7.00
   1 -14  -2  497.95   25.60
  -1 -14   2  499.95   24.00
  -1 -14   2  494.45   24.50
  -1  14   2  471.65   22.40
   1  14  -2  498.45   23.80
   1  14  -2  561.54   25.40
  -1  14   2  487.15   23.00
   0 -14   2   29.50    3.00
   0 -14  -2   30.50    4.20
   0 -14   2   25.30    6.20
   0  14   2   28.50    2.80
   0  14  -2   31.40    3.40
   0  14   2   31.40    3.10
  -1 -14  -2  221.18   13.10
   1 -14   2  217.98   13.90
  -1 -14  -2  196.08   12.00
  -1 -14  -2  223.38   51.09
   1 -14   2  219.98   13.50
   1  14   2  226.58   11.50
  -1  14  -2  232.98   13.20
   1  14   2  223.68   13.00
  -1  14  -2  220.38   11.10
  -2 -14  -2   34.70    5.50
  -2 -14  -2   37.30    3.90
   2 -14   2   36.80    3.60
   2 -14   2   33.20    5.40
   2  14   2   31.10    3.10
   2  14   2   43.30    4.90
  -2  14  -2   34.90    5.10
  -2  14  -2   43.10    3.70
   3 -14   2   23.30    3.70
  -3 -14  -2   20.00    2.60
  -3 -14  -2   22.60    3.80
  -3 -14  -2   23.00    2.70
  -3  14  -2   18.90    2.70
   3  14   2   25.60    2.40
  -3  14  -2   19.40    3.30
   4 -14   2  217.98    9.70
  -4 -14  -2  202.78   10.80
  -4 -14  -2  230.18   12.60
  -4 -14  -2  205.08   10.10
  -4  14  -2  214.88   11.60
   4  14   2  214.08    9.80
  -4 -15   2  280.27   13.20
  -4 -15   2  226.98   12.70
  -4 -15   2  250.87   12.90
  -4  15   2  230.18   13.10
   4  15  -2  256.67   11.20
  -3 -15   2   18.40    3.20
  -3 -15   2   27.90    3.80
  -3 -15   2   20.10    3.10
  -3 -15   2   21.60    2.50
   3  15  -2   22.10    2.30
  -3  15   2   23.50    1.70
  -3  15   2   21.90    2.60
  -3  15   2   27.70    3.60
  -2 -15   2  164.98    9.80
  -2 -15   2  162.88   12.00
  -2 -15   2  158.48   12.30
   2 -15  -2  175.98   12.20
  -2  15   2  172.78   10.20
  -2  15   2  179.48    8.90
   2  15  -2  171.68    9.50
  -2  15   2  187.98   12.20
   1 -15  -2   89.49    7.50
  -1 -15   2   95.29    5.10
   1  15  -2   88.09    6.10
  -1  15   2   98.39    5.80
  -1  15   2   80.69    8.00
   1  15  -2   90.09    6.10
   0 -15   2 1053.09   45.90
   0 -15  -2 1081.59   48.30
   0  15   2 1075.69   45.70
   0  15  -2 1071.39   46.30
   0  15   2 1060.89   46.00
   0  15  -2 1040.70   46.80
   1 -15   2  205.08   13.10
  -1 -15  -2  184.38   11.40
   1 -15   2  175.58    9.90
  -1  15  -2  181.18    9.00
  -1  15  -2  180.78   11.10
   1  15   2  179.48    9.60
   1  15   2  184.78    9.70
  -1  15  -2  177.48   10.20
  -2 -15  -2  676.43   30.40
   2 -15   2  652.03   29.50
  -2 -15  -2  633.64   30.30
  -2 -15  -2  680.13   34.20
  -2  15  -2  671.93   30.70
  -2  15  -2  644.54   29.40
   2  15   2  655.83   29.10
   3 -15   2   56.99    3.70
  -3 -15  -2   52.59    5.50
  -3 -15  -2   51.09    3.60
  -3 -15  -2   52.19    3.80
  -3  15  -2   55.19    4.20
   3  15   2   60.39    3.70
  -3  15  -2   55.59    5.70
  -3  15  -2   60.29    3.60
  -3 -16   2  678.93   32.00
  -3 -16   2  626.14   29.80
   3  16  -2  625.84   29.40
  -3  16   2  633.34   30.70
  -3  16   2  710.63   28.80
  -2  16   2    8.70    2.40
  -2  16   2    9.10    2.30
  -2  16   2    7.50    1.70
   2  16  -2    6.20    1.70
  -1 -16   2   92.19    8.10
   1 -16  -2  110.29    8.70
   1  16  -2   93.19    6.00
   1  16  -2   95.99    6.00
  -1  16   2   90.29    7.80
  -1  16   2   93.59    5.60
   0 -16   2  239.58   11.70
   0 -16  -2  265.27   15.30
   0  16  -2  230.88   12.80
   0  16   2  240.88   11.60
   0  16  -2  240.88   12.00
   0  16  -2  247.18   12.60
   0  16   2  245.58   12.00
   1 -16   2  238.88   12.10
   1  16   2  242.78   11.90
   1  16   2  251.17   12.00
  -1  16  -2  249.28   12.50
  -2 -16  -2  186.08   12.60
  -2 -16  -2  185.98   10.00
   2 -16   2  197.28    9.80
  -2  16  -2  205.48   12.30
  -2  16  -2  186.88   10.30
   2  16   2  197.78    9.60
  -2  16  -2  195.98    9.70
   3 -16   2  161.78    7.60
  -3 -16  -2  171.28    9.70
  -3  16  -2  155.78    8.60
   3  16   2  143.19    8.50
  -3  16  -2  153.68    7.80
  -2 -17   2  710.83   32.80
  -2 -17   2  637.54   32.70
  -2  17   2  646.24   32.20
   2  17  -2  747.33   30.60
  -2  17   2  751.42   30.20
  -2  17   2  753.12   31.50
  -1 -17   2 1690.13   76.19
   1  17  -2 1737.33   73.09
  -1  17   2 1827.02   74.09
   1  17  -2 1730.23   72.99
  -1  17   2 1721.23   72.79
   0 -17   2  862.31   35.60
   0  17   2  844.72   36.10
   0  17  -2  820.92   36.40
   0  17   2  829.92   35.50
   0  17  -2  842.22   37.10
   1 -17   2  287.07   13.30
  -1 -17  -2  280.77   13.70
  -1 -17  -2  307.07   17.10
   1  17   2  299.27   13.30
  -1  17  -2  295.77   16.60
  -1  17  -2  270.17   13.40
   1  17   2  294.87   13.40
  -1  17  -2  314.57   13.90
   1  17   2  272.57   14.20
   2 -17   2  386.36   17.40
  -2 -17  -2  420.66   21.00
  -2  17  -2  392.36   17.20
   2  17   2  375.36   17.20
  -1 -18   2  264.87   14.20
  -1 -18   2  295.97   14.10
  -1 -18   2  283.07   14.70
  -1  18   2  304.27   13.00
   1  18  -2  299.27   13.40
  -1  18   2  278.07   13.90
   1  18  -2  298.07   12.80
  -1  18   2  295.77   13.40
   0 -18   2  365.76   19.00
   0 -18   2  394.86   19.50
   0 -18  -2  425.76   20.70
   0  18  -2  396.96   19.20
   0  18   2  373.76   18.50
   0  18   2  445.86   18.70
   1 -18   2  315.97   15.40
   1  18   2  332.07   13.90
  -1  18  -2  306.07   15.90
  -1  18  -2  311.57   14.90
   1  18   2  313.97   13.90
  -6   0   3   12.80    3.50
  -6   0   3   12.70    2.60
  -6   0   3   15.50    2.80
  -6   0   3   13.60    3.10
  -5   0   3  493.45   28.00
  -5   0   3  436.96   23.60
  -5   0   3  537.15   30.60
  -5   0   3  475.05   28.80
  -5   0   3  496.35   24.60
  -5   0   3  484.05   26.60
  -5   0   3  445.16   25.90
  -5   0   3  489.15   23.80
  -5   0   3  506.45   24.20
  -5   0   3  491.85   24.00
  -5   0   3  509.55   26.80
  -5   0   3  512.25   23.30
  -4   0   3  200.18   14.80
  -4   0   3  228.38   15.40
  -4   0   3  234.78   12.40
  -4   0   3  234.58   13.20
  -4   0   3  253.27   17.60
  -4   0   3  248.18   17.50
  -4   0   3  243.98   16.40
  -4   0   3  253.47   13.10
  -4   0   3  237.48   13.70
  -4   0   3  261.77   14.00
  -4   0   3  236.68   15.30
   4   0  -3  210.08   16.70
  -4   0   3  233.38   15.00
  -3   0   3  118.09    6.80
  -2   0   3  869.21   37.40
  -2   0   3  883.21   65.59
  -1   0   3  376.86   16.40
   1   0  -3  388.46   16.60
  -1   0   3  381.96   16.80
   0   0  -3 1003.70   65.59
   1   0   3 7469.45  306.57
  -2   0  -3 8214.08  342.87
   2   0   3 8447.46  342.37
  -3   0  -3 1063.39   49.50
  -3   0  -3  987.50   44.30
   3   0   3  899.61   41.10
  -3   0  -3  934.71   42.50
  -3   0  -3  946.91   43.20
  -3   0  -3  909.01   54.09
  -3   0  -3  959.20   42.90
  -3   0  -3  930.51   46.80
  -3   0  -3  936.91   49.70
   4   0   3  632.34   29.00
  -4   0  -3  642.04   31.70
  -4   0  -3  664.63   31.00
  -4   0  -3  639.44   32.50
  -4   0  -3  649.54   30.40
  -4   0  -3  628.14   35.70
  -4   0  -3  672.83   39.10
   5   0   3    5.70    2.30
  -5   0  -3   11.80    2.30
  -5   0  -3    8.80    2.50
  -5   0  -3   12.10    5.10
  -5   0  -3    9.90    5.00
  -5   0  -3   11.30    1.90
  -5   0  -3    9.50    2.60
  -6   0  -3    4.80    1.00
  -6   0  -3    3.30    1.60
  -6  -1   3 1260.77   57.99
  -6  -1   3 1208.48   56.29
  -6  -1   3 1296.67   59.49
  -6  -1   3 1296.77   58.29
  -6  -1   3 1371.46   56.49
  -6   1   3 1221.28   57.79
  -6   1   3 1370.86   56.59
  -6   1   3 1405.06   56.69
  -6   1   3 1259.17   57.79
  -6   1   3 1352.16   60.69
  -6   1   3 1284.17   58.49
  -5  -1   3  810.02   39.30
  -5  -1   3  765.62   40.50
  -5  -1   3  813.42   39.60
  -5  -1   3  815.82   36.90
  -5  -1   3  826.12   42.60
  -5  -1   3  837.52   37.20
  -5  -1   3  709.83   38.40
  -5  -1   3  831.22   36.60
  -5  -1   3  797.92   35.60
  -5  -1   3  742.23   36.10
  -5  -1   3  813.42   42.30
  -5  -1   3  774.92   36.10
  -5   1   3  844.22   42.50
  -5   1   3  795.72   36.30
  -5   1   3  841.22   43.50
  -5   1   3  802.52   35.70
  -5   1   3  771.72   39.00
  -5   1   3  801.32   40.70
  -5   1   3  757.02   39.00
  -5   1   3  767.62   36.40
  -5   1   3  687.83   38.20
  -5   1   3  806.02   37.20
  -4  -1   3  210.58   11.30
  -4  -1   3  207.58   12.00
  -4  -1   3  196.78   15.50
   4  -1  -3  192.48   15.60
  -4  -1   3  214.28   15.10
  -4  -1   3  216.58   14.20
  -4  -1   3  202.58   12.30
  -4  -1   3  230.68   16.20
  -4  -1   3  215.48   12.70
  -4  -1   3  211.28   14.20
  -4  -1   3  202.38   11.80
  -4  -1   3  206.38   13.80
  -4  -1   3  190.18   11.30
  -4   1   3  213.48   16.00
  -4   1   3  201.08   11.60
  -4   1   3  204.98   14.10
  -4   1   3  218.08   15.00
  -4   1   3  216.28   12.60
  -4   1   3  205.38   12.10
  -4   1   3  199.78   13.70
   4   1  -3  205.98   15.90
  -4   1   3  201.58   11.20
  -4   1   3  219.88   16.30
  -4   1   3  244.58   14.70
  -4   1   3  207.48   11.30
  -4   1   3  214.68   12.60
  -3  -1   3  637.44   27.60
  -3   1   3  568.24   36.50
  -3   1   3  631.84   27.30
  -2  -1   3 3183.68  135.59
  -2  -1   3 3684.23  166.78
   2  -1  -3 2983.30  134.79
  -2   1   3 3313.27  135.49
  -2   1   3 3210.38  166.68
  -1  -1   3  718.83   31.50
   1  -1  -3  742.63   31.80
  -1  -1   3  776.92   31.90
  -1   1   3  739.63   31.30
  -1   1   3  767.42   31.80
   0  -1   3  243.28   10.90
   0  -1  -3  255.67   11.70
   0  -1  -3  262.07   28.10
   0   1  -3  213.68   26.10
   0   1   3  247.68   10.80
   1  -1   3 4751.92  184.58
  -1   1  -3 3994.60  185.58
   1   1   3 4705.83  184.58
   2  -1   3 8298.37  340.97
  -3  -1  -3   69.59    6.10
  -3  -1  -3   69.89    5.90
  -3  -1  -3   67.69    9.50
   3  -1   3   70.59    4.60
  -3  -1  -3   66.59    5.50
  -3  -1  -3   66.09    7.50
  -3  -1  -3   68.19    5.30
  -3   1  -3   64.49   10.30
  -3   1  -3   69.59    7.70
   3   1   3   65.69    4.60
  -3   1  -3   66.89    6.70
  -3   1  -3   65.69    6.20
  -3   1  -3   65.89    5.40
  -3   1  -3   55.49    5.90
  -3   1  -3   64.69    8.70
  -3   1  -3   63.79    5.40
   4  -1   3 1737.13   72.49
  -4  -1  -3 1758.42   80.39
  -4  -1  -3 1825.62   73.89
  -4  -1  -3 1739.93   83.19
  -4  -1  -3 1692.33   76.19
  -4  -1  -3 1773.52   74.69
  -4   1  -3 1712.93   73.89
  -4   1  -3 1617.54   75.79
  -4   1  -3 1758.12   73.19
  -4   1  -3 1596.64   86.19
   4   1   3 1729.03   72.59
  -4   1  -3 1532.55   78.89
  -4   1  -3 1703.03   74.39
   5  -1   3 1990.00   84.79
  -5  -1  -3 2101.89   84.99
  -5  -1  -3 1997.00   90.99
  -5  -1  -3 1827.72   85.99
  -5  -1  -3 2097.59   87.39
  -5  -1  -3 1995.80   87.89
  -5   1  -3 1915.01   85.99
  -5   1  -3 1971.80   87.79
  -5   1  -3 2174.08   96.09
   5   1   3 1981.40   84.49
  -6  -1  -3  193.78   10.30
  -6  -1  -3  190.48   11.90
  -6  -1  -3  206.68   13.20
  -6   1  -3  191.48   10.40
  -6   1  -3  196.68    9.20
  -6  -2   3   82.59    5.60
  -6  -2   3   87.49    8.60
  -6  -2   3   90.29    6.00
  -6  -2   3   94.79    7.10
  -6  -2   3   72.39    6.80
  -6  -2   3   84.39    7.80
  -6   2   3   87.89    6.10
  -6   2   3   84.89    6.80
  -6   2   3   88.89    6.10
  -6   2   3   96.89    8.20
  -6   2   3   98.69    7.80
  -5  -2   3  282.57   15.70
  -5  -2   3  327.57   20.70
  -5  -2   3  273.07   15.60
  -5  -2   3  297.07   18.30
  -5  -2   3  315.37   20.00
  -5  -2   3  315.27   18.30
  -5  -2   3  278.87   15.70
  -5  -2   3  300.67   18.50
  -5  -2   3  305.57   16.30
  -5  -2   3  292.97   16.30
  -5   2   3  318.17   21.80
  -5   2   3  302.57   19.10
  -5   2   3  279.67   15.10
  -5   2   3  309.27   16.60
  -5   2   3  293.97   20.20
  -5   2   3  247.48   17.30
  -5   2   3  290.77   15.90
  -5   2   3  304.77   18.00
  -5   2   3  303.97   18.30
  -5   2   3  304.07   15.80
  -4  -2   3 2672.13  118.69
  -4  -2   3 2801.32  122.99
  -4  -2   3 2863.31  120.89
  -4  -2   3 2997.50  118.49
  -4  -2   3 2637.04  117.09
  -4  -2   3 2855.51  118.69
  -4  -2   3 2713.33  117.59
  -4  -2   3 2860.51  117.99
  -4  -2   3 2716.93  123.09
  -4  -2   3 2947.31  122.49
  -4  -2   3 2436.96  119.69
  -4   2   3 2921.01  124.79
  -4   2   3 2992.00  124.19
   4   2  -3 2561.34  123.39
  -4   2   3 2626.04  119.99
  -4   2   3 2788.32  121.89
  -4   2   3 2600.84  117.09
  -4   2   3 2764.32  117.99
  -4   2   3 2912.51  116.99
  -4   2   3 2943.31  118.79
  -4   2   3 2706.83  116.59
  -4   2   3 2864.61  120.99
  -4   2   3 2795.02  120.69
   3  -2  -3   51.49    3.70
  -3  -2   3   58.09    4.20
  -3  -2   3   60.29    6.10
  -3  -2   3   62.39    5.80
  -3  -2   3   51.79    4.40
  -3  -2   3   51.79    7.10
  -3  -2   3   49.00    7.00
  -3  -2   3   68.09    9.20
  -3   2   3   53.99    5.70
  -3   2   3   50.49    3.90
  -3   2   3   52.69    6.70
  -3   2   3   49.99    4.50
  -3   2   3   47.90    3.70
  -2  -2   3 1720.03   73.59
  -2  -2   3 1858.51  109.99
   2  -2  -3 1671.23   73.19
  -2  -2   3 1788.22  101.89
  -2   2   3 1741.73   73.19
   1  -2  -3 3461.15  148.89
   1  -2  -3 3578.04  177.88
  -1  -2   3 3757.22  148.89
  -1  -2   3 3608.44  148.49
  -1   2   3 3495.25  148.09
  -1   2   3 3749.22  148.69
   0  -2  -3 1229.18   52.09
   0  -2   3 1217.58   51.39
   0  -2  -3 1241.78   77.19
   0   2   3 1234.38   51.19
   1  -2   3 5922.81  284.47
   1  -2   3 5592.84  223.68
   1   2   3 5325.77  225.98
  -1   2  -3 4933.81  224.38
  -2  -2  -3 2033.20   90.09
   2  -2   3 2040.40   83.89
  -2  -2  -3 2017.40  117.59
   2   2   3 1962.90   84.49
  -2   2  -3 1847.52   94.19
  -3  -2  -3  128.69   11.20
  -3  -2  -3  145.09    9.30
  -3  -2  -3  161.28   10.00
   3  -2   3  152.38    8.00
  -3  -2  -3  148.39   10.00
  -3  -2  -3  156.48   14.00
  -3  -2  -3  158.58   15.90
  -3   2  -3  153.98    9.30
   3   2   3  136.69    9.20
  -3   2  -3  134.59   10.40
  -3   2  -3  147.49   13.80
  -3   2  -3  139.29    9.90
  -3   2  -3  138.39    9.10
  -3   2  -3  142.79   11.80
  -3   2  -3  148.49   16.70
  -4  -2  -3  486.25   24.20
  -4  -2  -3  461.45   30.00
  -4  -2  -3  426.46   25.10
   4  -2   3  472.65   21.80
  -4  -2  -3  478.35   25.00
  -4  -2  -3  475.95   28.00
  -4  -2  -3  445.96   23.60
  -4  -2  -3  473.25   22.70
  -4   2  -3  455.45   24.20
  -4   2  -3  447.66   34.10
  -4   2  -3  484.15   22.60
  -4   2  -3  456.15   30.50
   4   2   3  477.65   22.10
  -4   2  -3  518.05   23.90
  -4   2  -3  486.35   23.40
  -4   2  -3  461.35   24.90
  -4   2  -3  469.55   27.80
  -5  -2  -3  176.78   13.80
   5  -2   3  157.08   10.20
  -5  -2  -3  165.38   14.60
  -5  -2  -3  155.68   10.40
  -5  -2  -3  177.98    9.40
  -5  -2  -3  159.48   11.50
  -5  -2  -3  173.98   11.20
  -5   2  -3  166.58   10.00
  -5   2  -3  181.78   11.30
   5   2   3  175.08    9.50
  -5   2  -3  192.18   15.90
  -5   2  -3  168.98   10.40
  -5   2  -3  167.68   11.80
  -5   2  -3  192.78    9.50
  -6  -2  -3   61.09    4.70
  -6  -2  -3   67.59    6.10
  -6  -2  -3   57.39    4.40
  -6   2  -3   68.09    5.00
  -6   2  -3   71.29    6.60
  -6   2  -3   56.09    4.00
  -6   2  -3   62.19    4.10
  -6  -3   3   67.29    6.10
  -6  -3   3   65.29    6.90
  -6  -3   3   70.09    6.90
  -6  -3   3   68.69    5.00
  -6   3   3   80.99    6.90
  -6   3   3   66.09    5.70
  -6   3   3   70.99    5.10
  -6   3   3   69.79    5.20
  -5  -3   3 1315.17   60.79
  -5  -3   3 1260.27   61.49
  -5  -3   3 1256.07   56.59
  -5  -3   3 1304.27   56.59
  -5  -3   3 1229.68   55.69
  -5  -3   3 1298.27   58.49
  -5  -3   3 1449.65   61.19
  -5  -3   3 1258.57   55.89
  -5  -3   3 1156.78   58.39
  -5   3   3 1169.58   55.69
  -5   3   3 1308.27   58.19
  -5   3   3 1238.18   59.09
  -5   3   3 1192.88   58.09
  -4  -3   3  174.68   10.80
  -4  -3   3  189.88   14.10
  -4  -3   3  172.58   10.60
  -4  -3   3  167.48   10.30
  -4  -3   3  156.68   12.10
  -4  -3   3  172.98   11.30
  -4  -3   3  183.58   13.10
  -4  -3   3  186.78   11.40
  -4  -3   3  174.38   10.60
  -4  -3   3  184.28   13.70
  -4  -3   3  177.38   13.90
  -4  -3   3  183.58   12.70
  -4   3   3  167.18   10.20
  -4   3   3  179.58   11.00
  -4   3   3  176.68    9.90
  -4   3   3  187.68   13.30
   4   3  -3  167.48   14.80
  -4   3   3  187.48   11.30
  -4   3   3  189.18   12.60
  -4   3   3  186.48   14.30
  -4   3   3  174.68   14.70
  -4   3   3  164.78   12.10
  -4   3   3  181.98   12.80
  -3  -3   3 1111.69   50.69
  -3  -3   3 1010.00   62.49
  -3  -3   3 1194.98   51.49
  -3  -3   3 1033.70   52.59
  -3  -3   3 1220.78   53.89
  -3  -3   3 1144.69   52.39
  -3  -3   3 1316.17   56.49
  -3  -3   3 1114.09   53.89
   3  -3  -3 1094.59   50.19
  -3  -3   3 1228.58   54.19
  -3  -3   3 1235.28   65.29
  -3   3   3 1252.87   54.29
  -3   3   3 1153.18   49.99
  -3   3   3 1036.10   57.69
  -3   3   3 1277.47   52.19
  -3   3   3 1253.87   51.89
  -3   3   3 1249.18   53.79
  -3   3   3 1163.48   50.49
   3   3  -3 1090.39   55.89
  -3   3   3 1220.58   51.09
  -3   3   3 1292.67   57.39
   2  -3  -3 1556.64   66.49
  -2  -3   3 1563.74   66.59
  -2  -3   3 1576.64   96.69
  -2   3   3 1622.44   66.09
   1  -3  -3 9954.50  444.06
  -1   3   3 9999.00  408.36
   0  -3   3 1380.86   60.69
   0  -3  -3 1414.96   61.49
   0  -3   3 1555.94  102.89
   0  -3  -3 1524.15   90.09
   0   3   3 1414.46   60.39
   1  -3   3 2711.43  112.19
  -1  -3  -3 2851.41  113.69
   1  -3   3 2776.42  167.38
  -1   3  -3 2680.43  113.19
  -1   3  -3 2560.34  112.49
   1   3   3 2692.73  114.79
  -2  -3  -3 1175.48   81.09
  -2  -3  -3 1183.58   53.29
   2  -3   3 1095.59   48.00
  -2   3  -3 1107.89   60.59
   2   3   3 1102.89   50.49
   3  -3   3 2012.70   96.09
  -3  -3  -3 2366.66   97.59
   3  -3   3 2327.17   95.59
  -3  -3  -3 2190.48  129.19
  -3  -3  -3 2345.27   99.89
  -3  -3  -3 2208.88   98.19
  -3  -3  -3 2319.47  101.59
  -3  -3  -3 2339.87   96.79
   3   3   3 2074.59   95.49
  -3   3  -3 2189.98   97.69
  -3   3  -3 2469.35   99.19
  -3   3  -3 2389.96  106.09
  -3   3  -3 2353.56   97.29
  -3   3  -3 2221.48   97.29
  -3   3  -3 2239.08  101.49
  -3   3  -3 2454.85   97.49
   4  -3   3 1644.84   69.79
  -4  -3  -3 1686.83   76.79
  -4  -3  -3 1699.23   70.39
  -4  -3  -3 1793.62   73.59
  -4  -3  -3 1567.54   73.69
  -4  -3  -3 1672.93   71.89
   4   3   3 1665.83   70.09
  -4   3  -3 1551.14   76.19
  -4   3  -3 1706.03   73.59
  -4   3  -3 1657.13   71.49
  -4   3  -3 1708.53   80.89
  -4   3  -3 1660.53   70.89
  -4   3  -3 1403.86   70.79
  -4   3  -3 1532.15   86.49
  -4   3  -3 1628.44   72.29
  -5  -3  -3  136.09    9.60
  -5  -3  -3  132.49    7.90
  -5  -3  -3  149.19   13.10
  -5  -3  -3  140.89   12.00
  -5  -3  -3  119.99    9.70
  -5  -3  -3  138.09    9.20
  -5   3  -3  142.59    8.80
  -5   3  -3  132.09    9.30
  -5   3  -3  148.49   10.70
   5   3   3  155.98    8.30
  -5   3  -3  164.98    8.30
  -6  -3  -3  124.59    6.90
  -6  -3  -3  135.79    7.60
  -6  -3  -3  118.99    7.10
  -6   3  -3  135.69    6.90
  -6   3  -3  108.69    8.90
  -6  -4   3  275.87   14.90
  -6  -4   3  238.68   15.60
  -6  -4   3  258.07   13.40
  -6  -4   3  263.87   15.00
  -6   4   3  267.57   14.30
  -6   4   3  258.07   13.70
  -6   4   3  273.77   15.10
  -6   4   3  265.37   13.60
  -5  -4   3  935.71   60.19
  -5  -4   3 1174.88   49.70
  -5  -4   3 1123.79   54.59
  -5  -4   3 1114.79   52.09
  -5  -4   3 1146.69   50.39
  -5  -4   3 1099.19   49.60
  -5  -4   3 1136.59   51.79
  -5   4   3 1158.08   53.29
  -5   4   3 1139.19   49.80
  -5   4   3 1025.20   51.99
  -5   4   3 1127.49   51.49
  -5   4   3 1177.68   49.00
  -4  -4   3  837.62   46.70
  -4  -4   3  932.71   42.30
  -4  -4   3  949.71   42.20
  -4  -4   3  773.42   46.40
  -4  -4   3  906.11   44.10
  -4  -4   3 1024.00   46.40
  -4  -4   3  943.81   41.10
  -4  -4   3  956.70   44.80
  -4  -4   3  969.70   41.40
  -4   4   3  844.32   43.80
  -4   4   3  928.91   44.00
   4   4  -3  879.31   47.80
  -4   4   3  978.60   48.70
  -4   4   3  950.30   41.80
  -4   4   3  934.51   43.10
  -4   4   3  873.51   53.09
  -4   4   3  793.62   44.90
  -4   4   3  913.41   41.70
  -4   4   3  859.01   40.50
  -3  -4   3 1487.85   89.29
  -3  -4   3 1776.72   75.39
  -3  -4   3 1667.83   71.19
  -3  -4   3 1663.83   73.19
  -3  -4   3 1808.52   92.19
  -3  -4   3 1787.52   71.89
  -3  -4   3 1730.13   74.29
   3  -4  -3 1579.74   70.89
  -3  -4   3 1715.03   75.59
  -3   4   3 1507.65   85.99
  -3   4   3 1549.54   76.39
   3   4  -3 1738.23   78.49
  -3   4   3 1694.13   69.99
  -3   4   3 1737.43   71.29
  -3   4   3 1737.43   82.89
  -3   4   3 1449.26   72.59
  -3   4   3 1509.95   81.69
  -3   4   3 1816.72   74.39
  -3   4   3 1750.82   70.89
  -2  -4   3 2443.86  128.99
   2  -4  -3 2163.88   92.99
  -2  -4   3 2079.89  126.79
  -2  -4   3 2123.59   92.89
  -2   4   3 2253.67  101.69
  -2   4   3 2010.20  132.59
   2   4  -3 2455.35   98.39
  -2   4   3 2218.98   92.09
   1  -4  -3 1041.70   45.50
  -1  -4   3 1071.79   45.20
  -1  -4   3 1111.99   45.00
   1  -4  -3 1005.80   73.19
  -1  -4   3 1133.89   94.09
  -1   4   3 1032.60   44.60
   0  -4   3 1570.94  111.79
   0  -4  -3 1624.24   69.79
   0  -4  -3 1739.83  102.19
   0  -4   3 1683.93   69.09
   0  -4   3 1583.74   69.09
   0   4  -3 1781.32   72.09
   0   4   3 1605.94   71.99
  -1  -4  -3 1784.92  103.19
  -1  -4  -3 1608.14   67.79
   1  -4   3 1480.95  115.99
   1  -4   3 1598.64   66.59
  -1   4  -3 1455.45   66.59
   1   4   3 1673.73   69.79
  -1   4  -3 1536.95   66.59
  -2  -4  -3  724.03   60.29
   2  -4   3  639.34   28.50
  -2   4  -3  589.24   40.50
   2   4   3  658.63   31.60
   3  -4   3 3111.59  139.09
  -3  -4  -3 3280.97  143.79
  -3  -4  -3 3234.28  141.09
  -3  -4  -3 3495.55  140.49
  -3  -4  -3 3260.37  140.69
   3  -4   3 3363.16  138.49
  -3  -4  -3 3396.06  144.39
  -3  -4  -3 3334.77  177.48
  -3   4  -3 3529.05  141.99
  -3   4  -3 3394.06  139.99
  -3   4  -3 3395.26  140.39
  -3   4  -3 3225.28  148.29
  -3   4  -3 3258.27  140.39
  -3   4  -3 3507.65  140.39
   3   4   3 3146.69  138.39
   3   4   3 3303.07  141.89
  -4  -4  -3  142.49   12.40
  -4  -4  -3  145.29   10.40
   4  -4   3  131.39    8.20
  -4  -4  -3  126.19    9.20
  -4  -4  -3  143.09    9.70
  -4  -4  -3  141.69   10.80
  -4  -4  -3  147.59   14.00
  -4   4  -3  125.19   17.60
  -4   4  -3  141.09    8.90
  -4   4  -3  146.29   10.70
  -4   4  -3  142.69   14.10
  -4   4  -3  134.59    9.50
  -4   4  -3  138.49    9.20
  -5  -4  -3  358.36   22.10
  -5  -4  -3  361.16   19.50
  -5  -4  -3  361.86   18.90
  -5  -4  -3  368.16   23.00
  -5  -4  -3  376.16   19.90
  -5   4  -3  370.36   20.30
  -5   4  -3  366.56   23.90
  -5   4  -3  377.36   17.70
   5   4   3  356.06   18.30
  -5   4  -3  380.96   18.40
  -6  -4  -3    2.70    1.10
  -6  -4  -3    3.80    1.80
  -6  -4  -3    1.00    0.90
  -6   4  -3    1.20    1.40
  -6   4  -3    2.10    0.70
  -6  -5   3  144.89    9.30
  -6  -5   3  142.29   10.00
  -6  -5   3  144.29   10.10
  -6  -5   3  134.69    7.50
  -6  -5   3  148.09    8.20
  -6   5   3  132.39    7.80
  -6   5   3  126.89    8.30
  -5  -5   3  866.41   39.80
  -5  -5   3  867.71   42.70
  -5  -5   3  880.41   42.20
  -5  -5   3  818.72   38.30
  -5  -5   3  805.12   40.50
  -5  -5   3  849.22   39.00
  -5   5   3  819.02   37.90
  -5   5   3  819.02   40.00
  -5   5   3  812.42   38.40
  -5   5   3  747.93   40.00
  -4  -5   3   24.10    4.40
   4  -5  -3   22.90    3.70
  -4  -5   3   15.10    3.20
  -4  -5   3   20.40    3.40
  -4  -5   3   16.60    2.70
  -4  -5   3   20.70    4.30
  -4   5   3   17.50    3.50
  -4   5   3   24.80    3.00
  -4   5   3   22.60    3.10
  -4   5   3   18.30    3.70
   4   5  -3   15.50    5.80
  -4   5   3   17.10    3.60
  -4   5   3   20.50    2.60
  -4   5   3   17.10    4.30
   3  -5  -3 1162.68   52.89
  -3  -5   3 1266.07   55.79
  -3  -5   3 1225.78   56.59
  -3  -5   3 1318.27   54.89
  -3  -5   3 1146.29   55.99
  -3  -5   3 1066.39   74.29
  -3  -5   3 1250.57   55.99
  -3  -5   3 1387.36   57.69
  -3  -5   3 1229.48   52.99
  -3   5   3 1217.58   53.49
  -3   5   3 1204.38   55.49
  -3   5   3 1284.17   55.79
  -3   5   3 1290.07   56.19
  -3   5   3 1057.29   62.09
  -3   5   3 1197.28   52.49
  -3   5   3 1135.29   50.79
   3   5  -3 1245.28   59.09
  -2  -5   3 3683.03  190.18
   2  -5  -3 3450.05  141.99
  -2  -5   3 3271.87  183.38
  -2  -5   3 3449.05  141.59
  -2   5   3 2976.50  188.48
  -2   5   3 3481.25  140.29
   2   5  -3 3502.05  147.69
  -1  -5   3 2162.88  139.79
  -1  -5   3 2427.46   95.59
   1  -5  -3 2214.18  132.49
  -1  -5   3 2269.67   95.09
   1  -5  -3 2326.07   95.99
   1   5  -3 2331.37   99.49
  -1   5   3 2286.37   94.59
   0  -5   3  255.67   12.20
   0  -5   3  245.98   38.80
   0  -5  -3  281.07   13.20
   0  -5  -3  280.87   34.40
   0  -5   3  262.37   12.20
   0   5   3  262.87   15.00
   0   5  -3  262.47   14.60
   1  -5   3 1583.34   66.29
  -1  -5  -3 1533.65   67.39
  -1  -5  -3 1724.63  105.29
  -1  -5  -3 1601.44   67.69
   1  -5   3 1456.85  133.09
   1   5   3 1606.14   69.89
  -1   5  -3 1544.75   66.09
  -1   5  -3 1572.24   66.29
   2  -5   3 1437.36   62.59
  -2  -5  -3 1610.94  103.29
  -2   5  -3 1540.95   65.39
  -2   5  -3 1464.85   79.19
   2   5   3 1350.76   67.79
  -3  -5  -3  684.23   34.50
  -3  -5  -3  639.04   30.40
  -3  -5  -3  676.13   31.20
  -3  -5  -3  651.33   32.50
  -3  -5  -3  647.14   36.60
   3  -5   3  647.34   29.10
   3  -5   3  631.04   29.70
  -3  -5  -3  666.53   58.99
  -3  -5  -3  615.34   31.10
  -3   5  -3  680.63   30.90
   3   5   3  619.94   28.80
  -3   5  -3  674.13   30.70
   3   5   3  646.54   33.10
  -3   5  -3  625.24   30.40
  -3   5  -3  610.24   37.00
  -3   5  -3  640.84   31.90
  -4  -5  -3  599.44   29.40
   4  -5   3  643.64   29.20
  -4  -5  -3  614.14   29.80
  -4  -5  -3  610.94   30.90
  -4  -5  -3  606.74   30.40
   4  -5   3  570.34   27.90
  -4  -5  -3  603.84   33.40
  -4  -5  -3  629.44   35.90
  -4   5  -3  593.14   29.20
  -4   5  -3  608.74   29.30
  -4   5  -3  623.24   31.20
   4   5   3  582.34   27.20
  -4   5  -3  611.24   48.20
  -4   5  -3  628.84   29.00
  -4   5  -3  631.64   36.50
  -5  -5  -3  391.16   22.50
  -5  -5  -3  339.67   18.10
  -5  -5  -3  385.96   19.60
  -5  -5  -3  357.06   21.60
  -5   5  -3  360.66   23.10
  -5   5  -3  375.16   17.50
  -5   5  -3  348.27   17.90
   5   5   3  368.46   17.40
  -5   5  -3  351.46   18.20
  -5   5  -3  348.67   19.60
  -6  -6   3   83.99    6.70
  -6  -6   3  102.29    7.70
  -6  -6   3   96.39    6.20
  -6  -6   3  103.99    7.90
  -6  -6   3   93.69    5.70
  -6   6   3   88.69    6.10
  -6   6   3   98.29    5.90
  -6   6   3  110.79    7.40
  -6   6   3  103.09    6.00
  -5  -6   3  146.79   12.00
  -5  -6   3  164.38   12.60
  -5  -6   3  172.48   10.90
  -5  -6   3  165.28   10.60
  -5  -6   3  149.88   10.00
  -5  -6   3  156.78   11.50
  -5   6   3  146.19    8.80
  -5   6   3  139.99    9.50
  -5   6   3  173.48   12.00
  -5   6   3  155.48   11.00
  -4  -6   3 1075.49   50.99
   4  -6  -3 1036.30   46.50
  -4  -6   3 1061.39   47.70
  -4  -6   3 1015.70   46.60
  -4  -6   3 1048.60   50.59
  -4  -6   3 1101.89   48.80
  -4  -6   3 1054.09   48.20
  -4   6   3  975.50   49.00
  -4   6   3 1012.00   45.50
  -4   6   3 1027.00   47.10
  -4   6   3 1041.60   46.10
  -3  -6   3  874.21   39.40
  -3  -6   3  660.13   57.09
  -3  -6   3  739.53   35.00
  -3  -6   3  802.92   35.20
  -3  -6   3  811.22   38.00
  -3  -6   3  798.02   36.60
  -3  -6   3  815.42   37.40
   3  -6  -3  745.83   35.10
  -3  -6   3  783.02   38.50
  -3   6   3  708.53   32.70
   3   6  -3  760.12   41.00
  -3   6   3  789.42   37.60
  -3   6   3  822.22   34.80
  -3   6   3  690.73   58.19
  -3   6   3  864.31   35.80
  -3   6   3  804.02   37.90
   3   6  -3  699.83   34.60
  -3   6   3  765.62   34.10
  -3   6   3  732.83   44.80
   2  -6  -3 1745.03   74.19
  -2  -6   3 1583.94  113.69
  -2  -6   3 1744.03   73.69
   2   6  -3 1773.42   78.99
  -2   6   3 1826.72   84.79
   1  -6  -3 1038.30   81.79
  -1  -6   3 1026.10   45.10
  -1  -6   3 1039.20   87.99
  -1  -6   3 1133.39   45.60
   1  -6  -3 1069.79   46.10
  -1   6   3 1045.00   44.20
   1   6  -3 1072.29   49.50
   0  -6   3 1238.38   51.29
   0  -6  -3 1176.08   52.09
   0  -6   3 1094.59   97.49
   0  -6   3 1228.28   51.19
   0  -6  -3 1258.37   89.39
   0   6  -3 1237.08   54.49
   0   6   3 1245.88   55.09
  -1  -6  -3  232.68   33.50
   1  -6   3  245.98   10.90
   1  -6   3  214.28   10.90
   1  -6   3  216.28   42.40
  -1  -6  -3  219.68   11.90
  -1   6  -3  213.38   20.10
   1   6   3  221.88   14.10
  -2  -6  -3 2607.74  109.69
  -2  -6  -3 2492.85  169.68
   2  -6   3 2415.06  105.09
   2  -6   3 2584.14  104.29
  -2  -6  -3 2432.66  105.39
  -2  -6  -3 2444.46  106.09
   2   6   3 2528.35  109.09
  -2   6  -3 2605.44  107.39
   2   6   3 2332.27  104.29
  -3  -6  -3 2490.45  109.09
  -3  -6  -3 2715.53  115.99
   3  -6   3 2523.25  107.69
  -3  -6  -3 2559.64  108.69
   3  -6   3 2561.64  106.79
  -3  -6  -3 2439.46  108.89
  -3  -6  -3 2750.32  113.29
  -3   6  -3 2497.25  116.09
  -3   6  -3 2686.53  109.79
  -3   6  -3 2217.48  129.49
  -3   6  -3 2646.74  109.09
   3   6   3 2455.95  106.49
   3   6   3 2562.14  112.39
  -3   6  -3 2523.45  110.69
   4  -6   3 1714.23   80.39
  -4  -6  -3 1922.51   86.29
  -4  -6  -3 1749.43   80.49
  -4  -6  -3 1790.92   84.29
   4  -6   3 1910.01   78.89
  -4   6  -3 2041.10  112.69
  -4   6  -3 1860.61   81.49
   4   6   3 1785.22   77.89
  -4   6  -3 1719.13   86.29
  -4   6  -3 1855.71   79.19
  -4   6  -3 1805.92   79.19
  -5  -6  -3  388.96   20.70
  -5  -6  -3  423.36   25.10
  -5  -6  -3  433.66   21.90
  -5  -6  -3  445.06   24.10
  -5  -6  -3  419.06   21.60
  -5   6  -3  480.45   20.90
  -5   6  -3  418.06   20.60
  -5   6  -3  447.56   26.40
  -6  -7   3   85.99    5.80
  -6  -7   3   71.99    5.70
  -6  -7   3   72.79    6.20
  -6  -7   3   77.69    6.00
  -6  -7   3   76.49    4.80
  -6   7   3   80.89    5.30
  -6   7   3   62.09    4.90
  -6   7   3   79.89    5.80
  -5  -7   3  128.29   10.60
  -5  -7   3  128.49   10.70
  -5  -7   3  140.29   10.30
  -5  -7   3  138.79    8.90
  -5  -7   3  125.99    9.00
  -5   7   3  131.19    9.60
  -5   7   3  128.69    7.70
  -5   7   3  135.79    8.60
  -5   7   3  126.19   10.00
  -4  -7   3 1095.89   50.29
  -4  -7   3 1072.99   48.60
  -4  -7   3  995.10   46.90
  -4  -7   3 1053.89   50.89
   4  -7  -3 1073.09   47.20
  -4  -7   3 1093.59   48.70
  -4  -7   3 1061.59   50.79
  -4   7   3 1102.89   49.90
  -4   7   3  954.20   59.69
  -4   7   3 1024.70   46.30
  -4   7   3 1047.30   49.80
  -4   7   3  994.80   45.60
   3  -7  -3  833.32   40.20
  -3  -7   3  963.10   45.10
  -3  -7   3  977.20   43.80
  -3  -7   3  991.40   46.00
  -3  -7   3 1023.50   46.30
  -3  -7   3  929.01   43.50
  -3  -7   3  843.62   69.79
  -3  -7   3  945.11   42.00
   3  -7  -3  910.81   42.30
  -3   7   3  904.81   40.90
  -3   7   3 1022.20   45.30
  -3   7   3 1053.79   41.90
  -3   7   3  909.81   52.99
   3   7  -3  958.30   49.40
  -3   7   3  883.51   39.60
  -3   7   3  955.30   42.40
  -3   7   3  956.80   44.70
   3   7  -3  840.52   41.20
   2  -7  -3  315.17   16.50
  -2  -7   3  350.26   18.40
  -2  -7   3  324.47   16.00
  -2  -7   3  298.87   43.40
  -2   7   3  377.76   18.80
   2   7  -3  311.87   21.30
  -2   7   3  329.87   15.90
   2   7  -3  291.27   16.20
  -1  -7   3   37.00   16.00
  -1  -7   3   42.70    3.30
  -1  -7   3   47.80    3.60
   1  -7  -3   45.00    3.90
  -1   7   3   38.10    2.40
   1   7  -3   48.10    5.90
   0  -7   3  532.95   22.40
   0  -7   3  497.55   22.30
   0  -7  -3  472.15   23.10
   0  -7   3  429.66   60.69
   0  -7  -3  534.15   55.79
   0   7  -3  490.05   33.20
   0   7  -3  502.25   25.50
   0   7   3  530.25   26.50
  -1  -7  -3 2211.88  134.59
   1  -7   3 2086.49   84.89
   1  -7   3 1824.72   85.59
  -1  -7  -3 1986.30   86.19
   1  -7   3 2071.59   84.59
   1  -7   3 1774.12  150.28
   1   7   3 2032.10   84.99
   1   7   3 2203.88   90.39
  -2  -7  -3  784.72   69.79
   2  -7   3  688.13   30.10
  -2  -7  -3  654.23   31.50
  -2  -7  -3  573.64   32.80
   2  -7   3  656.63   31.00
   2  -7   3  694.03   29.70
  -2  -7  -3  713.83   35.20
   2   7   3  652.43   34.70
   2   7   3  653.23   29.90
  -2   7  -3  664.53   31.40
  -2   7  -3  722.73   33.40
  -2   7  -3  656.83   46.50
  -3  -7  -3  965.80   45.40
   3  -7   3  953.40   43.30
  -3  -7  -3 1016.90   80.09
  -3  -7  -3 1000.20   45.40
  -3  -7  -3  991.90   44.70
  -3  -7  -3 1015.30   50.99
  -3  -7  -3 1001.60   48.90
   3  -7   3  950.60   44.20
  -3   7  -3 1104.99   48.10
  -3   7  -3  995.90   45.30
  -3   7  -3 1009.30   46.60
  -3   7  -3  916.91   43.40
   3   7   3  977.60   43.00
   3   7   3  984.00   49.50
  -3   7  -3  995.00   45.10
  -3   7  -3 1007.60   63.79
  -3   7  -3  953.20   50.59
  -4  -7  -3  824.32   41.80
  -4  -7  -3  839.32   37.90
  -4  -7  -3  822.52   38.80
  -4  -7  -3  839.12   42.30
   4  -7   3  804.92   36.70
  -4  -7  -3  842.92   38.90
  -4   7  -3  799.82   38.10
   4   7   3  822.62   35.90
  -4   7  -3  801.12   37.90
  -5  -7  -3  211.08   12.30
  -5  -7  -3  205.28   11.70
  -5  -7  -3  218.48   12.30
  -5  -7  -3  195.48   12.50
  -5  -7  -3  211.48   13.60
  -5   7  -3  200.78   10.60
  -5   7  -3  168.78   13.30
  -5   7  -3  210.18   11.10
  -6  -8   3  199.68   11.20
  -6  -8   3  179.38    9.60
  -6   8   3  190.28    9.30
  -6   8   3  186.48    9.20
  -5  -8   3  395.26   19.20
  -5  -8   3  338.37   19.10
  -5  -8   3  353.26   17.80
  -5  -8   3  345.77   20.00
  -5  -8   3  330.87   20.00
  -5   8   3  311.47   18.70
  -5   8   3  324.77   17.10
  -5   8   3  341.67   18.20
  -5   8   3  323.77   16.50
  -4  -8   3   87.09    7.40
  -4  -8   3   82.59    8.30
  -4  -8   3   78.59    6.70
  -4  -8   3   80.89    7.80
  -4  -8   3   79.49    6.90
   4  -8  -3   87.99    7.00
  -4   8   3   75.49    5.30
  -4   8   3   77.79    7.40
  -4   8   3   79.39    6.40
  -4   8   3   79.79    5.90
   4   8  -3   70.69    5.40
  -4   8   3   71.19   12.80
  -4   8   3   76.39    7.70
   3  -8  -3 1375.26   62.39
   3  -8  -3 1407.56   64.59
  -3  -8   3 1476.95   65.29
  -3  -8   3 1586.94   68.59
  -3  -8   3 1545.55   65.89
  -3  -8   3 1495.35   68.39
  -3   8   3 1412.76   61.79
  -3   8   3 1513.25   63.59
  -3   8   3 1445.26   62.89
  -3   8   3 1425.36   64.39
  -3   8   3 1662.73   98.59
   3   8  -3 1357.66   63.59
  -3   8   3 1492.55   67.19
   3   8  -3 1498.25   72.29
   2  -8  -3 1232.28   56.49
  -2  -8   3 1403.26   60.59
  -2  -8   3 1506.35   62.09
  -2  -8   3 1216.28  103.89
  -2  -8   3 1328.47   57.69
   2  -8  -3 1336.47   58.49
  -2   8   3 1401.86   60.69
   2   8  -3 1264.67   57.59
  -2   8   3 1313.17   56.29
   2   8  -3 1332.97   64.19
   1  -8  -3  321.87   16.10
  -1  -8   3  327.27   15.10
  -1  -8   3  287.77   14.90
  -1  -8   3  325.47   15.70
  -1  -8   3  283.87   47.40
   1   8  -3  296.47   15.40
   1   8  -3  344.67   20.00
  -1   8   3  308.17   15.10
   0  -8   3  659.23   28.80
   0  -8   3  638.14   30.20
   0  -8   3  724.63   29.90
   0  -8  -3  670.83   67.99
   0  -8   3  621.34   76.99
   0  -8   3  688.33   33.80
   0  -8  -3  614.74   29.80
   0  -8   3  647.54   28.90
   0   8   3  618.24   28.70
   0   8   3  668.33   33.50
   0   8  -3  595.24   29.40
   0   8  -3  691.53   32.80
   0   8   3  635.74   28.80
   0   8  -3  680.33   42.10
  -1  -8  -3  596.54   28.20
   1  -8   3  619.24   27.00
  -1  -8  -3  628.14   65.29
   1  -8   3  616.94   26.70
  -1   8  -3  505.15   29.80
   1   8   3  619.34   32.10
  -1   8  -3  617.74   42.50
   1   8   3  627.94   27.10
  -2  -8  -3  820.22   37.90
  -2  -8  -3  867.91   43.20
  -2  -8  -3  893.41   79.29
  -2  -8  -3  745.83   37.50
  -2  -8  -3  800.62   37.00
   2  -8   3  793.22   36.10
   2  -8   3  789.12   37.20
  -2  -8  -3  868.11   41.80
  -2   8  -3  902.31   40.00
   2   8   3  816.82   42.00
  -2   8  -3  815.72   54.69
   2   8   3  812.22   36.10
  -2   8  -3  785.92   37.10
  -2   8  -3  812.02   37.70
  -3  -8  -3 3603.14  188.78
  -3  -8  -3 3177.98  138.99
  -3  -8  -3 3161.18  138.59
   3  -8   3 3308.77  137.69
  -3  -8  -3 3046.10  142.09
  -3  -8  -3 3315.27  137.99
   3  -8   3 3348.06  136.59
  -3  -8  -3 3375.16  144.59
  -3   8  -3 3412.06  139.69
  -3   8  -3 3083.39  143.09
  -3   8  -3 3182.38  136.79
   3   8   3 3143.09  136.19
  -3   8  -3 3344.77  162.18
  -4  -8  -3   82.59    8.30
  -4  -8  -3   84.99    7.10
  -4  -8  -3   82.49    6.90
  -4  -8  -3   85.79    6.40
  -4  -8  -3   79.49    8.30
   4  -8   3   73.49    5.70
  -4   8  -3   96.89    9.70
   4   8   3   85.39    5.20
  -4   8  -3   74.89    6.20
  -4   8  -3   73.99    6.20
  -5  -8  -3  616.64   29.00
  -5  -8  -3  644.84   33.00
  -5   8  -3  627.34   28.10
  -5   8  -3  619.64   27.90
  -5  -9   3   13.30    2.50
  -5  -9   3    7.90    2.00
  -5  -9   3    9.60    2.60
  -5  -9   3    9.30    2.40
  -5   9   3    8.70    1.80
  -5   9   3    8.30    1.80
  -5   9   3    7.50    2.30
   4  -9  -3  861.01   37.80
  -4  -9   3  831.12   39.30
  -4  -9   3  842.62   40.70
  -4   9   3  812.92   38.60
  -4   9   3  699.73   40.40
  -4   9   3  785.12   38.40
   4   9  -3  782.62   35.60
  -3  -9   3 3665.93  156.78
   3  -9  -3 3446.66  154.78
   3  -9  -3 3834.12  157.58
  -3  -9   3 3839.82  160.08
  -3  -9   3 3875.81  161.08
  -3  -9   3 3621.64  204.08
  -3   9   3 3915.11  155.88
   3   9  -3 3590.04  156.08
  -3   9   3 3955.50  160.08
  -3   9   3 3594.14  154.08
   2  -9  -3 4192.18  178.88
  -2  -9   3 3994.00  183.38
  -2  -9   3 4730.93  184.78
  -2  -9   3 4602.74  183.38
   2  -9  -3 4178.78  181.08
  -2  -9   3 3931.21  243.78
  -2   9   3 4515.45  183.58
   2   9  -3 4411.26  192.28
  -2   9   3 4384.96  183.28
  -2   9   3 4277.07  178.68
   2   9  -3 4170.28  180.18
  -2   9   3 4396.86  191.48
   2   9  -3 4399.06  187.78
  -1  -9   3 1650.73  139.29
  -1  -9   3 1864.11   78.09
   1  -9  -3 1894.31   77.39
  -1  -9   3 1838.72   77.79
   1  -9  -3 1916.71   79.39
   1   9  -3 1931.11   84.49
   1   9  -3 1933.11   91.79
  -1   9   3 1827.52   77.39
   1   9  -3 1743.43   79.19
  -1   9   3 1796.72   77.09
   1   9  -3 1837.42   78.59
   0  -9   3  509.35   23.00
   0  -9   3  487.55   72.79
   0  -9   3  493.55   23.70
   0  -9  -3  488.55   24.20
   0  -9  -3  567.74   64.59
   0  -9   3  482.35   24.30
   0  -9   3  522.45   23.30
   0   9   3  497.45   22.90
   0   9  -3  478.05   23.70
   0   9  -3  486.35   24.30
   0   9   3  482.75   22.90
   0   9  -3  540.75   36.90
   0   9  -3  540.35   29.60
   0   9   3  522.15   28.20
  -1  -9  -3  326.27   17.60
   1  -9   3  338.57   17.30
  -1  -9  -3  348.77   58.69
   1  -9   3  366.26   16.70
   1   9   3  377.46   22.10
   1   9   3  343.77   16.50
  -1   9  -3  352.16   30.70
   1   9   3  339.07   16.40
  -1   9  -3  320.77   17.40
  -1   9  -3  327.77   16.70
  -2  -9  -3  185.88   10.40
  -2  -9  -3  172.08   12.10
   2  -9   3  168.18    9.60
  -2  -9  -3  178.38   15.60
  -2  -9  -3  178.08   10.90
   2  -9   3  179.18   11.40
  -2   9  -3  174.28   11.10
  -2   9  -3  184.98   22.40
   2   9   3  168.48   14.40
   2   9   3  176.18    9.70
  -2   9  -3  161.68   10.30
  -2   9  -3  173.08   12.20
  -3  -9  -3  212.28   12.70
  -3  -9  -3  245.38   37.20
  -3  -9  -3  205.08   11.80
  -3  -9  -3  220.58   13.00
   3  -9   3  210.28   12.00
  -3  -9  -3  200.48   14.90
   3  -9   3  204.78   13.80
   3   9   3  205.58   10.90
  -3   9  -3  192.88   12.10
  -3   9  -3  219.88   13.00
  -3   9  -3  206.48   13.10
  -3   9  -3  196.98   11.20
  -3   9  -3  172.38   29.90
  -4  -9  -3 1331.47   58.89
   4  -9   3 1359.16   57.39
  -4  -9  -3 1276.57   58.49
  -4  -9  -3 1362.46   57.89
  -4   9  -3 1315.47   58.39
  -4   9  -3 1337.27   58.19
   4   9   3 1317.27   56.39
  -5  -9  -3   67.39    6.40
  -5  -9  -3   61.79    4.70
  -5  -9  -3   69.39    4.90
  -5  -9  -3   66.89    4.30
  -5   9  -3   69.59    4.70
  -5   9  -3   55.49    4.80
  -5 -10   3  363.76   20.00
  -5 -10   3  417.86   18.90
  -5 -10   3  367.66   19.20
  -5 -10   3  351.76   22.40
  -5  10   3  377.46   18.20
  -5  10   3  404.06   20.10
  -4 -10   3 2549.15  105.29
   4 -10  -3 2578.64  104.29
  -4 -10   3 2418.26  104.49
  -4  10   3 2366.66  102.19
  -4  10   3 2169.58  105.49
   4  10  -3 2525.65  102.39
  -4  10   3 2402.76  104.59
  -3 -10   3  211.48   14.80
  -3 -10   3  201.18   12.00
  -3 -10   3  202.78   13.10
  -3 -10   3  210.68   35.60
  -3 -10   3  205.08   14.50
  -3 -10   3  194.58   13.60
   3  10  -3  188.48   11.10
  -3  10   3  181.78   19.60
  -3  10   3  193.08    9.70
  -3  10   3  202.98   13.60
  -3  10   3  219.28   12.30
  -3  10   3  200.78   10.70
  -3  10   3  201.08   13.80
  -2 -10   3 3840.72  159.78
  -2 -10   3 3847.91  260.57
  -2 -10   3 3797.02  158.28
  -2 -10   3 3524.25  153.68
   2 -10  -3 3657.73  155.38
   2  10  -3 3599.44  154.48
   2  10  -3 3586.94  161.98
  -2  10   3 3553.44  152.28
  -1 -10   3  603.34   26.50
  -1 -10   3  547.55   25.80
  -1 -10   3  490.95   71.79
   1 -10  -3  553.54   27.40
  -1  10   3  585.84   25.70
   1  10  -3  591.64   32.40
   1  10  -3  553.14   27.30
   1  10  -3  572.44   26.80
   1  10  -3  624.24   39.60
  -1  10   3  581.74   25.40
   0 -10   3 2095.99   88.19
   0 -10   3 1970.70   88.59
   0 -10  -3 2015.70   88.79
   0 -10   3 2206.58   88.39
   0 -10  -3 2149.48  155.38
   0 -10   3 1939.71  169.68
   0 -10   3 2057.99   87.59
   0  10   3 1999.30   93.79
   0  10  -3 1980.30   88.79
   0  10  -3 2096.19   88.29
   0  10   3 2070.39   87.19
   0  10   3 2093.19   87.19
   0  10  -3 2259.07   95.19
   1 -10   3  247.58   15.10
  -1 -10  -3  222.38   13.40
   1 -10   3  242.58   13.40
   1 -10   3  235.38   12.40
  -1 -10  -3  258.87   44.10
  -1  10  -3  229.28   25.30
   1  10   3  249.08   12.70
   1  10   3  223.58   22.90
  -1  10  -3  242.48   13.70
   1  10   3  253.57   12.30
  -1  10  -3  227.78   12.50
  -1  10  -3  247.48   13.30
  -2 -10  -3   26.70    3.80
   2 -10   3   28.10    3.60
   2 -10   3   27.30    4.80
  -2 -10  -3   32.00   21.90
   2 -10   3   24.90    3.40
  -2 -10  -3   25.10    4.60
  -2 -10  -3   28.70    3.60
   2  10   3   26.80    2.90
  -2  10  -3   27.00    3.60
  -2  10  -3   27.80    9.90
  -2  10  -3   30.20    3.50
  -2  10  -3   23.30    4.10
  -3 -10  -3 1498.15   73.69
   3 -10   3 1498.25   74.79
  -3 -10  -3 1641.84   70.29
  -3 -10  -3 1780.92  125.19
   3  10   3 1747.43   72.59
  -3  10  -3 1597.44   71.79
  -3  10  -3 1626.34   72.79
  -3  10  -3 1662.63   70.69
  -4 -10  -3  134.19    9.10
  -4 -10  -3  142.19    9.50
  -4 -10  -3  145.69    9.10
  -4 -10  -3  143.59   10.90
   4 -10   3  149.39   12.20
   4 -10   3  145.39    8.40
  -4  10  -3  150.88    8.90
   4  10   3  167.68    8.90
  -4  10  -3  150.08    9.20
  -5 -10  -3    1.70    1.00
  -5 -10  -3    2.80    1.80
  -5 -10  -3    0.60    1.20
  -5 -10  -3    1.40    0.80
  -5  10  -3    2.50    1.20
  -5 -11   3  122.49    8.80
  -5 -11   3  144.89    8.40
  -5 -11   3  139.19    9.00
  -5 -11   3  147.29    9.80
  -5 -11   3  157.78    9.10
  -5  11   3  146.69    8.00
  -5  11   3  141.99    7.10
  -4 -11   3  165.08   10.70
  -4 -11   3  161.88   11.10
   4 -11  -3  169.88   10.80
  -4 -11   3  168.28   10.60
  -4 -11   3  169.68   11.90
  -4 -11   3  151.88   11.80
  -4  11   3  158.08   11.40
  -4  11   3  160.88   10.00
   4  11  -3  179.28    9.20
  -4  11   3  167.88    9.00
  -3 -11   3  353.76   21.80
   3 -11  -3  389.46   19.90
  -3 -11   3  382.76   20.50
  -3 -11   3  384.56   21.10
  -3 -11   3  326.17   45.50
  -3 -11   3  405.96   22.30
  -3  11   3  368.16   21.20
   3  11  -3  359.86   18.10
  -3  11   3  363.76   16.60
  -3  11   3  369.86   22.50
  -3  11   3  338.27   18.80
  -2 -11   3 1549.64   68.69
  -2 -11   3 1500.15   66.39
   2 -11  -3 1461.55   63.09
   2 -11  -3 1487.55   65.59
  -2 -11   3 1483.35   66.89
  -2 -11   3 1499.05   64.59
   2  11  -3 1445.86   64.19
  -2  11   3 1452.85   62.79
  -2  11   3 1464.75   67.09
  -1 -11   3 4661.43  191.38
  -1 -11   3 4461.75  190.88
   1 -11  -3 4451.45  192.88
   1  11  -3 4650.94  207.88
   1  11  -3 4861.81  200.48
   1  11  -3 4718.43  191.98
  -1  11   3 4542.95  190.58
   1  11  -3 4470.35  192.58
   0 -11   3 1076.49  125.89
   0 -11  -3 1274.87  117.69
   0 -11   3 1217.18   52.39
   0 -11  -3 1189.78   53.49
   0 -11   3 1181.18   52.79
   0  11  -3 1187.18   52.49
   0  11   3 1121.19   52.09
   0  11   3 1179.28   51.39
   0  11   3 1193.28   59.09
   0  11  -3 1288.27   55.19
   0  11  -3 1266.57   70.99
  -1 -11  -3   50.29    5.20
   1 -11   3   55.69    4.60
   1 -11   3   56.39    6.10
   1 -11   3   59.39    5.10
  -1 -11  -3   54.39   24.50
   1  11   3   51.19    4.20
  -1  11  -3   58.89   13.00
  -1  11  -3   47.00    4.20
   1  11   3   51.09    4.10
  -1  11  -3   53.49    5.00
   2 -11   3 2480.85  109.19
   2 -11   3 2483.05  102.19
  -2 -11  -3 2597.14  166.58
  -2 -11  -3 2167.68  105.29
   2 -11   3 2427.66  101.99
  -2  11  -3 2277.47  131.69
  -2  11  -3 2434.36  104.79
  -2  11  -3 2321.67  101.59
  -2  11  -3 2332.47  101.69
   2  11   3 2381.66  100.49
  -3 -11  -3  692.13   35.90
  -3 -11  -3  661.93   32.40
   3 -11   3  742.73   32.30
   3 -11   3  704.83   36.30
  -3 -11  -3  723.33   31.60
  -3 -11  -3  690.33   33.20
  -3  11  -3  720.33   33.80
   3  11   3  723.53   31.10
  -3  11  -3  674.33   32.00
  -3  11  -3  684.63   31.20
  -3  11  -3  659.53   33.00
  -4 -11  -3   15.00    3.00
  -4 -11  -3   18.70    2.80
  -4 -11  -3   19.70    2.20
  -4 -11  -3   15.50    2.50
   4 -11   3   20.10    2.20
  -4  11  -3   15.40    2.10
   4  11   3   18.90    1.90
  -4  11  -3   20.70    2.70
  -5 -12   3  234.28   12.00
  -5 -12   3  274.07   12.30
  -5 -12   3  208.78   13.00
  -5  12   3  234.88   12.90
  -5  12   3  275.17   11.70
  -4 -12   3  517.55   25.10
  -4 -12   3  523.15   25.30
  -4 -12   3  496.65   25.10
  -4 -12   3  526.55   27.30
  -4 -12   3  511.15   26.30
   4  12  -3  531.65   23.40
  -4  12   3  520.75   24.60
   3 -12  -3  874.61   39.20
  -3 -12   3  886.01   42.80
  -3 -12   3  849.02   39.50
  -3 -12   3  852.61   39.80
  -3 -12   3  889.81   41.50
  -3  12   3  757.62   39.90
  -3  12   3  773.52   38.10
  -3  12   3  806.62   35.60
   3  12  -3  832.82   37.30
  -2 -12   3  198.78   12.70
  -2 -12   3  200.98   13.10
   2 -12  -3  184.58   12.30
  -2 -12   3  214.98   14.40
  -2 -12   3  184.58   42.00
  -2  12   3  175.98   11.50
  -2  12   3  199.58   13.30
   2  12  -3  189.88   11.00
  -2  12   3  192.68   10.00
   1 -12  -3  279.97   15.50
  -1 -12   3  259.17   13.00
  -1 -12   3  280.77   16.10
  -1  12   3  271.17   13.30
   1  12  -3  265.37   14.20
   1  12  -3  256.67   14.50
  -1  12   3  256.57   16.40
  -1  12   3  257.47   12.70
   0 -12   3  190.58   10.70
   0 -12   3  170.48   69.69
   0 -12  -3  178.68   11.60
   0  12  -3  190.68   10.70
   0  12   3  184.78   10.00
   0  12  -3  202.58   11.60
   0  12   3  188.08   10.00
   0  12  -3  185.98   22.30
   1 -12   3  183.48   10.50
  -1 -12  -3  173.18   11.10
   1 -12   3  183.88   12.10
  -1 -12  -3  205.98   46.50
   1  12   3  165.28    9.40
  -1  12  -3  160.48   10.40
   1  12   3  173.28    9.50
  -1  12  -3  164.48    9.50
  -1  12  -3  162.08   22.60
  -2 -12  -3  768.72   46.60
  -2 -12  -3  866.91   40.00
   2 -12   3 1032.90   44.90
   2 -12   3  785.22   47.80
  -2  12  -3  888.81   44.90
  -2  12  -3  927.81   42.00
  -2  12  -3  877.21   39.50
   2  12   3  949.51   40.60
   2  12   3  889.41   39.00
  -2  12  -3  906.51   43.10
  -3 -12  -3   37.10    5.30
   3 -12   3   48.80    6.80
  -3 -12  -3   43.10    4.30
   3 -12   3   40.20    3.80
  -3 -12  -3   37.90    3.90
  -3  12  -3   38.70    3.70
  -3  12  -3   36.60    4.20
   3  12   3   36.80    3.20
  -3  12  -3   35.60    3.10
  -3  12  -3   37.20    4.40
  -4 -12  -3  842.82   38.00
  -4 -12  -3  835.12   39.90
  -4 -12  -3  907.91   38.10
   4 -12   3  859.81   37.10
  -4  12  -3  905.61   38.40
  -4  12  -3  830.72   36.90
   4  12   3  886.41   36.90
  -4 -13   3  155.48    9.20
  -4 -13   3  148.99   10.20
  -4 -13   3  142.99    8.80
  -4 -13   3  140.59    9.40
  -4  13   3  150.78    9.70
  -4  13   3  146.59    8.50
  -3 -13   3   46.30    5.90
  -3 -13   3   44.50    5.50
  -3 -13   3   45.70    4.80
  -3 -13   3   42.40    6.00
  -3 -13   3   46.30    4.90
   3 -13  -3   54.49    5.50
  -3  13   3   51.99    4.70
   3  13  -3   49.40    4.00
  -3  13   3   49.50    3.10
  -3  13   3   43.40    5.20
  -2  13   3   12.50    1.70
   2  13  -3    8.40    1.80
   1 -13  -3  189.88   12.00
  -1 -13   3  166.88   47.80
  -1 -13   3  183.28   12.00
  -1 -13   3  186.28    9.60
  -1 -13   3  189.18   12.00
  -1  13   3  192.38    9.40
  -1  13   3  214.48   10.20
   1  13  -3  175.08   10.90
  -1  13   3  188.88   12.80
   1  13  -3  184.28   10.70
   0 -13  -3  171.28   11.00
   0 -13   3  167.38    9.50
   0  13  -3  167.68    9.70
   0  13   3  167.28    9.00
   0  13   3  161.88    9.10
   0  13  -3  159.88   10.20
  -1 -13  -3 1114.19   49.40
   1 -13   3 1064.29   47.60
   1 -13   3 1190.78   51.49
   1  13   3  916.61   47.60
  -1  13  -3 1069.29   49.10
  -1  13  -3 1107.79   48.20
   1  13   3 1076.29   46.70
   2 -13   3  897.51   42.10
  -2 -13  -3  804.32   43.00
   2 -13   3  910.31   39.40
   2  13   3  885.91   38.30
  -2  13  -3  883.91   39.20
  -2  13  -3  864.81   40.80
   2  13   3  871.31   38.20
  -3 -13  -3  472.35   23.20
   3 -13   3  505.35   22.60
  -3 -13  -3  489.45   23.30
  -3 -13  -3  468.95   27.00
  -3  13  -3  484.45   23.80
  -3  13  -3  480.15   23.70
  -3  13  -3  483.15   21.80
   3  13   3  506.85   22.00
   4 -13   3  344.77   15.40
  -4 -13  -3  326.97   17.20
   4  13   3  363.86   15.50
  -4  13  -3  369.06   16.50
  -4 -14   3  122.19    6.80
  -4 -14   3   98.19    7.10
  -4 -14   3  102.69    8.80
  -4  14   3  111.59    7.30
  -4  14   3  132.29    6.80
   4  14  -3  121.89    6.00
  -3 -14   3  707.03   34.80
  -3 -14   3  675.23   33.40
  -3 -14   3  619.64   32.50
  -3 -14   3  705.63   32.30
   3  14  -3  721.73   30.90
  -3  14   3  686.73   31.70
  -3  14   3  729.83   34.00
  -3  14   3  699.63   30.90
  -2 -14   3  293.17   17.30
  -2 -14   3  259.67   17.20
  -2 -14   3  289.27   15.50
   2 -14  -3  290.67   15.90
  -2  14   3  284.37   13.30
   2  14  -3  269.27   14.10
  -2  14   3  258.57   16.10
   1 -14  -3   57.39    5.70
  -1 -14   3   45.60    4.60
  -1 -14   3   46.20    3.20
  -1  14   3   45.90    3.70
   1  14  -3   48.00    4.20
   1  14  -3   51.19    4.30
  -1  14   3   42.70    5.20
  -1  14   3   46.90    3.20
   0 -14   3  496.85   24.40
   0 -14   3  500.65   23.00
   0 -14  -3  514.55   25.20
   0  14   3  502.05   22.80
   0  14   3  471.05   25.20
   0  14   3  493.75   22.50
   0  14  -3  500.05   23.30
   1 -14   3  838.22   38.30
  -1 -14  -3  882.61   40.10
   1 -14   3  852.11   42.50
   1  14   3  871.91   37.70
   1  14   3  890.71   37.80
  -1  14  -3  853.11   37.20
  -1  14  -3  848.52   38.80
  -2 -14  -3  282.97   18.00
  -2 -14  -3  296.07   15.80
   2 -14   3  300.47   15.10
  -2  14  -3  312.97   15.10
   2  14   3  306.27   14.50
  -2  14  -3  299.27   16.40
  -2  14  -3  316.57   17.50
   2  14   3  307.97   14.70
   3 -14   3  213.08   10.40
  -3 -14  -3  195.68   10.90
  -3 -14  -3  201.58   12.80
  -3  14  -3  206.08   11.40
   3  14   3  216.08   10.10
  -3  14  -3  213.98    9.60
  -3  14  -3  203.08   11.50
  -3 -15   3  431.76   20.60
  -3 -15   3  451.15   21.70
  -3 -15   3  468.65   22.50
  -3  15   3  435.56   20.90
   3  15  -3  467.85   20.20
  -3  15   3  456.45   18.90
  -3  15   3  407.26   21.60
  -2 -15   3  447.46   21.70
  -2 -15   3  441.26   24.20
  -2  15   3  456.65   20.10
  -2  15   3  446.36   21.90
   2  15  -3  462.65   21.00
   1 -15  -3 1303.47   55.19
  -1 -15   3 1179.38   53.39
   1  15  -3 1216.98   52.79
  -1  15   3 1214.98   54.79
  -1  15   3 1213.18   52.09
   1  15  -3 1204.18   52.89
   0 -15   3  207.58   10.50
   0 -15  -3  210.98   12.70
   0  15   3  218.88   10.60
   0  15  -3  210.88   10.90
   0  15  -3  202.18   11.30
   0  15   3  212.08   10.30
   0  15   3  188.28   14.10
   1 -15   3   28.90    3.00
  -1 -15  -3   40.90    5.70
  -1 -15  -3   31.20    4.60
   1  15   3   36.80    3.00
  -1  15  -3   41.20    4.30
   1  15   3   42.80    3.30
  -1  15  -3   35.50    3.40
  -2 -15  -3  272.47   14.50
  -2 -15  -3  270.77   16.40
   2 -15   3  312.77   16.90
  -2  15  -3  289.97   15.80
  -2  15  -3  266.47   14.80
  -2  15  -3  313.87   15.80
   3 -15   3   75.09    4.30
  -3 -15  -3   69.39    5.30
  -3 -15  -3   67.99    4.50
   3  15   3   76.69    4.10
  -3  15  -3   79.59    4.90
  -3 -16   3  248.28   13.50
  -3  16   3  274.07   13.10
  -3  16   3  282.77   13.60
   3  16  -3  305.37   13.60
  -2 -16   3  339.27   17.80
  -2 -16   3  287.97   18.20
   2  16  -3  331.07   15.10
  -2  16   3  331.27   14.50
  -1 -16   3  542.85   26.70
  -1 -16   3  585.14   29.20
   1  16  -3  539.45   24.30
   1  16  -3  542.45   25.00
  -1  16   3  465.45   25.50
  -1  16   3  541.55   26.20
  -1  16   3  561.94   23.90
   0 -16   3  213.48    9.70
   0  16  -3  217.28   10.80
   0  16   3  193.88   10.90
   0  16  -3  184.58   10.90
   0  16   3  184.78   12.10
   0  16  -3  201.98    9.90
   0  16   3  204.68    9.50
  -1 -16  -3  518.55   26.20
   1 -16   3  488.35   22.50
   1  16   3  507.35   22.30
  -1  16  -3  474.95   23.50
   1  16   3  528.15   22.70
  -1  16  -3  498.55   22.90
  -1  16  -3  528.25   25.70
   2 -16   3   28.80    2.40
  -2 -16  -3   27.40    4.20
  -2 -16  -3   33.60    2.90
   2  16   3   32.50    2.40
  -2  16  -3   28.90    3.10
  -2  16  -3   32.30    2.60
  -2  16  -3   34.20    3.00
  -2 -17   3   43.90    4.40
  -2 -17   3   50.69    4.00
  -2  17   3   52.29    3.60
   2  17  -3   47.90    3.10
  -1 -17   3  211.78   11.70
  -1 -17   3  215.38   13.40
  -1  17   3  219.38   10.10
   1  17  -3  214.28   10.30
  -1  17   3  215.08   11.30
   0 -17   3  231.88    9.80
   0 -17   3  218.18   11.70
   0 -17  -3  207.48   12.70
   0  17  -3  203.48    9.70
   0  17  -3  248.98   11.60
   0  17  -3  203.88   10.50
   0  17   3  231.08   11.00
  -1 -17  -3  159.18    8.00
   1 -17   3  161.18    7.30
  -1 -17  -3  144.09    9.30
  -1  17  -3  170.68    7.90
  -1  17  -3  143.69    7.70
  -1  17  -3  130.69    9.30
   1  17   3  151.98    7.30
   1  17   3  143.99    7.90
  -6   0   4   25.30    3.40
  -6   0   4   26.60    3.50
  -6   0   4   27.80    3.00
  -6   0   4   25.80    3.30
  -5   0   4 2355.06  107.99
  -5   0   4 2417.66  108.39
  -5   0   4 2527.25  105.69
  -5   0   4 2535.85  105.69
  -5   0   4 2558.04  108.29
  -5   0   4 2234.68  110.89
  -4   0   4  282.17   15.70
  -4   0   4  301.17   18.00
  -4   0   4  315.27   18.60
  -4   0   4  267.97   16.80
  -4   0   4  273.27   15.10
  -4   0   4  284.17   15.30
  -4   0   4  286.97   18.70
   4   0  -4  265.17   20.40
  -3   0   4 4384.86  186.88
  -3   0   4 4748.82  190.88
  -3   0   4 4596.84  189.58
  -3   0   4 3931.11  209.08
  -3   0   4 4815.32  188.68
  -3   0   4 4533.85  190.68
  -2   0   4  457.75   50.09
  -2   0   4  432.16   19.50
  -2   0   4  462.55   20.50
  -1   0   4   96.69    5.10
   1   0  -4   92.09   19.60
  -1   0   4   78.19    4.50
   0   0  -4 2576.64  148.19
   0   0   4 2796.82  111.19
  -1   0  -4  113.69   22.50
   2   0   4 1209.18   55.29
   2   0   4 1375.76   55.09
  -2   0  -4 1286.27   57.19
  -2   0  -4 1319.57   57.39
  -3   0  -4  264.07   23.10
   3   0   4  266.57   13.10
  -3   0  -4  264.37   14.50
  -3   0  -4  264.07   14.70
  -3   0  -4  258.57   15.30
   3   0   4  255.87   13.30
  -3   0  -4  250.97   20.70
  -3   0  -4  271.87   14.40
  -4   0  -4   72.69    6.90
  -4   0  -4   74.69    7.60
  -4   0  -4   68.39   10.30
  -4   0  -4   65.39    5.50
   4   0   4   70.59    5.10
   4   0   4   70.59    5.20
  -4   0  -4   72.29    6.10
  -4   0  -4   67.99    6.30
  -5   0  -4  527.25   26.50
  -5   0  -4  557.34   31.70
  -6  -1   4  179.68   10.80
  -6  -1   4  168.18   11.80
  -6  -1   4  169.58   10.60
  -6   1   4  178.78   11.40
  -6   1   4  174.08    9.80
  -6   1   4  142.69   12.40
  -6   1   4  165.08   10.10
  -5  -1   4  337.17   22.10
  -5  -1   4  345.17   22.00
  -5  -1   4  337.17   20.30
  -5  -1   4  335.57   17.30
  -5  -1   4  344.47   20.70
  -5  -1   4  304.87   18.60
  -5   1   4  335.47   19.70
  -5   1   4  345.17   20.00
  -5   1   4  324.27   24.30
  -4  -1   4 4851.51  221.28
  -4  -1   4 5114.89  217.38
  -4  -1   4 4987.20  214.98
  -4  -1   4 5583.04  219.78
  -4  -1   4 4765.32  213.58
  -4  -1   4 5024.00  216.78
  -4  -1   4 5131.29  214.18
  -4  -1   4 4937.71  217.58
  -4   1   4 4948.60  213.58
  -4   1   4 5125.29  217.88
  -4   1   4 5501.25  218.38
  -4   1   4 5199.68  214.48
   4   1  -4 5553.94  223.88
  -4   1   4 5615.44  219.38
  -4   1   4 4770.52  218.68
  -3  -1   4  216.38   11.50
  -3  -1   4  179.38   13.10
  -3  -1   4  201.18   10.90
  -3  -1   4  192.38    9.80
  -3  -1   4  235.48   14.00
  -3  -1   4  210.18   13.50
  -3  -1   4  197.48   24.40
  -3  -1   4  208.68   12.20
  -3   1   4  221.48   11.40
  -3   1   4  187.08    9.90
  -3   1   4  175.38   23.10
  -3   1   4  181.88   12.40
  -3   1   4  201.48   13.40
  -3   1   4  229.98   13.30
  -3   1   4  202.18   13.40
  -3   1   4  200.68   10.70
   2  -1  -4  303.17   15.30
  -2  -1   4  323.57   16.20
  -2  -1   4  341.97   15.50
  -2  -1   4  404.36   42.80
  -2  -1   4  385.76   44.30
  -2   1   4  345.27   16.10
  -2   1   4  345.47   45.20
   1  -1  -4  355.66   39.60
  -1  -1   4  351.26   15.60
   1  -1  -4  341.87   16.60
  -1  -1   4  353.26   16.00
  -1   1   4  345.57   15.40
  -1   1   4  367.46   16.00
   0  -1  -4   49.00   14.30
   0  -1   4   45.30    3.00
   0   1  -4   42.50   13.30
   0   1   4   45.10    2.80
  -1  -1  -4 1892.81  118.49
   1  -1   4 1900.61   79.19
   1   1   4 1887.51   78.89
   2  -1   4  731.93   33.40
  -2  -1  -4  659.83   36.80
  -2  -1  -4  728.23   67.19
  -2  -1  -4  859.61   44.10
   2  -1   4  736.93   32.90
  -2  -1  -4  774.72   34.50
  -2   1  -4  807.12   37.10
   2   1   4  746.53   32.90
  -2   1  -4  794.12   35.40
  -2   1  -4  760.22   44.80
   2   1   4  724.43   33.20
  -3  -1  -4 1553.74   67.39
  -3  -1  -4 1625.74   69.19
  -3  -1  -4 1587.74   68.19
   3  -1   4 1484.15   66.59
  -3  -1  -4 1461.25   81.19
  -3  -1  -4 1549.34   68.19
   3  -1   4 1596.84   66.09
  -3   1  -4 1544.35   81.69
   3   1   4 1410.76   65.99
   3   1   4 1545.15   66.09
  -3   1  -4 1674.23   69.19
  -3   1  -4 1594.34   78.09
  -3   1  -4 1629.24   69.29
  -3   1  -4 1518.45   67.89
  -3   1  -4 1528.15   67.59
   4  -1   4  925.61   40.00
  -4  -1  -4  971.30   42.00
  -4  -1  -4  882.51   44.70
   4  -1   4  851.91   39.90
  -4  -1  -4  928.51   40.80
  -4  -1  -4  990.60   51.19
  -4  -1  -4  850.41   42.50
  -4  -1  -4  905.71   42.10
   4   1   4  910.31   39.80
  -4   1  -4  913.71   42.90
  -4   1  -4  911.11   41.10
  -4   1  -4  910.51   41.50
  -4   1  -4  922.71   44.70
  -4   1  -4  880.41   41.80
   4   1   4  834.42   39.70
  -4   1  -4  919.41   50.69
  -5  -1  -4 1067.49   51.59
  -5  -1  -4 1035.90   44.90
  -5  -1  -4  965.90   43.00
  -5  -1  -4  937.91   45.10
  -5   1  -4 1015.60   46.30
  -5   1  -4 1019.20   43.60
  -5   1  -4  962.50   50.69
  -6  -2   4  605.14   29.00
  -6  -2   4  625.74   29.40
  -6  -2   4  627.04   29.30
  -6   2   4  615.24   29.10
  -6   2   4  632.64   29.50
  -6   2   4  540.95   28.60
  -6   2   4  598.84   29.30
  -5  -2   4 1072.89   47.10
  -5  -2   4 1104.99   50.59
  -5  -2   4 1055.39   46.60
  -5  -2   4  996.00   49.30
  -5  -2   4 1044.70   50.49
  -5  -2   4 1094.79   49.80
  -5  -2   4  997.10   49.40
  -5   2   4  913.81   48.40
  -5   2   4 1087.69   49.00
  -5   2   4 1129.89   49.40
  -5   2   4  976.40   50.79
  -4  -2   4  971.10   44.90
  -4  -2   4 1056.39   49.00
  -4  -2   4  960.20   44.60
  -4  -2   4 1040.00   49.70
  -4  -2   4 1056.19   48.80
  -4  -2   4  997.50   46.20
  -4  -2   4  991.60   44.60
  -4  -2   4 1011.20   47.50
  -4   2   4 1015.40   44.30
  -4   2   4 1003.80   45.30
  -4   2   4  937.91   47.20
  -4   2   4 1031.30   48.50
  -4   2   4  976.00   44.70
  -4   2   4 1091.59   48.50
  -4   2   4  976.20   44.20
  -4   2   4 1041.00   50.19
   4   2  -4  917.21   51.59
  -3  -2   4 2136.79   83.29
  -3  -2   4 1969.50   79.99
  -3  -2   4 1978.40   82.39
  -3  -2   4 1809.02   78.79
  -3  -2   4 1860.61  104.29
  -3  -2   4 1889.11   81.39
  -3  -2   4 1560.04   99.29
  -3  -2   4 1920.01   82.09
  -3  -2   4 1779.22   77.59
  -3   2   4 1625.24  100.99
  -3   2   4 1909.41   79.69
  -3   2   4 1920.41   82.39
  -3   2   4 1592.54   85.09
  -3   2   4 1963.50   82.59
  -3   2   4 1891.71  100.29
  -3   2   4 1769.12   77.09
  -3   2   4 1894.71   78.39
  -3   2   4 1865.91   78.99
  -2  -2   4 3622.54  186.38
   2  -2  -4 3227.58  140.69
  -2  -2   4 3560.54  189.58
  -2  -2   4 3482.15  141.19
  -2  -2   4 3392.66  140.29
  -2   2   4 3074.89  189.28
  -2   2   4 3395.16  140.69
  -1  -2   4 4689.43  192.38
  -1  -2   4 5371.96  252.07
   1  -2  -4 4560.14  192.88
   1  -2  -4 4273.77  231.68
  -1  -2   4 4665.83  192.78
  -1   2   4 4806.82  192.48
  -1   2   4 4338.87  192.48
   0  -2   4 1124.59   49.30
   0  -2  -4 1193.08   83.39
   0  -2   4 1268.77   98.49
   0  -2  -4 1143.19   50.29
   0   2   4 1133.49   49.00
  -1  -2  -4 3449.35  187.18
   1  -2   4 3322.07  143.19
   1  -2   4 3635.64  216.48
   1   2   4 3442.36  143.09
   2  -2   4  550.94   27.60
  -2  -2  -4  656.43   36.10
   2  -2   4  622.04   27.10
  -2  -2  -4  599.64   59.99
  -2  -2  -4  615.64   29.10
  -2  -2  -4  692.23   31.20
  -2  -2  -4  579.04   30.40
  -2   2  -4  620.94   29.40
   2   2   4  606.64   27.10
  -2   2  -4  608.74   39.50
   2   2   4  568.84   27.20
  -2   2  -4  638.74   28.70
   3  -2   4 1569.14   71.59
  -3  -2  -4 1669.83   76.49
   3  -2   4 1766.92   72.59
  -3  -2  -4 1683.73   73.89
  -3  -2  -4 1710.73   72.29
  -3  -2  -4 1695.13   73.29
  -3   2  -4 1795.72   72.39
  -3   2  -4 1690.53   88.39
  -3   2  -4 1653.63   72.89
   3   2   4 1640.04   71.09
  -3   2  -4 1785.12   75.19
  -3   2  -4 1432.66   79.59
  -4  -2  -4 1293.17   58.39
  -4  -2  -4 1462.55   64.29
  -4  -2  -4 1227.38   57.69
  -4  -2  -4 1280.37   58.99
  -4  -2  -4 1342.77   66.39
  -4  -2  -4 1348.27   56.99
   4  -2   4 1279.97   58.69
   4  -2   4 1328.67   56.39
  -4   2  -4 1267.57   58.09
  -4   2  -4 1231.58   57.69
   4   2   4 1229.28   57.79
  -4   2  -4 1297.47   57.59
  -4   2  -4 1365.56   67.09
   4   2   4 1382.66   56.39
  -4   2  -4 1254.97   59.19
  -5  -2  -4  810.22   34.60
  -5  -2  -4  755.42   34.80
  -5  -2  -4  774.02   39.80
  -5  -2  -4  742.13   34.60
  -5  -2  -4  699.93   36.90
  -5  -2  -4  709.63   32.70
  -5   2  -4  726.83   33.60
  -5   2  -4  732.03   33.20
  -5   2  -4  750.92   35.20
  -6  -3   4  135.79    9.40
  -6  -3   4  148.79    9.40
  -6  -3   4  142.19    8.90
  -6  -3   4  128.79    7.50
  -6   3   4  150.18    8.10
  -6   3   4  138.59    9.20
  -6   3   4  136.99    9.00
  -5  -3   4 1185.88   52.89
  -5  -3   4 1267.97   56.69
  -5  -3   4 1156.58   55.99
  -5   3   4 1172.98   54.99
  -5   3   4 1157.58   52.19
  -5   3   4 1111.19   52.49
  -5   3   4 1253.77   54.39
  -4  -3   4  699.43   33.40
  -4  -3   4  713.63   45.20
  -4  -3   4  691.43   32.10
  -4  -3   4  706.33   35.00
  -4  -3   4  689.93   32.10
  -4  -3   4  715.53   35.70
  -4  -3   4  649.64   34.50
  -4  -3   4  717.63   36.10
  -4   3   4  673.03   31.40
  -4   3   4  672.03   35.10
  -4   3   4  743.93   34.80
  -4   3   4  675.83   31.90
  -4   3   4  658.13   34.20
  -4   3   4  690.53   32.60
  -3  -3   4 4426.06  190.98
  -3  -3   4 4487.75  193.98
  -3  -3   4 4705.53  223.08
  -3  -3   4 4598.34  193.88
  -3  -3   4 4834.52  195.18
  -3  -3   4 4565.84  191.78
  -3   3   4 4562.24  193.48
   3   3  -4 4649.53  198.38
  -3   3   4 4653.43  191.68
  -3   3   4 4523.05  191.38
  -3   3   4 4498.15  190.78
  -2  -3   4  832.12   70.79
  -2  -3   4  804.92   36.50
   2  -3  -4  813.22   35.80
  -2  -3   4  857.31   35.70
  -2   3   4  844.92   35.80
   1  -3  -4  455.15   47.90
  -1  -3   4  465.25   20.60
  -1  -3   4  483.55   54.29
   1  -3  -4  462.55   20.80
  -1  -3   4  462.25   20.20
  -1   3   4  457.65   20.20
  -1   3   4  419.26   19.50
   0  -3   4 2439.16  104.99
   0  -3  -4 2614.04  106.19
   0  -3   4 2681.93  165.98
   0  -3  -4 2472.85  144.69
   0   3   4 2447.16  104.49
  -1  -3  -4  243.18   34.80
   1  -3   4  249.38   12.30
   1  -3   4  257.07   46.00
   1   3   4  301.77   13.50
  -1   3  -4  247.08   21.40
   2  -3   4  801.42   34.60
  -2  -3  -4  854.01   36.70
  -2  -3  -4  693.43   39.20
  -2  -3  -4  783.62   36.50
  -2   3  -4  769.82   48.20
  -2   3  -4  847.02   37.30
  -2   3  -4  839.62   46.10
   2   3   4  743.03   34.40
  -3  -3  -4  337.47   17.30
   3  -3   4  316.57   16.40
  -3  -3  -4  323.97   18.30
  -3  -3  -4  270.97   22.50
  -3  -3  -4  335.27   20.00
  -3  -3  -4  321.17   23.40
   3  -3   4  360.66   16.30
  -3   3  -4  270.67   37.10
   3   3   4  342.57   16.00
  -3   3  -4  329.17   18.30
  -3   3  -4  348.47   24.30
  -3   3  -4  351.96   17.20
  -3   3  -4  335.77   17.50
  -3   3  -4  316.77   17.10
   3   3   4  309.57   15.70
  -4  -3  -4  635.44   29.80
  -4  -3  -4  626.34   27.00
  -4  -3  -4  615.84   32.90
   4  -3   4  598.14   27.30
   4  -3   4  573.04   27.40
  -4  -3  -4  576.34   28.60
  -4  -3  -4  563.64   34.90
  -4   3  -4  608.44   35.90
  -4   3  -4  539.25   28.10
  -4   3  -4  544.15   29.50
   4   3   4  520.65   26.90
  -4   3  -4  586.74   28.10
  -4   3  -4  577.84   27.60
  -4   3  -4  576.64   25.20
   4   3   4  628.84   26.90
  -5  -3  -4  292.87   15.80
  -5  -3  -4  297.87   14.60
  -5  -3  -4  269.47   18.20
  -5  -3  -4  284.87   15.60
  -5  -3  -4  283.97   15.20
  -5   3  -4  274.57   18.70
  -5   3  -4  274.27   14.00
  -5   3  -4  253.07   15.30
  -5   3  -4  267.37   14.10
  -6  -4   4  169.58   10.40
  -6  -4   4  180.28    9.90
  -6  -4   4  168.38    9.20
  -6  -4   4  151.08   10.30
  -6   4   4  181.68   10.40
  -6   4   4  153.28    9.80
  -6   4   4  173.38    9.10
  -5  -4   4  528.95   27.90
  -5  -4   4  546.15   28.70
  -5  -4   4  551.34   28.70
  -5  -4   4  543.25   26.00
  -5   4   4  475.55   26.80
  -5   4   4  516.35   27.50
  -5   4   4  521.95   25.00
  -4  -4   4 1917.81   82.29
  -4  -4   4 1743.53   78.99
  -4  -4   4 1867.01   78.29
  -4  -4   4 1821.02   81.89
  -4  -4   4 1752.32   77.59
  -4  -4   4 1758.52   81.19
  -4   4   4 1811.22   78.29
  -4   4   4 1773.42   81.09
  -4   4   4 1750.02   76.79
  -4   4   4 1841.32   79.69
  -4   4   4 1790.82   80.19
  -3  -4   4  453.15   23.50
  -3  -4   4  365.66   39.30
  -3  -4   4  450.05   21.20
  -3  -4   4  420.26   22.40
  -3  -4   4  418.16   22.60
  -3  -4   4  384.86   18.80
  -3  -4   4  433.56   20.10
   3  -4  -4  377.26   19.40
  -3   4   4  396.16   18.00
  -3   4   4  353.06   39.80
  -3   4   4  436.66   23.00
  -3   4   4  393.86   18.80
   3   4  -4  368.26   24.90
  -3   4   4  418.06   19.60
  -3   4   4  407.06   20.40
  -3   4   4  458.25   22.50
  -2  -4   4  988.60   81.69
  -2  -4   4  965.10   42.80
  -2  -4   4  947.31   42.80
   2  -4  -4  978.80   42.50
  -2  -4   4 1018.60   42.20
  -2   4   4 1003.70   42.10
  -2   4   4  985.40   42.00
   1  -4  -4 2844.92  119.19
   1  -4  -4 2865.01  163.98
  -1  -4   4 2942.71  118.49
  -1  -4   4 2876.61  118.89
  -1  -4   4 2903.41  175.18
  -1   4   4 2670.13  117.39
  -1   4   4 2885.71  118.29
   0  -4  -4 3317.57  177.58
   0  -4   4 3145.09  130.89
   0  -4  -4 3175.38  131.79
   0  -4   4 3009.90  210.08
   0   4   4 3115.89  130.09
  -1  -4  -4   54.79   16.90
  -1  -4  -4   50.29    4.60
   1  -4   4   62.29    4.00
   1  -4   4   63.09   24.90
  -1   4  -4   46.80    9.10
  -2  -4  -4 1660.33   69.29
  -2  -4  -4 1583.04   69.89
   2  -4   4 1473.15   68.59
  -2  -4  -4 1731.33  115.59
   2  -4   4 1657.73   68.19
  -2   4  -4 1588.24   77.29
   2   4   4 1535.35   67.89
  -2   4  -4 1624.94   70.69
   3  -4   4 1211.48   55.09
  -3  -4  -4 1318.07   59.49
  -3  -4  -4 1310.77   64.39
  -3  -4  -4 1216.08   92.89
  -3  -4  -4 1222.58   55.59
  -3  -4  -4 1237.08   56.69
  -3  -4  -4 1324.67   56.79
   3  -4   4 1325.57   54.59
   3   4   4 1245.08   54.19
   3   4   4 1225.38   54.29
  -3   4  -4 1268.87   56.09
  -3   4  -4 1288.57   57.59
  -3   4  -4 1121.89   71.09
  -3   4  -4 1233.18   64.39
  -3   4  -4 1365.96   55.99
  -4  -4  -4  146.79   10.80
  -4  -4  -4  156.88   10.30
   4  -4   4  160.28    9.20
  -4  -4  -4  163.88   12.50
   4  -4   4  146.69    8.90
  -4  -4  -4  155.68   14.60
  -4  -4  -4  157.28   10.80
  -4   4  -4  138.79   13.10
  -4   4  -4  152.68   14.70
   4   4   4  156.98   10.40
  -4   4  -4  170.28   10.80
  -4   4  -4  144.19    9.30
   4   4   4  173.58    8.70
  -4   4  -4  169.48    9.40
  -4   4  -4  130.39    7.20
  -5  -4  -4  108.59    7.40
  -5  -4  -4  109.99    7.50
  -5  -4  -4  125.99    7.80
  -5  -4  -4  106.89    8.40
  -5  -4  -4  117.09   10.00
  -5   4  -4   98.29    7.20
  -5   4  -4  120.19    8.30
  -5   4  -4  107.99   10.10
  -5   4  -4  106.39    5.90
  -6  -5   4  351.16   18.10
  -6  -5   4  346.57   16.80
  -6   5   4  347.27   16.70
  -6   5   4  388.76   19.20
  -5  -5   4  485.35   25.80
  -5  -5   4  483.25   23.40
  -5  -5   4  471.95   25.10
  -5  -5   4  455.25   23.70
  -5  -5   4  465.65   25.60
  -5   5   4  440.96   22.40
  -5   5   4  460.25   24.70
  -5   5   4  439.26   24.30
  -4  -5   4  171.98   10.50
  -4  -5   4  171.78   12.80
  -4  -5   4  177.28   10.80
  -4  -5   4  177.08   12.10
  -4  -5   4  162.58   11.20
  -4  -5   4  161.28   10.00
  -4  -5   4  163.68   12.60
  -4  -5   4  168.58   12.80
  -4   5   4  160.78    9.70
  -4   5   4  169.78   10.70
  -4   5   4  168.28   12.50
  -4   5   4  164.88   11.90
  -3  -5   4   18.70    3.50
   3  -5  -4   14.50    2.50
  -3  -5   4   13.40    3.00
  -3   5   4   14.90    3.20
  -3   5   4   20.30    2.80
  -3   5   4   16.10    2.20
  -3   5   4   21.30    3.90
  -2  -5   4 1480.15  109.99
   2  -5  -4 1520.75   64.39
  -2  -5   4 1461.45   66.19
  -2  -5   4 1600.94   64.69
  -2   5   4 1512.85   63.79
   2   5  -4 1428.46   75.49
  -2   5   4 1549.74   65.09
  -2   5   4 1505.85   63.39
  -1  -5   4  229.28   11.50
  -1  -5   4  221.98   39.30
  -1  -5   4  214.88   10.90
   1  -5  -4  234.38   12.10
   1   5  -4  233.18   15.10
  -1   5   4  216.78   10.60
   0  -5  -4 1085.19   85.99
   0  -5   4 1030.90   44.70
   0  -5  -4 1062.49   45.90
   0  -5   4 1050.39   44.80
   0  -5   4  945.01   94.39
   0   5   4 1031.00   44.00
   0   5  -4 1118.59   48.50
   1  -5   4  821.02   38.20
   1  -5   4  902.21   37.70
  -1  -5  -4  984.90   79.29
   1  -5   4  790.62   93.29
  -1   5  -4  933.71   55.19
  -1   5  -4  766.82   37.80
   1   5   4  868.51   41.40
   1   5   4  861.91   37.50
  -2  -5  -4  113.49    9.20
  -2  -5  -4  131.29    8.10
  -2  -5  -4  131.79   28.40
  -2  -5  -4  114.89    6.60
   2  -5   4  133.99    7.50
   2  -5   4  122.09    7.90
   2   5   4  117.79    7.10
   2   5   4  137.39   10.60
  -2   5  -4  130.79   12.50
  -2   5  -4  129.49   27.10
   3  -5   4   51.39    4.40
  -3  -5  -4   43.80    5.90
   3  -5   4   45.10    4.30
  -3  -5  -4   44.30    4.80
  -3  -5  -4   42.90    4.90
  -3  -5  -4   43.70    7.40
  -3   5  -4   45.20    5.40
  -3   5  -4   46.40    4.60
  -3   5  -4   42.50    7.50
  -4  -5  -4  150.68    9.80
  -4  -5  -4  138.19    9.80
   4  -5   4  139.69    8.60
  -4  -5  -4  144.59   13.40
  -4  -5  -4  150.28    9.30
   4  -5   4  143.09    8.50
  -4  -5  -4  133.39   11.10
  -4   5  -4  147.19    9.30
   4   5   4  147.09    8.40
  -4   5  -4  126.99   12.90
   4   5   4  130.59    7.70
  -4   5  -4  141.39    8.70
  -4   5  -4  127.09   10.00
  -5  -5  -4  295.37   14.80
  -5  -5  -4  288.87   14.20
  -5  -5  -4  265.67   15.30
  -5  -5  -4  286.27   17.30
  -5  -5  -4  274.37   14.60
  -5   5  -4  282.27   13.30
  -5   5  -4  270.87   17.70
  -5   5  -4  288.97   14.10
  -6  -6   4    6.70    1.70
  -6  -6   4   10.20    1.60
  -6  -6   4    9.30    1.90
  -6   6   4    8.90    2.00
  -5  -6   4  243.68   16.40
  -5  -6   4  273.27   15.00
  -5  -6   4  263.67   16.30
  -5  -6   4  270.87   16.80
  -5  -6   4  272.47   14.90
  -5  -6   4  277.27   14.10
  -5   6   4  278.57   14.50
  -5   6   4  262.77   15.80
  -5   6   4  254.67   15.80
  -4  -6   4  337.47   20.10
  -4  -6   4  327.57   18.40
  -4  -6   4  313.77   17.30
  -4  -6   4  315.07   19.70
  -4  -6   4  337.67   17.80
  -4  -6   4  332.07   20.20
  -4  -6   4  333.37   18.50
  -4   6   4  326.17   19.20
  -4   6   4  339.17   19.90
  -4   6   4  330.27   17.70
  -4   6   4  319.97   16.40
  -3  -6   4  207.38   13.70
   3  -6  -4  204.58   11.30
  -3  -6   4  180.38   29.50
  -3  -6   4  205.08   14.00
  -3  -6   4  211.18   13.10
  -3  -6   4  188.18   11.40
   3   6  -4  185.38   10.90
  -3   6   4  195.98   11.60
  -3   6   4  213.18   14.00
  -3   6   4  196.68    9.50
  -3   6   4  204.88   10.80
  -3   6   4  211.68   13.40
   3   6  -4  200.38   24.80
  -2  -6   4  281.07   43.90
  -2  -6   4  298.17   15.60
   2  -6  -4  286.87   15.30
  -2  -6   4  305.07   15.50
  -2   6   4  315.97   16.00
  -2   6   4  339.07   20.00
  -2   6   4  303.17   14.20
   2   6  -4  334.27   20.70
  -1  -6   4    9.00    9.80
   1  -6  -4   10.20    1.90
  -1  -6   4   14.80    1.90
   1   6  -4   10.30    3.10
   1   6  -4   13.60    2.20
  -1   6   4    9.10    1.40
   0  -6   4  258.27   12.80
   0  -6   4  234.68   44.70
   0  -6   4  255.77   13.50
   0  -6  -4  280.37   40.80
   0  -6   4  301.27   13.70
   0   6   4  241.88   12.60
   0   6   4  279.37   14.20
   0   6   4  280.77   12.10
   0   6  -4  266.27   15.90
   0   6  -4  245.78   13.30
   1  -6   4  906.91  118.39
  -1  -6  -4  977.60   44.40
   1  -6   4 1035.80   43.00
   1  -6   4  985.10   42.90
   1  -6   4  969.50   43.70
  -1  -6  -4 1106.19   88.39
   1   6   4  969.00   48.30
   1   6   4  987.80   42.80
  -2  -6  -4 2686.83  161.28
  -2  -6  -4 2467.35  106.59
  -2  -6  -4 2305.37  103.79
   2  -6   4 2587.94  105.19
  -2  -6  -4 2643.44  109.89
  -2  -6  -4 2538.85  105.99
   2  -6   4 2349.67  105.79
   2   6   4 2543.45  110.39
  -2   6  -4 2442.16  113.69
   2   6   4 2479.45  104.89
   3  -6   4 2540.25  105.29
   3  -6   4 2476.85  105.99
  -3  -6  -4 2550.34  106.39
  -3  -6  -4 2477.85  109.89
  -3  -6  -4 2458.15  107.19
  -3  -6  -4 2470.75  151.28
  -3   6  -4 2500.45  129.29
   3   6   4 2468.25  104.79
  -3   6  -4 2517.45  107.09
  -3   6  -4 2525.55  106.79
  -3   6  -4 2509.05  108.49
  -4  -6  -4   40.50    4.60
  -4  -6  -4   34.20    5.20
   4  -6   4   34.80    4.80
  -4  -6  -4   33.80    4.00
   4  -6   4   40.90    3.80
  -4  -6  -4   46.10    6.80
  -4  -6  -4   39.70    4.00
   4   6   4   38.10    3.30
  -4   6  -4   38.80    6.40
   4   6   4   36.10    3.60
  -4   6  -4   40.50    3.90
  -5  -6  -4  382.76   18.60
  -5  -6  -4  388.66   19.10
  -5  -6  -4  416.66   19.40
  -5  -6  -4  389.06   21.00
  -5   6  -4  399.46   17.80
  -5   6  -4  421.86   18.90
  -6  -7   4  297.37   16.70
  -6   7   4  313.37   15.50
  -6   7   4  384.36   17.90
  -6   7   4  357.76   15.50
  -5  -7   4  136.79    8.20
  -5  -7   4  125.79    9.60
  -5  -7   4  120.49    8.50
  -5  -7   4  126.69    9.60
  -5  -7   4  130.29   10.10
  -5   7   4  130.19    7.70
  -5   7   4  119.49    9.20
  -5   7   4  129.09    9.30
  -5   7   4  120.49    8.10
  -4  -7   4 1384.26   62.99
  -4  -7   4 1411.66   65.09
  -4  -7   4 1424.86   61.99
  -4  -7   4 1379.56   64.49
  -4  -7   4 1453.65   62.59
  -4  -7   4 1423.76   62.19
  -4   7   4 1469.15   64.79
  -4   7   4 1390.66   61.99
  -4   7   4 1411.96   63.99
   4   7  -4 1339.87   60.59
  -4   7   4 1348.07   60.39
  -3  -7   4  201.98   12.90
  -3  -7   4  216.48   13.50
  -3  -7   4  213.88   14.40
  -3  -7   4  219.58   12.50
   3  -7  -4  211.88   12.20
  -3  -7   4  184.48   31.40
  -3  -7   4  232.48   15.20
  -3   7   4  207.78   10.30
   3   7  -4  236.88   19.60
  -3   7   4  220.38   11.40
   3   7  -4  216.68   12.20
  -3   7   4  235.38   14.90
  -3   7   4  224.18   12.60
  -2  -7   4  472.05   23.00
  -2  -7   4  487.85   23.30
   2  -7  -4  468.85   22.90
  -2  -7   4  433.46   57.99
  -2   7   4  502.65   24.90
  -2   7   4  496.55   23.40
   2   7  -4  515.75   29.00
   2   7  -4  467.45   22.60
  -2   7   4  469.15   21.40
   1  -7  -4  114.49    7.50
  -1  -7   4  114.09    7.90
  -1  -7   4  123.89    7.00
  -1  -7   4  102.39   29.90
  -1  -7   4  122.39    7.50
  -1  -7   4  120.29    7.20
  -1   7   4  102.09    6.20
  -1   7   4  115.89    6.50
   1   7  -4  114.69    7.30
   1   7  -4  130.69   11.00
   0  -7   4 2274.67   99.79
   0  -7  -4 2566.34  157.58
   0  -7   4 2232.78  176.08
   0  -7   4 2392.66   99.19
   0  -7  -4 2351.46  100.39
   0  -7   4 2388.86   99.39
   0   7  -4 2475.55  103.79
   0   7   4 2398.16   98.09
   0   7  -4 2260.47   99.89
   0   7   4 2334.47   98.89
  -1  -7  -4   39.40    4.30
   1  -7   4   48.60    3.80
  -1  -7  -4   43.20   17.60
   1  -7   4   38.20    3.80
   1  -7   4   40.60    3.40
   1   7   4   35.80    3.20
  -1   7  -4   38.80    9.80
   1   7   4   36.60    3.80
  -2  -7  -4 1786.12   78.19
  -2  -7  -4 1928.01   81.59
  -2  -7  -4 1905.71   77.69
  -2  -7  -4 1555.84  140.49
  -2  -7  -4 1680.83   75.39
   2  -7   4 1901.41   77.09
  -2   7  -4 1919.11   88.49
   2   7   4 1788.82   82.89
  -3  -7  -4  747.63   69.19
  -3  -7  -4  715.53   33.20
  -3  -7  -4  729.13   34.10
  -3  -7  -4  701.63   34.20
  -3  -7  -4  734.73   36.60
   3  -7   4  684.63   34.20
  -3  -7  -4  730.03   39.90
   3  -7   4  721.43   33.40
   3   7   4  703.83   32.00
  -3   7  -4  732.03   34.20
  -3   7  -4  719.83   34.00
  -3   7  -4  717.43   32.80
  -3   7  -4  719.53   39.50
  -4  -7  -4  171.68   10.70
  -4  -7  -4  156.88   11.80
  -4  -7  -4  177.68   10.10
  -4  -7  -4  174.48   13.70
   4  -7   4  160.08    9.50
  -4  -7  -4  158.98   10.50
   4   7   4  170.68    9.40
  -4   7  -4  195.98   10.40
   4   7   4  170.98    8.90
  -4   7  -4  158.78   13.40
  -4   7  -4  170.88   10.40
  -5  -7  -4  214.88   13.30
  -5  -7  -4  227.98   12.30
  -5  -7  -4  256.87   12.60
  -5  -7  -4  237.78   11.70
  -5   7  -4  201.88   13.60
  -5   7  -4  262.77   11.10
  -5   7  -4  261.27   11.90
  -5  -8   4  298.57   17.90
  -5  -8   4  307.07   15.50
  -5  -8   4  314.27   17.50
  -5  -8   4  298.77   17.10
  -5   8   4  329.47   16.00
  -5   8   4  326.47   17.10
  -5   8   4  307.27   17.10
  -4  -8   4  179.48   15.40
  -4  -8   4  201.58   15.20
  -4  -8   4  181.58   13.20
  -4  -8   4  217.68   12.30
  -4  -8   4  211.08   15.10
   4   8  -4  205.98   10.80
  -4   8   4  162.28   13.00
  -4   8   4  209.58   10.80
  -4   8   4  203.38   13.40
  -4   8   4  198.58   13.40
   3  -8  -4  797.82   37.30
  -3  -8   4  823.82   39.20
  -3  -8   4  814.72   40.90
  -3  -8   4  854.51   40.70
  -3  -8   4  834.82   37.80
  -3   8   4  808.12   36.20
  -3   8   4  833.62   35.20
  -3   8   4  796.72   37.80
  -3   8   4  818.72   40.40
  -3   8   4  824.22   39.70
   2  -8  -4  160.68    9.80
  -2  -8   4  143.79   34.10
  -2  -8   4  160.48   11.50
  -2  -8   4  165.08    9.70
   2   8  -4  176.38   15.00
  -2   8   4  154.88    9.80
  -2   8   4  169.08   11.20
   2   8  -4  146.39    9.20
  -1  -8   4 1844.52   77.59
  -1  -8   4 1887.71   77.19
  -1  -8   4 1573.24  142.59
  -1  -8   4 1754.32   76.89
   1  -8  -4 1854.41   78.29
  -1   8   4 1792.72   76.19
  -1   8   4 1857.91   76.49
   1   8  -4 2023.60   84.69
   1   8  -4 1772.42   77.69
   0  -8   4  157.78   10.50
   0  -8   4  159.38   10.10
   0  -8  -4  179.38   36.40
   0  -8   4  174.58    9.40
   0  -8   4  170.38    9.40
   0  -8   4  150.68   41.60
   0  -8   4  182.78    9.90
   0   8  -4  171.38    9.80
   0   8   4  172.58    9.00
   0   8  -4  164.18   19.60
   0   8   4  159.38    8.80
   0   8  -4  169.38   12.50
   1  -8   4   38.10    3.90
  -1  -8  -4   40.80    5.20
   1  -8   4   40.30    3.70
  -1  -8  -4   42.20   19.00
   1  -8   4   35.30    3.80
  -1  -8  -4   39.90    4.40
   1  -8   4   42.80    5.00
   1   8   4   48.20    3.60
  -1   8  -4   34.90    9.90
   2  -8   4 2305.27  103.99
   2  -8   4 2451.65  103.09
  -2  -8  -4 2445.16  107.49
  -2  -8  -4 2567.04  108.19
  -2  -8  -4 2679.23  165.28
  -2   8  -4 2333.27  104.59
   2   8   4 2362.46  102.69
   3  -8   4  841.32   38.30
  -3  -8  -4  840.12   40.10
  -3  -8  -4  949.11   47.40
  -3  -8  -4  912.21   77.29
  -3  -8  -4  865.31   45.30
   3  -8   4  866.91   39.40
   3   8   4  869.11   38.00
  -3   8  -4  880.51   40.20
  -3   8  -4  779.12   68.59
  -3   8  -4  810.92   50.09
  -3   8  -4  843.82   38.70
  -3   8  -4  919.81   40.20
  -4  -8  -4  591.54   32.20
  -4  -8  -4  645.84   28.90
  -4  -8  -4  640.64   29.70
  -4  -8  -4  645.94   31.50
  -4   8  -4  629.04   29.00
   4   8   4  679.83   28.60
  -4   8  -4  584.74   32.00
   4   8   4  623.94   27.70
  -5  -8  -4   49.90    3.50
  -5  -8  -4   51.59    3.90
  -5   8  -4   51.39    3.10
  -5   8  -4   57.19    3.70
  -5  -9   4   10.30    2.40
  -5  -9   4    7.00    1.90
  -5  -9   4   10.90    2.30
  -5  -9   4   12.10    2.20
  -5   9   4   10.00    1.90
  -5   9   4    8.30    1.40
  -5   9   4    9.70    2.10
  -5   9   4    7.30    2.50
  -4  -9   4  754.92   35.90
  -4  -9   4  802.22   37.50
  -4  -9   4  758.32   38.00
   4   9  -4  776.12   34.50
  -4   9   4  802.82   36.40
  -4   9   4  756.92   37.40
  -3  -9   4 3510.25  147.79
   3  -9  -4 3509.65  147.69
  -3  -9   4 3320.57  195.68
  -3   9   4 3532.75  145.09
   3   9  -4 3605.74  147.29
  -3   9   4 3572.04  148.09
  -2  -9   4  258.07   48.30
  -2  -9   4  297.67   15.40
  -2  -9   4  294.57   17.50
   2  -9  -4  284.17   15.60
  -2   9   4  288.27   13.80
  -2   9   4  311.07   17.30
   2   9  -4  269.77   14.90
   2   9  -4  305.77   21.60
  -2   9   4  289.87   15.70
   2   9  -4  288.37   25.90
  -1  -9   4  764.52   34.60
  -1  -9   4  667.53   86.79
  -1  -9   4  779.82   34.30
  -1  -9   4  751.62   33.80
   1  -9  -4  777.92   35.30
   1   9  -4  752.22   35.40
  -1   9   4  754.12   33.10
  -1   9   4  772.52   33.50
   1   9  -4  778.72   34.80
   1   9  -4  811.62   41.00
   1   9  -4  774.72   49.50
   0  -9   4  878.11   40.20
   0  -9  -4  991.40   95.59
   0  -9   4  894.21   39.80
   0  -9   4  900.51   39.90
   0  -9  -4  851.41   40.80
   0   9  -4  899.11   40.40
   0   9  -4  885.61   41.00
   0   9   4  904.21   39.20
   0   9   4  926.91   39.30
   0   9  -4  892.31   57.69
  -1  -9  -4 1978.50   88.69
   1  -9   4 2033.10   88.39
  -1  -9  -4 2237.08  152.28
   1  -9   4 1957.80   87.89
   1   9   4 2017.80   86.69
   1   9   4 2077.89   86.69
  -1   9  -4 2036.50   88.49
   1   9   4 2124.29   94.49
  -2  -9  -4 2337.97  152.88
   2  -9   4 2028.60   89.09
  -2  -9  -4 2149.08   96.59
   2  -9   4 2002.20   90.09
  -2  -9  -4 2110.59   93.59
  -2   9  -4 2050.79   90.69
  -2   9  -4 2025.00   90.19
   2   9   4 2134.19   88.79
  -3  -9  -4  514.75   25.40
   3  -9   4  513.25   25.20
  -3  -9  -4  510.95   27.60
   3  -9   4  515.65   24.50
  -3  -9  -4  523.55   29.60
  -3  -9  -4  541.55   56.79
  -3  -9  -4  546.35   24.70
  -3  -9  -4  512.75   26.10
   3   9   4  540.15   24.00
  -3   9  -4  522.15   24.60
  -3   9  -4  544.85   26.10
  -4  -9  -4   43.70    5.00
   4  -9   4   42.10    3.50
  -4  -9  -4   40.30    4.00
  -4  -9  -4   43.50    3.50
  -4  -9  -4   41.90    3.90
  -4   9  -4   42.70    4.00
   4   9   4   43.20    3.20
  -4   9  -4   44.60    4.00
  -5 -10   4   78.99    5.60
  -5 -10   4   85.69    6.20
  -5 -10   4   82.69    6.70
  -5 -10   4   77.59    5.60
  -5  10   4   78.29    6.00
  -5  10   4   85.79    5.40
  -4 -10   4  482.25   26.50
  -4 -10   4  459.65   24.90
  -4 -10   4  487.35   24.70
  -4  10   4  461.05   23.60
  -4  10   4  467.55   24.40
  -4  10   4  480.75   24.70
   4  10  -4  503.65   22.20
   3 -10  -4   47.50    5.00
  -3 -10   4   38.00    4.90
  -3 -10   4   51.79    5.90
  -3 -10   4   38.30   17.70
  -3 -10   4   47.20    6.00
   3  10  -4   47.40    4.20
  -3  10   4   41.20    5.10
  -3  10   4   42.20    4.40
  -3  10   4   41.50    3.00
  -3  10   4   39.60    5.30
  -2 -10   4  412.26   21.10
  -2 -10   4  386.66   71.39
  -2 -10   4  414.06   23.20
   2 -10  -4  431.36   21.60
  -2  10   4  429.56   19.40
  -2  10   4  423.96   21.50
  -2  10   4  437.66   22.80
  -2  10   4  451.05   23.90
   2  10  -4  404.06   20.80
  -1 -10   4  698.93   32.00
   1 -10  -4  702.33   33.70
   1  10  -4  771.62   33.40
  -1  10   4  725.03   31.50
   1  10  -4  694.93   55.49
  -1  10   4  721.43   34.50
  -1  10   4  707.43   31.70
   1  10  -4  738.53   40.00
   0 -10   4  383.16   18.70
   0 -10   4  323.17   68.99
   0 -10  -4  353.06   19.60
   0 -10   4  422.06   19.20
   0 -10   4  363.56   18.70
   0 -10  -4  419.56   67.19
   0  10   4  367.96   17.90
   0  10  -4  395.56   19.30
   0  10   4  394.16   18.00
   0  10  -4  367.26   19.60
   0  10  -4  408.26   34.90
   1 -10   4   96.89    8.40
  -1 -10  -4   94.29    7.60
   1 -10   4   93.69    7.00
   1 -10   4  101.89    6.80
  -1  10  -4  103.79    7.50
   1  10   4   92.49    6.00
  -1  10  -4   95.49   17.00
  -1  10  -4   99.19    6.60
   1  10   4  100.79    6.20
   2 -10   4  193.48   13.90
  -2 -10  -4  204.38   39.70
   2 -10   4  193.68   10.80
  -2 -10  -4  184.98   13.40
   2 -10   4  182.38   11.30
  -2  10  -4  171.98   24.60
   2  10   4  196.08   10.30
  -2  10  -4  193.38   11.50
   2  10   4  198.98   11.50
  -2  10  -4  196.28   11.80
  -3 -10  -4  797.72   38.30
   3 -10   4  809.62   35.60
  -3 -10  -4  813.92   35.70
   3 -10   4  735.63   39.10
  -3 -10  -4  801.92   34.60
   3  10   4  803.92   34.40
  -3  10  -4  784.42   34.80
  -3  10  -4  735.33   36.20
  -3  10  -4  734.33   35.60
   4 -10   4   33.50    3.80
  -4 -10  -4   32.20    3.10
  -4 -10  -4   34.80    3.60
  -4 -10  -4   31.50    3.60
  -4  10  -4   35.10    3.20
   4  10   4   34.90    2.60
  -4  10  -4   35.40    3.30
  -5 -11   4  700.13   31.70
  -5 -11   4  696.23   31.70
  -5 -11   4  693.03   31.00
  -5  11   4  786.02   32.60
  -4 -11   4 1342.47   60.99
  -4 -11   4 1346.07   59.79
  -4 -11   4 1327.07   58.49
  -4  11   4 1295.87   58.29
   4  11  -4 1363.96   56.99
  -4  11   4 1342.37   58.69
  -3 -11   4  596.84   28.80
  -3 -11   4  564.84   30.40
  -3 -11   4  588.74   29.40
   3 -11  -4  585.84   27.60
  -3 -11   4  505.65   62.39
  -3  11   4  552.64   29.10
  -3  11   4  537.85   27.10
  -3  11   4  580.84   24.80
  -3  11   4  588.14   28.90
   3  11  -4  581.44   26.50
   2 -11  -4  881.11   40.60
  -2 -11   4  889.51   42.20
  -2 -11   4  832.52   39.80
  -2  11   4  870.81   37.80
  -2  11   4  852.01   40.00
  -2  11   4  885.41   41.40
  -2  11   4  873.51   42.30
   2  11  -4  890.21   39.40
   1 -11  -4  541.35   26.10
  -1 -11   4  526.85   23.90
  -1 -11   4  468.75   76.29
   1  11  -4  490.05   39.60
  -1  11   4  544.65   26.60
   1  11  -4  519.45   25.70
  -1  11   4  526.45   23.40
  -1  11   4  533.95   23.90
   1  11  -4  560.54   25.40
   0 -11  -4  583.84   28.70
   0 -11   4  584.64   27.40
   0 -11   4  589.04   27.50
   0  11  -4  603.64   27.70
   0  11  -4  582.34   44.90
   0  11   4  598.04   26.50
   0  11  -4  573.74   28.30
   0  11   4  594.64   26.60
   1 -11   4  467.55   26.20
  -1 -11  -4  487.65   26.80
   1 -11   4  461.45   29.50
  -1 -11  -4  516.45   28.40
   1 -11   4  484.75   24.00
  -1 -11  -4  563.14   72.79
   1  11   4  518.85   23.00
  -1  11  -4  504.05   23.20
  -1  11  -4  515.65   24.30
  -1  11  -4  439.06   57.39
   1  11   4  497.55   22.90
  -1  11  -4  496.45   24.60
   2 -11   4   14.70    3.20
   2 -11   4   13.20    2.40
  -2 -11  -4   10.50    2.90
  -2  11  -4   14.40    2.40
   2  11   4   10.20    2.00
  -2  11  -4   10.30    2.60
   2  11   4   16.10    2.20
  -2  11  -4   10.40    2.10
   3 -11   4   54.19    7.40
  -3 -11  -4   62.89    7.30
   3 -11   4   59.39    4.80
  -3 -11  -4   69.79    5.80
  -3  11  -4   63.79    4.50
   3  11   4   62.39    4.90
  -3  11  -4   65.49    5.10
  -3  11  -4   61.79    5.50
   3  11   4   62.19    4.30
   4 -11   4 1173.58   51.19
  -4 -11  -4 1192.58   51.69
   4  11   4 1235.28   50.49
  -4 -12   4  104.59    7.00
  -4 -12   4  111.79    8.60
  -4 -12   4  102.09    7.30
  -4 -12   4  112.39    7.40
  -4  12   4  104.19    6.90
   4  12  -4  112.79    6.60
   3 -12  -4  256.27   14.40
  -3 -12   4  252.37   15.90
  -3 -12   4  225.58   13.80
   3  12  -4  225.28   12.10
  -3  12   4  230.38   10.80
  -3  12   4  231.18   13.90
  -3  12   4  202.78   12.80
   2 -12  -4  272.67   15.20
  -2 -12   4  252.77   15.30
  -2 -12   4  285.97   62.29
  -2  12   4  249.08   15.00
   2  12  -4  262.77   14.00
  -2  12   4  250.37   16.00
  -2  12   4  260.47   13.30
  -2  12   4  264.77   15.50
  -1 -12   4  914.11   41.30
   1 -12  -4  889.51   40.00
  -1 -12   4  864.21   37.30
  -1 -12   4  738.83  101.89
  -1  12   4  867.41   37.50
  -1  12   4  835.42   36.80
  -1  12   4  854.71   40.00
   1  12  -4  833.02   39.10
   1  12  -4  898.01   38.80
   0 -12  -4  395.76   20.90
   0 -12   4  419.56   19.60
   0  12  -4  351.16   35.00
   0  12   4  407.86   18.70
   0  12  -4  430.36   19.90
   0  12   4  391.46   18.70
   0  12  -4  394.26   20.30
  -1 -12  -4 1930.71   91.19
  -1 -12  -4 2209.88  169.28
  -1 -12  -4 2047.70   91.09
   1 -12   4 2019.80   88.89
   1 -12   4 2120.99   90.89
  -1  12  -4 1966.40   86.89
   1  12   4 1989.60   86.29
  -1  12  -4 2038.60   86.49
   1  12   4 2121.99   87.89
  -2 -12  -4 1098.59   50.79
   2 -12   4 1071.29   50.49
   2 -12   4 1048.80   47.70
   2  12   4 1027.90   46.70
   2  12   4 1102.49   46.70
   2  12   4 1066.79   46.70
  -2  12  -4 1046.80   49.30
  -2  12  -4 1113.29   47.60
  -2  12  -4 1109.09   47.90
  -2  12  -4 1114.69   48.90
  -3 -12  -4  399.56   19.80
  -3 -12  -4  391.56   21.50
  -3  12  -4  383.76   19.90
  -3  12  -4  405.96   18.80
   3  12   4  421.86   18.60
  -3  12  -4  404.86   18.80
   4 -12   4  297.17   13.60
  -4 -12  -4  274.17   14.70
  -4  12  -4  335.27   14.90
   4  12   4  311.87   13.50
  -4 -13   4  169.08   10.70
  -4 -13   4  185.68    9.60
  -4 -13   4  157.88    9.20
  -4  13   4  155.18   10.30
  -4  13   4  194.78    9.60
   4  13  -4  179.68    8.90
  -3 -13   4  336.27   17.40
  -3 -13   4  326.37   17.50
  -3 -13   4  321.47   18.80
  -3 -13   4  336.47   17.50
  -3  13   4  325.77   14.60
  -3  13   4  332.37   17.50
  -3  13   4  300.77   16.70
   3  13  -4  329.27   15.80
   2 -13  -4 1121.49   49.80
  -2 -13   4 1093.99   52.89
  -2 -13   4 1163.38   50.49
  -2 -13   4 1160.88   50.99
  -2  13   4 1065.39   49.00
   2  13  -4 1049.79   48.10
  -2  13   4 1073.99   47.00
  -2  13   4 1097.79   50.09
  -1 -13   4  326.87   15.10
  -1 -13   4  320.67   18.30
   1 -13  -4  327.07   17.80
  -1  13   4  321.47   14.80
  -1  13   4  342.57   17.90
   1  13  -4  332.77   16.90
   1  13  -4  331.17   16.60
  -1  13   4  324.17   15.60
   0 -13   4 1051.89   46.90
   0 -13  -4 1076.09   49.00
   0  13   4 1062.09   46.50
   0  13  -4 1097.89   47.30
   0  13   4 1108.99   46.40
   0  13  -4 1071.09   48.10
  -1 -13  -4  289.97   16.10
   1 -13   4  285.87   14.60
  -1 -13  -4  278.77   17.30
   1  13   4  281.37   13.80
  -1  13  -4  287.17   15.10
   1  13   4  269.17   13.70
  -1  13  -4  278.27   13.50
   2 -13   4  575.04   27.40
  -2 -13  -4  591.54   30.00
  -2 -13  -4  643.44   28.90
   2  13   4  622.84   27.10
  -2  13  -4  570.84   28.70
  -2  13  -4  600.94   28.30
  -2  13  -4  589.34   27.40
   2  13   4  579.24   26.50
  -3 -13  -4 1040.10   45.70
  -3 -13  -4 1001.40   45.80
   3 -13   4 1073.99   44.90
   3  13   4 1082.19   44.40
  -3  13  -4 1028.00   45.90
  -3  13  -4 1036.60   44.10
  -4 -14   4  211.78    9.70
  -4 -14   4  193.58    9.60
  -4 -14   4  166.38   10.50
   4  14  -4  205.18    9.70
  -4  14   4  184.58    9.50
  -3 -14   4  169.68   11.20
  -3 -14   4  177.38   10.20
   3  14  -4  176.18    8.90
  -3  14   4  163.18    9.70
  -3  14   4  169.08    8.10
  -3  14   4  168.08    9.60
  -2 -14   4   38.80    4.50
   2 -14  -4   54.49    5.70
  -2 -14   4   42.70    5.50
  -2 -14   4   47.00    4.70
  -2  14   4   53.99    4.70
  -2  14   4   49.30    4.50
   2  14  -4   45.40    3.80
  -2  14   4   45.90    3.30
   1 -14  -4  516.05   24.70
  -1 -14   4  473.75   25.20
  -1  14   4  464.95   26.10
  -1  14   4  495.25   22.10
   1  14  -4  495.15   23.00
   1  14  -4  496.55   23.20
   0 -14   4  359.36   19.70
   0 -14   4  380.26   17.90
   0 -14  -4  391.86   20.10
   0  14  -4  379.16   18.90
   0  14  -4  394.36   18.30
   0  14   4  390.96   17.50
   0  14   4  377.06   17.70
  -1 -14  -4  359.56   23.00
  -1 -14  -4  395.76   20.70
   1 -14   4  384.06   18.90
   1  14   4  412.16   18.50
   1  14   4  413.76   18.40
  -1  14  -4  435.16   22.50
  -1  14  -4  404.66   19.50
   2 -14   4   41.60    4.50
  -2 -14  -4   39.90    4.00
  -2 -14  -4   39.90    4.30
  -2  14  -4   46.90    4.60
   2  14   4   38.00    3.80
  -2  14  -4   40.20    4.00
  -2  14  -4   42.40    4.50
   3 -14   4   80.79    4.60
  -3 -14  -4   84.29    5.10
  -3  14  -4   67.39    4.90
   3  14   4   84.79    4.40
  -3 -15   4   47.90    3.90
  -3 -15   4   44.10    4.80
  -3 -15   4   44.80    3.50
  -3  15   4   53.89    3.90
   3  15  -4   54.89    3.40
  -2 -15   4  226.88   12.60
  -2 -15   4  230.28   14.10
  -2  15   4  219.88   12.10
  -2  15   4  244.98   10.80
  -2  15   4  220.38   11.60
   2  15  -4  233.38   11.50
  -1 -15   4   98.09    7.00
   1  15  -4  105.29    6.50
  -1  15   4  108.79    6.10
   1  15  -4  125.99    6.90
  -1  15   4  116.29    7.80
   0 -15  -4  218.48   12.80
   0 -15   4  217.58   11.30
   0  15   4  198.68    9.50
   0  15  -4  173.88   11.70
   0  15   4  192.88   10.00
   0  15  -4  207.68   10.90
   1 -15   4  275.07   13.60
  -1 -15  -4  281.47   15.90
  -1  15  -4  276.37   15.10
  -1  15  -4  301.17   14.40
   1  15   4  285.77   13.30
   1  15   4  292.17   13.50
  -1  15  -4  295.37   15.90
   2 -15   4   32.10    2.60
  -2 -15  -4   34.40    3.40
  -2  15  -4   33.00    3.20
   2  15   4   35.90    2.50
  -2  15  -4   42.20    2.90
  -2 -16   4  490.05   25.50
  -2  16   4  495.65   23.50
  -2  16   4  550.84   22.00
   2  16  -4  514.35   23.80
  -1 -16   4  171.88   11.10
   1  16  -4  178.98    8.80
   1  16  -4  177.88    8.90
  -1  16   4  175.98    8.50
  -1  16   4  166.28    9.40
   0 -16  -4   18.40    2.60
   0 -16   4   18.20    1.90
   0  16  -4   19.70    2.40
   0  16   4   17.90    1.80
   0  16  -4   19.90    2.10
   0  16  -4   17.90    2.40
  -1 -16  -4   23.70    2.60
   1 -16   4   24.50    2.10
  -1  16  -4   22.80    2.40
  -1  16  -4   21.70    2.30
   1  16   4   22.60    1.70
  -1  16  -4   18.20    2.30
  -1 -17   4  529.85   27.70
  -1  17   4  620.34   26.60
  -1  17   4  625.14   26.00
   1  17  -4  623.34   25.40
   0 -17   4   61.49    5.80
   0  17  -4   66.69    3.80
   0  17  -4   57.29    4.00
   0  17  -4   59.69    4.50
   0  17   4   70.29    3.70
  -6   0   5   32.60    3.30
  -6   0   5   40.40    3.10
  -6   0   5   36.30    3.60
  -5   0   5   99.29    8.50
  -5   0   5   99.19    8.20
  -5   0   5  100.79    8.30
  -4   0   5  221.68   11.90
  -4   0   5  209.98   14.20
  -4   0   5  197.28   13.70
  -4   0   5  179.38   11.50
  -4   0   5  199.18   13.00
  -3   0   5   22.40   10.70
  -3   0   5   32.00    4.60
  -3   0   5   30.40    3.20
   3   0  -5   24.10    2.50
  -3   0   5   24.10    3.50
  -3   0   5   31.70    4.20
  -3   0   5   22.80    3.10
  -3   0   5   19.80    3.80
   2   0  -5   10.10    1.60
  -2   0   5    7.50    2.50
  -2   0   5    6.40    1.60
  -2   0   5    3.60    1.60
  -1   0   5  525.85   22.70
  -1   0   5  543.95   23.50
  -1   0   5  513.95   23.50
   1   0  -5  491.85   23.50
   0   0   5 3582.64  137.39
   0   0  -5 3377.46  137.69
   0   0  -5 3028.60  186.28
   0   0   5 3261.77  137.69
   1   0   5  878.81   37.60
  -1   0  -5  816.62   77.19
   1   0   5  879.11   37.10
  -2   0  -5 1478.05   62.09
  -2   0  -5 1478.85   75.29
   2   0   5 1407.66   60.29
   2   0   5 1383.96   59.69
  -2   0  -5 1267.37   59.89
  -3   0  -5   13.10    2.60
  -3   0  -5    9.90    2.60
   3   0   5    7.80    2.00
  -3   0  -5    9.10    5.50
   3   0   5    8.80    2.10
  -3   0  -5    7.80    2.00
  -4   0  -5  167.68   11.00
  -4   0  -5  173.58    9.90
  -4   0  -5  166.48   10.30
   4   0   5  172.68    9.50
  -4   0  -5  168.18   16.10
   4   0   5  167.58   14.20
  -5   0  -5  786.72   40.40
  -5   0  -5  867.81   37.00
  -5   0  -5  822.42   35.10
  -6  -1   5  286.07   13.80
  -6  -1   5  256.87   13.70
  -6   1   5  256.17   13.90
  -6   1   5  270.77   12.70
  -6   1   5  239.98   12.60
  -5  -1   5  371.26   18.90
  -5  -1   5  315.17   16.30
  -5  -1   5  314.07   18.60
  -5  -1   5  310.67   18.50
  -5   1   5  346.47   19.30
  -5   1   5  321.77   16.50
  -5   1   5  322.77   18.20
  -5   1   5  305.67   18.00
  -4  -1   5  745.53   34.00
  -4  -1   5  743.33   37.00
  -4  -1   5  791.22   37.20
  -4  -1   5  741.53   34.70
  -4  -1   5  719.43   36.00
  -4  -1   5  730.13   34.10
  -4   1   5  712.63   33.80
  -4   1   5  723.63   34.10
  -4   1   5  806.12   37.80
  -4   1   5  691.83   36.00
  -3  -1   5 2802.52  115.99
  -3  -1   5 2795.32  114.89
  -3  -1   5 2717.93  114.69
  -3  -1   5 2677.33  113.39
  -3  -1   5 2715.23  116.79
  -3  -1   5 2606.34  148.79
   3  -1  -5 2361.76  112.99
  -3  -1   5 2755.82  117.99
  -3  -1   5 2865.61  118.49
   3   1  -5 2478.15  113.29
  -3   1   5 2788.32  116.69
  -3   1   5 2742.43  115.09
  -3   1   5 2700.03  113.09
  -3   1   5 2879.71  118.39
  -3   1   5 2719.63  114.59
  -3   1   5 2934.31  118.99
   2  -1  -5  841.12   37.60
  -2  -1   5  881.21   38.30
  -2  -1   5  920.71   41.80
  -2  -1   5  861.71   38.50
  -2  -1   5  853.71   37.70
  -2   1   5  864.41   37.90
   2   1  -5  832.52   37.80
  -2   1   5  945.61   41.90
  -2   1   5  887.81   38.40
  -1  -1   5 3168.68  126.29
  -1  -1   5 3004.00  126.49
   1  -1  -5 2866.51  125.79
  -1   1   5 2885.91  126.09
   1   1  -5 2964.90  125.99
  -1   1   5 3172.18  125.39
  -1   1   5 3155.48  126.19
   0  -1   5 1370.06   57.39
   0  -1   5 1426.36   58.09
   0  -1  -5 1364.26   57.59
   0  -1  -5 1308.17  100.49
   0   1   5 1348.97   57.19
   0   1  -5 1362.76   57.79
   0   1   5 1335.27   57.69
   1  -1   5 4356.56  197.28
   1  -1   5 4927.01  196.98
  -1  -1  -5 4656.93  255.07
  -1  -1  -5 4775.02  198.38
   1   1   5 4782.52  197.18
   1   1   5 4719.33  196.68
  -1   1  -5 5125.89  199.08
  -2  -1  -5  848.52   38.80
   2  -1   5  918.01   37.50
  -2  -1  -5  882.41   39.10
  -2  -1  -5  764.12   36.70
   2  -1   5  868.01   38.00
  -2  -1  -5  907.51   39.50
  -2  -1  -5  877.51   50.29
   2   1   5  858.81   37.60
  -2   1  -5  738.33   38.20
  -2   1  -5  862.31   53.59
  -2   1  -5  897.21   39.80
   2   1   5  818.52   37.10
  -3  -1  -5  374.16   19.60
  -3  -1  -5  385.66   20.50
  -3  -1  -5  363.56   19.60
   3  -1   5  395.66   18.60
   3  -1   5  368.96   18.90
  -3  -1  -5  397.76   19.60
  -3  -1  -5  388.46   27.00
  -3   1  -5  421.56   20.10
  -3   1  -5  351.16   31.50
   3   1   5  401.66   18.80
  -3   1  -5  374.26   20.60
  -3   1  -5  408.36   27.50
  -3   1  -5  377.26   19.50
   3   1   5  408.16   18.60
  -4  -1  -5  134.89    9.70
   4  -1   5  154.08    8.80
   4  -1   5  157.08    8.70
  -4  -1  -5  132.89    9.10
  -4  -1  -5  158.68    8.90
  -4  -1  -5  175.48   16.20
   4   1   5  143.79    8.40
  -4   1  -5  133.79    8.90
  -4   1  -5  142.69   14.10
  -4   1  -5  155.48    9.20
   4   1   5  152.58    8.60
  -5  -1  -5  547.45   23.60
  -5  -1  -5  473.75   21.10
  -5   1  -5  429.96   22.30
  -5   1  -5  436.26   25.40
  -5   1  -5  486.75   21.10
  -6  -2   5  297.57   17.40
  -6  -2   5  353.66   16.70
  -6   2   5  353.56   15.70
  -6   2   5  328.17   16.90
  -5  -2   5  543.25   24.90
  -5  -2   5  539.05   27.50
  -5  -2   5  532.45   27.10
  -5  -2   5  508.05   24.70
  -5  -2   5  552.14   27.50
  -5   2   5  522.25   26.20
  -5   2   5  528.65   25.00
  -5   2   5  473.95   26.20
  -5   2   5  559.24   28.50
  -4  -2   5  419.46   23.70
  -4  -2   5  423.96   23.20
  -4  -2   5  423.26   21.40
  -4  -2   5  413.06   20.80
  -4  -2   5  419.86   20.40
  -4   2   5  420.46   20.90
  -4   2   5  439.76   23.10
  -4   2   5  382.26   20.40
  -4   2   5  391.06   22.00
  -3  -2   5  735.23   33.20
  -3  -2   5  793.32   34.50
  -3  -2   5  685.83   60.89
  -3  -2   5  828.92   37.70
   3  -2  -5  680.03   32.70
  -3  -2   5  792.12   37.60
  -3  -2   5  732.13   34.40
  -3  -2   5  750.32   37.30
  -3   2   5  811.02   62.59
   3   2  -5  680.43   33.10
  -3   2   5  775.62   36.10
  -3   2   5  796.52   35.80
  -3   2   5  780.82   35.00
  -3   2   5  753.62   37.80
  -3   2   5  741.13   32.80
  -3   2   5  799.82   37.60
  -2  -2   5  401.96   17.80
  -2  -2   5  381.06   18.00
  -2  -2   5  381.66   20.60
  -2  -2   5  362.56   17.00
  -2  -2   5  408.36   51.19
  -2   2   5  352.66   17.50
  -2   2   5  365.86   17.10
  -2   2   5  358.76   18.30
   2   2  -5  336.27   17.20
  -1  -2   5  112.89    6.80
  -1  -2   5  113.79    7.20
  -1  -2   5  131.99   30.70
  -1  -2   5  123.79    6.50
  -1   2   5  120.19    6.70
  -1   2   5  114.39    6.00
  -1   2   5  122.79    6.80
   1   2  -5  114.09    6.70
   0  -2  -5 1213.48   53.09
   0  -2  -5 1295.57   98.49
   0  -2   5 1254.87   53.09
   0  -2   5 1365.86  115.69
   0  -2   5 1247.88   53.69
   0  -2   5 1193.98   54.19
   0   2   5 1269.87   52.79
   0   2   5 1208.08   53.19
   0   2  -5 1232.18   53.49
   1  -2   5   27.30    2.80
   1  -2   5   25.60    2.60
  -1  -2  -5   21.30    2.30
  -1   2  -5   20.10    2.50
   1   2   5   20.60    2.30
   1   2   5   28.50    2.60
  -1   2  -5   17.80    6.10
  -1   2  -5   21.10    3.20
   2  -2   5   33.30    3.40
   2  -2   5   28.90    3.00
  -2  -2  -5   28.60    3.50
  -2  -2  -5   23.80    3.30
   2   2   5   29.60    2.80
   2   2   5   22.30    2.70
  -3  -2  -5  379.46   19.50
  -3  -2  -5  383.76   19.10
   3  -2   5  363.26   18.70
  -3  -2  -5  368.46   20.00
  -3  -2  -5  362.16   19.50
  -3  -2  -5  413.96   27.70
   3  -2   5  382.96   18.50
   3   2   5  395.96   18.30
  -3   2  -5  417.96   27.70
   3   2   5  372.36   18.30
  -3   2  -5  373.26   32.50
  -3   2  -5  356.06   20.30
  -3   2  -5  384.76   19.80
  -4  -2  -5  246.68   12.20
  -4  -2  -5  262.57   20.10
   4  -2   5  234.08   12.40
  -4  -2  -5  235.98   13.60
   4  -2   5  220.68   12.00
  -4  -2  -5  230.58   13.20
  -4  -2  -5  229.08   13.00
  -4   2  -5  212.18   13.80
   4   2   5  217.38   11.80
  -4   2  -5  239.28   18.90
  -4   2  -5  234.08   10.50
  -4   2  -5  238.38   12.90
   4   2   5  243.88   12.20
  -5  -2  -5  127.59    7.40
  -5  -2  -5  120.09    6.70
  -5  -2  -5  124.09    9.70
  -5   2  -5  122.39    9.80
  -5   2  -5  107.09    6.30
  -6  -3   5  222.68   12.40
  -6  -3   5  236.28   11.80
  -6   3   5  219.28   12.20
  -6   3   5  222.98   11.10
  -5  -3   5  485.95   24.70
  -5  -3   5  488.45   25.00
  -5  -3   5  456.75   22.30
  -5  -3   5  477.45   25.10
  -5   3   5  492.45   25.40
  -5   3   5  450.15   22.60
  -4  -3   5 3768.32  152.78
  -4  -3   5 3565.44  149.79
  -4  -3   5 3516.95  150.18
  -4  -3   5 3633.94  152.08
  -4   3   5 3469.25  148.59
  -4   3   5 3339.97  150.58
  -3  -3   5  919.81   40.70
  -3  -3   5  821.82   37.90
  -3  -3   5  931.61   42.20
  -3  -3   5  893.71   42.40
  -3  -3   5  866.81   38.70
  -3  -3   5  893.61   42.00
  -3   3   5  897.11   39.60
  -3   3   5  837.92   37.30
  -3   3   5  898.21   40.90
  -3   3   5  831.92   45.60
   3   3  -5  848.82   46.60
   3   3  -5  789.32   37.90
  -2  -3   5  609.44   29.90
  -2  -3   5  610.64   66.09
   2  -3  -5  576.44   26.40
  -2  -3   5  595.04   26.30
  -2  -3   5  606.64   27.10
  -2  -3   5  596.74   27.30
  -2   3   5  604.54   26.20
  -2   3   5  587.94   26.60
  -2   3   5  598.34   27.80
   2   3  -5  547.25   26.40
   1  -3  -5 1430.36   69.19
  -1  -3   5 1659.33   66.99
  -1  -3   5 1679.33  127.29
  -1  -3   5 1527.45   66.59
  -1  -3   5 1607.14   66.29
  -1   3   5 1488.75   65.49
   1   3  -5 1565.24   66.99
  -1   3   5 1543.75   66.49
  -1   3   5 1675.23   66.99
   0  -3   5 1434.46   61.49
   0  -3  -5 1518.85  109.99
   0  -3   5 1528.05   61.19
   0  -3   5 1399.46   62.29
   0  -3   5 1517.55  127.09
   0   3   5 1328.37   61.19
   0   3   5 1490.75   60.59
   0   3   5 1341.27   63.89
  -1  -3  -5  123.79   28.10
   1  -3   5  105.59    7.80
   1  -3   5  124.99    7.00
   1  -3   5  124.19    7.40
  -1  -3  -5  120.89    6.70
  -1   3  -5  107.09   15.20
   1   3   5  118.89    7.20
   1   3   5  117.29    6.50
  -1   3  -5  113.49    7.00
   1   3   5  113.69    6.80
  -2  -3  -5  512.75   24.10
  -2  -3  -5  513.95   24.70
   2  -3   5  486.95   23.70
   2  -3   5  530.35   23.90
  -2  -3  -5  480.65   58.99
  -2  -3  -5  504.75   23.70
  -2  -3  -5  529.65   24.90
  -2  -3  -5  440.06   21.90
  -2   3  -5  519.05   24.30
   2   3   5  499.55   22.70
  -2   3  -5  494.15   25.20
  -2   3  -5  509.85   31.70
   2   3   5  478.65   23.00
   3  -3   5  200.18   11.40
  -3  -3  -5  187.18   17.10
  -3  -3  -5  186.38   12.00
  -3  -3  -5  173.78   11.30
  -3  -3  -5  212.68   12.20
   3  -3   5  211.18   11.30
  -3  -3  -5  191.38   11.00
   3   3   5  212.68   11.20
   3   3   5  211.18   10.70
  -3   3  -5  193.88   17.40
  -3   3  -5  209.38   13.00
  -3   3  -5  183.18   23.80
  -3   3  -5  195.68   12.00
  -4  -3  -5  258.67   14.30
   4  -3   5  269.67   13.50
  -4  -3  -5  260.87   14.20
  -4  -3  -5  279.67   20.40
   4  -3   5  267.57   13.60
  -4  -3  -5  256.97   14.60
  -4   3  -5  270.67   20.00
  -4   3  -5  252.97   15.20
   4   3   5  278.47   13.30
  -4   3  -5  254.87   14.10
   4   3   5  253.67   13.10
  -5  -3  -5  169.28    9.70
  -5  -3  -5  159.78    8.40
  -5   3  -5  150.78   11.30
  -5   3  -5  171.28    8.40
  -6  -4   5  123.99    7.90
  -6   4   5  147.59    7.20
  -6   4   5  121.59    7.80
  -5  -4   5  189.08   12.70
  -5  -4   5  191.88   12.70
  -5  -4   5  196.08   11.10
  -5  -4   5  202.98   12.00
  -5   4   5  198.08   12.80
  -5   4   5  167.88   10.60
  -5   4   5  194.58   12.10
  -4  -4   5  433.86   24.60
  -4  -4   5  430.76   21.00
  -4  -4   5  432.56   22.60
  -4  -4   5  441.86   23.70
  -4  -4   5  457.15   24.60
  -4  -4   5  430.76   21.90
  -4   4   5  426.36   21.80
  -4   4   5  459.05   24.90
  -4   4   5  436.56   23.20
  -4   4   5  413.26   20.90
  -3  -4   5   80.59    7.50
  -3  -4   5   78.99    5.70
  -3  -4   5   87.99    8.00
  -3  -4   5   65.69   18.40
  -3  -4   5   81.89    6.30
  -3  -4   5   82.19    7.90
  -3   4   5   82.49    7.10
  -3   4   5   92.39    7.30
   3   4  -5   79.89    5.60
  -3   4   5   86.09    8.20
   3   4  -5   68.59    9.70
  -3   4   5   83.59    5.80
   2  -4  -5 1337.97   58.29
  -2  -4   5 1371.06   57.99
  -2  -4   5 1563.94   68.79
  -2  -4   5 1312.17  108.29
  -2  -4   5 1352.06   58.89
  -2  -4   5 1368.66   61.49
   2   4  -5 1301.37   58.19
  -2   4   5 1331.17   58.09
  -2   4   5 1354.06   59.19
  -2   4   5 1343.97   57.69
  -1  -4   5  431.06   19.30
  -1  -4   5  425.16   59.79
  -1  -4   5  431.06   19.90
  -1  -4   5  399.06   20.20
  -1  -4   5  402.46   19.40
   1  -4  -5  470.45   20.40
  -1   4   5  402.36   18.90
  -1   4   5  416.06   19.20
  -1   4   5  422.96   19.30
   1   4  -5  413.16   19.60
   0  -4   5  363.36   18.00
   0  -4  -5  390.16   50.49
   0  -4   5  384.26   61.99
   0  -4   5  379.06   17.60
   0  -4   5  373.26   17.90
   0  -4  -5  383.76   18.80
   0   4  -5  368.16   18.00
   0   4   5  371.76   17.40
   0   4   5  387.76   19.10
   0   4   5  376.56   16.90
   1  -4   5 2022.60   81.99
   1  -4   5 2054.09   81.39
   1  -4   5 1869.31   82.99
  -1  -4  -5 1908.61   80.69
   1   4   5 1905.91   81.39
   1   4   5 1973.30   80.59
  -1   4  -5 1803.32   99.89
  -1   4  -5 1913.61   81.69
   1   4   5 1868.41   81.09
  -2  -4  -5 1092.89   47.90
  -2  -4  -5 1212.18   50.79
  -2  -4  -5 1198.08   51.29
   2  -4   5 1226.08   49.50
   2  -4   5 1143.89   49.90
  -2  -4  -5  988.70   53.69
  -2   4  -5  954.70   64.29
  -2   4  -5 1184.78   53.19
   2   4   5 1184.78   49.20
   2   4   5 1134.09   49.00
  -3  -4  -5  491.95   24.30
   3  -4   5  468.15   23.30
   3  -4   5  483.25   23.00
  -3  -4  -5  477.95   23.70
  -3  -4  -5  465.15   24.20
  -3  -4  -5  489.25   31.30
   3   4   5  474.25   22.60
  -3   4  -5  520.65   23.70
  -3   4  -5  501.05   31.60
  -3   4  -5  506.45   24.50
  -4  -4  -5   91.99    6.70
  -4  -4  -5   99.59    7.00
  -4  -4  -5   89.89    6.50
   4  -4   5   97.79    6.70
   4  -4   5   90.89    6.00
  -4  -4  -5   90.79   10.10
  -4   4  -5   91.29   10.20
  -4   4  -5   91.49    6.60
   4   4   5   94.89    6.00
   4   4   5   85.59    5.60
  -5  -4  -5  159.98    8.40
  -5  -4  -5  156.48    8.50
  -5  -4  -5  176.38   11.10
  -5   4  -5  180.48    8.40
  -5   4  -5  137.09   10.80
  -6  -5   5  498.95   21.60
  -6   5   5  411.76   20.90
  -5  -5   5  296.77   16.70
  -5  -5   5  274.57   14.70
  -5  -5   5  261.67   15.90
  -5   5   5  267.57   15.90
  -5   5   5  251.17   14.90
  -5   5   5  253.37   14.00
  -4  -5   5  513.95   25.70
  -4  -5   5  491.45   26.90
  -4  -5   5  492.25   25.20
  -4  -5   5  498.75   27.20
  -4  -5   5  544.05   25.70
  -4   5   5  475.15   25.50
  -4   5   5  485.35   26.90
  -4   5   5  475.65   23.20
  -4   5   5  478.75   24.20
  -3  -5   5   90.29   21.80
  -3  -5   5   96.09    8.70
  -3  -5   5   95.19    7.10
  -3  -5   5   95.79    8.70
  -3   5   5   96.39    8.90
  -3   5   5   85.29    8.80
  -3   5   5   91.69    7.00
  -3   5   5   97.99    5.40
   3   5  -5   94.39    6.70
  -3   5   5  107.59    7.40
  -2  -5   5  190.28   10.90
  -2  -5   5  197.88   11.10
  -2  -5   5  193.78   10.20
   2  -5  -5  195.28   10.60
  -2  -5   5  220.48   13.60
  -2  -5   5  185.38   37.20
   2   5  -5  184.78   10.40
  -2   5   5  195.48    9.80
   2   5  -5  202.38   16.00
  -2   5   5  183.68   10.00
  -2   5   5  187.78   11.00
  -1  -5   5  432.66   20.30
  -1  -5   5  430.76   21.00
  -1  -5   5  399.56   61.39
   1  -5  -5  432.36   20.60
  -1  -5   5  425.56   19.70
  -1  -5   5  425.96   19.90
  -1   5   5  410.26   19.30
   1   5  -5  426.86   20.20
  -1   5   5  417.16   19.50
   1   5  -5  463.75   25.80
  -1   5   5  420.66   19.20
   0  -5   5  867.81  101.19
   0  -5  -5  896.11   40.10
   0  -5   5  861.51   38.60
   0  -5  -5  987.00   88.49
   0  -5   5  894.61   39.30
   0  -5   5  823.22   40.10
   0  -5   5  915.91   39.10
   0   5   5  867.41   38.70
   0   5  -5  999.80   49.10
   0   5  -5  863.71   39.30
   0   5   5  834.92   38.40
   0   5   5  872.51   37.80
   1  -5   5  792.22   35.20
  -1  -5  -5  835.92   34.70
  -1  -5  -5  887.51   82.69
   1  -5   5  746.73   36.90
   1  -5   5  830.12   36.00
   1   5   5  813.42   35.10
  -1   5  -5  754.42   51.89
   1   5   5  796.82   34.50
   1   5   5  763.22   35.20
  -1   5  -5  757.62   35.60
  -2  -5  -5  456.65   21.60
  -2  -5  -5  380.86   19.50
  -2  -5  -5  458.85   22.60
  -2  -5  -5  465.65   59.19
   2  -5   5  426.96   21.50
   2  -5   5  478.85   21.20
   2   5   5  442.36   20.70
   2   5   5  448.26   20.50
  -2   5  -5  436.36   28.40
  -2   5  -5  435.46   37.20
  -3  -5  -5  491.45   24.70
  -3  -5  -5  509.15   31.40
  -3  -5  -5  491.95   24.80
   3  -5   5  501.85   23.90
   3  -5   5  501.95   23.40
   3   5   5  489.35   22.80
  -3   5  -5  467.05   30.80
  -3   5  -5  495.35   24.00
   3   5   5  509.65   22.90
  -4  -5  -5  105.59    7.20
  -4  -5  -5  112.09    7.70
  -4  -5  -5  103.59    7.50
   4  -5   5  121.19    8.10
  -4  -5  -5  110.79   10.90
  -4   5  -5  109.09   10.70
   4   5   5  121.09    7.00
  -4   5  -5  116.49    6.60
  -4   5  -5  117.69    7.70
   4   5   5  125.39    6.70
  -5  -5  -5  166.08    9.80
  -5  -5  -5  149.09    8.10
  -5  -5  -5  159.88    8.00
  -5   5  -5  142.69    9.30
  -5   5  -5  158.18    8.00
  -5  -6   5   63.19    5.00
  -5  -6   5   62.89    5.20
  -5  -6   5   65.19    6.20
  -5   6   5   66.99    5.00
  -5   6   5   68.09    6.10
  -5   6   5   59.39    5.60
  -4  -6   5  324.27   18.20
  -4  -6   5  320.77   18.90
  -4  -6   5  330.17   17.20
  -4   6   5  330.47   17.90
  -4   6   5  267.67   20.70
   4   6  -5  314.77   15.40
  -4   6   5  307.57   15.30
  -4   6   5  263.57   18.70
  -3  -6   5 1330.67   64.19
  -3  -6   5 1487.65   67.69
  -3  -6   5 1473.15   65.89
  -3  -6   5 1556.44   64.99
  -3   6   5 1479.35   67.99
  -3   6   5 1478.35   62.19
  -3   6   5 1542.65   66.09
  -3   6   5 1492.75   64.79
   3   6  -5 1465.65   63.69
  -2  -6   5  757.42   82.69
  -2  -6   5  856.81   39.80
  -2  -6   5  797.72   36.60
   2  -6  -5  811.42   36.20
  -2  -6   5  803.72   36.60
  -2   6   5  821.22   36.70
   2   6  -5  814.52   43.20
  -2   6   5  809.42   35.00
   2   6  -5  778.42   36.00
  -1  -6   5  136.09    7.90
  -1  -6   5  126.99   35.80
  -1  -6   5  135.59    8.00
  -1  -6   5  148.09   10.80
  -1  -6   5  137.69    9.00
   1  -6  -5  140.79    8.70
  -1   6   5  137.79    7.50
   1   6  -5  128.19    8.20
  -1   6   5  141.39    7.70
   1   6  -5  151.28   12.50
  -1   6   5  145.19    7.50
   0  -6   5  425.46   21.00
   0  -6   5  415.96   71.19
   0  -6   5  423.56   20.50
   0  -6  -5  448.36   22.00
   0  -6  -5  522.25   63.69
   0  -6   5  448.96   20.90
   0  -6   5  429.16   22.20
   0   6   5  432.96   20.40
   0   6  -5  447.66   21.30
   0   6  -5  449.56   24.80
   0   6   5  425.86   19.50
   0   6   5  449.56   20.30
   1  -6   5  550.24   25.80
   1  -6   5  583.04   25.20
  -1  -6  -5  555.34   66.09
  -1  -6  -5  535.95   24.20
   1  -6   5  547.95   25.10
   1  -6   5  526.35   26.90
  -1   6  -5  525.65   42.50
   1   6   5  531.75   24.90
   1   6   5  554.54   24.80
   1   6   5  563.84   24.30
  -1   6  -5  525.05   25.40
   2  -6   5 2830.62  111.89
  -2  -6  -5 2527.85  111.89
   2  -6   5 2577.94  112.39
   2  -6   5 2795.32  112.09
  -2   6  -5 2613.64  120.59
  -2   6  -5 2559.74  135.99
   2   6   5 2649.73  111.09
   2   6   5 2687.63  111.39
  -3  -6  -5  412.66   26.70
   3  -6   5  411.26   19.80
  -3  -6  -5  440.46   20.60
  -3  -6  -5  385.76   19.90
   3  -6   5  408.76   20.20
  -3  -6  -5  378.86   20.80
   3   6   5  388.56   19.80
  -3   6  -5  407.56   26.10
   3   6   5  393.56   19.20
  -3   6  -5  420.26   20.40
  -4  -6  -5  535.25   25.80
  -4  -6  -5  602.04   31.20
   4  -6   5  547.15   25.10
  -4  -6  -5  566.94   25.90
  -4   6  -5  533.45   29.60
  -4   6  -5  557.04   24.80
  -4   6  -5  527.05   25.90
   4   6   5  545.05   24.50
  -5  -7   5  148.89   10.10
  -5  -7   5  142.79    8.90
  -5  -7   5  153.08   10.20
  -5   7   5  144.19    9.10
  -5   7   5  155.18    9.90
  -5   7   5  139.99    8.50
  -4  -7   5  525.15   25.10
  -4  -7   5  540.25   26.40
  -4  -7   5  537.75   27.80
  -4   7   5  478.15   27.20
  -4   7   5  522.75   25.30
  -4   7   5  510.75   26.10
   4   7  -5  512.65   24.10
  -3  -7   5  209.28   13.60
  -3  -7   5  171.88   11.10
  -3  -7   5  153.88   30.40
   3  -7  -5  185.18   10.60
  -3  -7   5  194.28   13.30
  -3   7   5  168.38   10.90
   3   7  -5  164.78   10.10
  -3   7   5  175.88   11.70
  -3   7   5  188.58    9.00
  -3   7   5  186.08   13.30
   2  -7  -5 1078.19   49.10
  -2  -7   5 1139.89   49.60
  -2  -7   5 1029.40  101.99
  -2  -7   5 1115.29   49.40
   2   7  -5 1116.09   49.00
   2   7  -5 1143.49   56.99
  -2   7   5 1116.79   47.70
  -2   7   5 1165.78   49.60
  -1  -7   5  777.82   34.60
  -1  -7   5  770.42   36.20
  -1  -7   5  779.32   34.70
   1  -7  -5  782.62   35.70
  -1  -7   5  681.83   87.79
  -1  -7   5  791.42   35.30
  -1   7   5  786.62   34.20
  -1   7   5  782.92   33.90
   1   7  -5  838.02   41.80
   1   7  -5  803.22   35.40
   0  -7   5  922.01   39.80
   0  -7   5  916.01   40.20
   0  -7   5  939.21   40.40
   0  -7   5  820.52  106.59
   0  -7  -5  945.01   95.79
   0  -7   5  875.21   41.60
   0  -7  -5  903.31   41.20
   0   7   5  897.71   39.50
   0   7   5  912.01   39.30
   0   7  -5  919.11   40.60
   0   7  -5  885.51   58.49
   1  -7   5  266.87   13.20
  -1  -7  -5  230.98   44.60
   1  -7   5  244.28   13.60
   1  -7   5  246.88   13.80
  -1  -7  -5  246.48   12.10
   1  -7   5  265.77   15.50
  -1   7  -5  246.88   27.70
  -1   7  -5  250.17   13.40
   1   7   5  264.47   12.30
   1   7   5  252.47   12.70
   2  -7   5  192.98   11.50
   2  -7   5  204.58   10.90
  -2  -7  -5  195.38   38.90
   2  -7   5  189.08   11.40
  -2  -7  -5  190.48   12.00
   2   7   5  189.48   10.20
   2   7   5  198.08   10.50
  -2   7  -5  198.68   24.90
  -2   7  -5  197.58   17.10
  -3  -7  -5   34.20    3.90
   3  -7   5   24.20    3.10
   3  -7   5   28.70    3.50
  -3  -7  -5   22.80    3.10
  -3  -7  -5   26.30    3.10
  -3  -7  -5   29.00    5.50
   3   7   5   24.80    3.00
   3   7   5   26.00    2.60
  -3   7  -5   26.60    4.90
  -3   7  -5   28.40    3.10
  -3   7  -5   28.70    3.30
  -3   7  -5   22.10    3.20
  -4  -7  -5   64.09    4.50
  -4  -7  -5   63.89    5.00
   4  -7   5   65.59    4.50
  -4  -7  -5   62.39    6.70
  -4   7  -5   57.99    4.80
   4   7   5   60.59    3.90
  -4   7  -5   58.39    4.20
  -4   7  -5   53.09    6.00
  -5  -8   5  241.68   12.90
  -5  -8   5  244.98   13.90
  -5  -8   5  235.48   13.70
  -5   8   5  257.97   12.50
  -5   8   5  252.07   13.30
  -5   8   5  214.08   13.00
  -4  -8   5  492.15   26.20
  -4  -8   5  476.75   26.10
  -4  -8   5  508.55   23.50
   4   8  -5  507.85   22.80
  -4   8   5  477.65   25.80
  -4   8   5  469.85   23.80
   3  -8  -5 3524.55  147.19
  -3  -8   5 3357.46  147.79
  -3   8   5 3494.15  145.09
  -3   8   5 3540.55  147.89
  -3   8   5 3707.13  149.19
  -3   8   5 3389.16  150.78
   3   8  -5 3536.35  146.99
   2  -8  -5  768.02   34.30
  -2  -8   5  737.03   34.50
  -2   8   5  748.33   32.60
   2   8  -5  743.33   33.90
  -2   8   5  718.23   34.20
  -1  -8   5  398.46   19.90
   1  -8  -5  400.86   20.40
  -1  -8   5  403.06   19.30
  -1  -8   5  388.26   20.50
  -1  -8   5  381.56   20.50
   1   8  -5  391.46   34.70
   1   8  -5  393.16   19.70
  -1   8   5  424.86   18.70
   0  -8   5  436.16   20.50
   0  -8   5  430.66   20.80
   0  -8  -5  449.26   65.09
   0  -8   5  403.36   22.00
   0  -8   5  448.16   24.20
   0  -8  -5  427.16   21.70
   0  -8   5  373.56   73.09
   0   8  -5  428.66   37.30
   0   8   5  432.56   19.80
   0   8  -5  440.86   21.10
   0   8   5  422.76   19.90
   1  -8   5 1019.80   45.90
  -1  -8  -5  999.40   46.80
   1  -8   5 1014.90   45.40
  -1  -8  -5 1181.28  105.39
   1  -8   5  980.90   47.10
   1  -8   5 1070.19   45.20
   1   8   5  997.00   43.90
   1   8   5  973.80   44.60
  -1   8  -5 1057.39   68.39
  -1   8  -5  997.90   45.30
   1   8   5 1016.80   44.60
   2  -8   5   58.49    4.80
  -2  -8  -5   56.89   23.30
   2   8   5   51.39    4.30
  -2   8  -5   46.40   14.00
   2   8   5   50.19    4.10
  -2   8  -5   54.49    5.30
   2   8   5   56.29    4.20
  -3  -8  -5   50.79    6.80
  -3  -8  -5   50.29    4.90
   3  -8   5   45.70    4.80
   3  -8   5   56.99    4.70
  -3   8  -5   50.09    4.20
  -3   8  -5   52.99    4.80
  -3   8  -5   46.80    4.80
   3   8   5   52.79    4.20
  -4  -8  -5    4.00    2.90
  -4  -8  -5    8.60    1.60
   4  -8   5    7.40    2.00
  -4   8  -5    6.50    1.90
   4   8   5    8.20    1.30
  -4   8  -5    5.10    1.70
  -5  -9   5  147.09    8.70
  -5  -9   5  175.58   10.10
  -5   9   5  170.68    8.60
  -5   9   5  148.99    8.70
  -5   9   5  146.09    9.00
  -4  -9   5   11.60    2.50
  -4  -9   5    9.80    3.20
  -4  -9   5   14.10    2.60
  -4  -9   5   10.70    2.70
  -4   9   5   12.50    2.80
  -3  -9   5  910.61   47.90
   3  -9  -5  904.31   41.30
  -3  -9   5  865.61   44.70
  -3   9   5  965.90   42.60
   3   9  -5  912.51   40.90
  -3   9   5  894.51   45.20
  -3   9   5  911.81   39.10
  -3   9   5  959.70   44.00
  -2  -9   5  126.79    8.70
  -2  -9   5  122.29   10.00
  -2  -9   5  124.69   35.20
  -2   9   5  118.79   10.20
   2   9  -5  109.29   17.70
  -2   9   5  122.59    7.00
  -2   9   5  151.28    9.00
   2   9  -5  120.89    8.10
  -1  -9   5   86.49    5.70
  -1  -9   5   93.19    6.90
  -1  -9   5   90.69    6.30
  -1  -9   5   85.69   33.50
   1  -9  -5   84.09    6.90
   1   9  -5   91.49    6.60
  -1   9   5   86.99    5.30
   1   9  -5   84.59    6.90
   1   9  -5   99.89   16.30
   0  -9   5  207.98   11.80
   0  -9  -5  217.08   12.80
   0  -9   5  204.28   12.10
   0  -9   5  199.28   12.90
   0  -9   5  243.68   12.00
   0  -9   5  186.88   53.19
   0   9  -5  230.48   26.60
   0   9   5  207.18   10.80
   0   9   5  214.48   11.10
   0   9  -5  203.98   12.40
   0   9  -5  207.58   11.90
   1  -9   5  221.88   12.50
  -1  -9  -5  257.97   48.90
   1  -9   5  233.38   12.20
   1  -9   5  210.98   13.80
  -1  -9  -5  207.48   13.20
   1   9   5  207.58   11.40
   1   9   5  207.88   10.80
  -1   9  -5  220.98   11.90
  -1   9  -5  214.28   27.10
   1   9   5  227.28   11.40
  -1   9  -5  217.28   12.90
   2  -9   5  399.86   19.00
  -2  -9  -5  348.57   23.50
  -2  -9  -5  367.46   21.00
  -2   9  -5  375.26   19.90
   2   9   5  376.56   17.90
   2   9   5  378.16   17.60
   3  -9   5  309.87   15.30
  -3  -9  -5  259.47   19.70
  -3  -9  -5  295.87   15.70
  -3   9  -5  303.47   14.70
   3   9   5  290.67   14.20
   3   9   5  303.17   14.20
  -3   9  -5  297.57   15.80
  -4  -9  -5  100.49    6.10
  -4   9  -5   94.19    5.60
   4   9   5   90.99    5.00
  -4   9  -5   91.29    6.00
  -5 -10   5   40.10    3.80
  -5 -10   5   40.80    3.30
  -5 -10   5   40.20    3.80
  -5  10   5   41.00    4.10
  -5  10   5   47.40    3.20
  -4 -10   5  492.25   25.70
  -4 -10   5  534.15   25.60
  -4  10   5  492.85   23.80
   4  10  -5  508.85   22.60
  -4  10   5  475.15   24.80
  -3 -10   5  134.19    9.70
   3 -10  -5  131.09    9.00
  -3 -10   5  117.89   10.00
   3  10  -5  125.19    7.80
  -3  10   5  117.09    8.30
  -3  10   5  118.79   10.00
  -3  10   5  138.79    9.20
  -3  10   5  134.79    6.70
  -2 -10   5   39.30   22.70
   2 -10  -5   37.40    4.40
  -2 -10   5   36.50    4.90
  -2 -10   5   36.20    5.10
   2  10  -5   36.30    3.80
  -2  10   5   35.30    5.10
   1 -10  -5 1583.54   75.69
  -1 -10   5 1724.83   71.99
  -1 -10   5 1697.63   74.99
  -1 -10   5 1477.35  250.77
  -1  10   5 1724.73   71.99
   1  10  -5 1770.52   73.49
   1  10  -5 1688.33   73.89
  -1  10   5 1757.22   71.39
   1  10  -5 1807.32  100.69
   0 -10  -5 2562.44  127.49
   0 -10   5 3135.49  126.49
   0 -10   5 3146.19  125.29
   0  10  -5 2881.51  156.58
   0  10  -5 3184.58  125.79
   0  10   5 2912.01  124.19
   0  10  -5 2921.81  126.19
   0  10   5 3049.79  124.09
  -1 -10  -5  324.37   54.39
   1 -10   5  272.57   14.30
  -1 -10  -5  258.67   15.60
   1 -10   5  265.27   14.70
   1  10   5  266.97   13.50
  -1  10  -5  288.87   15.40
  -1  10  -5  264.47   13.80
   1  10   5  261.67   13.60
  -1  10  -5  276.27   35.30
   2 -10   5  345.77   20.70
  -2 -10  -5  370.56   19.60
   2 -10   5  350.26   17.90
   2 -10   5  354.36   18.30
  -2 -10  -5  378.56   22.50
  -2  10  -5  359.26   18.80
   2  10   5  363.16   17.20
  -2  10  -5  364.66   19.40
   2  10   5  358.16   17.00
   2  10   5  363.46   17.30
  -2  10  -5  378.06   18.70
  -3 -10  -5  134.39    8.90
   3 -10   5  145.19    8.50
   3  10   5  145.79    7.70
  -3  10  -5  146.09    7.90
  -3  10  -5  136.19    9.40
  -3  10  -5  147.29    8.90
   4 -10   5  266.57   12.60
   4  10   5  271.27   12.50
  -4  10  -5  286.47   13.10
  -4  10  -5  290.97   12.80
  -4 -11   5  269.37   14.10
  -4 -11   5  259.57   14.20
  -4 -11   5  246.68   12.70
  -4 -11   5  240.88   14.40
  -4  11   5  240.18   13.40
   4  11  -5  263.67   12.60
  -4  11   5  227.68   14.10
  -4  11   5  265.47   13.20
  -3 -11   5  280.77   15.80
  -3 -11   5  251.77   15.70
  -3 -11   5  251.87   16.00
  -3 -11   5  272.97   14.50
  -3  11   5  249.18   14.00
  -3  11   5  268.77   14.70
  -3  11   5  270.37   12.00
   3  11  -5  260.07   13.40
  -3  11   5  244.58   15.50
  -2 -11   5  139.49   59.19
   2 -11  -5  162.78   10.00
  -2 -11   5  153.48   11.10
  -2 -11   5  142.89   11.30
  -2  11   5  154.28   11.30
  -2  11   5  142.79    7.90
  -2  11   5  130.69    9.10
   2  11  -5  145.59    9.00
   1 -11  -5  248.88   14.30
  -1  11   5  225.78   12.00
   1  11  -5  237.28   13.20
  -1  11   5  241.28   11.70
   1  11  -5  245.48   13.80
   0 -11  -5 1254.77   54.79
   0 -11   5 1282.77   53.39
   0 -11   5 1205.78   52.99
   0  11  -5 1097.69   57.29
   0  11   5 1184.18   52.49
   0  11  -5 1252.27   53.39
   0  11   5 1188.28   52.29
   1 -11   5  118.89    8.00
   1 -11   5  119.69    7.90
  -1 -11  -5  128.69    6.60
  -1  11  -5  124.49    8.50
  -1  11  -5  132.59    8.40
  -1  11  -5  129.69    7.30
   1  11   5  120.09    7.30
   1  11   5  125.99    7.20
   2 -11   5  543.55   25.70
   2 -11   5  524.45   25.50
  -2  11  -5  540.55   25.90
   2  11   5  552.94   24.70
   2  11   5  562.34   24.70
  -2  11  -5  577.24   26.00
  -2  11  -5  531.05   26.80
  -3 -11  -5 1796.02   80.29
   3 -11   5 1850.91   79.49
  -3  11  -5 1910.51   80.29
  -3  11  -5 1919.01   78.69
   3  11   5 1940.51   78.79
  -4 -12   5   97.89    5.60
  -4 -12   5   86.49    6.70
  -4 -12   5   95.99    6.30
  -4  12   5   93.79    5.90
   4  12  -5  100.09    5.20
  -3 -12   5  144.59    9.70
  -3 -12   5  144.19   10.50
   3  12  -5  150.38    8.30
  -3  12   5  150.78    9.50
  -3  12   5  150.68    9.00
  -3  12   5  145.49    9.80
   2 -12  -5  371.16   18.70
  -2 -12   5  360.56   19.10
  -2 -12   5  351.86   19.50
  -2 -12   5  350.96   20.60
  -2  12   5  323.67   17.90
   2  12  -5  352.16   17.40
  -2  12   5  366.46   16.40
  -2  12   5  352.56   19.90
   1 -12  -5  130.09    9.00
  -1 -12   5  117.39    6.50
  -1 -12   5  129.09    9.60
  -1  12   5  125.59    7.10
   1  12  -5  122.49    7.80
   1  12  -5  116.49    8.00
   0 -12   5  499.85   23.30
   0 -12  -5  520.55   25.40
   0  12  -5  492.45   24.00
   0  12  -5  533.35   23.80
   0  12   5  485.15   22.90
   0  12   5  506.55   22.60
   0  12  -5  483.55   24.30
  -1 -12  -5  944.81   40.70
   1 -12   5  965.50   42.50
  -1  12  -5 1005.90   42.50
   1  12   5  960.30   41.50
  -1  12  -5  946.71   43.00
   1  12   5  950.10   41.60
  -1  12  -5  947.91   41.20
  -2 -12  -5  111.59    8.00
   2 -12   5  116.29    7.30
  -2  12  -5  128.49    8.30
   2  12   5  116.59    6.70
  -2  12  -5  120.59    7.40
  -2  12  -5  118.89    7.10
   2  12   5  119.49    6.60
  -3 -12  -5  665.93   31.60
   3  12   5  722.23   30.90
  -3  12  -5  728.43   32.20
  -3  12  -5  692.33   30.60
  -3  12  -5  760.22   30.90
  -4 -13   5  475.25   23.50
   4  13  -5  568.14   22.90
  -4  13   5  542.85   23.50
  -3 -13   5   35.60    3.60
  -3 -13   5   35.40    3.30
  -3 -13   5   32.30    3.80
  -3 -13   5   30.50    4.00
  -3  13   5   28.00    3.20
   3  13  -5   35.20    2.90
  -2 -13   5  183.78   12.10
  -2 -13   5  191.48   11.40
  -2  13   5  169.78   11.30
  -2  13   5  184.98    9.10
   2  13  -5  182.18    9.90
  -2  13   5  183.98   10.60
  -1 -13   5   76.19    6.60
   1 -13  -5   78.19    8.80
  -1  13   5   77.69    6.90
   1  13  -5   78.79    5.40
   1  13  -5   81.49    5.70
  -1  13   5   72.99    4.80
  -1  13   5   70.69    5.90
   0 -13  -5  294.27   16.40
   0 -13   5  292.97   14.00
   0  13  -5  301.97   14.40
   0  13   5  281.87   13.90
   0  13   5  284.97   13.50
   0  13  -5  283.07   15.00
   1 -13   5  620.24   27.90
  -1 -13  -5  599.44   26.30
   1  13   5  626.04   27.60
  -1  13  -5  628.54   28.50
   1  13   5  616.14   27.20
  -2 -13  -5   44.00    4.00
   2 -13   5   39.60    3.40
  -2  13  -5   43.30    3.50
  -2  13  -5   43.20    4.00
  -3 -13  -5  709.23   29.60
   3 -13   5  655.73   28.90
  -3  13  -5  635.34   29.40
   3  13   5  700.53   28.70
  -3 -14   5  273.77   15.20
  -3 -14   5  296.27   14.30
   3  14  -5  295.17   13.40
  -3  14   5  295.77   15.00
  -2 -14   5  259.57   14.70
  -2 -14   5  277.57   15.40
  -2 -14   5  274.47   14.00
  -2  14   5  257.67   13.40
   2  14  -5  272.67   12.90
  -2  14   5  222.58   13.20
  -2  14   5  271.87   12.10
  -1 -14   5  233.58   14.40
  -1 -14   5  260.87   13.90
   1  14  -5  272.47   13.10
  -1  14   5  242.98   14.10
   1  14  -5  265.37   12.80
  -1  14   5  253.67   13.40
  -1  14   5  266.57   12.30
   0 -14   5  785.02   33.90
   0 -14   5  746.63   37.00
   0  14  -5  806.82   34.30
   0  14  -5  801.12   35.10
   0  14   5  803.52   33.50
   1 -14   5  112.49    6.10
   1 -14   5   88.59    6.40
   1  14   5  104.69    6.40
   1  14   5  109.39    5.70
  -1  14  -5  112.69    6.60
  -1  14  -5  106.19    7.30
  -2 -14  -5  668.53   31.40
   2 -14   5  738.13   31.10
  -2  14  -5  768.82   30.70
   2  14   5  731.93   30.40
  -2  14  -5  624.34   31.80
  -2 -15   5  154.88   10.30
  -2 -15   5  148.69    8.20
  -2  15   5  139.89    8.90
  -2  15   5  169.38    7.40
   2  15  -5  160.18    9.40
  -1 -15   5  195.18   10.90
  -1  15   5  213.08   11.10
  -1  15   5  219.88   10.20
   1  15  -5  220.78   10.60
   1  15  -5  225.98   10.50
   0 -15   5  146.39    6.70
   0 -15  -5  149.39    6.80
   0  15  -5  141.19    9.50
   0  15  -5  143.99    7.80
   0  15   5  120.89    8.00
   0  15   5  148.79    7.30
   0  15   5  142.69    8.00
   1 -15   5  440.66   18.20
  -1 -15  -5  381.06   20.00
  -1  15  -5  432.26   19.90
   1  15   5  436.36   18.30
   1  15   5  375.56   18.60
   1  16  -5  176.08    7.90
  -1  16   5  172.98    8.80
  -1  16   5  165.88    8.70
   0 -16   5   67.49    5.70
   0  16   5   81.29    4.70
   0  16   5   81.59    4.20
   0  16  -5   78.99    4.40
   0  16  -5   76.79    4.80
  -6   0   6   43.50    3.40
  -5   0   6    7.10    2.30
  -5   0   6    5.30    1.90
  -4   0   6   86.39    9.60
  -4   0   6  100.39    8.40
   4   0  -6   92.09    5.80
  -4   0   6   96.39    6.40
   3   0  -6    1.40    1.00
  -3   0   6    6.50    2.60
  -3   0   6    3.50    1.70
  -3   0   6    0.90    1.50
  -3   0   6    7.90    3.00
  -2   0   6 1222.18   54.69
  -2   0   6 1216.78   53.99
  -2   0   6 1099.39   50.89
  -2   0   6 1136.29   51.19
  -2   0   6 1274.47  105.89
   2   0  -6 1090.19   50.09
  -1   0   6  252.57   12.90
  -1   0   6  249.78   12.90
  -1   0   6  245.08   11.90
  -1   0   6  246.38   12.20
   1   0  -6  242.78   12.30
   0   0   6 2462.65  102.89
   0   0   6 2511.75  103.49
   0   0  -6 2560.94  103.29
   0   0   6 2309.97  103.79
   1   0   6 1197.88   53.99
   1   0   6 1221.08   53.79
  -1   0  -6 1295.47   69.79
  -1   0  -6 1193.08   55.99
   1   0   6 1244.88   53.79
   2   0   6  573.74   25.90
   2   0   6  560.74   25.40
  -2   0  -6  548.55   26.80
  -2   0  -6  522.25   39.20
  -3   0  -6   54.09    5.00
   3   0   6   51.69    4.50
   3   0   6   49.99    4.40
  -3   0  -6   54.19    4.80
  -3   0  -6   68.09    9.70
   4   0   6  158.28    8.50
  -4   0  -6  165.68    8.80
  -6   1   6  589.04   26.40
  -5  -1   6  366.66   20.70
  -5  -1   6  401.76   17.70
  -5  -1   6  381.16   19.90
  -5   1   6  388.86   18.20
  -5   1   6  355.96   18.60
  -5   1   6  339.07   19.70
  -4  -1   6  402.26   22.40
   4  -1  -6  414.16   18.50
  -4  -1   6  386.46   22.20
  -4   1   6  431.06   22.00
  -4   1   6  401.26   19.50
  -4   1   6  346.57   24.50
   4   1  -6  400.26   18.50
  -3  -1   6  629.54   30.10
  -3  -1   6  607.74   29.50
   3  -1  -6  600.24   27.90
  -3  -1   6  636.24   32.30
  -3  -1   6  601.84   28.60
  -3  -1   6  647.14   32.30
  -3  -1   6  614.64   28.10
  -3   1   6  635.34   29.40
  -3   1   6  603.54   80.29
  -3   1   6  646.84   32.00
  -3   1   6  650.33   29.10
  -3   1   6  647.94   28.00
   3   1  -6  612.94   28.10
  -3   1   6  679.33   33.10
   2  -1  -6  249.18   13.10
  -2  -1   6  258.27   14.30
  -2  -1   6  258.07   13.00
  -2  -1   6  277.37   16.40
  -2  -1   6  295.47   47.90
  -2  -1   6  275.27   15.60
   2   1  -6  261.17   13.30
  -2   1   6  270.27   14.50
  -2   1   6  272.87   14.10
  -2   1   6  278.87   16.80
  -2   1   6  301.67   48.50
  -2   1   6  274.37   16.30
  -1  -1   6  109.39   32.90
  -1  -1   6  113.39    7.00
   1  -1  -6  108.69    6.30
  -1  -1   6   91.89    6.50
  -1  -1   6   99.49    6.10
  -1  -1   6   99.99    5.90
  -1  -1   6  104.59    8.30
  -1   1   6   91.79    5.70
   1   1  -6   97.19    6.20
  -1   1   6  107.99    6.20
  -1   1   6   97.29    6.50
  -1   1   6   97.39    6.40
   0  -1  -6 2472.15   99.69
   0  -1   6 2411.16   99.99
   0  -1   6 2440.26   99.49
   0  -1   6 2297.77  100.59
   0  -1  -6 2204.98  161.78
   0   1   6 2370.56   99.19
   0   1   6 2357.96  100.29
   0   1   6 2388.26   99.89
   0   1  -6 2425.86   99.79
  -1  -1  -6  305.37   25.80
   1  -1   6  290.37   14.70
   1  -1   6  293.07   15.40
   1  -1   6  242.68   15.70
   1   1   6  288.57   14.50
  -1   1  -6  309.27   27.80
   1   1   6  264.37   14.80
   1   1   6  302.67   15.60
   2  -1   6  755.82   33.40
   2  -1   6  762.52   32.90
  -2  -1  -6  764.92   34.20
   2   1   6  715.43   33.00
  -2   1  -6  674.73   48.50
   2   1   6  711.73   32.50
   3  -1   6  196.98   11.00
  -3  -1  -6  199.68   17.90
   3  -1   6  201.88   11.00
  -3  -1  -6  204.08   11.30
  -3  -1  -6  183.98   11.60
  -3   1  -6  194.98   12.00
   3   1   6  207.58   10.90
  -3   1  -6  198.18   17.60
  -3   1  -6  207.58   11.80
   3   1   6  202.58   10.90
  -4  -1  -6   29.20    3.10
  -4  -1  -6   32.10    5.60
   4  -1   6   32.10    2.90
  -4  -1  -6   32.40    3.30
   4   1   6   35.70    2.90
  -4   1  -6   36.30    3.10
  -4   1  -6   40.60    6.20
  -5  -2   6  316.07   16.70
  -5  -2   6  304.37   14.50
  -5  -2   6  297.77   16.90
  -5   2   6  304.57   15.30
  -5   2   6  311.27   17.40
   4  -2  -6  185.68    9.80
  -4  -2   6  191.28   10.50
  -4  -2   6  207.28   13.80
  -4  -2   6  182.78   11.30
  -4  -2   6  196.28   13.10
  -4   2   6  193.38   11.00
  -4   2   6  224.98   14.30
  -4   2   6  202.28   12.20
   4   2  -6  186.88   10.20
  -3  -2   6  871.21   39.00
  -3  -2   6  865.61   41.50
  -3  -2   6  884.41   41.40
  -3  -2   6  883.91   37.60
  -3  -2   6  794.02   71.39
   3  -2  -6  832.42   37.00
  -3   2   6  825.12   70.59
  -3   2   6  868.21   41.00
  -3   2   6  818.62   38.30
  -3   2   6  864.71   38.40
  -3   2   6  881.01   42.20
   3   2  -6  798.42   37.20
  -3   2   6  886.61   37.10
  -2  -2   6   78.29    6.00
   2  -2  -6   65.39    4.90
  -2  -2   6   71.69    6.60
  -2  -2   6   71.49    5.00
  -2  -2   6   88.69    7.70
  -2   2   6   85.99   11.00
  -2   2   6   71.69    5.70
  -2   2   6   81.69    7.30
   2   2  -6   82.79    5.80
  -2   2   6   81.89    5.90
  -1  -2   6 2462.05  101.39
  -1  -2   6 2436.46  102.09
  -1  -2   6 2596.44  180.28
  -1  -2   6 2301.97  102.19
   1  -2  -6 2357.66  101.09
  -1  -2   6 2464.75  104.69
  -1  -2   6 2424.76  101.09
  -1   2   6 2378.86  101.19
  -1   2   6 2347.36  101.59
   1   2  -6 2429.26  101.59
   0  -2   6  149.29   41.40
   0  -2   6  152.48    9.00
   0  -2   6  163.78    8.90
   0  -2  -6  136.79   34.90
   0  -2   6  148.99    9.30
   0  -2  -6  155.48    8.40
   0  -2   6  147.39    8.40
   0   2   6  150.78    8.50
   0   2  -6  160.58    8.70
   0   2   6  149.49    8.80
   0   2   6  151.78    8.10
  -1  -2  -6 1471.85   61.29
   1  -2   6 1398.66   60.99
   1  -2   6 1498.05   61.69
  -1  -2  -6 1438.46  118.89
  -1  -2  -6 1446.56   75.49
   1  -2   6 1380.36   62.39
   1   2   6 1452.45   61.19
   1   2   6 1361.46   61.69
   1   2   6 1309.87   63.99
  -1   2  -6 1494.55   61.69
   2  -2   6   86.89    6.40
   2  -2   6  100.69    6.60
  -2  -2  -6   91.59    6.60
  -2   2  -6   79.99   15.40
   2   2   6  104.39    6.30
  -2   2  -6   99.49   11.70
   2   2   6  104.09    6.50
   3  -2   6  688.73   31.30
  -3  -2  -6  730.53   31.50
  -3  -2  -6  678.63   32.00
   3  -2   6  678.43   31.20
  -3  -2  -6  685.43   31.60
  -3   2  -6  698.53   32.30
   3   2   6  697.93   31.20
  -3   2  -6  644.14   39.10
   3   2   6  701.03   30.90
  -4  -2  -6  406.56   19.40
   4  -2   6  376.46   17.80
  -4  -2  -6  397.26   25.60
  -4   2  -6  366.26   23.10
  -4   2  -6  378.16   18.20
   4   2   6  382.36   17.70
  -5  -3   6  542.15   26.90
  -5   3   6  593.34   28.50
  -4  -3   6  289.57   17.60
  -4  -3   6  282.47   15.40
  -4  -3   6  276.87   13.90
   4  -3  -6  266.87   13.20
  -4  -3   6  293.77   16.80
  -4   3   6  302.87   17.90
   4   3  -6  268.57   13.90
  -4   3   6  271.77   15.40
  -3  -3   6  769.82   36.40
  -3  -3   6  729.43   36.90
   3  -3  -6  689.43   32.30
  -3  -3   6  641.94   64.29
  -3  -3   6  749.73   33.10
  -3  -3   6  725.73   34.40
  -3   3   6  773.82   34.20
   3   3  -6  726.83   33.00
  -3   3   6  770.72   32.50
  -3   3   6  798.82   37.90
  -3   3   6  737.03   33.90
  -3   3   6  787.42   67.19
   2  -3  -6  119.39    7.30
  -2  -3   6  124.29    8.20
  -2  -3   6  132.39    9.70
  -2  -3   6  132.99   34.60
  -2  -3   6  128.89    8.00
  -2  -3   6  119.79    7.30
  -2   3   6  119.89    7.90
  -2   3   6  136.89   10.40
   2   3  -6  133.49    7.70
  -2   3   6  119.59    7.80
  -2   3   6  127.79    7.30
  -1  -3   6 1104.89   47.90
  -1  -3   6 1141.19   48.80
  -1  -3   6 1081.29   48.90
  -1  -3   6 1144.39  111.99
   1  -3  -6 1113.09   47.70
  -1  -3   6 1137.49   47.90
   1   3  -6 1118.79   48.20
  -1   3   6 1101.69   48.10
  -1   3   6 1103.69   47.70
  -1   3   6 1068.59   48.00
   0  -3   6 3425.46  239.48
   0  -3   6 3353.16  140.49
   0  -3   6 3307.27  141.19
   0  -3  -6 3398.46  140.39
   0  -3   6 3536.65  141.19
   0   3   6 3322.97  140.49
   0   3   6 3240.68  140.89
   0   3  -6 3372.06  141.09
   0   3   6 3426.26  140.09
   1  -3   6 1858.91   79.39
  -1  -3  -6 1907.61   80.49
   1  -3   6 2003.70   85.59
   1  -3   6 1871.71   79.89
  -1  -3  -6 1794.52   78.79
  -1   3  -6 1884.41   79.69
   1   3   6 1905.31   78.89
   1   3   6 1819.72   79.19
   1   3   6 1812.22   81.79
   2  -3   6  339.97   16.30
  -2  -3  -6  331.07   17.00
   2  -3   6  326.17   16.50
  -2  -3  -6  321.07   16.40
   2   3   6  322.37   16.00
  -2   3  -6  324.87   24.00
  -2   3  -6  308.17   30.40
   2   3   6  314.87   15.80
   3  -3   6  541.85   25.50
  -3  -3  -6  553.54   25.90
  -3  -3  -6  557.34   33.80
  -3  -3  -6  547.35   26.00
   3  -3   6  536.25   25.30
   3   3   6  555.64   25.00
   3   3   6  540.55   25.10
  -3   3  -6  540.25   26.30
  -3   3  -6  546.95   33.30
  -4  -3  -6   90.99    6.50
  -4  -3  -6  105.59    6.90
   4  -3   6  102.99    6.20
  -4  -3  -6  108.09   10.30
  -4   3  -6  115.69   10.10
   4   3   6  112.09    6.20
  -4   3  -6  120.29    6.90
  -5  -4   6    2.80    1.60
  -5  -4   6    4.20    1.90
  -5  -4   6    3.80    1.40
  -5   4   6    2.00    1.30
  -5   4   6    2.50    1.30
  -4  -4   6  423.46   21.40
  -4  -4   6  413.86   21.90
   4  -4  -6  429.36   19.00
  -4  -4   6  415.46   23.30
  -4   4   6  397.36   20.40
   4   4  -6  424.16   19.80
  -4   4   6  421.76   23.50
  -4   4   6  415.06   21.20
   3  -4  -6  734.13   32.30
  -3  -4   6  719.83   36.80
  -3  -4   6  732.93   35.60
  -3  -4   6  726.33   34.40
  -3  -4   6  716.83   32.90
  -3   4   6  762.62   66.19
  -3   4   6  780.32   37.70
  -3   4   6  737.63   34.00
   3   4  -6  727.83   33.10
  -3   4   6  739.63   32.20
  -2  -4   6 1397.06   59.29
  -2  -4   6 1339.27   59.49
  -2  -4   6 1373.96   58.29
  -2  -4   6 1269.37  114.69
  -2   4   6 1393.96   62.99
  -2   4   6 1339.47   61.39
  -2   4   6 1419.66   58.19
   2   4  -6 1351.26   58.59
  -1  -4   6  203.08   46.40
  -1  -4   6  190.98   13.60
  -1  -4   6  219.88   11.20
  -1  -4   6  222.38   11.20
  -1   4   6  205.88   11.20
   1   4  -6  224.38   17.00
  -1   4   6  217.78   10.80
  -1   4   6  217.08   14.00
   0  -4   6 4106.19  152.78
   0  -4  -6 3331.17  149.69
   0  -4   6 3865.41  151.78
   0  -4   6 3423.96  248.78
   0  -4  -6 3434.46  222.78
   0   4   6 4030.80  152.68
   0   4  -6 3396.36  150.78
   0   4   6 3472.85  148.79
   0   4   6 3287.77  150.88
   1  -4   6 1101.19   53.19
   1  -4   6 1184.48   52.29
  -1  -4  -6 1254.47  111.89
   1  -4   6 1207.68   51.79
   1  -4   6 1229.58   52.39
  -1  -4  -6 1189.58   51.09
   1   4   6 1174.38   51.99
  -1   4  -6 1221.48   52.19
  -1   4  -6 1209.88   72.49
   1   4   6 1180.48   51.09
  -2  -4  -6   10.90   10.70
  -2  -4  -6    8.30    2.10
   2  -4   6   10.20    2.10
   2   4   6    7.30    1.60
  -2   4  -6    8.00    9.80
   3  -4   6  389.96   18.80
  -3  -4  -6  365.76   19.10
  -3  -4  -6  389.86   20.70
  -3  -4  -6  405.96   26.80
   3  -4   6  375.96   19.00
   3   4   6  395.06   18.50
  -3   4  -6  420.86   20.20
   3   4   6  386.66   18.50
  -3   4  -6  386.16   25.60
   4  -4   6   78.69    5.50
  -4  -4  -6   79.59    8.10
  -4  -4  -6   74.69    5.50
   4   4   6   82.19    4.80
  -4   4  -6   83.49    5.50
  -4   4  -6   77.09    7.60
  -5  -5   6  179.48   10.00
  -5  -5   6  172.78    9.60
  -5  -5   6  171.88   11.00
  -5  -5   6  171.38   11.80
  -5   5   6  184.68    9.50
  -5   5   6  174.38   11.00
  -5   5   6  173.78   10.00
   4  -5  -6  138.29    7.30
  -4  -5   6  131.89   10.40
  -4  -5   6  132.29    9.10
  -4  -5   6  146.09    9.40
  -4  -5   6  141.39    9.90
  -4   5   6  134.89   11.00
  -4   5   6  128.49    8.80
   4   5  -6  143.39    8.10
  -4   5   6  142.19    8.70
  -3  -5   6 1692.93   75.29
  -3  -5   6 1624.74   70.99
  -3  -5   6 1566.64   72.39
  -3  -5   6 1732.53   74.39
  -3  -5   6 1626.84   73.19
   3  -5  -6 1550.74   69.99
  -3   5   6 1689.13   72.19
   3   5  -6 1609.54   71.19
  -3   5   6 1669.03   70.09
  -3   5   6 1777.32  112.79
  -3   5   6 1781.32   76.19
  -2  -5   6  432.46   21.80
  -2  -5   6  353.16   57.59
  -2  -5   6  384.56   19.20
  -2  -5   6  375.56   19.40
  -2   5   6  387.96   19.10
  -2   5   6  377.46   17.90
  -2   5   6  376.06   22.10
   2   5  -6  370.66   18.60
  -1  -5   6  445.86   25.60
  -1  -5   6  493.15   23.60
  -1  -5   6  468.25   23.90
  -1  -5   6  499.95   22.70
   1   5  -6  553.74   30.80
  -1   5   6  492.15   23.10
   1   5  -6  489.55   23.20
  -1   5   6  487.45   22.50
  -1   5   6  479.65   22.60
   0  -5   6  867.61  110.79
   0  -5   6  880.41   41.80
   0  -5  -6  930.51   39.80
   0  -5   6  909.01   40.20
   0  -5   6  953.40   40.80
   0  -5   6  933.01   40.90
   0   5  -6  971.40   41.10
   0   5   6  904.11   39.90
   0   5   6  890.61   40.20
   1  -5   6  343.97   17.00
   1  -5   6  329.97   18.00
   1  -5   6  334.87   16.80
  -1  -5  -6  340.57   56.29
  -1  -5  -6  329.47   15.70
   1  -5   6  335.27   16.40
  -1   5  -6  324.47   32.10
  -1   5  -6  325.97   22.70
  -1   5  -6  329.57   16.60
   1   5   6  332.67   16.10
   1   5   6  317.97   16.30
   1   5   6  326.17   15.60
   2  -5   6 1402.96   59.69
   2  -5   6 1421.46   59.19
  -2  -5  -6 1279.97  111.69
   2   5   6 1405.96   58.39
  -2   5  -6 1219.48   85.49
   2   5   6 1381.66   58.69
  -2   5  -6 1421.96   59.99
  -2   5  -6 1385.06   67.69
   3  -5   6  221.08   11.50
  -3  -5  -6  214.28   16.90
   3  -5   6  216.78   11.60
  -3  -5  -6  208.18   11.70
   3   5   6  221.08   11.10
  -3   5  -6  209.08   12.20
  -3   5  -6  202.28   16.00
   3   5   6  207.18   10.90
  -4  -5  -6  378.86   21.70
  -4  -5  -6  352.56   18.20
   4  -5   6  381.36   17.40
   4   5   6  365.66   17.20
  -4   5  -6  391.26   22.30
  -4   5  -6  402.06   18.10
  -5  -6   6   43.90    4.40
  -5  -6   6   39.00    3.50
  -5  -6   6   44.10    3.50
  -5   6   6   42.40    4.30
  -4  -6   6  112.89    8.70
   4  -6  -6  125.49    7.80
  -4  -6   6  122.49    8.40
  -4  -6   6  118.49    9.50
  -4   6   6  104.39    9.50
   4   6  -6  119.29    7.10
  -4   6   6  122.79    7.80
  -4   6   6  119.89    9.60
  -3  -6   6 1242.88   56.39
  -3  -6   6 1037.10   88.69
  -3   6   6 1250.37   51.19
  -3   6   6 1256.57   53.39
  -3   6   6 1265.07   56.99
   3   6  -6 1161.68   52.69
  -2  -6   6 1314.57   59.69
   2  -6  -6 1370.96   59.19
  -2  -6   6 1358.76   59.59
  -2  -6   6 1187.58  114.99
  -2  -6   6 1517.35   62.69
  -2   6   6 1355.66   57.99
  -2   6   6 1373.46   59.39
   2   6  -6 1327.07   58.99
  -2   6   6 1422.36   63.39
  -1  -6   6 1446.46   60.99
  -1  -6   6 1382.26  133.99
   1  -6  -6 1474.45   62.19
  -1  -6   6 1297.17   62.19
  -1  -6   6 1480.05   62.09
  -1  -6   6 1422.96   60.69
  -1   6   6 1384.66   60.59
  -1   6   6 1440.56   60.19
  -1   6   6 1463.55   61.49
   1   6  -6 1439.26   61.59
  -1   6   6 1377.76   60.69
   0  -6   6  529.95   24.70
   0  -6   6  463.75   82.19
   0  -6   6  537.15   24.60
   0  -6  -6  521.25   23.40
   0  -6   6  538.15   24.20
   0  -6   6  494.25   25.70
   0   6  -6  523.25   42.80
   0   6  -6  532.65   24.80
   0   6   6  510.65   23.90
   0   6   6  526.15   23.70
  -1  -6  -6 1794.22  139.39
   1  -6   6 1615.24   70.29
   1  -6   6 1665.43   69.89
   1  -6   6 1584.04   71.79
  -1  -6  -6 1623.64   68.89
   1  -6   6 1693.43   70.49
   1   6   6 1560.24   69.59
  -1   6  -6 1583.34   69.89
   1   6   6 1629.84   68.89
  -1   6  -6 1572.64   94.29
   1   6   6 1656.53   69.49
  -1   6  -6 1608.94   76.79
  -2  -6  -6  677.23   32.60
  -2  -6  -6  578.94  105.39
  -2   6  -6  766.92   38.80
   2   6   6  697.43   31.60
   2   6   6  738.93   31.10
  -3  -6  -6   10.50    2.00
   3  -6   6   17.10    2.90
  -3  -6  -6   11.30    3.50
  -3   6  -6   13.10    3.60
   3   6   6   14.70    2.60
   3   6   6   16.10    2.00
  -3   6  -6   12.30    1.90
  -3   6  -6   12.20    2.00
  -3   6  -6   12.50    2.30
  -4  -6  -6  458.45   24.60
   4   6   6  494.85   21.40
  -5  -7   6  113.89    7.50
  -5  -7   6  101.19    6.90
  -5  -7   6  109.79    6.40
  -5   7   6  115.69    8.00
  -5   7   6   99.39    6.80
   4  -7  -6  121.09    6.30
  -4  -7   6  112.69    9.20
  -4  -7   6  119.79    8.30
  -4  -7   6  127.49   10.50
  -4   7   6  113.19    9.10
  -4   7   6  122.59    7.80
  -4   7   6  117.49    7.60
   4   7  -6  121.19    7.30
  -3  -7   6 1298.57  123.89
  -3  -7   6 1627.14   70.49
  -3   7   6 1623.44   65.09
   3   7  -6 1601.84   66.59
  -3   7   6 1567.74   70.69
  -2  -7   6  234.48   47.20
  -2  -7   6  243.28   13.80
  -2  -7   6  252.57   15.90
  -2   7   6  262.17   13.80
   2   7  -6  246.58   13.40
  -2   7   6  257.77   12.50
  -2   7   6  259.27   16.70
  -1  -7   6  603.44   27.30
  -1  -7   6  596.24   26.80
  -1  -7   6  575.34   28.50
   1  -7  -6  618.54   28.40
  -1  -7   6  516.85   80.99
  -1  -7   6  581.24   28.00
  -1   7   6  583.14   26.70
  -1   7   6  604.94   26.20
  -1   7   6  607.64   27.60
   1   7  -6  606.04   27.80
   0  -7   6  125.79   43.70
   0  -7   6  177.98   11.70
   0  -7  -6  144.29    8.00
   0  -7   6  140.09    8.60
   0  -7   6  144.89    9.40
   0  -7   6  144.49    8.80
   0   7   6  140.79    8.30
   0   7   6  144.59    8.10
   0   7  -6  149.49    9.10
   0   7  -6  153.78   21.50
   1  -7   6  316.77   18.10
  -1  -7  -6  334.17   15.60
   1  -7   6  349.47   16.70
   1  -7   6  332.37   17.20
  -1  -7  -6  362.96   58.09
   1  -7   6  341.37   17.20
  -1   7  -6  323.07   16.50
   1   7   6  326.37   15.60
   1   7   6  318.97   16.20
   1   7   6  344.97   16.20
  -1   7  -6  304.57   33.20
   2  -7   6  344.07   16.60
   2  -7   6  325.37   17.00
  -2  -7  -6  313.07   17.30
  -2   7  -6  323.67   17.70
  -2   7  -6  347.47   17.50
   2   7   6  345.27   16.50
   2   7   6  320.87   15.70
   2   7   6  336.57   16.10
   3  -7   6   68.09    5.10
  -3  -7  -6   73.99    8.10
  -3  -7  -6   61.69    5.10
   3   7   6   67.79    4.50
  -3   7  -6   66.69    5.50
  -3   7  -6   69.89    4.80
  -3   7  -6   68.89    4.80
  -4  -7  -6   94.89    5.40
  -4  -7  -6   91.69    6.70
   4  -7   6   99.39    5.30
   4   7   6   95.09    5.10
  -4   7  -6   97.09    5.70
  -5  -8   6   43.10    3.30
  -5  -8   6   46.30    4.10
  -5   8   6   43.90    3.80
  -4  -8   6  211.48   13.30
   4  -8  -6  251.47   11.00
  -4  -8   6  223.58   13.00
  -4  -8   6  227.08   14.20
  -4   8   6  219.38   12.20
   4   8  -6  244.88   11.70
  -4   8   6  245.38   14.30
  -3  -8   6  112.79    8.70
  -3  -8   6  119.99    9.70
  -3  -8   6  110.89    9.00
  -3   8   6  108.49    7.70
  -3   8   6  121.79    9.90
  -3   8   6  124.29    6.30
   3   8  -6  118.19    7.40
  -2  -8   6 1999.50  160.28
   2  -8  -6 2042.00   96.09
  -2   8   6 2206.68   89.79
  -2   8   6 2174.78   91.39
  -2   8   6 2220.28   95.19
   2   8  -6 2184.78   91.19
   1  -8  -6 1937.61   78.39
  -1  -8   6 1817.32   75.39
  -1  -8   6 1813.62   77.89
  -1  -8   6 1750.72   77.49
  -1  -8   6 1929.11   77.29
  -1  -8   6 1584.14  153.78
   1   8  -6 1682.23   76.99
  -1   8   6 1723.73   76.29
   1   8  -6 1865.21   76.69
   1   8  -6 1738.13  106.79
  -1   8   6 1809.92   74.69
  -1   8   6 1688.43   75.19
   0  -8   6   16.70    2.90
   0  -8   6   17.50    3.00
   0  -8   6   19.80    2.70
   0  -8   6   25.80    5.30
   0   8  -6   32.70   15.80
   0   8   6   24.80    2.40
   0   8   6   19.20    2.40
   1  -8   6 1663.23   77.19
   1  -8   6 1693.13   73.79
   1  -8   6 1663.43   74.29
  -1  -8  -6 1896.61  173.68
  -1   8  -6 1706.03   77.79
   1   8   6 1852.61   75.99
   1   8   6 1623.34   73.29
   2  -8   6  842.02   38.10
   2  -8   6  850.21   37.60
  -2  -8  -6  814.32   38.50
  -2  -8  -6  839.92   44.20
   2   8   6  826.92   37.40
  -2   8  -6  850.61   38.60
  -2   8  -6  829.22   38.90
  -2   8  -6  889.81   38.60
   2   8   6  849.22   37.00
   2   8   6  853.61   38.50
  -3  -8  -6  314.57   19.40
  -3  -8  -6  288.47   15.70
   3  -8   6  350.86   17.30
  -3   8  -6  331.87   15.50
  -3   8  -6  325.87   15.30
  -3   8  -6  316.67   17.30
  -4  -9   6  195.58   11.20
  -4  -9   6  189.98   12.20
   4  -9  -6  203.78    9.20
  -4   9   6  194.98   10.50
  -4   9   6  189.98   11.90
  -3  -9   6  119.59    9.70
  -3  -9   6  130.09    9.20
  -3  -9   6  132.69    9.60
  -3  -9   6  120.69    8.40
  -3   9   6  119.69    9.70
  -3   9   6  122.99    8.10
  -3   9   6  125.69    6.50
   3   9  -6  124.89    7.60
   2  -9  -6 2375.56   93.59
  -2  -9   6 1965.40  159.78
   2   9  -6 2199.78   92.59
  -2   9   6 2158.48   91.19
  -1  -9   6  194.48   11.50
  -1  -9   6  201.48   11.00
   1  -9  -6  183.78   13.60
  -1  -9   6  170.38   74.89
   1   9  -6  208.58   12.30
  -1   9   6  173.68   13.40
   1   9  -6  207.58   11.30
  -1   9   6  197.98   10.00
   0  -9   6  713.63   32.90
   0  -9   6  708.93   32.10
   0   9   6  682.73   32.30
   0   9  -6  718.83   33.40
   0   9   6  685.83   33.30
   1  -9   6 1014.90   45.80
   1  -9   6 1049.89   45.70
  -1  -9  -6 1035.50   44.10
  -1   9  -6 1046.00   46.60
   1   9   6 1010.10   44.90
  -1   9  -6 1049.79   45.00
   1   9   6 1042.20   44.80
  -2  -9  -6   95.49    7.00
   2  -9   6  106.19    7.20
   2  -9   6  100.69    6.80
  -2  -9  -6  100.29    9.80
   2   9   6   97.19    6.20
  -2   9  -6  105.89    7.30
   2   9   6   98.59    6.00
  -2   9  -6   99.19    7.20
  -2   9  -6  109.69    7.10
  -3  -9  -6  291.57   14.70
  -3  -9  -6  274.57   16.60
   3  -9   6  303.47   14.60
  -3   9  -6  313.27   14.00
  -3   9  -6  289.47   14.50
   3   9   6  313.57   14.00
  -3   9  -6  311.17   15.00
  -4 -10   6   67.09    5.10
  -4 -10   6   65.09    5.50
  -4 -10   6   63.19    5.30
   4 -10  -6   71.59    3.70
   4  10  -6   68.99    4.70
  -4  10   6   67.69    4.70
  -4  10   6   68.69    5.60
  -3 -10   6   50.19    4.10
  -3 -10   6   45.80    5.20
  -3 -10   6   47.30    4.90
  -3 -10   6   53.09    5.40
   3  10  -6   49.80    4.00
  -3  10   6   46.60    5.40
  -3  10   6   51.19    4.40
  -3  10   6   51.69    3.10
  -2 -10   6  206.18   14.20
  -2 -10   6  224.78   14.60
   2 -10  -6  236.28   15.20
  -2  10   6  228.48   14.90
   2  10  -6  229.18   12.40
  -2  10   6  250.07   11.40
   1 -10  -6 1270.97   55.29
  -1 -10   6 1219.78   52.49
   1  10  -6 1192.88   54.49
   1  10  -6 1271.07   54.29
  -1  10   6 1239.88   53.09
   0 -10   6  218.28   11.80
   0 -10   6  221.18   12.20
   0  10   6  231.38   11.60
   0  10  -6  214.28   12.60
   0  10  -6  231.98   12.30
   0  10   6  228.08   11.20
   1 -10   6  213.58   11.80
   1 -10   6  216.78   11.80
  -1 -10  -6  211.68   10.30
  -1  10  -6  222.18   12.40
   1  10   6  209.38   11.00
  -1  10  -6  225.58   12.40
  -1  10  -6  220.18   10.80
   1  10   6  210.28   10.80
  -2 -10  -6  201.08   13.60
  -2 -10  -6  197.98   11.40
   2 -10   6  191.58   10.90
  -2  10  -6  198.88   11.50
   2  10   6  207.18   10.60
   2  10   6  208.88   10.30
  -2  10  -6  219.38   11.40
  -2  10  -6  214.08   11.80
   3 -10   6   98.19    7.20
  -3 -10  -6   76.89    5.10
  -3  10  -6   80.39    5.20
  -3  10  -6   74.79    5.30
   3  10   6   86.89    5.50
  -3  10  -6   83.49    4.60
  -4 -11   6    6.60    1.30
  -4 -11   6    6.50    1.50
  -4 -11   6    6.20    1.60
   4  11  -6    7.70    1.00
  -4  11   6    7.50    1.20
  -4  11   6    6.00    1.40
  -3 -11   6  128.49    7.50
  -3 -11   6  123.99    8.90
  -3 -11   6  130.49    9.60
  -3 -11   6  139.49    9.40
  -3  11   6  128.29    6.20
   3  11  -6  128.69    7.30
  -3  11   6  138.19    9.20
  -3  11   6  130.09    7.90
  -2 -11   6   16.60    3.20
  -2 -11   6   23.20    3.60
   2  11  -6   19.40    2.50
  -2  11   6   20.80    2.10
  -2  11   6   27.40    4.10
   1 -11  -6   59.29    6.00
  -1  11   6   53.99    4.00
  -1  11   6   54.69    4.60
   1  11  -6   60.09    5.00
   1  11  -6   61.79    4.80
   0 -11  -6 1660.23   70.29
   0 -11   6 1693.43   71.09
   0  11   6 1678.73   70.39
   0  11  -6 1646.74   72.29
   0  11  -6 1751.92   71.59
   0  11   6 1629.14   70.89
   1 -11   6  618.34   28.40
  -1 -11  -6  606.14   26.90
  -1 -11  -6  623.94   32.10
   1 -11   6  601.44   28.70
  -1  11  -6  623.64   29.10
  -1  11  -6  636.54   29.50
  -1  11  -6  600.94   27.00
   1  11   6  707.93   28.60
   1  11   6  622.84   27.60
  -2 -11  -6 1015.90   47.90
   2 -11   6 1105.29   47.60
  -2  11  -6 1153.18   47.80
  -2  11  -6 1119.09   48.30
   2  11   6 1117.99   46.80
   3 -11   6    7.20    1.10
  -3 -11  -6    5.80    1.10
   3  11   6    6.90    1.00
  -3 -12   6  441.46   19.80
  -3 -12   6  387.36   21.50
  -3 -12   6  459.15   21.20
  -3 -12   6  405.76   22.40
   3  12  -6  492.95   20.00
  -3  12   6  476.05   20.60
  -3  12   6  409.26   21.20
  -2 -12   6  141.39    9.70
  -2 -12   6  131.79    9.30
  -2 -12   6  131.99    8.90
   2  12  -6  137.79    7.80
  -2  12   6  133.59    8.90
  -2  12   6  136.79    7.00
  -1 -12   6  117.79    8.80
  -1  12   6  126.09    7.60
   1  12  -6  125.29    7.70
  -1  12   6  121.39    6.80
   1  12  -6  122.39    7.30
  -1  12   6  125.29    9.30
   0 -12  -6  296.07   13.70
   0 -12   6  302.27   14.40
   0  12   6  303.97   14.30
   0  12  -6  294.87   15.20
   0  12  -6  310.37   14.50
   0  12   6  291.37   15.60
   0  12   6  292.07   14.20
   1 -12   6   38.30    4.20
   1  12   6   39.90    3.00
  -1  12  -6   36.70    4.60
   1  12   6   41.60    3.00
  -1  12  -6   37.90    3.20
   2 -12   6   68.99    4.40
  -2 -12  -6   63.29    4.80
   2  12   6   68.69    4.00
  -2  12  -6   72.39    4.50
  -2  12  -6   63.99    4.00
  -2  12  -6   75.49    5.80
   3 -13  -6   20.30    1.50
  -3 -13   6   19.20    2.40
  -3 -13   6   15.10    1.90
  -3 -13   6   21.60    2.40
  -3  13   6   19.80    2.20
  -2 -13   6  109.39    7.60
  -2 -13   6  105.59    7.70
  -2 -13   6  109.39    7.30
  -2  13   6  120.79    6.80
   2  13  -6  114.99    6.40
  -2  13   6  117.89    5.90
  -1 -13   6  435.66   21.50
  -1 -13   6  419.56   22.00
   1  13  -6  448.66   20.10
  -1  13   6  435.46   20.20
  -1  13   6  443.66   19.30
   1  13  -6  448.46   19.80
  -1  13   6  390.46   21.50
   0 -13  -6  164.28    7.80
   0 -13   6  161.48    8.60
   0 -13   6  152.78    9.80
   0  13   6  160.78    8.30
   0  13  -6  169.58    8.20
   0  13  -6  164.68    9.00
   0  13   6  165.68    8.30
   1 -13   6    6.80    1.20
  -1  13  -6   10.20    1.50
   1  13   6    7.10    1.20
   1  13   6    7.50    1.80
  -1  13  -6    6.50    1.90
   1  13   6    9.00    1.70
  -2 -13  -6   30.00    2.60
   2 -13   6   32.70    2.40
  -2  13  -6   34.30    2.80
  -2  13  -6   34.90    2.40
   2  13   6   34.10    2.20
   2 -14  -6   26.00    1.80
  -2 -14   6   23.70    2.80
  -2 -14   6   20.00    2.00
  -2 -14   6   19.60    2.20
  -2  14   6   22.80    2.60
   2  14  -6   21.10    1.90
  -1 -14   6  323.37   16.30
  -1 -14   6  294.27   15.20
   1  14  -6  329.87   14.40
  -1  14   6  264.67   14.90
  -1  14   6  313.57   14.50
  -1  14   6  314.37   13.90
   1  14  -6  308.37   14.20
   0 -14   6   31.60    3.10
   0 -14  -6   36.40    2.10
   0 -14   6   34.60    2.90
   0  14   6   34.00    3.30
   0  14   6   29.70    2.90
   0  14   6   36.70    2.60
   0  14  -6   34.80    2.80
   1 -14   6  275.17   12.10
  -1 -14  -6  252.27   13.70
   1  14   6  317.17   13.70
  -1  14  -6  268.77   13.90
   1  14   6  264.97   12.20
   4   0  -7    2.90    1.70
  -4   0   7    2.00    1.40
  -4   0   7    1.70    1.60
   3   0  -7   25.60    2.50
  -3   0   7   19.30    2.30
  -3   0   7   21.60    3.70
  -3   0   7   20.90    3.70
  -2   0   7 3085.49  199.38
  -2   0   7 2986.90  126.39
  -2   0   7 3122.19  130.19
  -2   0   7 3072.99  129.49
   2   0  -7 2898.81  125.89
  -2   0   7 2927.31  127.19
  -1   0   7  187.88   10.80
  -1   0   7  206.68   11.30
  -1   0   7  186.98   10.00
  -1   0   7  194.48   12.80
  -1   0   7  206.88   47.80
  -1   0   7  187.58   10.00
   1   0  -7  183.28   10.30
   0   0   7   36.80    3.40
   0   0   7   29.30    3.50
   0   0  -7   33.20    3.20
   0   0   7   40.10   29.50
   1   0   7   82.29    5.90
   1   0   7   96.59    6.70
  -1   0  -7   70.39   14.90
  -1   0  -7   88.29    5.70
   1   0   7   85.09    5.90
   2   0   7   19.10    3.50
   2   0   7   25.40    3.10
  -2   0  -7   23.00    2.90
  -2   0  -7   22.00    5.30
   2   0   7   25.70    2.80
  -3   0  -7  246.88   18.40
  -3   0  -7  252.47   12.60
   3   0   7  241.78   12.40
   4   0   7    4.40    0.90
  -5  -1   7   31.70    3.00
  -5  -1   7   38.40    3.60
  -5   1   7   38.40    3.80
  -4  -1   7   13.70    2.90
  -4  -1   7   17.20    3.00
   4  -1  -7   13.90    2.10
  -4   1   7   14.90    3.00
  -4   1   7   14.30    1.90
  -3  -1   7  280.97   16.60
  -3  -1   7  280.47   16.60
  -3  -1   7  278.67   13.80
   3  -1  -7  270.87   13.50
   3   1  -7  277.87   13.60
  -3   1   7  271.57   16.90
  -3   1   7  270.27   13.40
  -2  -1   7  267.47   16.00
  -2  -1   7  272.57   14.60
  -2  -1   7  256.57   15.90
  -2  -1   7  260.27   13.50
   2  -1  -7  242.38   12.80
  -2  -1   7  258.67   48.30
  -2   1   7  255.07   13.30
  -2   1   7  266.17   16.40
  -2   1   7  276.07   48.90
   2   1  -7  240.58   12.90
  -2   1   7  270.27   15.50
  -2   1   7  244.68   14.40
  -1  -1   7  953.70   41.80
  -1  -1   7  981.90   45.20
  -1  -1   7  938.21   43.00
  -1  -1   7  961.00   41.80
  -1  -1   7 1009.50  108.89
   1  -1  -7  914.61   42.00
  -1  -1   7  958.60   43.00
  -1   1   7  931.11   42.90
  -1   1   7  986.30   45.70
  -1   1   7 1077.69  110.89
  -1   1   7  937.61   41.60
   1   1  -7  940.91   42.20
   0  -1   7 2866.51  126.99
   0  -1  -7 2947.01  124.49
   0  -1   7 2954.70  124.29
   0  -1   7 2900.61  125.59
   0  -1   7 2999.30  124.69
   0  -1   7 2931.61  125.39
   0   1  -7 3030.00  124.69
   0   1   7 3018.40  125.49
   0   1   7 2991.40  124.69
   0   1   7 2696.63  125.09
   0   1   7 3400.66  242.88
   0   1   7 3028.90  124.19
  -1  -1  -7 1332.27   79.59
  -1  -1  -7 1439.66   61.29
   1  -1   7 1454.65   61.59
   1  -1   7 1453.45   62.89
   1  -1   7 1474.15   61.99
   1   1   7 1459.55   61.89
  -1   1  -7 1459.65   61.59
  -1   1  -7 1381.46   81.19
   1   1   7 1470.85   62.59
   1   1   7 1436.36   61.49
  -2  -1  -7  978.70   51.69
   2  -1   7  953.10   42.00
  -2  -1  -7  966.90   42.60
   2  -1   7  937.51   42.10
   2  -1   7  930.91   43.10
  -2   1  -7  973.00   43.00
  -2   1  -7  978.10   51.29
   2   1   7  968.30   41.90
   2   1   7  925.21   42.70
   2   1   7  952.50   42.10
  -3  -1  -7   29.50    2.80
   3  -1   7   33.20    3.10
  -3  -1  -7   35.50    6.20
  -3   1  -7   31.80    5.60
  -3   1  -7   35.40    3.90
   3   1   7   32.90    3.00
  -4  -1  -7   98.39    8.70
   4  -1   7  101.29    5.30
  -4   1  -7  106.19    8.10
   4   1   7  101.09    5.30
  -5  -2   7  163.98   10.10
  -5   2   7  186.48    8.40
  -5   2   7  177.18   10.40
  -4  -2   7  246.58   14.60
  -4  -2   7  245.88   15.00
   4  -2  -7  269.57   12.40
   4   2  -7  275.37   12.90
  -4   2   7  262.27   15.70
  -4   2   7  258.27   12.70
  -3  -2   7 1625.34   72.49
  -3  -2   7 1610.74   69.39
   3  -2  -7 1586.74   69.09
  -3   2   7 1657.23   69.09
   3   2  -7 1634.74   69.49
  -3   2   7 1693.63   74.09
  -2  -2   7 3166.18  210.58
  -2  -2   7 3338.87  138.29
   2  -2  -7 3202.68  137.29
  -2  -2   7 3312.07  140.79
  -2  -2   7 3257.07  141.29
   2   2  -7 3071.29  137.49
  -2   2   7 3683.23  217.48
  -2   2   7 3268.87  137.79
  -2   2   7 3397.16  142.29
  -1  -2   7 1693.63   72.39
  -1  -2   7 1740.63  150.88
  -1  -2   7 1734.33   73.89
  -1  -2   7 1728.03   72.49
  -1  -2   7 1660.43   73.59
   1  -2  -7 1699.53   72.59
   1   2  -7 1711.53   72.89
  -1   2   7 1712.33   73.49
  -1   2   7 1714.93   73.19
  -1   2   7 1717.13   72.19
   0  -2   7  173.08    9.30
   0  -2   7  166.88    9.50
   0  -2   7  159.88   49.90
   0  -2  -7  165.78    9.20
   0  -2   7  168.48   10.10
   0  -2   7  167.78   10.20
   0   2   7  159.18    9.90
   0   2   7  160.78    9.70
   0   2   7  166.38    9.00
   0   2   7  167.98    9.30
   0   2  -7  169.88    9.50
   1  -2   7  447.76   22.50
   1  -2   7  474.35   21.80
   1  -2   7  430.16   22.10
  -1  -2  -7  448.16   20.80
   1  -2   7  462.35   21.50
  -1   2  -7  466.35   21.40
   1   2   7  455.55   22.10
  -1   2  -7  456.15   38.40
   1   2   7  465.05   21.60
   1   2   7  439.86   21.10
   2  -2   7   38.60    3.60
  -2  -2  -7   33.70    3.40
   2  -2   7   31.80    3.60
   2  -2   7   32.40    4.20
   2   2   7   34.70    3.30
  -2   2  -7   35.80    6.30
   2   2   7   33.40    3.60
   2   2   7   32.40    4.00
  -3  -2  -7   92.99   10.30
   3  -2   7   86.39    5.60
  -3   2  -7   90.39    6.80
  -3   2  -7   92.89   11.60
   3   2   7   78.79    5.40
   4  -2   7   13.90    1.40
  -4  -2  -7   10.40    2.60
  -4   2  -7    9.40    1.20
  -4   2  -7   11.50    2.30
   4   2   7   12.60    1.30
  -5  -3   7    1.40    1.00
  -5   3   7    1.00    0.80
  -5   3   7    2.40    1.10
  -4  -3   7  104.49    8.50
   4  -3  -7  123.09    6.40
  -4  -3   7  116.79    8.10
  -4  -3   7  104.09    7.00
   4   3  -7  122.69    6.80
  -4   3   7  110.69    8.90
  -4   3   7  116.49    6.70
  -3  -3   7   51.99    4.90
   3  -3  -7   43.10    3.50
  -3  -3   7   40.50    5.10
  -3  -3   7   37.10   17.90
  -3  -3   7   50.19    3.80
  -3   3   7   50.69    5.90
  -3   3   7   42.60    3.70
   3   3  -7   48.70    3.90
  -2  -3   7  397.46   21.30
  -2  -3   7  434.06   20.90
  -2  -3   7  407.66   62.39
   2  -3  -7  414.96   19.80
  -2  -3   7  406.16   23.20
  -2   3   7  420.96   20.20
   2   3  -7  422.36   20.30
  -2   3   7  444.96   21.20
  -2   3   7  475.85   24.50
  -2   3   7  455.85   63.79
  -1  -3   7 1821.02   78.19
  -1  -3   7 1814.72   76.89
   1  -3  -7 1821.82   76.79
  -1  -3   7 1709.53  154.18
  -1  -3   7 1860.91   78.39
  -1  -3   7 1838.72   76.69
  -1   3   7 1868.11   76.49
   1   3  -7 1812.32   77.29
  -1   3   7 1803.12   77.69
  -1   3   7 1793.32   77.29
   0  -3   7  226.08   61.39
   0  -3   7  206.68   12.40
   0  -3   7  223.28   12.50
   0  -3  -7  218.98   11.30
   0  -3   7  222.68   11.80
   0  -3   7  224.68   11.70
   0   3  -7  226.68   11.90
   0   3   7  218.58   11.50
   0   3   7  217.88   11.30
   0   3   7  210.38   11.90
   0   3   7  211.98   12.20
   1  -3   7 1333.67   61.89
   1  -3   7 1463.85   60.19
   1  -3   7 1382.96   59.59
  -1  -3  -7 1334.47   58.79
   1   3   7 1381.06   60.39
  -1   3  -7 1418.76   59.79
   1   3   7 1434.36   59.79
   1   3   7 1333.57   59.19
   2  -3   7   86.39    6.80
   2  -3   7   83.79    5.90
   2  -3   7   93.19    6.20
   2   3   7   75.59    5.90
   2   3   7   80.89    5.70
   2   3   7   85.49    5.80
  -2   3  -7   82.19    9.70
  -3  -3  -7  196.88   15.60
   3  -3   7  203.88   13.00
   3   3   7  228.18   13.20
  -3   3  -7  181.18   12.30
  -3   3  -7  205.88   15.10
  -5   4   7  554.34   26.80
  -5   4   7  564.64   24.00
  -4  -4   7   99.09    8.20
  -4  -4   7  100.09    6.70
  -4  -4   7  105.29    7.50
   4  -4  -7  105.39    5.80
   4   4  -7  106.19    6.30
  -4   4   7  103.89    8.40
  -4   4   7  104.19    6.30
   3  -4  -7   42.30    3.50
  -3  -4   7   46.50    5.40
  -3  -4   7   52.39    3.90
  -3  -4   7   54.09    4.90
  -3   4   7   48.80    3.40
  -3   4   7   40.30    5.30
   3   4  -7   38.10    3.70
  -3   4   7   42.70    3.80
  -2  -4   7  476.25   67.09
  -2  -4   7  490.05   26.60
   2  -4  -7  516.05   23.10
  -2  -4   7  507.75   24.20
  -2  -4   7  503.75   25.10
   2   4  -7  501.75   23.70
  -2   4   7  517.95   27.50
  -2   4   7  523.95   23.40
  -1  -4   7 1832.12  161.48
  -1  -4   7 1821.52   84.79
   1  -4  -7 1899.51   80.69
  -1  -4   7 1884.81   80.59
  -1  -4   7 2023.60   82.79
  -1  -4   7 1910.51   82.39
  -1   4   7 1956.40   80.39
   1   4  -7 1907.51   81.49
  -1   4   7 1968.20   85.69
   0  -4   7  439.76   21.90
   0  -4  -7  454.55   20.70
   0  -4   7  436.16   21.10
   0  -4   7  444.66   21.00
   0   4   7  445.06   21.30
   0   4  -7  460.65   21.60
   0   4  -7  474.15   40.00
   0   4   7  414.86   21.50
   0   4   7  444.76   20.80
   1  -4   7    4.80    1.80
   1  -4   7    7.30    2.60
   1  -4   7    8.00    2.30
   1   4   7    7.10    2.00
  -1   4  -7   12.50    4.00
  -1   4  -7    7.30    1.90
   1   4   7    6.30    2.40
   1   4   7    8.70    1.90
   2  -4   7  442.66   21.40
   2  -4   7  457.95   21.80
   2   4   7  466.15   21.40
  -2   4  -7  457.25   27.80
  -2   4  -7  474.55   22.70
   2   4   7  450.95   21.20
   3  -4   7  347.67   16.30
  -3  -4  -7  326.87   21.80
  -3   4  -7  323.07   16.70
   3   4   7  358.86   16.10
  -3   4  -7  343.47   20.30
  -5  -5   7   96.99    6.70
  -5   5   7  113.69    5.80
  -5   5   7  126.49    7.40
   4  -5  -7   44.20    3.40
  -4  -5   7   39.70    3.80
  -4  -5   7   43.10    4.80
  -4   5   7   42.80    3.30
  -4   5   7   38.50    4.80
   4   5  -7   38.60    3.30
  -3  -5   7  281.97   16.80
   3  -5  -7  280.97   13.40
  -3  -5   7  273.67   15.40
   3   5  -7  269.77   14.00
  -3   5   7  285.97   13.20
  -3   5   7  285.37   14.20
  -3   5   7  269.87   17.10
  -2  -5   7  446.36   22.70
  -2  -5   7  417.06   25.90
  -2   5   7  452.35   26.40
  -2   5   7  457.85   22.80
  -2   5   7  445.16   21.00
  -1  -5   7   80.79    5.80
  -1  -5   7   77.89   31.30
   1  -5  -7   90.29    5.50
  -1  -5   7   78.59    6.40
  -1  -5   7   83.79    5.40
  -1  -5   7   86.09    7.00
  -1   5   7   85.09    5.20
   1   5  -7   85.09    6.10
  -1   5   7   83.89    5.70
   0  -5   7  845.22   38.50
   0  -5   7  852.71   37.00
   0  -5   7  814.62   36.80
   0  -5   7  856.31   39.30
   0  -5  -7  844.02   36.30
   0   5  -7  844.52   37.30
   0   5  -7  748.43   57.99
   0   5   7  812.82   36.40
   1  -5   7   39.20    4.60
   1  -5   7   42.90    4.10
   1  -5   7   47.40    4.20
  -1  -5  -7   52.99    3.60
   1   5   7   45.30    4.40
  -1   5  -7   45.30    3.80
  -1   5  -7   45.50    6.50
   1   5   7   39.30    3.80
   1   5   7   44.20    3.80
  -2  -5  -7   63.99    8.50
   2  -5   7   65.29    5.00
   2  -5   7   64.29    5.00
  -2  -5  -7   66.29    4.90
   2   5   7   69.39    5.20
  -2   5  -7   65.69    5.60
   2   5   7   73.09    4.90
  -2   5  -7   66.69    8.00
   2   5   7   65.39    5.10
  -3  -5  -7   36.50    5.40
   3  -5   7   39.90    3.30
  -3   5  -7   37.20    3.50
   3   5   7   40.30    3.10
  -3   5  -7   43.00    3.10
  -3   5  -7   41.70    4.80
   4  -6  -7  241.68   11.10
  -4  -6   7  223.98   14.30
  -4   6   7  250.67   11.90
   3  -6  -7  221.78   10.80
  -3   6   7  224.78   10.60
   3   6  -7  211.68   11.50
  -3   6   7  208.78   14.20
  -3   6   7  226.78   11.80
  -2  -6   7  345.17   58.49
   2  -6  -7  376.86   17.70
  -2  -6   7  380.26   19.00
  -2  -6   7  392.16   21.60
   2   6  -7  384.56   18.70
  -2   6   7  395.36   22.10
  -2   6   7  374.56   17.80
  -2   6   7  380.86   18.40
  -1  -6   7  342.67   16.50
   1  -6  -7  359.56   17.00
  -1  -6   7  369.56   19.80
  -1   6   7  352.76   16.10
  -1   6   7  339.37   17.50
   1   6  -7  342.07   17.90
   0  -6   7  717.13   37.80
   0  -6   7  861.91   38.90
   0  -6   7  812.42   37.80
   0  -6  -7  866.71   37.40
   0   6   7  720.33   36.00
   0   6   7  798.72   36.00
   0   6  -7  805.92   39.20
  -1  -6  -7 1559.34   66.49
  -1  -6  -7 1625.74   68.29
   1  -6   7 1564.34   69.29
   1  -6   7 1591.54   67.99
   1  -6   7 1610.74   67.69
   1   6   7 1583.94   67.69
   1   6   7 1530.05   67.09
  -1   6  -7 1579.84   67.19
  -2  -6  -7  338.77   22.50
  -2  -6  -7  343.47   16.60
   2  -6   7  343.97   16.80
   2  -6   7  328.17   16.50
   2   6   7  334.37   16.60
  -2   6  -7  341.67   17.60
   2   6   7  346.67   16.20
  -3  -6  -7  313.77   19.80
   3  -6   7  340.37   16.20
  -3   6  -7  370.16   16.20
  -3   6  -7  361.06   16.80
   3   6   7  346.07   15.90
   4  -7  -7   43.20    2.80
  -4  -7   7   33.70    3.40
  -4  -7   7   32.10    3.90
  -4   7   7   42.80    4.50
   4   7  -7   39.80    3.10
  -4   7   7   39.00    3.40
   3  -7  -7  347.37   15.90
  -3  -7   7  335.97   19.60
  -3  -7   7  331.67   18.00
   3   7  -7  339.67   16.70
  -3   7   7  353.06   19.90
  -3   7   7  370.86   15.70
   2  -7  -7 1173.78   52.49
  -2  -7   7 1325.87   58.09
  -2  -7   7 1210.68   53.99
   2   7  -7 1182.38   53.59
  -2   7   7 1302.07   53.79
  -2   7   7 1210.98   52.69
  -1  -7   7  396.26   19.30
  -1  -7   7  389.26   18.30
  -1  -7   7  402.06   20.50
   1  -7  -7  409.06   18.60
  -1   7   7  395.96   19.00
   1   7  -7  418.26   19.80
  -1   7   7  397.26   18.90
   0  -7  -7  124.29    7.20
   0  -7   7  122.09    8.80
   0  -7   7  131.49    8.10
   0  -7   7  134.69    7.90
   0   7   7  127.09    7.70
   0   7  -7  138.39    8.20
   0   7   7  132.79    7.30
  -1  -7  -7   50.89    4.50
   1  -7   7   50.89    4.70
  -1  -7  -7   50.99    3.50
   1  -7   7   58.09    5.30
   1  -7   7   54.39    4.40
   1   7   7   59.49    4.10
  -1   7  -7   52.49    4.00
   1   7   7   53.59    4.30
  -2  -7  -7  345.17   17.50
  -2  -7  -7  353.26   22.70
   2  -7   7  367.46   17.80
  -2   7  -7  384.56   17.60
   2   7   7  355.66   17.10
  -2   7  -7  374.56   18.60
  -2   7  -7  395.06   18.20
   2   7   7  371.96   17.70
  -3  -7  -7   14.20    3.10
   3  -7   7   19.70    2.10
   3   7   7   14.00    2.00
  -3   7  -7   12.80    1.90
  -3   7  -7   17.70    2.10
   4  -8  -7   83.09    4.20
  -4  -8   7   78.99    5.30
  -4  -8   7   78.09    6.10
  -4   8   7   74.89    5.10
   4   8  -7   78.39    4.50
  -4   8   7   80.09    6.10
   3  -8  -7   49.30    4.40
  -3  -8   7   43.30    4.40
  -3  -8   7   44.30    5.20
  -3   8   7   43.50    5.20
  -3   8   7   54.69    3.40
   3   8  -7   46.80    3.80
  -3   8   7   49.20    3.90
   2  -8  -7  159.68    8.40
  -2   8   7  152.78    9.10
   2   8  -7  178.38    9.50
  -2   8   7  155.38    8.40
  -2   8   7  153.78   11.90
  -1  -8   7  223.48   11.40
   1  -8  -7  241.48   12.00
  -1  -8   7  239.98   13.60
  -1  -8   7  243.48   12.90
  -1   8   7  255.27   12.60
   1   8  -7  259.07   13.70
   1   8  -7  241.38   12.90
  -1   8   7  248.48   12.30
   0  -8   7  462.65   21.20
   0  -8   7  447.46   21.50
   0  -8  -7  453.25   20.50
   0  -8   7  431.26   22.50
   0   8  -7  463.65   21.50
   0   8   7  455.45   20.50
   0   8   7  448.66   21.00
  -1  -8  -7   81.09    4.80
  -1  -8  -7   68.89    5.40
   1  -8   7   71.29    5.30
  -1   8  -7   78.89    5.90
  -1   8  -7   62.59    5.40
   1   8   7   74.09    4.80
   1   8   7   89.49    5.40
   2  -8   7  541.65   25.30
  -2  -8  -7  517.85   28.00
   2   8   7  513.65   23.70
  -2   8  -7  445.66   22.70
  -2   8  -7  510.25   24.20
  -2   8  -7  512.65   24.00
   2   8   7  500.65   23.30
   3   8   7  268.17   13.20
  -3   8  -7  252.47   13.00
  -4  -9   7  131.89    8.60
  -4   9   7  148.59    7.30
  -4   9   7  161.98    9.70
   4   9  -7  153.28    7.30
  -3  -9   7   99.09    7.80
   3  -9  -7  109.79    5.60
  -3  -9   7  107.69    7.30
  -3  -9   7   88.69    6.40
  -3   9   7  103.29    5.00
  -3   9   7   93.79    7.70
  -3   9   7  102.59    6.10
   3   9  -7  102.59    6.10
  -2  -9   7   71.69    6.10
  -2  -9   7   75.09    7.10
   2  -9  -7   83.29    4.90
  -2   9   7   75.89    7.20
  -2   9   7   79.79    5.70
  -2   9   7   79.09    4.80
   2   9  -7   79.79    5.50
   1  -9  -7  585.64   25.40
  -1  -9   7  566.84   30.50
   1   9  -7  596.34   27.10
  -1   9   7  552.84   25.70
   1   9  -7  578.84   26.50
  -1   9   7  562.14   27.20
   0  -9  -7   62.49    4.00
   0  -9   7   62.59    4.40
   0  -9   7   72.99    7.00
   0   9  -7   56.29    4.90
   0   9  -7   60.19    4.60
   0   9   7   58.29    4.00
   0   9   7   62.79    4.40
  -1  -9  -7  140.59    8.60
   1  -9   7  145.09    8.30
  -1  -9  -7  143.19    7.00
   1   9   7  148.19    7.80
   1   9   7  149.79    8.10
  -1   9  -7  153.48    8.90
  -1   9  -7  155.18    9.10
   2  -9   7   48.50    3.60
  -2  -9  -7   41.80    3.30
  -2  -9  -7   46.80    5.40
   2   9   7   43.90    3.10
  -2   9  -7   45.70    3.60
  -2   9  -7   43.40    3.80
   3 -10  -7  226.38   10.50
  -3 -10   7  202.28   11.60
  -3 -10   7  234.38   12.70
   3  10  -7  218.78   10.60
  -3  10   7  205.18   10.60
  -3  10   7  210.68   12.40
  -2 -10   7  770.82   38.00
   2 -10  -7  805.92   34.80
  -2 -10   7  845.72   38.20
  -2  10   7  821.32   38.60
  -2  10   7  781.52   34.70
   2  10  -7  799.22   35.50
  -1 -10   7   96.49    7.80
  -1 -10   7   97.69    7.30
   1 -10  -7   99.39    5.60
  -1  10   7  104.29    6.00
   1  10  -7  103.59    6.50
  -1  10   7   94.49    8.10
   1  10  -7  100.99    6.70
  -1  10   7  104.79    6.20
   0 -10   7  130.99    7.60
   0 -10  -7  132.69    7.00
   0  10   7  128.69    7.40
   0  10  -7  141.49    8.30
   0  10   7  145.59    7.00
  -1 -10  -7  335.97   20.60
   1 -10   7  355.86   16.40
  -1 -10  -7  346.47   16.80
   1  10   7  342.47   16.20
   1  10   7  347.27   15.80
  -1  10  -7  369.16   17.10
  -2 -10  -7  326.57   17.20
   2 -10   7  400.26   18.10
  -2  10  -7  368.26   17.30
  -2  10  -7  420.36   18.30
  -2  10  -7  391.26   18.50
   2  10   7  412.26   17.50
   3 -11  -7  299.17   14.10
  -3 -11   7  293.97   14.90
  -3  11   7  303.47   13.90
  -3  11   7  316.97   15.70
   3  11  -7  316.17   14.20
  -2 -11   7  644.34   30.00
   2 -11  -7  647.64   27.30
  -2 -11   7  608.04   28.70
  -2  11   7  644.84   30.30
  -2  11   7  641.34   27.30
   2  11  -7  615.54   27.80
  -2  11   7  620.14   27.80
  -1 -11   7  577.14   26.90
  -1 -11   7  599.74   28.00
   1 -11  -7  557.14   24.80
  -1  11   7  557.24   25.30
  -1  11   7  575.34   25.20
   1  11  -7  568.34   25.50
   1  11  -7  565.74   25.90
   0 -11   7  227.38   11.60
   0 -11  -7  243.58   10.80
   0  11  -7  232.48   12.00
   0  11   7  233.88   11.30
   0  11  -7  233.78   11.10
   0  11  -7  229.08   11.60
   0  11   7  224.88   11.50
  -1 -11  -7    9.60    1.50
   1 -11   7   10.60    1.50
  -1  11  -7   12.20    1.70
   1  11   7   12.20    1.50
   1  11   7   11.40    2.10
  -1  11  -7   11.00    2.00
  -2 -12   7   52.59    4.40
  -2 -12   7   54.39    4.50
  -2 -12   7   64.59    5.00
  -2  12   7   62.99    3.40
  -2  12   7   52.59    4.80
  -2  12   7   59.79    3.60
   2  12  -7   66.79    3.90
   1 -12  -7  877.11   36.40
  -1 -12   7  815.72   37.80
  -1  12   7  853.51   36.70
   1  12  -7  846.42   37.10
   1  12  -7  837.92   36.80
  -1  12   7  872.91   36.70
  -1  12   7  922.41   40.90
   0 -12   7  255.37   13.90
   0 -12   7  257.77   13.30
   0  12  -7  259.07   11.80
   0  12  -7  262.07   12.90
   0  12   7  299.27   12.90
  -1 -12  -7  214.38   10.50
   1 -12   7  221.28    9.90
  -1  12  -7  222.78   10.80
   1  12   7  226.58   10.30
   1  12   7  200.08    9.70
  -1  12  -7  228.88   11.20
   1 -13  -7  332.77   13.80
  -1 -13   7  294.07   15.00
  -1 -13   7  315.97   15.00
   1  13  -7  312.37   13.90
  -1  13   7  316.27   14.90
   0 -13  -7  672.53   27.50
   0 -13   7  591.24   27.70
   0  13   7  596.84   28.20
   0  13  -7  665.13   27.20
   0  13  -7  577.54   27.60
   0  13   7  674.43   27.00
   4   0  -8   92.89    5.50
  -4   0   8   92.09    6.40
  -3   0   8   92.99    7.40
   3   0  -8  105.89    5.90
  -3   0   8   88.89    5.40
  -2   0   8  764.12   36.10
  -2   0   8  739.03   35.30
  -2   0   8  777.42   33.70
   2   0  -8  732.03   33.20
  -1   0   8 1187.28   52.09
  -1   0   8 1144.99   50.09
  -1   0   8 1162.68   51.59
   1   0  -8 1082.69   49.30
   0   0   8  854.81   43.90
   0   0   8  889.31   37.90
   0   0   8  852.21   37.80
   0   0  -8  859.01   37.90
   0   0   8  866.21   38.80
  -1   0  -8  703.63   30.50
   1   0   8  695.63   31.90
   1   0   8  709.73   31.20
   1   0   8  686.13   31.10
   2   0   8  558.44   25.20
  -2   0  -8  551.84   25.10
  -2   0  -8  549.15   32.20
  -3   0  -8  172.88   14.10
   3   0   8  221.88    9.70
   4  -1  -8   21.60    2.10
  -4  -1   8   20.80    2.90
   4   1  -8   25.10    2.40
  -4   1   8   22.60    2.90
  -3  -1   8  669.43   32.80
  -3  -1   8  711.93   30.80
  -3  -1   8  691.23   32.90
   3  -1  -8  698.83   30.90
   3   1  -8  724.53   31.20
  -3   1   8  734.93   30.70
   2  -1  -8  461.75   21.10
  -2  -1   8  451.15   23.40
  -2  -1   8  456.85   23.20
  -2  -1   8  470.55   21.70
  -2   1   8  460.35   24.00
   2   1  -8  440.36   21.10
  -2   1   8  457.75   21.40
  -1  -1   8   99.79    6.80
   1  -1  -8   94.09    6.10
  -1   1   8   92.49    6.50
  -1   1   8  102.19    8.00
   1   1  -8  109.99    6.50
   0  -1   8  514.25   23.80
   0  -1  -8  508.25   23.70
   0  -1   8  512.55   24.80
   0  -1   8  525.15   23.80
   0   1   8  506.25   25.90
   0   1   8  539.95   26.90
   0   1  -8  531.25   24.00
   0   1   8  533.75   23.70
   0   1   8  526.85   24.60
   1  -1   8  785.02   35.40
   1  -1   8  799.22   34.60
   1  -1   8  759.12   34.50
  -1  -1  -8  772.52   33.70
   1   1   8  758.32   35.00
  -1   1  -8  798.22   33.90
   1   1   8  785.82   34.40
   1   1   8  778.22   34.40
   2  -1   8 1106.99   46.30
  -2  -1  -8  928.71   52.69
  -2  -1  -8 1105.79   46.40
  -2   1  -8 1021.70   51.59
   2   1   8 1095.59   46.00
  -2   1  -8 1116.69   46.30
   3  -1   8  328.27   14.20
  -3  -1  -8  281.27   17.50
  -3   1  -8  312.57   17.00
   3   1   8  320.97   14.00
  -3   1  -8  283.57   13.80
  -4  -2   8  325.97   17.40
   4  -2  -8  387.36   16.60
  -4   2   8  365.86   18.50
   4   2  -8  400.46   16.80
  -3  -2   8  116.99    9.40
   3  -2  -8  131.19    6.90
  -3  -2   8  108.59    8.40
  -3  -2   8  122.29    6.70
  -3   2   8  131.89    6.70
   3   2  -8  126.39    7.10
  -3   2   8  123.29    9.00
   2  -2  -8  163.08    8.80
  -2  -2   8  159.38    9.30
  -2  -2   8  164.18   11.00
   2   2  -8  153.68    8.90
  -2   2   8  155.18   11.10
  -2   2   8  177.38    9.20
  -1  -2   8  370.66   18.20
   1  -2  -8  378.36   17.80
  -1  -2   8  372.66   18.70
  -1   2   8  382.76   18.40
   1   2  -8  379.86   18.10
  -1   2   8  369.36   20.40
   0  -2   8  350.46   18.10
   0  -2   8  351.06   17.20
   0  -2   8  368.86   17.10
   0  -2  -8  350.86   16.80
   0   2   8  357.06   17.70
   0   2   8  367.56   16.90
   0   2  -8  359.06   17.30
   1  -2   8  692.93   31.90
   1  -2   8  691.13   30.90
   1  -2   8  696.33   30.90
  -1  -2  -8  683.63   30.10
   1   2   8  691.33   31.40
   1   2   8  676.83   30.70
  -1   2  -8  670.23   30.30
  -1   2  -8  738.23   38.00
  -2  -2  -8   11.00    1.90
  -2  -2  -8   16.00    4.80
  -2   2  -8   14.10    2.00
   3  -2   8  186.68   10.80
  -3   2  -8  201.28   11.80
  -3   2  -8  216.38    9.00
  -3   2  -8  208.98    9.60
   4  -3  -8  361.86   15.60
  -4  -3   8  307.37   17.50
   4   3  -8  355.76   15.80
  -4   3   8  367.46   17.90
   3  -3  -8  104.99    5.90
  -3  -3   8   89.89    6.80
  -3  -3   8   97.29    6.00
  -3   3   8  103.79    6.60
  -3   3   8   97.09    7.80
   3   3  -8   96.89    6.00
  -2  -3   8  214.78   11.90
  -2  -3   8  230.78   13.90
   2  -3  -8  230.08   11.40
  -2   3   8  224.88   11.60
  -2   3   8  236.18   14.40
   2   3  -8  219.68   11.70
  -1  -3   8 1125.49   50.09
   1  -3  -8 1150.78   49.60
  -1  -3   8 1164.48   50.89
  -1   3   8 1151.38   50.09
  -1   3   8 1168.88   52.99
   1   3  -8 1155.38   50.09
   0  -3   8  626.14   27.90
   0  -3  -8  627.84   27.70
   0  -3   8  603.84   28.10
   0  -3   8  615.34   29.20
   0   3   8  613.84   28.50
   0   3  -8  639.04   28.30
   0   3   8  634.24   27.70
   1  -3   8  332.67   16.30
  -1  -3  -8  312.67   14.90
   1  -3   8  306.57   15.20
   1  -3   8  317.07   15.20
  -1   3  -8  330.27   20.60
   1   3   8  306.57   14.90
  -1   3  -8  267.97   16.10
   1   3   8  302.27   15.40
   2  -3   8   28.80    2.60
  -2  -3  -8   22.30    4.40
   2   3   8   22.60    2.20
  -2   3  -8   21.80    2.50
  -2   3  -8   20.50    4.10
   3  -3   8  330.97   14.30
  -3  -3  -8  292.57   17.30
   3   3   8  317.87   14.10
  -3   3  -8  317.47   14.20
   4  -4  -8   22.40    1.70
  -4  -4   8   19.20    2.50
  -4   4   8   17.30    2.70
   4   4  -8   22.20    1.90
  -3  -4   8   51.39    4.40
   3  -4  -8   69.39    4.80
  -3  -4   8   59.09    6.10
  -3   4   8   56.69    5.70
   3   4  -8   62.59    5.30
  -3   4   8   61.59    3.60
   2  -4  -8  160.28    8.50
  -2  -4   8  171.08   11.10
  -2  -4   8  153.68    9.10
   2   4  -8  157.28    8.90
  -2   4   8  154.68   11.10
  -2   4   8  158.38    8.70
  -1  -4   8  120.59    9.80
  -1  -4   8  118.69    7.80
   1  -4  -8  117.19    6.80
  -1   4   8  111.19    9.00
  -1   4   8  118.09    7.20
   1   4  -8  123.09    7.40
   0  -4   8 1729.83   73.69
   0  -4   8 1680.73   74.49
   0  -4   8 1756.12   73.09
   0  -4  -8 1729.43   72.79
   0   4   8 1711.43   73.59
   0   4  -8 1729.33   73.49
   0   4   8 1757.22   72.79
   1  -4   8  122.19    8.40
  -1  -4  -8  116.39    6.00
   1  -4   8  120.99    8.90
   1  -4   8  118.89    7.00
   1   4   8  113.59    6.60
  -1   4  -8  116.59    6.20
   1   4   8   97.19    9.10
  -1   4  -8  116.79   10.10
   2  -4   8   25.20    2.40
  -2  -4  -8   20.00    4.10
   2   4   8   17.10    2.00
  -2   4  -8   18.30    2.30
  -2   4  -8   22.00    3.40
   4   5  -8   95.99    5.40
  -4   5   8  115.39    7.20
  -3  -5   8  217.48   13.50
   3  -5  -8  248.88   11.30
  -3   5   8  207.88   14.40
  -3   5   8  248.68   10.80
   3   5  -8  247.38   11.80
   2  -5  -8  520.15   23.30
  -2  -5   8  506.95   24.10
  -2  -5   8  552.54   26.70
  -2   5   8  515.15   26.90
   2   5  -8  501.45   23.90
  -2   5   8  525.05   23.50
  -1  -5   8  757.52   33.50
   1  -5  -8  769.92   33.00
  -1  -5   8  737.83   34.30
   1   5  -8  746.23   33.60
  -1   5   8  741.33   36.30
  -1   5   8  760.02   33.50
   0  -5   8  183.18   11.10
   0  -5   8  190.68   10.50
   0  -5  -8  196.08    9.80
   0  -5   8  191.88   10.00
   0   5   8  200.88    9.80
   0   5   8  200.28   10.50
   0   5  -8  198.48   10.40
   1  -5   8  121.19    7.00
  -1  -5  -8  111.89    6.20
   1  -5   8  123.39    7.80
   1   5   8  120.89    7.10
   1   5   8  120.09    6.70
  -1   5  -8  107.29    6.80
   2  -5   8  147.59    7.70
  -2  -5  -8  128.99   11.00
  -2   5  -8  145.29    8.20
   2   5   8  145.59    7.40
  -4  -6   8  205.68   11.40
  -4   6   8  225.38   12.20
   4   6  -8  233.78   10.50
  -3  -6   8   43.40    3.90
  -3  -6   8   43.80    4.60
   3  -6  -8   50.59    3.20
  -3   6   8   43.90    3.00
  -3   6   8   48.80    4.90
   3   6  -8   49.40    3.60
  -2  -6   8  238.38   14.80
   2  -6  -8  270.67   12.50
  -2  -6   8  251.07   13.20
   2   6  -8  257.17   13.00
  -2   6   8  265.77   15.60
  -2   6   8  266.97   12.60
   1  -6  -8  249.58   12.20
  -1  -6   8  245.78   13.50
  -1   6   8  247.88   15.20
   1   6  -8  259.27   13.00
  -1   6   8  261.87   12.80
   0  -6  -8  220.68   10.70
   0  -6   8  214.38   10.90
   0  -6   8  216.68   12.20
   0   6  -8  215.48   11.20
   0   6   8  221.48   11.70
   0   6   8  219.88   11.30
   1  -6   8  290.77   15.00
   1  -6   8  312.97   15.00
   1   6   8  279.77   13.80
   1   6   8  284.27   14.10
   2  -6   8   15.10    1.80
  -2  -6  -8   11.70    2.90
  -2   6  -8   14.20    1.90
  -2   6  -8   14.80    1.90
   2   6   8   16.90    1.90
  -3  -7   8   36.30    3.60
   3  -7  -8   53.69    4.20
  -3  -7   8   40.20    4.20
  -3   7   8   46.90    4.60
   3   7  -8   44.00    3.30
   2  -7  -8  304.47   14.80
  -2  -7   8  218.78   16.40
   2   7  -8  268.27   13.80
  -2   7   8  262.37   15.80
   1  -7  -8  511.95   22.40
  -1  -7   8  490.75   23.70
  -1   7   8  499.55   22.80
   1   7  -8  505.15   23.10
   1   7  -8  522.45   23.70
  -1   7   8  490.65   25.60
   0  -7   8  262.87   12.00
   0  -7   8  234.38   16.20
   0   7   8  211.88   13.70
   0   7  -8  261.87   13.00
   0   7  -8  268.47   13.20
   0   7   8  261.27   11.70
   1  -7   8   60.69    4.00
  -1   7  -8   58.79    4.40
   1   7   8   54.59    3.70
  -1   7  -8   57.19    4.50
   1   7   8   59.09    4.70
  -2  -7  -8  199.08   12.80
   2  -7   8  220.68   10.20
   2   7   8  219.08   10.00
  -2   7  -8  231.78   10.40
  -2   7  -8  197.68   10.60
   3  -8  -8  391.06   16.90
  -3  -8   8  339.67   17.80
   3   8  -8  394.46   17.30
  -3   8   8  408.26   20.50
   2  -8  -8 1182.78   49.40
  -2   8   8 1205.68   49.50
   2   8  -8 1120.19   49.90
  -1  -8   8   27.70    3.80
   1  -8  -8   26.70    2.40
  -1   8   8   24.00    3.60
  -1   8   8   29.30    2.80
   1   8  -8   26.30    2.90
   1   8  -8   21.20    2.50
   0  -8  -8   32.30    2.40
   0  -8   8   33.20    3.20
   0   8  -8   34.60    2.70
   0   8  -8   30.50    3.10
   0   8   8   34.90    2.90
  -1  -8  -8  134.89   11.10
  -1   8  -8  134.29    7.40
  -1   8  -8  130.89    7.50
   1   8   8  124.89    7.50
   1   8   8  122.79    6.70
  -3  -9   8   46.10    3.40
  -3  -9   8   46.40    4.00
   3  -9  -8   48.20    2.80
   3   9  -8   51.19    3.10
  -2  -9   8  633.24   33.40
   2  -9  -8  792.92   32.10
  -2   9   8  783.72   32.20
   2   9  -8  800.92   32.70
  -2   9   8  741.33   34.80
   1  -9  -8  757.52   31.80
  -1  -9   8  774.72   34.60
   1   9  -8  731.63   32.60
   1   9  -8  753.02   32.30
  -1   9   8  717.03   32.00
  -1   9   8  717.23   34.60
   0  -9  -8   47.70    2.90
   0   9  -8   47.70    3.70
   0   9   8   49.30    3.50
   1  -9   8  132.69    6.50
  -1  -9  -8  120.19    8.80
   1   9   8  134.29    6.80
   1   9   8  132.09    6.30
  -1   9  -8  142.99    7.30
  -1   9  -8  133.59    7.60
  -2 -10   8  172.88    9.50
   2 -10  -8  167.28    7.60
  -2 -10   8  140.89    8.50
   2  10  -8  166.58    7.90
  -2  10   8  132.29    9.00
  -2  10   8  161.98    7.40
  -1 -10   8 1097.59   53.09
   1 -10  -8 1239.58   50.69
  -1  10   8 1287.57   51.49
   1  10  -8 1227.48   51.09
  -1  10   8 1264.67   54.19
   1  10  -8 1153.78   51.29
   0 -10  -8  248.48   14.40
   0 -10   8  293.27   14.20
   0 -10  -8  270.57   11.80
   0  10  -8  266.27   12.60
   0  10  -8  252.87   12.50
   0  10   8  263.57   14.10
   0  10  -8  277.27   12.80
   0  10   8  279.67   12.70
   3   0  -9   67.19    4.10
  -2   0   9   45.00    3.40
   2   0  -9   41.50    3.20
  -1   0   9  707.03   33.90
   0   0   9   18.10    1.90
   0   0   9   18.30    2.30
   0   0  -9   20.40    1.90
  -1   0  -9  519.75   28.00
   1   0   9  559.34   24.40
   1   0   9  554.84   23.70
  -1   0  -9  528.15   23.80
   3  -1  -9  146.49    7.40
   3   1  -9  144.99    7.40
   2  -1  -9  207.48   10.20
  -2  -1   9  198.68   10.30
  -2   1   9  190.48   10.50
  -2   1   9  212.58   10.30
   2   1  -9  216.38   10.30
  -1  -1   9  111.09    7.80
   1  -1  -9   92.29    6.90
  -1   1   9   97.59    6.80
   1   1  -9   99.79    6.60
   0  -1  -9  133.69    6.80
   0  -1   9  122.59    7.50
   0  -1   9  128.29    7.00
   0   1   9  125.69    7.10
   0   1   9  126.99    7.40
   0   1  -9  130.99    6.80
  -1  -1  -9  207.78   10.70
   1  -1   9  237.38   11.00
   1  -1   9  245.48   11.70
  -1  -1  -9  240.68   17.30
  -1   1  -9  236.28   14.40
   1   1   9  229.08   10.70
  -1   1  -9  232.88   11.30
   1   1   9  224.38   11.40
   3  -2  -9  174.38    8.20
   3   2  -9  174.58    8.40
  -3   2   9  152.58    8.70
   2  -2  -9  436.46   19.30
  -2  -2   9  442.26   19.60
  -2  -2   9  384.96   19.80
  -2   2   9  413.96   20.70
   2   2  -9  446.26   19.60
  -2   2   9  449.16   19.50
  -1  -2   9  242.18   13.60
  -1  -2   9  273.67   13.30
   1  -2  -9  268.47   12.50
  -1   2   9  240.38   14.00
   1   2  -9  270.77   12.70
  -1   2   9  271.27   13.00
   0  -2  -9  383.56   16.40
   0  -2   9  380.66   17.50
   0  -2   9  362.76   16.70
   0  -2   9  320.87   17.40
   0   2   9  354.56   16.30
   0   2   9  368.36   17.10
   0   2  -9  365.76   16.40
   0   2  -9  347.87   19.80
   1  -2   9  889.11   37.60
   1  -2   9  881.31   36.70
  -1  -2  -9  836.52   41.80
  -1   2  -9  908.71   37.50
   1   2   9  890.01   36.60
   1   2   9  900.41   37.40
  -1   2  -9  743.03   39.20
   3  -3  -9   95.39    6.10
  -3   3   9   72.69    5.10
   3   3  -9   86.19    5.80
  -2  -3   9    3.70    1.40
   2  -3  -9    2.30    0.80
  -2  -3   9    4.20    1.10
  -2   3   9    1.90    1.10
   2   3  -9    3.80    1.10
  -2   3   9    1.40    0.70
   1  -3  -9   39.00    2.90
  -1  -3   9   34.70    3.60
  -1  -3   9   39.30    3.40
  -1   3   9   39.00    3.20
  -1   3   9   33.40    3.60
   1   3  -9   38.60    3.00
   0  -3   9  447.76   20.50
   0  -3   9  454.35   20.20
   0  -3   9  422.76   18.40
   0  -3  -9  419.66   19.00
   0   3  -9  446.96   20.60
   0   3   9  404.06   19.90
   0   3   9  419.26   18.70
   0   3  -9  400.76   21.40
   0   3   9  442.36   19.80
   1  -3   9  124.19    7.00
  -1  -3  -9  138.19   12.30
   1   3   9  122.89    6.80
   1   3   9  116.19    6.90
  -1   3  -9  124.79    6.90
   3  -4  -9  223.88   10.00
   3   4  -9  219.68   10.20
  -3   4   9  203.68   11.00
  -2  -4   9   82.89    5.50
  -2  -4   9  104.49    5.70
   2  -4  -9  102.99    5.40
  -2  -4   9   84.79    6.30
   2   4  -9  101.69    5.70
  -2   4   9  101.39    5.40
  -2   4   9  105.19    6.80
   1  -4  -9   23.70    2.00
  -1  -4   9   18.20    2.20
  -1   4   9   16.90    2.00
  -1   4   9   15.80    2.60
   1   4  -9   20.40    2.10
   0  -4   9  117.99    7.40
   0  -4  -9  116.79    6.00
   0  -4   9  116.19    6.90
   0   4  -9  117.69    6.10
   0   4   9  109.89    7.00
   0   4   9  120.89    6.70
   1  -4   9  237.28   11.40
  -1  -4  -9  253.97   14.90
   1  -4   9  226.58   10.50
   1   4   9  228.58   11.10
  -1   4  -9  216.58   11.30
   1   4   9  231.18   10.40
   2  -5  -9  460.35   19.50
  -2  -5   9  375.36   18.50
  -2  -5   9  403.86   20.90
  -2   5   9  376.76   19.80
   2   5  -9  435.76   19.10
  -2   5   9  431.96   18.70
  -1  -5   9  773.82   33.50
   1  -5  -9  774.02   32.60
  -1  -5   9  698.03   34.20
   1   5  -9  782.02   33.30
  -1   5   9  787.42   33.10
   1   5  -9  781.52   33.00
  -1   5   9  738.13   34.50
   0  -5   9  196.08   10.10
   0  -5   9  175.38   10.30
   0  -5  -9  220.38   10.10
   0   5   9  171.38   10.10
   0   5   9  192.88    9.70
   0   5  -9  197.18    8.90
   1  -5   9  498.85   20.00
  -1  -5  -9  431.86   26.30
  -1   5  -9  416.76   20.60
  -1   5  -9  481.15   20.10
   1   5   9  410.46   20.90
  -2  -6   9  191.28   10.70
   2  -6  -9  210.48    9.40
  -2  -6   9  194.48    9.70
   2   6  -9  204.48    9.60
  -2   6   9  175.28   10.90
  -2   6   9  221.88   10.10
   1  -6  -9   59.99    3.50
  -1  -6   9   64.09    4.80
  -1   6   9   50.19    4.90
  -1   6   9   58.89    4.70
   1   6  -9   60.49    3.70
   1   6  -9   56.59    4.10
   0  -6   9  251.57   12.80
   0  -6  -9  224.88   11.00
   0   6   9  258.17   12.00
   0   6  -9  250.37   11.80
   0   6   9  239.08   12.50
   1  -7  -9  555.54   23.00
  -1   7   9  508.55   24.10
  -1   7   9  517.65   22.80
   1   7  -9  508.75   22.60
   0  -7   9  135.19    8.30
   0   7   9  159.28    7.70
   0   7   9  142.59    8.30
   0   7  -9  175.88    8.10
   0   7  -9  166.08    7.90
   0   0   0    0.00    0.00

_computing_structure_solution     'SHELXT 2014/5 (Sheldrick, 2014)'
;
_shelx_hkl_checksum              27729
loop_
_space_group_symop_operation_xyz
'x, y, z'
'-x, y+1/2, -z'
loop_
_atom_site_type_symbol
_atom_site_label
_atom_site_fract_x
_atom_site_fract_y
_atom_site_fract_z
_atom_site_U_iso_or_equiv
_atom_site_adp_type
_atom_site_calc_flag
_atom_site_refinement_flags_adp
_atom_site_refinement_flags_occupancy
_atom_site_refinement_flags_posn
_atom_site_occupancy
_atom_site_disorder_assembly
_atom_site_disorder_group
O O1 1.1398(3) 0.72485(9) 0.15985(17) 0.0227(3) Uani d . . . 1 . .
O O2 0.8634(2) 0.67549(8) 0.31152(16) 0.0176(3) Uani d . . . 1 . .
O O4 0.3631(2) 0.48121(8) 0.33147(15) 0.0147(3) Uani d . . . 1 . .
O O6 0.7700(2) 0.40067(9) 0.70033(17) 0.0210(3) Uani d . . . 1 . .
H H6A 0.817(4) 0.3507(19) 0.736(2) 0.031 Uiso calc U . R 1 . .
C C1 0.9802(3) 0.67331(12) 0.1759(2) 0.0166(4) Uani d . . . 1 . .
C C2 0.6807(3) 0.60598(11) 0.3053(2) 0.0146(4) Uani d . . . 1 . .
H H2 0.521511 0.632952 0.317399 0.017 Uiso calc U . R 1 . .
C C3 0.7540(3) 0.54415(11) 0.4527(2) 0.0147(4) Uani d . . . 1 . .
H H4 0.809497 0.578578 0.556452 0.018 Uiso calc U . R 1 . .
H H3 0.889371 0.506857 0.427961 0.018 Uiso calc U . R 1 . .
C C4 0.5392(3) 0.48523(11) 0.4833(2) 0.0140(4) Uani d . . . 1 . .
C C5 0.6275(3) 0.39225(11) 0.5369(2) 0.0156(4) Uani d . . . 1 . .
H H5 0.734939 0.371481 0.45492 0.019 Uiso calc U . R 1 . .
C C6 0.4271(4) 0.32483(13) 0.5397(2) 0.0203(4) Uani d . . . 1 . .
H H1 0.318735 0.345175 0.619649 0.024 Uiso calc U . R 1 . .
H H6 0.499765 0.268661 0.583787 0.024 Uiso calc U . R 1 . .
C C7 0.8853(3) 0.60054(12) 0.0609(2) 0.0153(4) Uani d . . . 1 . .
C C8 0.6666(3) 0.56372(11) 0.1264(2) 0.0141(4) Uani d . . . 1 . .
H H15 0.52029 0.587455 0.054047 0.017 Uiso calc U . R 1 . .
C C15 0.9889(3) 0.57720(12) -0.0720(2) 0.0178(4) Uani d . . . 1 . .
H H15A 1.128409 0.607283 -0.096197 0.021 Uiso calc U . R 1 . .
H H15B 0.923618 0.530383 -0.142961 0.021 Uiso calc U . R 1 . .
C C9 0.2752(3) 0.30782(12) 0.3650(2) 0.0189(4) Uani d . . . 1 . .
H H11 0.232575 0.24477 0.355332 0.023 Uiso calc U . R 1 . .
H H7 0.123634 0.341854 0.356951 0.023 Uiso calc U . R 1 . .
C C10 0.4075(3) 0.33313(12) 0.2199(2) 0.0173(4) Uani d . . . 1 . .
C C11 0.4190(3) 0.43166(11) 0.1880(2) 0.0147(4) Uani d . . . 1 . .
H H10 0.285285 0.444247 0.093831 0.018 Uiso calc U . R 1 . .
C C12 0.6492(3) 0.46325(12) 0.1238(2) 0.0151(4) Uani d . . . 1 . .
H H9 0.650655 0.441881 0.00642 0.018 Uiso calc U . R 1 . .
H H8 0.791219 0.438273 0.196295 0.018 Uiso calc U . R 1 . .
C C13 0.4010(3) 0.52775(12) 0.6137(2) 0.0184(4) Uani d . . . 1 . .
H H14 0.342622 0.585612 0.572541 0.028 Uiso calc U . R 1 . .
H H13 0.507833 0.534369 0.721667 0.028 Uiso calc U . R 1 . .
H H12 0.263748 0.490591 0.630523 0.028 Uiso calc U . R 1 . .
C C14 0.5042(4) 0.27461(13) 0.1269(3) 0.0248(4) Uani d . . . 1 . .
H H14A 0.491799 0.213757 0.150346 0.03 Uiso calc U . R 1 . .
H H14B 0.586002 0.293441 0.036566 0.03 Uiso calc U . R 1 . .
loop_
_atom_site_aniso_label
_atom_site_aniso_U_11
_atom_site_aniso_U_22
_atom_site_aniso_U_33
_atom_site_aniso_U_12
_atom_site_aniso_U_13
_atom_site_aniso_U_23
O1 0.0253(7) 0.0207(7) 0.0225(7) -0.0095(5) 0.0053(5) -0.0029(5)
O2 0.0224(6) 0.0131(6) 0.0181(6) -0.0049(5) 0.0055(5) -0.0026(5)
O4 0.0137(6) 0.0153(6) 0.0146(6) 0.0014(5) 0.0003(4) -0.0018(5)
O6 0.0270(7) 0.0156(7) 0.0180(7) 0.0025(5) -0.0048(5) 0.0029(5)
C1 0.0188(8) 0.0137(8) 0.0169(8) 0.0004(7) 0.0014(7) 0.0022(7)
C2 0.0151(8) 0.0113(7) 0.0174(9) -0.0008(6) 0.0029(6) -0.0012(6)
C3 0.0154(8) 0.0144(8) 0.0142(8) -0.0009(6) 0.0012(6) -0.0015(6)
C4 0.0157(8) 0.0127(8) 0.0130(7) -0.0001(6) 0.0005(6) 0.0000(6)
C5 0.0184(8) 0.0132(8) 0.0143(8) -0.0006(7) 0.0000(6) 0.0001(7)
C6 0.0255(10) 0.0156(8) 0.0197(9) -0.0035(7) 0.0035(7) 0.0039(7)
C7 0.0158(8) 0.0134(8) 0.0156(8) 0.0000(7) -0.0011(6) 0.0024(6)
C8 0.0160(8) 0.0129(8) 0.0133(8) -0.0002(6) 0.0015(6) 0.0007(6)
C15 0.0170(8) 0.0206(9) 0.0153(8) -0.0016(7) 0.0004(7) 0.0011(7)
C9 0.0201(9) 0.0146(9) 0.0222(9) -0.0052(7) 0.0037(7) -0.0004(7)
C10 0.0174(8) 0.0162(9) 0.0176(9) -0.0036(6) 0.0000(7) -0.0010(6)
C11 0.0162(8) 0.0149(8) 0.0125(8) -0.0011(7) 0.0008(6) -0.0016(6)
C12 0.0182(8) 0.0133(8) 0.0140(8) -0.0003(6) 0.0028(6) -0.0017(6)
C13 0.0187(8) 0.0204(10) 0.0167(9) 0.0014(7) 0.0045(7) -0.0019(7)
C14 0.0349(11) 0.0141(9) 0.0267(10) -0.0045(8) 0.0094(8) -0.0044(7)
loop_
_atom_type_symbol
_atom_type_description
_atom_type_scat_dispersion_real
_atom_type_scat_dispersion_imag
_atom_type_scat_source
C C 0.0181 0.0091 'International Tables Vol C Tables 4.2.6.8 and 6.1.1.4'
H H 0.0000 0.0000 'International Tables Vol C Tables 4.2.6.8 and 6.1.1.4'
O O 0.0492 0.0322 'International Tables Vol C Tables 4.2.6.8 and 6.1.1.4'
loop_
_geom_angle_atom_site_label_1
_geom_angle_atom_site_label_2
_geom_angle_atom_site_label_3
_geom_angle_site_symmetry_1
_geom_angle_site_symmetry_3
_geom_angle
_geom_angle_publ_flag
C1 O2 C2 . . 111.94(13) ?
C11 O4 C4 . . 118.91(13) ?
C5 O6 H6A . . 109.5 ?
O1 C1 O2 . . 121.49(16) ?
O1 C1 C7 . . 128.58(17) ?
O2 C1 C7 . . 109.92(15) ?
O2 C2 C3 . . 108.14(13) ?
O2 C2 C8 . . 105.88(13) ?
C3 C2 C8 . . 115.10(14) ?
O2 C2 H2 . . 109.2 ?
C3 C2 H2 . . 109.2 ?
C8 C2 H2 . . 109.2 ?
C2 C3 C4 . . 110.54(14) ?
C2 C3 H4 . . 109.5 ?
C4 C3 H4 . . 109.5 ?
C2 C3 H3 . . 109.5 ?
C4 C3 H3 . . 109.5 ?
H4 C3 H3 . . 108.1 ?
O4 C4 C13 . . 103.45(13) ?
O4 C4 C5 . . 110.24(13) ?
C13 C4 C5 . . 112.17(15) ?
O4 C4 C3 . . 110.25(13) ?
C13 C4 C3 . . 110.07(14) ?
C5 C4 C3 . . 110.46(13) ?
O6 C5 C6 . . 111.36(14) ?
O6 C5 C4 . . 106.54(13) ?
C6 C5 C4 . . 114.48(14) ?
O6 C5 H5 . . 108.1 ?
C6 C5 H5 . . 108.1 ?
C4 C5 H5 . . 108.1 ?
C5 C6 C9 . . 114.38(15) ?
C5 C6 H1 . . 108.7 ?
C9 C6 H1 . . 108.7 ?
C5 C6 H6 . . 108.7 ?
C9 C6 H6 . . 108.7 ?
H1 C6 H6 . . 107.6 ?
C15 C7 C1 . . 122.12(16) ?
C15 C7 C8 . . 130.29(17) ?
C1 C7 C8 . . 107.58(15) ?
C7 C8 C12 . . 114.82(15) ?
C7 C8 C2 . . 102.98(14) ?
C12 C8 C2 . . 114.86(14) ?
C7 C8 H15 . . 107.9 ?
C12 C8 H15 . . 107.9 ?
C2 C8 H15 . . 107.9 ?
C7 C15 H15A . . 120.0 ?
C7 C15 H15B . . 120.0 ?
H15A C15 H15B . . 120.0 ?
C10 C9 C6 . . 112.16(15) ?
C10 C9 H11 . . 109.2 ?
C6 C9 H11 . . 109.2 ?
C10 C9 H7 . . 109.2 ?
C6 C9 H7 . . 109.2 ?
H11 C9 H7 . . 107.9 ?
C14 C10 C9 . . 122.77(18) ?
C14 C10 C11 . . 122.65(17) ?
C9 C10 C11 . . 114.58(15) ?
O4 C11 C10 . . 111.40(14) ?
O4 C11 C12 . . 112.88(14) ?
C10 C11 C12 . . 114.98(15) ?
O4 C11 H10 . . 105.6 ?
C10 C11 H10 . . 105.6 ?
C12 C11 H10 . . 105.6 ?
C11 C12 C8 . . 111.34(14) ?
C11 C12 H9 . . 109.4 ?
C8 C12 H9 . . 109.4 ?
C11 C12 H8 . . 109.4 ?
C8 C12 H8 . . 109.4 ?
H9 C12 H8 . . 108.0 ?
C4 C13 H14 . . 109.5 ?
C4 C13 H13 . . 109.5 ?
H14 C13 H13 . . 109.5 ?
C4 C13 H12 . . 109.5 ?
H14 C13 H12 . . 109.5 ?
H13 C13 H12 . . 109.5 ?
C10 C14 H14A . . 120.0 ?
C10 C14 H14B . . 120.0 ?
H14A C14 H14B . . 120.0 ?
loop_
_geom_bond_atom_site_label_1
_geom_bond_atom_site_label_2
_geom_bond_site_symmetry_2
_geom_bond_distance
_geom_bond_publ_flag
O1 C1 . 1.211(2) ?
O2 C1 . 1.340(2) ?
O2 C2 . 1.469(2) ?
O4 C11 . 1.440(2) ?
O4 C4 . 1.448(2) ?
O6 C5 . 1.431(2) ?
O6 H6A . 0.84(3) ?
C1 C7 . 1.486(2) ?
C2 C3 . 1.514(2) ?
C2 C8 . 1.554(2) ?
C2 H2 . 1.0 ?
C3 C4 . 1.549(2) ?
C3 H4 . 0.99 ?
C3 H3 . 0.99 ?
C4 C13 . 1.524(2) ?
C4 C5 . 1.540(2) ?
C5 C6 . 1.525(2) ?
C5 H5 . 1.0 ?
C6 C9 . 1.545(3) ?
C6 H1 . 0.99 ?
C6 H6 . 0.99 ?
C7 C15 . 1.325(3) ?
C7 C8 . 1.508(2) ?
C8 C12 . 1.533(2) ?
C8 H15 . 1.0 ?
C15 H15A . 0.95 ?
C15 H15B . 0.95 ?
C9 C10 . 1.508(3) ?
C9 H11 . 0.99 ?
C9 H7 . 0.99 ?
C10 C14 . 1.323(3) ?
C10 C11 . 1.525(2) ?
C11 C12 . 1.532(2) ?
C11 H10 . 1.0 ?
C12 H9 . 0.99 ?
C12 H8 . 0.99 ?
C13 H14 . 0.98 ?
C13 H13 . 0.98 ?
C13 H12 . 0.98 ?
C14 H14A . 0.95 ?
C14 H14B . 0.95 ?
loop_
_geom_hbond_atom_site_label_D
_geom_hbond_atom_site_label_H
_geom_hbond_atom_site_label_A
_geom_hbond_site_symmetry_A
_geom_hbond_distance_DH
_geom_hbond_distance_HA
_geom_hbond_distance_DA
_geom_hbond_angle_DHA
_geom_hbond_publ_flag
O6 H6A O1 2_746 0.84 2.09 2.9161(19) 167.5 ?
loop_
_geom_torsion_atom_site_label_1
_geom_torsion_atom_site_label_2
_geom_torsion_atom_site_label_3
_geom_torsion_atom_site_label_4
_geom_torsion_site_symmetry_1
_geom_torsion_site_symmetry_2
_geom_torsion_site_symmetry_3
_geom_torsion_site_symmetry_4
_geom_torsion
_geom_torsion_publ_flag
C2 O2 C1 O1 . . . . -178.95(16) ?
C2 O2 C1 C7 . . . . 0.28(19) ?
C1 O2 C2 C3 . . . . 115.64(15) ?
C1 O2 C2 C8 . . . . -8.23(18) ?
O2 C2 C3 C4 . . . . 164.39(13) ?
C8 C2 C3 C4 . . . . -77.47(18) ?
C11 O4 C4 C13 . . . . -170.11(14) ?
C11 O4 C4 C5 . . . . -50.00(19) ?
C11 O4 C4 C3 . . . . 72.22(18) ?
C2 C3 C4 O4 . . . . 21.32(18) ?
C2 C3 C4 C13 . . . . -92.18(17) ?
C2 C3 C4 C5 . . . . 143.41(14) ?
O4 C4 C5 O6 . . . . -171.13(13) ?
C13 C4 C5 O6 . . . . -56.42(18) ?
C3 C4 C5 O6 . . . . 66.77(17) ?
O4 C4 C5 C6 . . . . -47.58(19) ?
C13 C4 C5 C6 . . . . 67.13(19) ?
C3 C4 C5 C6 . . . . -169.68(15) ?
O6 C5 C6 C9 . . . . -176.36(16) ?
C4 C5 C6 C9 . . . . 62.7(2) ?
O1 C1 C7 C15 . . . . 7.5(3) ?
O2 C1 C7 C15 . . . . -171.66(17) ?
O1 C1 C7 C8 . . . . -172.74(19) ?
O2 C1 C7 C8 . . . . 8.10(19) ?
C15 C7 C8 C12 . . . . 41.8(3) ?
C1 C7 C8 C12 . . . . -137.89(15) ?
C15 C7 C8 C2 . . . . 167.44(19) ?
C1 C7 C8 C2 . . . . -12.30(17) ?
O2 C2 C8 C7 . . . . 12.31(17) ?
C3 C2 C8 C7 . . . . -107.08(16) ?
O2 C2 C8 C12 . . . . 137.87(15) ?
C3 C2 C8 C12 . . . . 18.5(2) ?
C5 C6 C9 C10 . . . . 21.8(2) ?
C6 C9 C10 C14 . . . . 104.5(2) ?
C6 C9 C10 C11 . . . . -76.0(2) ?
C4 O4 C11 C10 . . . . 73.35(18) ?
C4 O4 C11 C12 . . . . -57.8(2) ?
C14 C10 C11 O4 . . . . -163.77(18) ?
C9 C10 C11 O4 . . . . 16.7(2) ?
C14 C10 C11 C12 . . . . -33.7(3) ?
C9 C10 C11 C12 . . . . 146.75(15) ?
O4 C11 C12 C8 . . . . -40.29(19) ?
C10 C11 C12 C8 . . . . -169.59(14) ?
C7 C8 C12 C11 . . . . -178.53(14) ?
C2 C8 C12 C11 . . . . 62.32(18) ?
