#------------------------------------------------------------------------------
#$Date: 2020-12-04 04:30:47 +0200 (Fri, 04 Dec 2020) $
#$Revision: 259532 $
#$URL: file:///home/coder/svn-repositories/cod/cif/1/55/94/1559498.cif $
#------------------------------------------------------------------------------
#
# This file is available in the Crystallography Open Database (COD),
# http://www.crystallography.net/
#
# All data on this site have been placed in the public domain by the
# contributors.
#
data_1559498
loop_
_publ_author_name
'Sui, Ying'
'Shi, Yibo'
'Deng, Yunfeng'
'Li, Riqing'
'Bai, Junhua'
'Wang, Zhongli'
'Dang, Yanfeng'
'Han, Yang'
'Kirby, Nigel'
'Ye, Long'
'Geng, Yanhou'
_publ_section_title
;
 Direct Arylation Polycondensation of Chlorinated Thiophene Derivatives to
 High-Mobility Conjugated Polymers
;
_journal_issue                   22
_journal_name_full               Macromolecules
_journal_page_first              10147
_journal_page_last               10154
_journal_paper_doi               10.1021/acs.macromol.0c02206
_journal_volume                  53
_journal_year                    2020
_chemical_formula_moiety         'C8 H2 Cl4 S2'
_chemical_formula_sum            'C8 H2 Cl4 S2'
_chemical_formula_weight         304.02
_space_group_crystal_system      monoclinic
_space_group_IT_number           14
_space_group_name_Hall           '-P 2ybc'
_space_group_name_H-M_alt        'P 1 21/c 1'
_atom_sites_solution_hydrogens   geom
_atom_sites_solution_primary     dual
_audit_creation_date             2019-09-12
_audit_creation_method
;
Olex2 1.2
(compiled 2018.05.29 svn.r3508 for OlexSys, GUI svn.r5506)
;
_cell_angle_alpha                90
_cell_angle_beta                 106.0800(10)
_cell_angle_gamma                90
_cell_formula_units_Z            2
_cell_length_a                   10.4092(3)
_cell_length_b                   3.84590(10)
_cell_length_c                   13.3320(4)
_cell_measurement_reflns_used    4318
_cell_measurement_temperature    170(2)
_cell_measurement_theta_max      54.96
_cell_measurement_theta_min      3.00
_cell_volume                     512.84(3)
_computing_cell_refinement       'SAINT v8.37A (Bruker, 2015)'
_computing_data_reduction        'SAINT v8.37A (Bruker, 2015)'
_computing_molecular_graphics    'Olex2 (Dolomanov et al., 2009)'
_computing_publication_material  'Olex2 (Dolomanov et al., 2009)'
_computing_structure_refinement  'ShelXL (Sheldrick, 2015)'
_computing_structure_solution    'ShelXT (Sheldrick, 2015)'
_diffrn_ambient_temperature      169.97
_diffrn_measured_fraction_theta_full 0.968
_diffrn_measured_fraction_theta_max 0.969
_diffrn_measurement_device_type  'Bruker APEX-II CCD'
_diffrn_measurement_method       '\f and \w scans'
_diffrn_radiation_type           GaK\a
_diffrn_radiation_wavelength     1.34139
_diffrn_reflns_av_R_equivalents  0.0377
_diffrn_reflns_av_unetI/netI     0.0350
_diffrn_reflns_Laue_measured_fraction_full 0.968
_diffrn_reflns_Laue_measured_fraction_max 0.969
_diffrn_reflns_limit_h_max       12
_diffrn_reflns_limit_h_min       -12
_diffrn_reflns_limit_k_max       4
_diffrn_reflns_limit_k_min       -2
_diffrn_reflns_limit_l_max       16
_diffrn_reflns_limit_l_min       -16
_diffrn_reflns_number            4347
_diffrn_reflns_point_group_measured_fraction_full 0.968
_diffrn_reflns_point_group_measured_fraction_max 0.969
_diffrn_reflns_theta_full        53.594
_diffrn_reflns_theta_max         54.940
_diffrn_reflns_theta_min         3.845
_diffrn_standards_number         0
_exptl_absorpt_coefficient_mu    9.083
_exptl_absorpt_correction_T_max  0.7508
_exptl_absorpt_correction_T_min  0.3680
_exptl_absorpt_correction_type   multi-scan
_exptl_absorpt_process_details
'SADABS-2016/2 (Bruker,2016/2) was used for absorption correction. wR2(int) was 0.1309 before and 0.0564 after correction. The Ratio of minimum to maximum transmission is 0.4896. The \l/2 correction factor is Not present.'
_exptl_crystal_colour            colourless
_exptl_crystal_colour_primary    colourless
_exptl_crystal_density_diffrn    1.969
_exptl_crystal_description       block
_exptl_crystal_F_000             300
_exptl_crystal_size_max          0.1
_exptl_crystal_size_mid          0.05
_exptl_crystal_size_min          0.03
_refine_diff_density_max         0.440
_refine_diff_density_min         -0.401
_refine_diff_density_rms         0.076
_refine_ls_extinction_method     none
_refine_ls_goodness_of_fit_ref   1.108
_refine_ls_hydrogen_treatment    constr
_refine_ls_matrix_type           full
_refine_ls_number_parameters     64
_refine_ls_number_reflns         949
_refine_ls_number_restraints     0
_refine_ls_restrained_S_all      1.108
_refine_ls_R_factor_all          0.0277
_refine_ls_R_factor_gt           0.0275
_refine_ls_shift/su_max          0.001
_refine_ls_shift/su_mean         0.000
_refine_ls_structure_factor_coef Fsqd
_refine_ls_weighting_details
'w=1/[\s^2^(Fo^2^)+(0.0445P)^2^+0.1988P] where P=(Fo^2^+2Fc^2^)/3'
_refine_ls_weighting_scheme      calc
_refine_ls_wR_factor_gt          0.0749
_refine_ls_wR_factor_ref         0.0752
_reflns_Friedel_coverage         0.000
_reflns_number_gt                941
_reflns_number_total             949
_reflns_threshold_expression     'I > 2\s(I)'
_cod_data_source_file            ma0c02206_si_002.cif
_cod_data_source_block           190912dyf_2_0m
_cod_depositor_comments
'Adding full bibliography for 1559498--1559499.cif.'
_cod_database_code               1559498
_shelx_shelxl_version_number     2016/6
_shelx_space_group_comment
;
The symmetry employed for this shelxl refinement is uniquely defined
by the following loop, which should always be used as a source of
symmetry information in preference to the above space-group names.
They are only intended as comments.
;
_shelx_estimated_absorpt_t_max   0.772
_shelx_estimated_absorpt_t_min   0.464
_olex2_refinement_description
;
1. Fixed Uiso
 At 1.2 times of:
  All C(H) groups
2.a Aromatic/amide H refined with riding coordinates:
 C1(H1)
;
_shelx_res_file
;
TITL 190912dyf_2_0m_a.res in P2(1)/c
    190912dyf_2_0m.res
    created by SHELXL-2016/6 at 13:22:38 on 12-Sep-2019
REM Old TITL 190912dyf_2_0m in P2(1)/c
REM SHELXT solution in P2(1)/c
REM R1 0.093, Rweak 0.002, Alpha 0.017, Orientation as input
REM Formula found by SHELXT: C4 S Cl2
CELL 1.34139 10.4092 3.8459 13.332 90 106.08 90
ZERR 2 0.0003 0.0001 0.0004 0 0.001 0
LATT 1
SYMM -X,0.5+Y,0.5-Z
SFAC C H Cl S
DISP C 0.0148 0.007 57.7477
DISP Cl 0.3294 0.5404 4086.1782
DISP H -0 0 0.6481
DISP S 0.2924 0.4247 3241.7632
UNIT 16 4 8 4

L.S. 4 0 0
PLAN  20
SIZE 0.03 0.05 0.1
TEMP -103.18
BOND $H
list 4
fmap 2 53
acta
OMIT -8 2 7
REM <olex2.extras>
REM <HklSrc "%.\\190912dyf_2_0m.hkl">
REM </olex2.extras>

WGHT    0.044500    0.198800
FVAR       1.13152
CL1   3    0.458344    0.632821    0.627042    11.00000    0.02335    0.04581 =
         0.03330    0.00095    0.00684   -0.00263
CL2   3    0.205590    0.333514    0.696468    11.00000    0.02999    0.03363 =
         0.01774    0.00230    0.00864    0.00073
S1    4    0.097590    0.730528    0.387988    11.00000    0.02683    0.02684 =
         0.01980    0.00321    0.01188   -0.00079
C1    1    0.265581    0.759577    0.445242    11.00000    0.02683    0.02790 =
         0.03046    0.00158    0.01580   -0.00156
AFIX  43
H1    2    0.327904    0.850999    0.411860    11.00000   -1.20000
AFIX   0
C2    1    0.298930    0.635809    0.544347    11.00000    0.02437    0.02566 =
         0.02487   -0.00248    0.01008   -0.00058
C3    1    0.186638    0.512840    0.574744    11.00000    0.02802    0.02050 =
         0.01945   -0.00168    0.01146    0.00101
C4    1    0.067263    0.546652    0.498681    11.00000    0.02732    0.01801 =
         0.01883   -0.00239    0.01300   -0.00051
HKLF 4




REM  190912dyf_2_0m_a.res in P2(1)/c
REM R1 =  0.0275 for     941 Fo > 4sig(Fo)  and  0.0277 for all     949 data
REM     64 parameters refined using      0 restraints

END

WGHT      0.0434      0.2063

REM Highest difference peak  0.440,  deepest hole -0.401,  1-sigma level  0.076
Q1    1   0.1919  0.7287  0.4191  11.00000  0.05    0.44
Q2    1   0.1167  0.2477  0.6784  11.00000  0.05    0.38
Q3    1   0.0758  0.5839  0.4466  11.00000  0.05    0.31
Q4    1   0.0000  0.5000  0.5000  10.50000  0.05    0.27
Q5    1   0.2957  0.1964  0.7243  11.00000  0.05    0.27
Q6    1   0.2466  0.6180  0.5599  11.00000  0.05    0.25
Q7    1   0.2698  0.8156  0.4991  11.00000  0.05    0.23
Q8    1   0.1272  0.4001  0.5207  11.00000  0.05    0.22
Q9    1   0.5031  0.8590  0.4205  11.00000  0.05    0.21
Q10   1   0.1000  0.2408  0.5254  11.00000  0.05    0.21
Q11   1   0.3022  0.4452  0.7137  11.00000  0.05    0.20
Q12   1   0.3604  1.0833  0.4439  11.00000  0.05    0.20
Q13   1   0.4227  0.4842  0.6539  11.00000  0.05    0.20
Q14   1   0.1186  0.5429  0.5422  11.00000  0.05    0.20
Q15   1   0.2746  0.5946  0.4973  11.00000  0.05    0.19
Q16   1   0.1426 -0.1434  0.7209  11.00000  0.05    0.19
Q17   1   0.2623  0.4887  0.6794  11.00000  0.05    0.19
Q18   1   0.5743  0.6505  0.5974  11.00000  0.05    0.19
Q19   1   0.0958  0.3292  0.7354  11.00000  0.05    0.18
Q20   1   0.4874  0.4766  0.5905  11.00000  0.05    0.18
;
_shelx_res_checksum              56847
_shelx_hkl_file
;
   1   0   0 557.057 32.8148   4
  -1   0   0 666.268 33.1853   4
  -2   0   0 433.363 24.3746   4
   2   0   0 378.893 23.7521   4
  -4   0   0 868.303 47.2726   4
   4   0   0 713.299 40.3123   1
   4   0   0 760.544 45.6860   4
   5   0   0 591.114 37.9105   4
  -5   0   0 580.506 30.9614   2
   5   0   0 584.540 30.9452   2
  -5   0   0 641.549 39.4296   4
  -6   0   0 1049.76 64.1013   4
   6   0   0 1019.06 53.7763   1
   7   0   0 970.177 50.1052   1
  -7   0   0 993.933 49.9523   3
  -7   0   0 795.486 62.2067   4
  -7   0   0 1090.37 49.8426   1
   7   0   0 889.902 49.6711   2
   7   0   0 990.928 49.9503   3
  -7   0   0 940.172 62.4145   4
   8   0   0 1404.70 76.4707   1
  -8   0   0 1522.74 76.1044   1
  -8   0   0 1486.20 76.3697   3
   9   0   0 1135.12 61.8636   3
   9   0   0 1241.42 61.5775   2
  -9   0   0 1143.19 61.8432   3
  -9   0   0 1225.03 61.5875   2
  10   0   0 523.666 26.7861   2
 -10   0   0 487.013 26.7398   2
 -11   0   0 1510.43 79.4421   2
  11   0   0 1556.62 79.4451   2
  12   0   0 573.890 29.6455   2
 -12   0   0 551.268 29.6325   2
   0  -1   0 0.83084 0.26507   4
   1  -1   0 958.632 56.5830   4
  -1  -1   0 1119.86 56.5517   4
  -1  -1   0 1067.44 56.5757   4
  -1   1   0 1143.68 56.6997   4
  -2  -1   0 32.7072 3.99611   4
  -2  -1   0 41.6588 4.59813   4
  -2  -1   0 39.2471 2.06603   2
   2  -1   0 39.5593 2.16214   3
   2  -1   0 33.7675 3.97316   4
   2  -1   0 35.4627 2.11194   3
  -2  -1   0 37.3388 2.08535   3
  -2  -1   0 35.3884 2.09614   3
  -2   1   0 39.7947 4.45738   4
   2   1   0 42.1021 2.15357   3
  -2   1   0 37.0015 2.08379   1
   2   1   0 38.2977 2.20017   3
  -2   1   0 36.8397 2.15141   3
  -3  -1   0 5928.98 314.196   4
  -3  -1   0 6258.21 312.670   4
   3  -1   0 5633.19 311.849   4
  -3   1   0 6162.54 313.707   4
   4  -1   0 2359.70 125.343   4
  -4  -1   0 2011.11 127.529   4
  -4   1   0 2594.81 128.583   4
  -5  -1   0 1034.69 70.6224   4
  -5  -1   0 1177.53 60.3099   2
  -5  -1   0 1285.01 69.3014   4
   5  -1   0 1267.25 68.3747   4
  -5   1   0 1057.15 76.4702   4
  -6  -1   0 6015.36 322.025   4
   7  -1   0 210.453 11.8304   3
   7  -1   0 210.224 11.3912   2
  -7  -1   0 212.068 11.6726   3
  -7  -1   0 221.462 11.6099   2
   7   1   0 198.539 11.9377   1
   7   1   0 213.051 11.6862   3
  -7   1   0 212.880 11.6264   1
  -7   1   0 209.396 11.4366   2
  -7   1   0 215.970 11.7893   3
   7   1   0 216.209 11.4739   2
  -8  -1   0 332.300 17.0596   2
   8  -1   0 305.510 17.2929   3
  -8  -1   0 300.401 17.1216   3
   8  -1   0 335.615 16.8823   2
  -8   1   0 320.692 16.9148   2
   8   1   0 312.824 17.5307   1
  -8   1   0 309.222 17.2196   3
  -8   1   0 329.008 17.0460   1
   8   1   0 300.456 16.8740   2
   9  -1   0 88.0313 5.80348   3
  -9  -1   0 97.2924 5.56532   2
  -9  -1   0 84.2913 5.67445   3
   9  -1   0 101.845 5.44863   2
  -9   1   0 94.0093 5.48531   2
   9   1   0 86.7663 5.96977   1
  -9   1   0 96.6099 5.53127   1
  -9   1   0 84.3061 5.86079   3
   9   1   0 84.1708 5.71951   3
   9   1   0 93.7221 5.46779   2
 -10  -1   0 489.597 23.4684   2
  10  -1   0 438.576 23.2398   2
  10   1   0 428.134 23.3106   2
  10   1   0 424.595 23.8915   1
 -10   1   0 433.469 23.3509   2
 -10   1   0 416.521 23.2460   1
 -11  -1   0 10.2672 1.17783   2
  11  -1   0 9.11620 1.06717   2
  11   1   0 9.86815 2.05947   1
 -11   1   0 7.63661 1.52401   1
 -11   1   0 9.79873 1.18355   2
  11   1   0 10.0822 1.18890   2
  -1   2   0 352.107 17.2019   3
   1   2   0 335.949 17.1883   3
   1   2   0 332.124 17.1820   3
  -1   2   0 310.530 17.2057   3
  -2  -2   0 149.712 8.78272   4
  -2  -2   0 134.397 8.16285   4
   2   2   0 137.570 7.14845   3
  -2   2   0 134.318 7.17898   3
  -2   2   0 121.293 7.02879   1
  -2   2   0 138.717 9.54139   4
  -2   2   0 142.249 7.14514   3
  -2   2   0 130.753 8.87521   4
   2   2   0 138.833 7.13765   3
   2   2   0 116.255 7.02797   1
  -3  -2   0 184.212 13.0820   4
   3  -2   0 170.913 8.89970   2
   3   2   0 150.972 9.23436   1
   3   2   0 182.804 9.33897   3
  -3   2   0 187.544 9.33392   3
  -3   2   0 174.038 9.19874   1
  -3   2   0 145.920 9.54177   3
   3   2   0 188.401 9.29621   3
  -4  -2   0 57.8674 2.91388   2
   4  -2   0 58.7018 2.95120   2
  -4  -2   0 40.8833 7.18550   4
   4  -2   0 58.0110 3.32555   3
  -4   2   0 47.9536 3.06934   2
  -4   2   0 56.1769 3.32876   3
   4   2   0 48.1364 3.29109   1
   4   2   0 54.2193 3.23111   3
  -4   2   0 50.6430 3.30290   3
  -4   2   0 50.9568 3.22364   1
  -4   2   0 37.6598 8.09226   4
   4   2   0 54.6823 3.76634   3
   5  -2   0 464.262 25.4035   2
  -5  -2   0 527.927 25.4894   2
   5   2   0 534.046 25.8024   3
  -5   2   0 496.522 25.9391   3
  -5   2   0 473.102 25.8245   1
  -5   2   0 458.432 25.5347   2
   5   2   0 472.643 25.9678   1
   6  -2   0 707.043 35.0775   2
  -6  -2   0 693.394 35.2303   2
  -6   2   0 652.803 36.1862   3
  -6   2   0 689.095 35.5657   1
   6   2   0 704.437 35.8167   1
  -6   2   0 670.175 35.1898   2
   6   2   0 611.504 35.2827   2
   7  -2   0 61.8508 3.51789   2
  -7  -2   0 47.6971 3.60244   2
   7   2   0 58.6166 3.95505   2
  -7   2   0 55.4938 3.60335   2
   7   2   0 59.4633 4.21139   1
  -7   2   0 61.8920 4.04887   3
  -7   2   0 65.0846 4.01749   1
   7   2   0 55.8771 3.80383   3
  -8  -2   0 53.5167 3.62846   2
   8  -2   0 57.8201 3.42011   2
  -8   2   0 53.5602 3.86435   3
   8   2   0 54.3954 4.14078   1
  -8   2   0 59.6056 3.84428   1
   8   2   0 53.4019 3.73628   3
   8   2   0 56.6799 3.69063   2
  -8   2   0 53.0610 3.54674   2
  -9  -2   0 449.122 24.1006   2
   9  -2   0 454.707 23.8970   2
   9   2   0 448.118 24.8747   1
  -9   2   0 443.893 24.1319   2
  -9   2   0 461.713 24.2909   1
   9   2   0 469.312 24.3054   2
 -10  -2   0 346.000 17.6515   2
  10  -2   0 334.834 17.5698   2
 -10   2   0 329.440 18.3232   2
  10   2   0 322.035 18.4938   1
 -10   2   0 320.697 17.8805   1
  10   2   0 339.304 19.1066   2
  11  -2   0 146.204 8.76123   2
 -11   2   0 154.521 8.97213   1
  11   2   0 163.133 9.53234   1
 -11   2   0 186.313 10.0109   2
   0   3   0 0.11992 0.13254   1
   1   3   0 80.4320 4.59938   1
  -1   3   0 86.4507 4.51494   1
   2   3   0 460.371 24.1680   1
  -3   3   0 30.3319 1.76355   3
   3   3   0 28.4715 2.18348   1
   3   3   0 28.3808 1.63817   3
   4   3   0 296.271 17.5057   3
  -4   3   0 343.119 17.8782   1
  -4   3   0 340.281 17.7091   3
   4   3   0 357.485 18.2403   1
   5   3   0 60.8466 4.21851   1
   5   3   0 64.4957 3.71769   3
  -5   3   0 54.0797 3.88603   1
  -6   3   0 3.92333 0.97458   3
  -6   3   0 5.75022 1.18338   1
   6   3   0 5.91611 1.88882   1
   6   3   0 4.79278 0.82419   3
   7   3   0 1022.98 53.5969   1
  -7   3   0 1009.36 53.0944   1
   8   3   0 31.7630 2.79159   1
  -8   3   0 28.7068 2.37070   1
   9   3   0 81.5837 5.41879   1
  -9   3   0 80.5111 4.96795   1
   0   4   0 2.76882 0.45862   1
  -1   4   0 673.610 33.7342   1
   1   4   0 625.976 33.6630   1
  -2   4   0 1.25895 0.43405   1
   2   4   0 1.09390 0.37973   1
  -3   4   0 20.1353 1.66090   1
   3   4   0 19.1207 1.65772   1
  -4   4   0 311.003 16.8707   1
   4   4   0 315.914 17.1384   1
  -6   4   0 187.428 10.4428   1
   6   4   0 190.971 11.0389   1
 -12   0   1 0.03741 0.32547   2
  12   0  -1 0.06017 0.30144   2
  11   0  -1 0.70046 0.60693   2
 -11   0   1 1.82944 0.72573   2
  -9   0   1 0.10087 0.32803   2
  -9   0   1 -0.1490 0.34830   3
   9   0  -1 0.82900 0.44467   2
   9   0  -1 0.12361 0.38742   1
  -9   0   1 -0.3351 0.28514   1
   9   0  -1 0.10333 0.37731   3
  -8   0   1 1.97116 0.59787   3
  -8   0   1 0.36703 0.39109   1
   8   0  -1 1.07642 0.53757   1
   7   0  -1 0.13012 0.38407   1
  -7   0   1 -0.6863 3.88916   4
   7   0  -1 0.85968 0.38816   2
  -7   0   1 7.00997 5.34086   4
  -7   0   1 0.83089 0.39853   2
   7   0  -1 0.08293 0.34088   3
  -7   0   1 0.41523 0.37959   1
  -7   0   1 0.74573 0.44153   3
  -6   0   1 3.01918 2.87722   4
  -6   0   1 2.65761 3.82652   4
  -5   0   1 0.24376 2.05398   4
  -5   0   1 0.58563 1.38012   4
  -5   0   1 0.20471 0.24633   1
  -5   0   1 0.07974 0.22277   3
   5   0  -1 0.43763 0.18571   2
  -5   0   1 0.94009 0.26868   2
  -4   0   1 2.61054 1.51950   4
  -4   0   1 0.51618 0.29802   1
  -4   0   1 0.28350 0.18478   2
   4   0  -1 0.16222 0.23975   3
   4   0  -1 0.58624 0.19909   2
   3   0  -1 0.07163 0.18727   3
   3   0  -1 0.10662 0.21890   3
  -3   0   1 0.48588 0.26568   1
  -3   0   1 -0.1544 0.61405   4
  -2   0   1 0.74499 0.65824   4
  -2   0   1 0.57674 0.16118   3
   2   0  -1 0.48647 0.15159   3
  -1   0   1 0.51145 0.10592   3
   1   0  -1 0.03718 0.25255   4
  -1   0   1 0.22809 0.25199   4
   0   0   1 0.40822 0.08118   3
   0   0  -1 0.61417 0.08375   3
   0   0  -1 0.70001 0.33235   4
   1   0   1 0.68920 0.57883   4
  -1   0  -1 0.42113 0.13034   3
  -1   0  -1 0.67041 0.53583   4
  -2   0  -1 0.09422 0.62250   4
   2   0   1 0.88513 0.23390   3
  -3   0  -1 1.65643 0.26125   2
   3   0   1 1.43379 1.36574   4
  -4   0  -1 0.26227 0.21098   2
   4   0   1 0.37910 0.31195   3
  -4   0  -1 0.95263 1.73952   4
   4   0   1 -0.7899 0.88300   4
   4   0   1 1.37818 0.41326   1
   4   0   1 0.35648 0.20050   2
  -4   0  -1 0.80302 0.34445   1
  -5   0  -1 0.41599 0.31033   3
   5   0   1 0.35768 0.30204   1
  -5   0  -1 0.89482 2.26203   4
   5   0   1 0.30475 0.30995   3
  -5   0  -1 -0.2243 0.28015   1
  -5   0  -1 0.58439 0.25340   2
   5   0   1 2.97743 2.22552   4
   6   0   1 1.95909 0.44283   2
  -6   0  -1 5.66601 3.42481   4
   6   0   1 0.41405 2.61084   4
  -6   0  -1 2.57676 0.47150   2
   7   0   1 1.75772 0.49231   2
  -7   0  -1 2.35970 0.56526   2
   8   0   1 1.37889 0.50795   3
   8   0   1 1.62620 0.47946   2
  -8   0  -1 0.50798 0.38696   3
  -8   0  -1 2.13955 0.55974   2
   8   0   1 0.24127 0.36505   1
  -8   0  -1 0.95095 0.36438   1
   9   0   1 0.60587 0.37463   2
   9   0   1 0.29597 0.49784   1
  -9   0  -1 0.91059 0.50857   3
   9   0   1 0.19505 0.43521   3
  -9   0  -1 -0.3210 0.24577   2
  10   0   1 0.16358 0.40912   2
 -10   0  -1 0.40262 0.44366   2
  11   0   1 0.29848 0.37506   2
 -11   0  -1 0.09404 0.37619   2
 -12  -1   1 71.4423 4.45021   2
  12  -1  -1 72.4464 4.42097   2
 -12   1   1 76.7384 4.63432   2
  12   1  -1 73.8982 4.54632   2
 -11  -1   1 518.925 25.9424   2
  11   1  -1 460.637 26.2577   1
 -11   1   1 432.661 25.7039   1
 -11   1   1 519.450 25.9866   2
  11   1  -1 509.539 25.9420   2
  10  -1  -1 10.4753 1.17861   2
 -10  -1   1 10.5357 1.31373   2
  10   1  -1 10.1793 1.21976   2
 -10   1   1 9.38917 1.20439   2
  10   1  -1 9.71572 1.46683   1
 -10   1   1 9.97236 1.19249   1
   9  -1  -1 7.68528 0.95064   2
  -9  -1   1 8.46253 1.11711   2
   9  -1  -1 7.08923 1.09115   3
  -9  -1   1 5.83042 0.98037   3
  -9   1   1 6.76521 1.01119   1
   9   1  -1 7.50534 1.29709   1
  -9   1   1 7.56325 0.98462   2
   9   1  -1 7.05297 1.01009   3
   9   1  -1 8.41194 0.99891   2
  -8  -1   1 1644.94 82.4144   2
  -8  -1   1 1543.96 82.4478   3
   8  -1  -1 1589.91 82.5498   3
   8   1  -1 1608.15 82.2508   2
   8   1  -1 1618.04 82.8692   1
   8   1  -1 1578.38 82.4465   3
  -8   1   1 1555.04 82.2060   2
  -7  -1   1 320.721 17.8116   3
   7  -1  -1 363.943 17.9985   3
  -7  -1   1 326.639 17.7836   2
   7  -1  -1 333.174 17.5763   2
   7   1  -1 324.015 17.6354   2
  -7   1   1 345.576 17.9519   3
  -7   1   1 339.603 17.7791   1
   7   1  -1 320.376 18.1224   1
  -7   1   1 319.061 17.6004   2
  -6  -1   1 0.55502 0.38938   3
  -6  -1   1 -1.4161 3.02132   4
   6  -1  -1 0.46561 0.40494   3
   6   1  -1 0.49475 0.44439   1
   6   1  -1 0.41338 0.39553   3
  -6   1   1 7.32654 4.05900   4
  -6   1   1 1.21950 0.51476   3
  -6   1   1 1.30304 0.49644   1
   5  -1  -1 214.707 11.0509   3
  -5  -1   1 179.889 21.5051   4
  -5  -1   1 196.799 10.8695   2
   5  -1  -1 192.872 10.7194   2
  -5  -1   1 208.602 17.3298   4
  -5  -1   1 213.082 10.9574   3
  -5   1   1 185.699 10.7437   2
  -5   1   1 194.628 10.9286   1
   5   1  -1 179.889 10.7618   2
  -5   1   1 232.903 11.0856   3
  -5   1   1 214.893 22.1826   4
   5   1  -1 199.475 11.1191   1
   5   1  -1 220.920 10.9967   3
  -4  -1   1 961.622 57.6172   4
  -4  -1   1 996.479 55.7238   4
  -4   1   1 1033.14 56.7374   4
   4   1  -1 1006.48 49.4427   3
   4   1  -1 840.747 49.1001   2
  -4   1   1 850.257 49.0800   2
  -4   1   1 998.022 49.2943   3
  -3  -1   1 1232.28 67.3883   4
  -3  -1   1 1279.90 68.9113   4
  -3   1   1 1168.57 68.1704   4
   2  -1  -1 88.6769 4.48269   3
  -2  -1   1 84.5415 6.56538   4
  -2  -1   1 92.9549 4.47650   2
   2  -1  -1 82.9292 4.47817   3
  -2  -1   1 84.9805 7.07351   4
  -2  -1   1 82.0097 4.53557   3
  -2  -1   1 90.4228 4.50909   3
  -2   1   1 79.9212 7.83653   4
  -2   1   1 73.1367 6.80741   4
   2   1  -1 88.2422 4.51553   3
  -2   1   1 71.9738 4.42289   1
  -2   1   1 84.2772 4.55985   3
   2   1  -1 86.8413 4.57301   3
  -1  -1   1 2446.63 118.533   4
  -1   1   1 2050.54 117.399   4
   1   1  -1 2293.37 118.592   4
  -1   1   1 2287.31 117.353   4
  -1  -1  -1 1964.31 98.2602   4
   1  -1   1 1812.37 99.2454   4
  -1   1  -1 1901.57 99.2477   4
   1   1   1 1860.48 98.2667   4
  -2  -1  -1 98.1563 5.01551   3
   2  -1   1 81.2223 4.97963   2
   2  -1   1 81.5849 8.04370   4
  -2  -1  -1 92.8771 4.99056   2
  -2  -1  -1 92.6970 8.85278   4
   2  -1   1 94.8511 5.09487   3
   2  -1   1 102.785 5.15188   3
  -2  -1  -1 100.836 5.05302   3
  -2   1  -1 93.7872 5.05152   1
  -2   1  -1 99.7050 5.09707   3
   2   1   1 100.162 5.13834   3
   2   1   1 91.9499 4.99551   1
   2   1   1 93.8962 5.09145   3
   2   1   1 82.9449 7.47349   4
  -2   1  -1 103.417 8.31609   4
   3  -1   1 323.787 21.5597   4
  -3  -1  -1 342.528 21.6071   4
   3  -1   1 338.404 16.6953   3
  -3  -1  -1 344.661 16.5714   3
  -3  -1  -1 300.704 16.4982   2
   3  -1   1 296.202 16.4503   2
  -3   1  -1 323.085 16.6782   3
   3   1   1 332.221 16.6153   1
  -3   1  -1 306.794 16.4921   2
  -3   1  -1 315.606 16.5957   1
  -3   1  -1 329.261 22.2218   4
   3   1   1 270.584 16.4570   2
   3   1   1 308.450 21.1258   4
   4  -1   1 2594.09 141.812   4
  -4   1  -1 2707.85 143.967   4
   4   1   1 2570.79 141.821   4
  -5  -1  -1 560.865 36.7893   4
  -5  -1  -1 528.763 27.9051   2
   5  -1   1 546.290 35.7694   4
   5  -1   1 528.307 27.7987   2
   5  -1   1 525.568 28.2210   3
  -5  -1  -1 570.383 28.0415   3
  -5   1  -1 573.600 38.5092   4
   5   1   1 526.671 28.2067   1
   5   1   1 591.062 28.1174   3
   5   1   1 504.406 27.8112   2
  -5   1  -1 511.197 27.8180   2
  -5   1  -1 478.045 28.0219   1
  -6  -1  -1 9.60265 1.05930   3
   6  -1   1 10.9141 0.95402   2
  -6  -1  -1 10.0140 1.02908   2
   6  -1   1 12.2885 1.29360   3
  -6   1  -1 9.87232 1.13301   3
  -6   1  -1 9.42512 1.17097   1
  -6   1  -1 12.9423 1.02733   2
   6   1   1 10.3306 1.27486   1
   6   1   1 10.9186 1.11972   3
  -7  -1  -1 917.446 50.1437   3
  -7  -1  -1 975.032 49.9957   2
   7  -1   1 953.554 49.8417   2
   7  -1   1 989.285 50.4549   3
  -7   1  -1 940.388 49.8860   2
   7   1   1 954.500 50.2394   3
  -7   1  -1 970.291 50.2866   3
  -7   1  -1 1013.00 50.1671   1
   7   1   1 947.095 50.5154   1
  -8  -1  -1 14.2408 1.36402   2
   8  -1   1 12.8476 1.23215   2
  -8  -1  -1 14.6707 1.45722   3
   8   1   1 13.3775 1.26789   2
  -8   1  -1 12.7669 1.38235   1
  -8   1  -1 14.1247 1.52381   3
   8   1   1 16.5667 1.56316   3
  -8   1  -1 13.5003 1.29350   2
   8   1   1 12.5898 1.62235   1
   9  -1   1 31.4083 2.78264   3
   9  -1   1 38.1030 2.46265   2
  -9  -1  -1 33.6730 2.47076   2
   9   1   1 34.3331 2.73157   3
   9   1   1 33.3424 2.95079   1
  -9   1  -1 30.5556 2.43119   1
  -9   1  -1 33.8305 2.46295   2
  -9   1  -1 32.6375 2.74182   3
  10  -1   1 11.9673 1.36256   2
 -10  -1  -1 13.9839 1.49920   2
  10   1   1 11.5907 1.75257   1
 -10   1  -1 13.3878 1.49430   2
  10   1   1 13.7014 1.45490   2
 -10   1  -1 11.0310 1.38237   1
 -11  -1  -1 0.33010 0.41532   2
  11  -1   1 1.13649 0.42679   2
  11   1   1 0.35114 0.50435   2
  11   1   1 0.98759 0.77247   1
 -11   1  -1 0.52730 0.61392   2
 -11  -2   1 45.7017 2.86958   2
  11  -2  -1 48.1925 2.84721   2
  11   2  -1 50.1746 3.49987   2
 -11   2   1 45.9760 3.16108   1
 -11   2   1 52.6445 3.32855   2
  11   2  -1 45.9979 3.55930   1
  10  -2  -1 191.082 9.98625   2
 -10  -2   1 184.138 10.1485   2
 -10   2   1 176.332 10.2730   2
 -10   2   1 181.612 10.3046   1
  10   2  -1 179.608 10.3642   2
  10   2  -1 188.990 10.9274   1
  -9  -2   1 55.8854 3.67496   2
   9  -2  -1 56.5924 3.40024   2
   9   2  -1 54.7067 4.19613   1
  -9   2   1 54.8919 3.72962   1
  -9   2   1 52.7860 3.59959   2
   9   2  -1 52.3156 3.72456   2
  -8  -2   1 97.0092 6.70862   2
   8  -2  -1 122.091 6.52919   2
   8   2  -1 112.596 6.90680   3
  -8   2   1 114.876 6.71331   2
  -8   2   1 124.221 6.93535   1
   8   2  -1 123.535 7.41934   1
   8   2  -1 118.020 6.89762   2
  -8   2   1 111.467 6.97626   3
  -7  -2   1 118.716 7.56080   2
   7  -2  -1 140.289 7.37904   2
  -7   2   1 143.269 7.82577   1
  -7   2   1 141.385 7.87682   3
  -7   2   1 120.126 7.62245   2
   7   2  -1 139.168 7.72767   3
   7   2  -1 131.058 8.10081   1
  -6  -2   1 1140.25 58.9024   2
   6  -2  -1 1082.04 58.6935   2
   6   2  -1 1140.88 59.4602   1
  -6   2   1 1192.51 59.2603   3
   6   2  -1 1216.71 59.1178   3
  -6   2   1 1058.76 58.8508   2
  -6   2   1 1134.63 59.1591   1
   4  -2  -1 1.47418 0.21064   2
  -4  -2   1 6.07134 5.25940   4
  -4   2   1 0.93062 0.33478   1
  -4   2   1 1.28448 0.41114   3
  -4   2   1 -1.6944 2.69645   4
   4   2  -1 1.13284 0.36752   3
   4   2  -1 1.20771 0.40361   3
  -3  -2   1 462.354 28.0225   4
  -3  -2   1 453.427 22.9258   2
   3   2  -1 380.249 23.3171   1
  -3   2   1 468.819 27.1526   4
  -3   2   1 453.191 23.2710   3
  -3   2   1 435.509 23.1723   1
  -3   2   1 445.283 23.2930   3
   3   2  -1 478.586 23.3636   3
  -2  -2   1 2925.02 146.522   4
  -2  -2   1 2684.12 146.821   4
   0   2  -1 65.1567 3.56932   3
   0   2  -1 67.0568 3.56800   3
   1  -2   1 733.556 41.6749   4
  -1   2  -1 792.503 39.6364   3
  -1   2  -1 807.748 41.6918   4
  -1   2  -1 741.931 39.5659   1
   2  -2   1 909.135 53.8010   4
  -2   2  -1 988.870 53.9545   4
   2   2   1 954.268 49.9985   1
  -2   2  -1 997.749 50.2157   3
   2   2   1 1012.69 50.1534   3
  -3  -2  -1 1464.43 73.8884   4
   3  -2   1 1370.09 69.6591   3
   3  -2   1 1201.14 69.5783   2
   3   2   1 1452.80 70.0236   3
  -3   2  -1 1469.50 69.9989   3
  -3   2  -1 1179.57 69.7212   2
  -4  -2  -1 70.5226 3.51924   2
   4  -2   1 61.2328 3.60371   2
  -4  -2  -1 66.1416 8.75110   4
  -4   2  -1 66.4554 4.02054   3
  -4   2  -1 60.9590 3.71794   2
  -4   2  -1 66.2729 3.93311   1
   4   2   1 69.5567 3.91067   3
   4   2   1 61.4127 3.94079   1
   5  -2   1 23.8196 1.57722   2
  -5  -2  -1 25.9041 1.60424   2
  -5   2  -1 22.7716 1.92722   1
   5   2   1 24.6573 1.85457   3
  -5   2  -1 22.4870 1.63857   2
   5   2   1 27.6746 2.08707   1
  -5   2  -1 23.6203 1.96749   3
   5   2   1 19.6628 1.75309   2
  -6  -2  -1 666.288 37.5057   2
   6  -2   1 758.703 37.4333   2
  -6   2  -1 699.279 37.5083   2
   6   2   1 738.665 38.1581   1
   6   2   1 678.772 37.6308   2
   6   2   1 775.108 37.8696   3
  -6   2  -1 741.143 38.0666   3
  -6   2  -1 710.991 37.9337   1
   7  -2   1 1454.11 71.7420   2
   7   2   1 1373.30 72.5817   1
   7   2   1 1350.85 71.9888   2
  -7   2  -1 1343.62 71.8310   2
  -7   2  -1 1424.52 72.2833   1
   8  -2   1 78.4861 4.33595   2
  -8  -2  -1 68.3867 4.43358   2
  -8   2  -1 73.6653 4.45428   2
   8   2   1 68.6590 4.51817   2
   9  -2   1 6.24231 0.76795   2
  -9  -2  -1 3.96345 0.74736   2
  -9   2  -1 6.06939 0.95281   2
   9   2   1 3.69897 0.99824   1
   9   2   1 5.59875 0.95405   2
  -9   2  -1 4.85910 0.94930   1
 -10  -2  -1 1040.48 52.3849   2
 -10   2  -1 1022.13 52.7461   2
  10   2   1 1020.58 53.4566   1
 -10   2  -1 969.649 52.7470   1
  -9   3   1 159.544 8.81142   1
   9   3  -1 129.352 9.62724   1
   8   3  -1 300.966 17.2318   1
  -8   3   1 313.276 16.6958   1
   7   3  -1 430.088 23.2505   1
  -7   3   1 416.005 22.6423   1
   6   3  -1 22.7696 1.88148   3
  -6   3   1 24.7611 2.64253   1
   6   3  -1 25.4073 2.89586   1
  -5   3   1 47.1358 3.13027   1
  -5   3   1 37.7852 2.86060   3
   5   3  -1 49.7993 3.52078   1
   5   3  -1 44.2830 2.89657   3
   4   3  -1 492.341 26.9986   3
  -4   3   1 537.591 26.8860   3
   4   3  -1 528.834 27.5974   1
  -4   3   1 507.702 27.1633   1
  -3   3   1 382.707 20.1232   1
   3   3  -1 364.268 19.9515   3
   3   3  -1 403.864 20.5403   1
  -2   3   1 1.39463 0.27146   1
   1   3  -1 107.554 5.90720   1
   0   3  -1 437.967 22.7747   1
   1   3   1 945.683 49.6767   1
  -1   3  -1 987.846 49.9150   1
  -2   3  -1 46.8196 2.69489   1
  -2   3  -1 47.9260 2.52342   3
   2   3   1 37.7812 2.66325   1
  -3   3  -1 12.1815 1.00965   3
  -3   3  -1 13.0741 1.15529   1
   3   3   1 13.0206 1.22667   1
  -4   3  -1 969.943 50.3478   3
  -4   3  -1 990.107 50.4717   1
   4   3   1 1021.81 50.7212   1
   4   3   1 895.638 50.0172   3
   5   3   1 378.302 21.3091   3
  -5   3  -1 380.678 21.6530   3
  -5   3  -1 452.957 21.7993   1
   6   3   1 119.095 7.15129   1
  -6   3  -1 106.873 6.79069   1
  -7   3  -1 214.348 11.9458   1
   7   3   1 209.495 12.2867   1
   8   3   1 110.607 6.98785   1
  -8   3  -1 108.290 6.54114   1
  -9   3  -1 212.574 11.6042   1
   9   3   1 208.392 12.0671   1
  -6   4   1 170.896 9.47638   1
   6   4  -1 170.911 10.1057   1
   5   4  -1 20.7722 2.34288   1
  -5   4   1 22.8130 2.21373   1
  -4   4   1 12.9792 1.27888   1
   4   4  -1 13.1885 1.47651   1
   3   4  -1 17.6894 1.50657   1
  -3   4   1 14.8980 1.39519   1
  -2   4   1 134.353 7.41257   1
   1   4  -1 46.6312 2.85272   1
   0   4  -1 275.551 14.5789   1
  -1   4  -1 183.040 9.90070   1
   2   4   1 58.5822 3.64923   1
  -2   4  -1 65.6102 3.82601   1
   3   4   1 252.425 13.8327   1
  -3   4  -1 255.273 13.7860   1
  -4   4  -1 9.11300 1.11387   1
   4   4   1 7.56038 1.18464   1
  -5   4  -1 91.0102 6.36179   1
   5   4   1 82.0141 5.56454   1
   6   4   1 91.6011 5.81506   1
  -6   4  -1 86.5018 5.30840   1
  12   0  -2 4.15892 1.05899   2
  11   0  -2 434.084 23.3448   2
 -11   0   2 441.528 23.4230   2
 -10   0   2 156.497 9.66811   3
  10   0  -2 154.196 9.62639   3
 -10   0   2 172.823 9.54510   2
  10   0  -2 184.384 9.55374   2
   9   0  -2 29.1550 2.42243   3
   9   0  -2 34.0605 2.33623   2
  -9   0   2 36.0228 2.38791   1
  -9   0   2 30.1754 2.33677   2
  -9   0   2 27.4479 2.42296   3
   8   0  -2 87.7979 5.64014   1
  -8   0   2 87.9202 5.53971   3
  -8   0   2 100.369 5.48615   1
   8   0  -2 85.8135 5.46344   3
   8   0  -2 89.7610 5.32066   2
  -8   0   2 96.9479 5.43721   2
  -7   0   2 9395.27 465.338   4
  -7   0   2 8213.76 467.923   4
  -6   0   2 132.119 6.66676   3
   6   0  -2 104.416 6.51713   3
   6   0  -2 120.332 6.40163   2
   6   0  -2 102.485 6.64400   1
  -6   0   2 120.027 6.59086   1
  -6   0   2 123.883 6.47802   2
  -6   0   2 102.731 12.2134   4
   5   0  -2 388.789 22.4418   2
   5   0  -2 464.323 22.8476   1
  -5   0   2 452.925 29.4542   4
  -5   0   2 413.813 22.5147   2
   5   0  -2 494.325 22.7164   3
  -5   0   2 366.077 30.2155   4
  -3   0   2 155.914 11.0339   4
  -3   0   2 159.744 8.04827   3
  -3   0   2 153.122 12.2508   4
   3   0  -2 159.876 7.96517   3
  -3   0   2 149.398 7.98682   1
   3   0  -2 132.365 7.85954   2
  -3   0   2 138.396 7.89495   2
   3   0  -2 154.671 8.02751   3
  -2   0   2 1630.98 88.3178   4
   2   0  -2 1683.93 88.4375   4
  -1   0   2 2454.01 128.030   4
   0   0  -2 1086.24 58.5226   4
   0   0   2 1112.05 58.5118   4
   1   0   2 475.957 27.3600   4
  -1   0  -2 475.248 27.3268   4
  -2   0  -2 4623.52 237.977   4
   2   0   2 4480.71 237.602   4
   3   0   2 4810.29 255.004   4
  -3   0  -2 4898.21 255.343   4
  -4   0  -2 8141.96 420.145   4
   4   0   2 7905.74 419.138   4
  -5   0  -2 6325.97 319.672   4
   5   0   2 5685.78 321.375   4
   6   0   2 340.749 27.1847   4
   6   0   2 327.034 17.9220   3
  -6   0  -2 341.230 17.8965   3
  -6   0  -2 367.379 17.7552   1
   6   0   2 315.351 17.9659   1
   6   0   2 325.220 17.5518   2
  -6   0  -2 326.397 27.3981   4
  -6   0  -2 323.200 17.5414   2
  -8   0  -2 225.042 12.8243   3
   8   0   2 238.061 12.4898   2
   8   0   2 226.967 12.9322   3
   8   0   2 225.395 12.9527   1
  -8   0  -2 234.174 12.4742   2
  -9   0  -2 954.553 45.6230   2
  -9   0  -2 750.184 45.9682   3
   9   0   2 934.139 45.6076   2
   9   0   2 855.892 46.1140   3
  10   0   2 17.1934 1.58423   2
 -10   0  -2 16.8023 1.58295   2
  11   0   2 26.0517 2.04701   2
 -11   0  -2 25.6904 2.03315   2
  12  -1  -2 312.069 17.1769   2
 -12  -1   2 323.148 17.2799   2
  12   1  -2 315.950 17.3471   2
 -12   1   2 337.090 17.4354   2
 -11  -1   2 297.567 14.4375   2
  11  -1  -2 272.541 14.2046   2
 -11   1   2 272.267 14.3767   2
 -11   1   2 232.105 14.1029   1
  11   1  -2 258.648 14.2977   2
  11   1  -2 234.856 14.5410   1
  10  -1  -2 1607.20 79.7354   2
 -10  -1   2 1645.80 79.9716   2
 -10   1   2 1499.25 79.8084   2
 -10   1   2 1497.24 79.7479   1
  10   1  -2 1435.88 80.3364   1
  10   1  -2 1554.88 79.8315   2
   9  -1  -2 69.3020 4.68439   3
   9  -1  -2 78.4685 4.49386   2
  -9  -1   2 79.8156 4.76753   2
  -9  -1   2 67.0713 4.66086   3
  -9   1   2 70.3444 4.75651   3
   9   1  -2 70.4488 4.97351   1
  -9   1   2 76.0740 4.57367   2
  -9   1   2 75.3423 4.56176   1
   9   1  -2 70.6455 4.69081   3
   9   1  -2 73.9336 4.54973   2
   8  -1  -2 2.08866 0.61944   3
  -8  -1   2 2.66887 0.68838   2
  -8  -1   2 1.87555 0.59753   3
   8   1  -2 1.31180 0.50165   3
  -8   1   2 0.84370 0.45855   1
   8   1  -2 2.38765 0.75579   1
  -8   1   2 1.30527 0.55453   3
  -7  -1   2 953.791 50.6130   2
   7  -1  -2 993.792 50.6484   3
   7   1  -2 986.442 50.9596   1
  -7   1   2 1002.62 50.7082   3
  -7   1   2 938.993 50.4083   2
   7   1  -2 957.139 50.4554   2
   7   1  -2 973.685 50.6420   3
  -6  -1   2 337.989 18.3879   2
   6  -1  -2 322.812 18.1666   2
   6  -1  -2 383.919 18.5172   3
  -6  -1   2 332.746 26.3607   4
  -6  -1   2 365.467 18.4546   3
  -6   1   2 322.905 18.2127   2
  -6   1   2 297.440 28.1194   4
   6   1  -2 315.015 18.2418   2
   6   1  -2 355.266 18.7059   1
  -6   1   2 379.873 18.4231   1
  -6   1   2 374.959 18.5268   3
  -5  -1   2 29.2290 5.19576   4
   5  -1  -2 24.3828 1.72142   2
  -5  -1   2 25.0784 6.01440   4
  -5  -1   2 27.1475 1.91216   3
   5  -1  -2 29.4671 1.96179   3
  -5  -1   2 28.3834 1.89422   2
   5   1  -2 32.0996 2.17331   1
   5   1  -2 28.0403 1.89613   3
  -5   1   2 28.0115 1.95244   3
  -5   1   2 27.0828 1.91303   1
  -5   1   2 33.9825 6.44178   4
  -5   1   2 26.8587 1.79275   2
  -4  -1   2 1535.01 79.2212   4
  -4  -1   2 1384.67 80.7377   4
  -4   1   2 1444.06 73.2167   3
  -4   1   2 1282.50 80.1299   4
  -4   1   2 1609.50 80.6379   4
  -4   1   2 1275.18 73.0282   2
  -3  -1   2 1400.82 77.1035   4
  -3   1   2 1423.72 76.6099   4
  -3   1   2 1361.68 76.7714   4
  -2  -1   2 661.710 39.1644   4
   2   1  -2 708.143 39.5803   4
  -2   1   2 699.516 38.3961   4
  -2   1   2 701.412 38.5423   4
   0  -1  -2 2508.72 125.212   4
   0  -1   2 2379.21 126.844   4
   0   1  -2 2478.66 127.136   4
   0   1   2 2310.32 125.219   4
  -1  -1  -2 443.693 24.0208   4
   1  -1   2 389.660 21.7736   2
  -1  -1  -2 419.253 21.7669   3
   1  -1   2 434.863 25.3418   4
   1  -1   2 450.853 21.8857   3
   1   1   2 384.753 24.2458   4
   1   1   2 452.407 21.8179   3
  -1   1  -2 383.999 21.8267   1
  -1   1  -2 408.745 25.1765   4
  -1   1  -2 454.482 21.8936   3
   2  -1   2 4499.83 225.819   4
  -2  -1  -2 4413.89 224.676   4
  -2   1  -2 4433.38 225.872   4
   2   1   2 3868.90 224.738   4
  -3  -1  -2 433.749 27.4877   4
  -3  -1  -2 377.418 22.1792   2
   3  -1   2 419.669 28.0515   4
   3  -1   2 429.852 22.4205   3
   3  -1   2 390.592 22.1635   2
   3   1   2 411.026 27.5015   4
  -3   1  -2 455.826 28.9039   4
  -3   1  -2 439.126 22.4079   3
   3   1   2 471.429 22.4383   3
  -3   1  -2 430.425 22.3329   1
   3   1   2 467.458 22.5185   1
  -3   1  -2 412.435 22.1876   2
  -4  -1  -2 561.669 27.1891   3
   4  -1   2 525.452 27.3856   3
  -4  -1  -2 516.149 27.0547   2
   4  -1   2 495.390 34.2108   4
  -4   1  -2 505.927 27.2331   1
   4   1   2 534.969 27.3256   3
   4   1   2 529.253 34.1357   4
   4   1   2 537.861 27.2945   1
   4   1   2 461.316 26.9764   2
  -4   1  -2 542.334 35.7656   4
   5  -1   2 380.945 19.7951   2
  -5  -1  -2 361.610 28.0779   4
   5  -1   2 377.055 20.3034   3
  -5  -1  -2 384.828 19.8673   2
  -5  -1  -2 393.817 20.0329   3
   5  -1   2 388.364 28.5349   4
  -5   1  -2 403.032 20.2254   3
  -5   1  -2 388.655 30.3578   4
   5   1   2 359.003 20.1823   1
  -5   1  -2 371.757 19.8186   2
  -5   1  -2 351.842 20.0610   1
   5   1   2 428.607 28.9261   4
   5   1   2 349.353 19.7738   2
  -6  -1  -2 1501.20 75.6521   3
   6   1   2 1420.68 75.3413   2
  -7  -1  -2 965.568 50.1381   3
   7  -1   2 957.259 50.4446   3
   7  -1   2 967.502 49.7692   2
  -7  -1  -2 1002.72 49.8768   2
   7   1   2 928.968 49.7685   2
  -7   1  -2 932.238 49.8075   2
  -7   1  -2 978.050 50.2926   3
  -7   1  -2 977.707 50.0799   1
   7   1   2 930.701 50.4512   1
  -8  -1  -2 441.237 21.8405   2
   8  -1   2 390.611 22.3560   3
   8  -1   2 400.141 21.6814   2
  -8   1  -2 404.037 21.7574   2
   8   1   2 473.057 21.8324   2
   8   1   2 397.644 22.1659   3
  -8   1  -2 412.449 21.9113   1
   8   1   2 390.650 22.4243   1
  -8   1  -2 384.901 22.1781   3
   9  -1   2 526.898 27.2673   2
   9  -1   2 477.233 28.0092   3
  -9  -1  -2 528.028 27.3273   2
  -9   1  -2 552.847 27.4677   2
  -9   1  -2 500.889 27.4325   1
 -10  -1  -2 1251.50 59.6674   2
  10  -1   2 1205.24 59.5924   2
  10   1   2 1058.43 60.1910   1
  10   1   2 1181.22 59.6623   2
 -10   1  -2 1043.50 59.5109   1
 -11  -1  -2 73.8119 4.26329   2
  11  -1   2 71.1702 4.23910   2
  11   1   2 66.9790 4.29818   2
 -11   1  -2 71.0540 4.33169   2
  11   1   2 64.0926 4.65327   1
 -11  -2   2 1.08455 0.49785   2
 -11   2   2 1.25891 0.48359   1
 -11   2   2 1.16550 0.55817   2
  11   2  -2 0.15111 0.50312   2
  11   2  -2 0.26249 0.50594   1
  10  -2  -2 22.7339 1.66482   2
 -10  -2   2 24.6818 1.98696   2
 -10   2   2 20.6806 1.93994   2
 -10   2   2 21.7423 1.96791   1
  10   2  -2 21.6159 2.29617   1
  10   2  -2 24.9961 2.13135   2
  -9  -2   2 92.1566 5.89985   2
   9  -2  -2 98.2404 5.56500   2
   9   2  -2 96.0307 6.01412   2
  -9   2   2 101.638 6.23379   2
  -9   2   2 97.7135 5.91309   1
   9   2  -2 95.7096 6.40307   1
   8  -2  -2 790.642 38.5863   2
  -8  -2   2 629.946 38.8359   2
   8   2  -2 735.681 38.9882   2
  -8   2   2 832.459 39.0195   1
  -8   2   2 730.543 38.8098   2
   8   2  -2 798.565 39.5921   1
  -8   2   2 667.064 40.3237   3
   7  -2  -2 1668.66 84.7786   2
  -7  -2   2 1570.25 85.0866   2
  -7   2   2 1724.04 85.3128   3
  -7   2   2 1617.00 85.0108   2
   6  -2  -2 105.797 5.91540   2
  -6  -2   2 111.966 6.14107   2
  -6   2   2 117.228 6.35221   1
  -6   2   2 111.103 6.35928   3
  -6   2   2 102.089 6.09877   2
   6   2  -2 111.326 6.29715   3
   6   2  -2 108.972 6.63424   1
   6   2  -2 93.4872 6.14988   2
   5  -2  -2 400.108 21.1840   2
  -5  -2   2 442.726 21.3853   2
   5   2  -2 371.500 21.4606   2
  -5   2   2 372.205 21.6758   1
   5   2  -2 438.326 21.6211   3
  -5   2   2 427.772 21.7028   3
  -4  -2   2 797.999 47.1207   4
  -4  -2   2 839.513 39.6493   2
   4   2  -2 713.562 40.0914   1
   4   2  -2 807.695 39.8639   3
  -4   2   2 789.029 45.7770   4
   4   2  -2 802.654 40.1220   3
  -4   2   2 767.782 39.9486   3
   4   2  -2 708.414 39.7469   2
  -4   2   2 684.376 39.8145   1
  -4   2   2 778.783 39.9083   3
  -3  -2   2 174.420 9.17811   3
  -3  -2   2 198.394 14.1768   4
   3   2  -2 194.736 9.44986   3
  -3   2   2 183.912 11.6629   4
   3   2  -2 195.002 9.58494   3
   3   2  -2 157.276 9.57780   1
  -3   2   2 183.970 9.40104   3
  -3   2   2 161.424 9.43505   3
  -3   2   2 156.852 9.31445   1
  -3   2   2 169.259 11.6528   4
  -2  -2   2 886.125 55.1634   4
  -2  -2   2 951.157 51.0063   4
  -2   2   2 938.574 47.0422   3
  -2   2   2 930.744 47.1036   3
   2   2  -2 792.534 47.2463   1
   2   2  -2 989.044 47.2759   3
  -1  -2   2 1239.40 70.4376   4
   1   2  -2 1359.38 67.8276   3
   1   2  -2 1348.92 71.4202   4
   0  -2   2 230.986 15.6836   4
   0   2  -2 264.178 12.9420   3
   0   2  -2 259.345 15.9133   4
   0   2  -2 257.295 12.9529   3
   0   2  -2 222.451 12.9059   1
   1  -2   2 107.756 9.35740   4
   1   2   2 116.632 6.19232   3
  -1   2  -2 103.972 6.29508   1
  -1   2  -2 117.712 6.36407   3
  -1   2  -2 119.301 9.48668   4
  -1   2  -2 126.248 6.38764   3
   1   2   2 131.537 6.18474   3
   2  -2   2 1139.30 58.7564   3
   2  -2   2 1009.38 58.4475   2
  -2   2  -2 1148.78 58.7178   2
  -2   2  -2 1231.38 58.7387   3
   2   2   2 1160.59 58.7031   3
  -3  -2  -2 1640.38 85.1207   4
   3  -2   2 1522.47 80.8707   3
  -3   2  -2 1746.57 81.2667   3
  -3   2  -2 1422.06 80.8065   2
   3   2   2 1526.68 81.1227   3
  -4  -2  -2 534.692 32.7874   4
  -4  -2  -2 518.379 25.3176   2
   4  -2   2 463.777 25.4593   2
  -4   2  -2 455.883 25.5801   2
   4   2   2 484.013 25.7629   3
  -4   2  -2 503.471 25.9755   3
   4   2   2 486.174 25.8391   1
   5  -2   2 380.177 19.4808   2
  -5  -2  -2 369.282 19.4593   2
  -5   2  -2 354.406 19.5705   2
  -5   2  -2 371.375 19.9557   1
   5   2   2 348.287 19.9810   1
   5   2   2 410.156 19.9346   3
   6  -2   2 487.517 24.7224   2
  -6   2  -2 436.913 25.2768   1
   6   2   2 470.651 24.9444   2
   6   2   2 486.649 25.2111   3
  -6   2  -2 484.004 25.4324   3
   6   2   2 471.207 25.4564   1
  -7  -2  -2 47.9659 3.41588   2
   7  -2   2 59.2169 3.39999   2
  -7   2  -2 55.7177 3.47810   2
  -7   2  -2 54.6036 3.85674   1
   7   2   2 54.4566 3.80779   3
   7   2   2 54.4297 3.57282   2
   7   2   2 57.8983 4.15863   1
  -7   2  -2 56.3222 4.01264   3
   8  -2   2 9.98822 0.99685   2
   8   2   2 10.3002 1.54642   1
   8   2   2 8.67419 1.14593   2
  -8   2  -2 9.66383 1.32016   1
   9  -2   2 96.5155 5.37437   2
  -9  -2  -2 99.7689 5.35584   2
   9   2   2 93.8348 6.27374   1
  -9   2  -2 92.0862 5.70004   1
   9   2   2 88.0208 5.60752   2
  -9   2  -2 88.9903 5.50819   2
  10  -2   2 112.326 6.22480   2
 -10   2  -2 108.999 6.51103   1
 -10   2  -2 115.514 6.51310   2
  10   2   2 109.531 7.13875   1
   9   3  -2 308.007 18.5260   1
  -9   3   2 313.349 17.4325   1
  -8   3   2 2.48004 0.69314   1
   8   3  -2 2.21932 0.76890   1
  -7   3   2 113.976 6.90014   1
   7   3  -2 120.590 7.53965   1
   6   3  -2 529.855 27.5185   1
   6   3  -2 453.740 26.2397   3
  -6   3   2 510.962 26.4467   1
   5   3  -2 678.817 35.2694   3
   5   3  -2 670.963 35.9096   1
  -5   3   2 673.965 35.3845   1
  -4   3   2 87.5650 4.75547   3
   4   3  -2 95.1245 5.13716   3
  -4   3   2 78.4333 5.11556   1
   4   3  -2 92.4424 5.60924   1
   3   3  -2 292.059 15.1254   1
  -3   3   2 250.980 14.6630   1
   3   3  -2 291.311 14.7273   3
   2   3  -2 166.235 8.42261   3
   2   3  -2 157.663 8.69014   1
  -2   3   2 149.455 8.28684   1
   1   3  -2 60.4169 3.25963   3
   1   3  -2 57.4668 3.55366   1
   0   3  -2 2026.25 104.019   3
  -1   3  -2 44.6499 2.28238   3
  -1   3  -2 32.0910 2.33471   1
  -2   3  -2 166.866 8.95989   1
  -2   3  -2 162.404 8.84321   3
  -3   3  -2 121.742 6.54333   1
   3   3   2 102.528 6.46903   1
  -3   3  -2 118.255 6.44703   3
  -4   3  -2 15.2171 1.51125   1
   4   3   2 14.5991 1.54213   1
  -4   3  -2 17.5112 1.50636   3
   5   3   2 432.481 24.5728   3
  -5   3  -2 430.419 24.6522   3
  -5   3  -2 516.551 24.7319   1
  -6   3  -2 106.534 6.71275   1
   6   3   2 113.981 6.97193   1
  -7   3  -2 14.4271 1.60336   1
   7   3   2 14.0977 1.74504   1
  -8   3  -2 0.10514 0.38459   1
   8   3   2 -0.0315 0.37142   1
  -6   4   2 187.317 10.1871   1
   6   4  -2 183.162 10.8390   1
   5   4  -2 95.1461 6.06098   1
  -4   4   2 2.90160 0.64376   1
  -3   4   2 682.406 35.6964   1
   3   4  -2 689.731 35.9746   1
  -2   4   2 112.281 6.91604   1
   2   4  -2 124.662 6.71829   1
   1   4  -2 110.294 6.21658   1
   0   4  -2 179.593 9.75950   1
  -1   4  -2 580.644 30.3506   1
  -2   4  -2 3.75807 0.67911   1
   2   4   2 2.92515 0.62708   1
   3   4   2 46.9646 3.39209   1
  -3   4  -2 54.8027 3.42173   1
  -4   4  -2 10.4186 1.24128   1
   5   4   2 393.800 20.9352   1
  -5   4  -2 371.806 20.4885   1
  12   0  -3 0.38217 0.36617   2
 -12   0   3 -0.1254 0.40068   2
 -11   0   3 -0.1524 0.45959   2
  11   0  -3 1.24729 0.59849   2
 -10   0   3 2.86775 0.85842   3
 -10   0   3 1.40612 0.59259   2
   9   0  -3 0.83841 0.38320   2
  -9   0   3 0.02554 0.35266   1
  -9   0   3 0.52065 0.42435   3
   9   0  -3 0.43838 0.38487   3
  -9   0   3 0.83178 0.46686   2
  -8   0   3 0.11629 0.33748   3
  -8   0   3 -0.3113 0.32728   1
   8   0  -3 0.88204 0.44336   3
   8   0  -3 -0.4421 0.31321   1
  -8   0   3 0.18221 0.36041   2
   8   0  -3 0.18531 0.30936   2
  -7   0   3 6.84404 3.82336   4
   7   0  -3 3.39957 0.71135   3
  -7   0   3 1.89353 0.63035   3
  -7   0   3 -2.9845 4.09892   4
   7   0  -3 1.76427 0.52224   2
  -6   0   3 3.99701 4.21742   4
   6   0  -3 1.97637 0.56491   1
  -6   0   3 2.35761 0.58207   1
  -5   0   3 0.10079 0.22181   1
  -5   0   3 0.81272 1.44810   4
  -5   0   3 -2.5002 1.63545   4
   5   0  -3 0.20228 0.23736   3
  -5   0   3 0.42462 0.27579   3
  -5   0   3 0.05423 0.19916   2
   5   0  -3 0.60284 0.30822   1
  -4   0   3 0.69275 0.27879   1
  -4   0   3 1.57667 1.23146   4
  -4   0   3 1.61229 1.43841   4
  -4   0   3 1.00410 0.25038   2
   4   0  -3 0.39329 0.24713   1
   3   0  -3 0.85378 1.02532   4
   3   0  -3 0.82013 0.24258   3
  -3   0   3 0.72925 0.83518   4
   3   0  -3 0.90957 0.23564   3
   2   0  -3 1.90297 1.01450   4
  -2   0   3 0.89047 0.21906   3
   1   0   3 0.88258 0.24208   3
   1   0   3 1.11153 0.20968   2
   1   0   3 1.86376 0.30058   1
   1   0   3 4.94416 2.66676   4
  -1   0  -3 3.16179 1.36471   4
  -1   0  -3 1.64970 0.27819   3
  -2   0  -3 0.30605 0.13910   2
   2   0   3 -0.2907 0.92322   4
   2   0   3 0.41276 0.19042   1
   2   0   3 0.54943 0.24105   3
  -2   0  -3 3.90974 1.78716   4
  -2   0  -3 0.24703 0.17750   3
  -2   0  -3 0.70082 0.25846   1
   2   0   3 0.90615 0.21357   2
  -3   0  -3 1.20508 0.34539   3
   3   0   3 0.61135 1.41359   4
   3   0   3 0.12759 0.21766   1
   3   0   3 0.57438 0.29454   3
   3   0   3 0.62319 0.21952   2
  -3   0  -3 -0.0810 1.22392   4
   4   0   3 1.37024 0.45845   3
  -4   0  -3 -0.1304 1.62127   4
  -4   0  -3 0.71172 0.33123   3
  -5   0  -3 1.13036 0.41589   3
   5   0   3 0.45196 2.13169   4
   5   0   3 1.05563 0.45651   3
  -5   0  -3 0.45995 0.26641   2
  -6   0  -3 -6.1900 5.54252   4
  -6   0  -3 0.61707 0.34091   1
  -6   0  -3 0.33070 0.35077   2
   6   0   3 1.19451 0.49092   1
   6   0   3 -3.4089 4.28532   4
  -6   0  -3 1.18700 0.50083   3
  -7   0  -3 -0.0708 0.34784   1
   7   0   3 0.32331 0.31477   2
  -7   0  -3 0.41300 0.47780   3
  -7   0  -3 0.11875 0.27731   2
   7   0   3 0.76506 0.78658   3
  -8   0  -3 0.22677 0.30736   2
   8   0   3 0.93545 0.38665   2
  -8   0  -3 1.59395 0.61325   3
   8   0   3 0.06747 0.41848   1
   8   0   3 0.26655 0.42004   3
   9   0   3 0.48696 0.56402   2
  -9   0  -3 1.56120 0.68502   2
   9   0   3 -0.8742 0.67279   1
  10   0   3 0.54737 0.43977   2
 -10   0  -3 0.20874 0.30557   2
  11   0   3 0.11301 0.32296   2
 -11   0  -3 -0.0173 0.29330   2
 -12  -1   3 179.843 10.4140   2
  12  -1  -3 193.411 10.3580   2
  12   1  -3 183.600 10.4893   2
 -12   1   3 195.087 10.5836   2
  11  -1  -3 83.0651 4.82425   2
 -11  -1   3 80.0821 4.95806   2
  11   1  -3 80.1850 4.92237   2
 -11   1   3 79.9100 4.97937   2
  11   1  -3 75.3718 5.14670   1
 -11   1   3 70.6484 4.74677   1
  10  -1  -3 110.349 6.24372   2
 -10  -1   3 115.538 6.53771   2
 -10   1   3 92.3356 6.31927   1
 -10   1   3 105.859 6.41273   2
  10   1  -3 104.495 6.33920   2
  -9  -1   3 163.327 9.76144   3
  -9  -1   3 181.629 9.83520   2
   9  -1  -3 185.567 9.56678   2
   9  -1  -3 156.577 9.68475   3
   9   1  -3 160.106 9.98835   1
  -9   1   3 167.004 9.81898   3
   9   1  -3 157.857 9.70801   3
  -9   1   3 178.187 9.65433   2
   9   1  -3 177.588 9.65775   2
  -9   1   3 179.102 9.60628   1
   8  -1  -3 12.1309 1.28677   3
  -8  -1   3 11.8665 1.40917   2
   8  -1  -3 11.5032 1.19292   2
  -8  -1   3 10.8105 1.26797   3
  -8   1   3 12.9167 1.33818   1
  -8   1   3 10.0185 1.20810   2
   8   1  -3 14.0855 1.35332   2
  -8   1   3 10.9907 1.29047   3
  -7  -1   3 694.094 37.7377   2
   7  -1  -3 744.978 37.7254   3
   7  -1  -3 718.235 37.5031   2
  -7  -1   3 709.715 37.7363   3
  -7   1   3 755.286 37.6651   1
  -7   1   3 732.850 37.7945   3
   7   1  -3 706.783 37.7424   3
   7   1  -3 741.286 38.0809   1
  -7   1   3 698.753 37.5696   2
   7   1  -3 705.993 37.6006   2
  -6  -1   3 705.967 35.1504   2
  -6  -1   3 690.300 44.3771   4
   6  -1  -3 715.036 35.1346   3
   6  -1  -3 675.830 34.9174   2
  -6   1   3 726.499 35.1073   1
   6   1  -3 642.507 34.9888   2
  -6   1   3 613.496 34.9474   2
   6   1  -3 663.143 35.3909   1
  -6   1   3 559.953 45.1399   4
   6   1  -3 710.179 35.1447   3
  -5  -1   3 47.2543 2.87688   2
   5  -1  -3 46.0652 2.74444   2
   5  -1  -3 50.0199 2.93030   3
  -5  -1   3 46.8263 2.94951   3
  -5  -1   3 48.9048 8.24131   4
  -5  -1   3 47.5390 8.03024   4
  -5   1   3 48.9200 2.97737   3
  -5   1   3 50.6820 2.93410   1
   5   1  -3 49.3654 2.89988   3
   5   1  -3 43.7301 3.08206   1
  -5   1   3 41.3978 2.76796   2
  -5   1   3 48.5529 7.88615   4
   5   1  -3 43.5412 2.80486   2
  -5   1   3 44.7057 7.23566   4
  -4  -1   3 1019.36 59.6283   4
  -4  -1   3 1063.40 57.7143   4
  -4   1   3 947.699 52.1373   2
  -4   1   3 1032.58 58.1254   4
  -4   1   3 1023.62 59.1696   4
  -4   1   3 991.862 52.2703   3
  -3  -1   3 2563.51 136.153   4
  -3   1   3 2621.14 134.553   4
   3   1  -3 2569.78 136.359   4
  -3   1   3 2400.17 134.806   4
  -2  -1   3 433.281 20.8512   2
   2  -1  -3 410.550 20.7562   2
   2  -1  -3 410.136 20.8339   3
   2  -1  -3 441.468 20.8238   3
  -2  -1   3 390.399 25.4697   4
  -2  -1   3 370.969 21.0097   3
  -2   1   3 390.870 20.8218   3
   2   1  -3 435.096 26.8922   4
   2   1  -3 345.274 20.9327   1
  -2   1   3 411.556 23.8151   4
   2   1  -3 420.717 20.9724   3
   2   1  -3 377.576 20.8342   2
   1  -1  -3 2213.36 113.299   4
  -1  -1   3 2137.12 114.776   4
   1   1  -3 2173.09 114.970   4
  -1   1   3 2120.45 113.033   4
   0  -1   3 753.355 42.4161   4
   0  -1  -3 658.910 38.4950   2
   0  -1  -3 803.826 41.0191   4
   0   1   3 740.529 40.8505   4
   0   1  -3 828.628 43.1480   4
   0   1  -3 724.791 38.5925   2
  -1  -1  -3 208.212 12.3575   2
   1  -1   3 231.441 12.4103   2
  -1  -1  -3 240.184 12.5064   3
   1  -1   3 232.924 16.4300   4
  -1  -1  -3 244.790 15.4204   4
   1  -1   3 249.874 12.5666   3
   1   1   3 233.807 15.4262   4
  -1   1  -3 228.342 17.3268   4
   1   1   3 265.579 12.4722   3
   1   1   3 258.452 12.4918   3
  -1   1  -3 230.049 12.6750   2
   1   1   3 227.605 12.3518   1
  -1   1  -3 238.096 12.5029   1
  -1   1  -3 246.250 12.5408   3
  -2  -1  -3 271.554 18.1592   4
  -2  -1  -3 242.710 14.0279   2
   2  -1   3 260.833 19.1742   4
   2  -1   3 268.246 14.2482   3
   2  -1   3 290.023 14.2455   2
  -2   1  -3 275.484 14.2134   3
   2   1   3 304.553 14.2089   3
  -2   1  -3 269.929 14.0752   2
  -2   1  -3 263.116 19.1774   4
   2   1   3 287.077 14.0953   1
   2   1   3 268.705 14.1782   3
   2   1   3 255.675 18.3727   4
  -2   1  -3 267.172 14.5997   1
   2   1   3 240.641 14.0192   2
  -2   1  -3 275.136 14.2496   3
  -3  -1  -3 676.236 36.3808   2
   3  -1   3 724.765 36.6899   3
   3  -1   3 711.605 43.5317   4
  -3  -1  -3 651.986 42.0510   4
   3  -1   3 687.610 36.3806   2
  -3  -1  -3 761.474 36.5111   3
   3   1   3 760.627 39.3177   3
  -3   1  -3 718.304 44.1125   4
  -3   1  -3 706.076 36.4003   2
   3   1   3 714.270 42.9282   4
   3   1   3 638.759 36.3525   2
  -4  -1  -3 3.52371 0.49622   2
   4  -1   3 5.61348 0.55928   2
   4  -1   3 3.44260 3.67574   4
   4  -1   3 4.80442 0.71143   3
  -4  -1  -3 2.90158 0.50155   3
   4   1   3 3.08183 2.33553   4
   4   1   3 5.62811 0.72471   1
  -4   1  -3 3.60343 3.63243   4
  -4   1  -3 4.17976 0.65675   3
  -4   1  -3 3.07812 0.62768   1
   5  -1   3 547.405 28.1120   2
  -5  -1  -3 549.192 38.1712   4
   5  -1   3 522.162 28.6615   3
  -5  -1  -3 557.661 28.1475   2
   5   1   3 522.997 28.5358   1
  -5   1  -3 534.272 28.1461   2
  -5   1  -3 555.277 28.5451   3
   5   1   3 553.848 37.7841   4
   5   1   3 519.726 28.0938   2
   5   1   3 566.848 28.5220   3
  -5   1  -3 516.005 28.4192   1
   6  -1   3 232.319 13.4909   3
  -6  -1  -3 238.399 13.1400   3
  -6  -1  -3 237.313 12.8602   2
   6  -1   3 242.552 12.8425   2
   6   1   3 230.964 13.4019   1
  -6   1  -3 236.337 13.2746   2
   6   1   3 242.373 13.2808   3
   6   1   3 264.529 12.8966   2
  -6   1  -3 246.027 13.3469   3
  -6   1  -3 230.342 13.1572   1
  -7  -1  -3 226.484 11.7968   2
   7  -1   3 220.090 12.5060   3
  -7  -1  -3 203.029 12.0694   3
   7  -1   3 220.091 11.7558   2
   7   1   3 210.067 11.7240   2
  -7   1  -3 229.790 12.0720   1
  -7   1  -3 211.312 11.7670   2
   7   1   3 218.445 12.2552   3
   7   1   3 208.968 12.4046   1
  -7   1  -3 222.014 12.2871   3
   8  -1   3 17.3531 1.47300   2
  -8  -1  -3 17.6261 1.51144   2
   8  -1   3 18.2203 1.94789   3
   8   1   3 18.9811 2.01582   1
   8   1   3 18.3105 1.49064   2
   8   1   3 12.9412 2.16540   3
  -8   1  -3 15.8342 2.55656   3
  -8   1  -3 16.4280 1.59013   1
  -8   1  -3 17.4828 1.53747   2
  -9  -1  -3 580.894 28.8704   2
   9  -1   3 546.134 28.7972   2
   9   1   3 556.466 28.8753   2
   9   1   3 526.479 29.5634   1
  -9   1  -3 557.562 28.8787   2
  -9   1  -3 517.952 28.8420   1
  10  -1   3 83.0981 4.90695   2
 -10  -1  -3 83.2809 4.91203   2
  10   1   3 77.5005 5.46807   1
 -10   1  -3 84.6184 4.99359   2
  10   1   3 79.8579 4.94645   2
 -11  -1  -3 65.9381 3.90873   2
  11  -1   3 64.2834 3.91845   2
  11   1   3 61.1611 3.98188   2
 -11   1  -3 65.9609 4.02156   2
  11  -2  -3 1.06247 0.39779   2
 -11   2   3 0.07916 0.31899   1
  11   2  -3 -0.6421 0.51598   2
  11   2  -3 1.37089 0.61228   1
 -11   2   3 -0.8848 0.84307   2
 -10  -2   3 143.717 8.03950   2
  10  -2  -3 135.720 7.60226   2
  10   2  -3 134.909 8.48613   1
 -10   2   3 141.267 8.08167   2
  10   2  -3 140.084 8.14863   2
 -10   2   3 134.958 7.98294   1
   9  -2  -3 1147.36 59.8084   2
  -9  -2   3 1080.15 60.2694   2
   9   2  -3 1147.20 60.7939   1
  -9   2   3 1217.44 60.2317   1
   9   2  -3 1189.07 60.8822   2
  -8  -2   3 460.451 26.9563   2
   8  -2  -3 524.307 26.5677   2
  -8   2   3 495.045 26.8718   2
  -8   2   3 496.638 27.2783   3
  -8   2   3 561.089 26.9937   1
   8   2  -3 541.764 27.5894   1
   8   2  -3 471.333 26.9760   2
  -7  -2   3 7.45867 1.06731   2
   7  -2  -3 7.44920 0.78115   2
   7   2  -3 7.50173 1.01463   3
  -7   2   3 6.54059 0.98230   3
  -7   2   3 6.28455 0.98766   2
  -7   2   3 7.87520 1.11737   1
   7   2  -3 8.39875 1.46783   1
  -6  -2   3 1027.19 48.7196   2
   6  -2  -3 930.421 48.3718   2
   6   2  -3 944.339 49.2587   1
  -6   2   3 1001.38 48.8256   1
   6   2  -3 941.673 48.8134   3
   6   2  -3 855.200 48.7075   2
  -6   2   3 965.208 48.8828   3
  -6   2   3 834.789 48.6394   2
  -5  -2   3 555.198 26.0849   2
   5  -2  -3 492.930 25.7904   2
   5   2  -3 452.069 26.1122   2
  -5   2   3 506.718 26.2852   3
  -5   2   3 485.740 26.9873   1
   5   2  -3 479.382 26.5775   1
   5   2  -3 524.982 26.2372   3
  -4  -2   3 414.065 26.7617   4
  -4  -2   3 324.102 19.5537   3
  -4  -2   3 430.405 19.5369   2
   4   2  -3 359.809 19.9729   1
  -4   2   3 367.000 24.1327   4
   4   2  -3 416.988 19.7189   3
   4   2  -3 357.843 19.5949   2
  -4   2   3 340.626 19.6348   1
  -4   2   3 376.002 19.7336   3
  -4   2   3 366.627 19.6789   3
  -3  -2   3 295.163 14.1515   2
  -3  -2   3 271.363 18.9416   4
   3   2  -3 267.079 14.6695   3
   3   2  -3 253.371 14.5038   1
  -3   2   3 265.644 15.9128   4
  -3   2   3 269.383 14.2151   3
  -3   2   3 253.567 14.2808   3
   3   2  -3 295.152 14.3339   3
  -2   2   3 679.010 40.1428   1
  -2   2   3 899.429 40.2832   3
   2   2  -3 768.815 40.5581   1
  -1  -2   3 2729.74 146.806   4
   1   2  -3 2815.20 147.365   4
   0  -2   3 1987.75 108.592   4
   0   2  -3 2050.70 108.669   4
   1  -2   3 0.83755 0.19962   2
  -1   2  -3 1.25147 0.31175   1
   1   2   3 1.35450 0.13181   1
   1   2   3 1.36672 0.21402   3
   2  -2   3 254.985 14.0681   3
   2   2   3 265.886 13.9513   1
  -2   2  -3 252.104 14.1807   3
   2   2   3 285.156 14.2342   3
  -2   2  -3 265.999 14.1378   1
  -2   2  -3 246.834 14.0019   2
  -2   2  -3 285.268 14.2513   3
   2   2   3 282.766 14.0634   3
   3  -2   3 2745.81 146.289   3
  -3  -2  -3 2877.15 151.076   4
   3   2   3 3198.28 146.553   3
  -3   2  -3 2558.20 146.063   2
   4  -2   3 743.523 37.4831   2
  -4  -2  -3 730.467 37.2588   2
   4   2   3 755.776 37.8727   1
  -4   2  -3 726.138 37.8554   1
   4   2   3 716.338 37.7951   3
  -4   2  -3 671.881 37.5419   2
   5  -2   3 9.51060 0.88389   2
  -5  -2  -3 11.6348 0.89707   2
   5   2   3 8.98575 1.20538   1
   5   2   3 8.99833 1.23373   3
  -5   2  -3 8.75614 1.18620   3
  -5   2  -3 10.7071 1.29616   1
  -5   2  -3 9.44977 0.96158   2
   6   2   3 1722.37 83.8942   3
  -6   2  -3 1533.42 83.3330   2
  -6   2  -3 1589.35 83.8478   1
   7  -2   3 18.0625 1.45713   2
  -7  -2  -3 18.6672 1.51373   2
  -7   2  -3 18.2309 2.01654   3
  -7   2  -3 19.9563 1.95391   1
   7   2   3 21.0223 1.95478   3
   7   2   3 19.4825 2.10670   1
  -7   2  -3 18.6626 1.60470   2
   7   2   3 16.7820 1.64175   2
   8  -2   3 114.685 6.15270   2
  -8  -2  -3 111.662 6.10493   2
  -8   2  -3 101.903 6.51038   1
  -8   2  -3 104.160 6.25017   2
   8   2   3 106.447 7.01417   1
  -9  -2  -3 136.111 8.00133   2
   9  -2   3 149.810 8.07119   2
  -9   2  -3 145.589 8.39370   1
   9   2   3 154.670 9.09073   1
  -9   2  -3 144.973 8.24387   2
  10  -2   3 20.4071 1.49181   2
 -10   2  -3 19.6850 1.66869   2
 -10   2  -3 20.7514 1.72903   1
  10   2   3 22.5946 2.20724   1
  -9   3   3 5.43766 1.03481   1
   9   3  -3 3.63377 1.10045   1
   8   3  -3 439.981 23.5514   1
  -8   3   3 415.907 22.7907   1
   7   3  -3 682.075 36.1818   1
  -7   3   3 665.809 35.3999   1
   6   3  -3 328.071 18.3097   1
   6   3  -3 274.571 16.4932   3
  -6   3   3 321.267 16.6962   1
   5   3  -3 2.89706 0.82465   1
  -5   3   3 2.38996 0.51696   3
  -4   3   3 4.31723 0.72081   1
   4   3  -3 4.79021 0.69458   3
   3   3  -3 1282.70 61.4969   3
   3   3  -3 1261.82 61.8761   1
  -3   3   3 1026.00 61.3740   1
   2   3  -3 695.858 36.0457   3
   2   3  -3 695.569 36.3184   1
   1   3  -3 352.161 19.3931   1
   1   3  -3 382.526 19.1957   3
  -1   3  -3 133.777 7.05804   3
  -1   3  -3 128.203 7.14629   1
   1   3   3 124.700 6.76740   1
   2   3   3 664.976 35.5864   1
  -2   3  -3 708.749 35.8341   1
   3   3   3 295.851 16.2991   1
  -3   3  -3 305.646 16.3705   3
  -3   3  -3 313.052 16.3966   1
  -4   3  -3 204.614 11.1214   1
  -4   3  -3 196.263 11.1471   3
   4   3   3 194.395 11.1189   1
  -5   3  -3 389.714 21.7977   1
   5   3   3 420.143 22.3618   1
  -6   3  -3 577.245 31.2247   1
   6   3   3 596.490 31.4539   1
  -7   3  -3 82.7717 5.39966   1
   7   3   3 88.6606 5.72194   1
   8   3   3 31.1808 2.71675   1
  -8   3  -3 32.1441 2.46226   1
   6   4  -3 50.9716 3.79744   1
  -6   4   3 49.1755 3.19229   1
   5   4  -3 223.453 12.7759   1
  -4   4   3 591.499 30.7834   1
   4   4  -3 588.457 31.2750   1
  -3   4   3 226.952 12.0375   1
   2   4  -3 41.7742 2.78329   1
   1   4  -3 142.485 7.93805   1
   0   4  -3 4.52418 0.71101   1
  -1   4  -3 0.83491 0.37829   1
   2   4   3 40.5600 2.71508   1
   4   4   3 15.7764 1.75476   1
  -5   4  -3 28.4389 2.36094   1
   5   4   3 33.0900 2.66451   1
  12   0  -4 8.68166 1.11397   2
 -12   0   4 11.7925 1.26979   2
 -10   0   4 12.7068 1.45611   2
 -10   0   4 12.1618 1.47189   3
  10   0  -4 14.4641 1.39603   2
  10   0  -4 11.2795 1.38567   3
  -9   0   4 775.166 39.7286   1
   9   0  -4 711.463 39.7939   3
  -9   0   4 743.676 39.9290   3
  -9   0   4 762.895 39.8025   2
   9   0  -4 796.362 39.7103   2
  -8   0   4 1056.82 54.4478   2
   8   0  -4 1022.82 54.2926   2
   8   0  -4 1062.77 54.6004   1
  -8   0   4 991.460 54.5017   3
  -8   0   4 1117.36 54.5041   1
   8   0  -4 1023.47 54.4706   3
  -7   0   4 56.5620 3.86078   2
   7   0  -4 58.2774 3.77501   2
  -7   0   4 59.4229 10.1925   4
  -7   0   4 60.1699 4.00366   3
  -7   0   4 46.3589 10.3707   4
   7   0  -4 67.1160 3.99095   3
  -7   0   4 70.5444 4.06787   1
   7   0  -4 70.1354 4.13363   1
   6   0  -4 37.1520 2.52911   2
   6   0  -4 41.8528 2.66825   3
  -6   0   4 37.1204 7.28202   4
  -6   0   4 39.8072 2.63436   2
   6   0  -4 41.5168 2.79825   1
  -6   0   4 46.3062 2.80204   1
  -6   0   4 30.0495 7.89118   4
  -6   0   4 41.3794 2.74389   3
  -5   0   4 376.144 18.8710   1
   5   0  -4 374.272 18.7811   3
  -5   0   4 347.209 18.7332   2
   5   0  -4 339.345 18.6524   2
  -5   0   4 345.998 24.4310   4
   5   0  -4 374.942 18.9475   1
  -5   0   4 327.718 26.5264   4
  -4   0   4 2013.20 110.873   4
   3   0  -4 6129.71 304.968   4
  -3   0   4 5526.64 304.276   4
   1   0  -4 691.180 40.4834   4
  -1   0   4 724.553 42.6787   4
   0   0  -4 4788.01 275.974   4
   0   0   4 5560.42 270.137   4
   1   0   4 6696.78 354.875   4
  -1   0  -4 6950.94 355.341   4
   2   0   4 879.939 50.1212   4
  -2   0  -4 835.977 49.6240   4
  -2   0  -4 823.289 43.7422   1
  -3   0  -4 1054.52 60.8288   4
  -3   0  -4 981.779 52.8731   1
   3   0   4 1034.55 60.4171   4
  -4   0  -4 93.2906 5.18532   3
  -4   0  -4 88.5556 4.91220   2
   4   0   4 81.3903 5.16948   1
   4   0   4 90.9498 4.94203   2
  -4   0  -4 98.1234 11.3455   4
  -4   0  -4 87.9331 5.10959   1
   4   0   4 96.5931 11.5973   4
   4   0   4 81.5835 5.21275   3
  -5   0  -4 2570.40 146.552   4
   5   0   4 2615.30 146.247   4
   6   0   4 1195.10 65.0784   1
   6   0   4 1287.35 65.2208   3
  -6   0  -4 1262.96 64.6670   1
  -6   0  -4 1252.87 64.9957   3
  -7   0  -4 143.256 7.98053   2
  -7   0  -4 141.109 8.41432   3
   7   0   4 149.016 8.04045   2
   7   0   4 137.072 8.47130   1
   7   0   4 145.605 8.60859   3
  -8   0  -4 553.520 27.6631   2
   8   0   4 503.271 28.1474   1
  -8   0  -4 514.945 28.1684   3
   8   0   4 449.698 29.3541   3
   8   0   4 599.005 27.7668   2
  -9   0  -4 1479.84 76.6968   2
   9   0   4 1484.18 76.7290   2
 -10   0  -4 52.2239 3.38272   2
  10   0   4 51.2895 3.39626   2
 -12  -1   4 7.34487 1.01563   2
  12  -1  -4 5.56594 0.80921   2
  12   1  -4 4.12920 0.83998   2
 -12   1   4 6.20940 1.02518   2
 -12   1   4 7.55141 1.63489   1
 -11  -1   4 10.2868 1.29139   2
  11  -1  -4 9.57043 1.14440   2
  11   1  -4 11.0538 1.31041   2
  11   1  -4 6.98903 1.32015   1
 -11   1   4 11.5635 1.37101   2
 -11   1   4 8.55373 1.13372   1
  10  -1  -4 93.2231 5.46947   2
 -10  -1   4 90.2906 5.69678   2
  10   1  -4 90.7303 5.57454   2
 -10   1   4 86.2706 5.68251   1
 -10   1   4 91.8569 5.78850   2
   9  -1  -4 7.46105 1.14076   3
   9  -1  -4 8.80869 1.09778   2
  -9  -1   4 9.76768 1.21334   3
   9   1  -4 10.7758 1.28115   3
   9   1  -4 10.2288 1.41666   1
  -9   1   4 8.77341 1.12767   1
  -9   1   4 9.98793 1.25645   3
   9   1  -4 10.7636 1.23434   2
  -7  -1   4 517.490 27.5254   2
   7  -1  -4 537.690 27.4434   3
   7  -1  -4 521.094 27.2672   2
  -7   1   4 480.435 27.3226   2
   7   1  -4 495.401 27.3618   2
   7   1  -4 531.479 27.8103   1
  -7   1   4 559.556 27.4338   1
  -6  -1   4 137.165 13.9370   4
  -6  -1   4 135.034 7.28808   2
   6  -1  -4 131.786 7.22721   3
   6  -1  -4 129.248 7.07865   2
   6   1  -4 139.837 7.60353   1
   6   1  -4 121.156 7.15026   2
  -6   1   4 139.288 7.25714   1
  -6   1   4 125.914 7.30879   3
  -6   1   4 113.844 7.10490   2
  -6   1   4 105.051 15.1264   4
   6   1  -4 128.337 7.23754   3
  -5  -1   4 3927.06 236.968   4
  -5  -1   4 4453.31 224.110   4
  -5   1   4 4556.85 224.643   4
  -5   1   4 3891.43 225.530   4
  -4  -1   4 1.31470 0.33520   2
  -4  -1   4 2.36627 0.42033   3
  -4  -1   4 1.31639 1.61568   4
   4   1  -4 2.02438 0.37315   3
  -4   1   4 1.09111 0.33177   3
   4   1  -4 1.27313 0.40261   1
   4   1  -4 0.93711 0.29200   2
  -4   1   4 1.58932 0.32488   2
  -4   1   4 4.62038 2.36368   4
  -4   1   4 4.85164 1.81965   4
  -4   1   4 2.34931 0.41343   3
  -4   1   4 1.38366 0.35957   1
  -3  -1   4 1363.53 79.3381   4
  -3   1   4 1417.09 78.1540   4
   3   1  -4 1522.25 80.1614   4
  -3   1   4 1392.12 73.1573   2
   2  -1  -4 79.6145 4.41088   3
   2  -1  -4 86.7516 7.57805   4
   2  -1  -4 86.7039 4.46112   3
  -2  -1   4 87.9866 4.48305   2
  -2  -1   4 84.7813 4.58233   3
   2  -1  -4 82.8642 4.37685   2
  -2  -1   4 81.3724 8.15833   4
  -2   1   4 86.2352 4.50638   3
  -2   1   4 81.0978 8.50691   4
   2   1  -4 73.6054 4.56706   1
   2   1  -4 82.5187 4.61524   3
   2   1  -4 75.8609 4.45600   2
   2   1  -4 88.5813 8.41004   4
  -2   1   4 88.3686 4.49276   3
   2   1  -4 82.7130 4.54141   3
  -2   1   4 71.2147 4.39569   1
   1  -1  -4 1483.11 78.4706   4
  -1  -1   4 1431.80 79.9318   4
  -1   1   4 1453.30 78.3195   4
   1   1  -4 1473.21 80.3183   4
   0  -1   4 517.618 30.6201   4
   0  -1   4 505.095 25.6367   2
   0  -1  -4 468.192 25.6064   3
   0  -1  -4 455.647 25.5357   2
   0  -1  -4 503.435 25.5915   3
   0  -1  -4 501.977 29.0269   4
   0   1  -4 484.160 25.6443   2
   0   1   4 446.777 25.5519   1
   0   1  -4 533.689 31.1733   4
   0   1   4 489.450 28.8884   4
   0   1  -4 515.987 25.7896   3
   0   1   4 540.789 25.6890   3
   1  -1   4 1102.17 63.1396   4
  -1  -1  -4 1140.01 65.8600   4
  -1   1  -4 1120.03 63.4952   4
   1   1   4 1104.67 62.0408   4
  -2  -1  -4 3320.93 168.801   4
   2  -1   4 3259.57 170.347   4
  -2   1  -4 3097.52 170.216   4
   2   1   4 3004.59 168.380   4
   3  -1   4 4630.16 243.913   4
  -3  -1  -4 4763.22 242.829   4
   3   1   4 4289.72 242.353   4
  -3   1  -4 4628.77 244.775   4
   4  -1   4 856.300 44.8011   3
  -4  -1  -4 837.411 44.2754   2
   4  -1   4 903.909 44.3376   2
   4  -1   4 853.609 54.5721   4
  -4   1  -4 831.156 44.5795   1
   4   1   4 867.568 53.6777   4
   4   1   4 828.361 44.6267   3
  -4   1  -4 897.213 44.3356   2
  -4   1  -4 850.297 55.6920   4
   4   1   4 839.057 44.2911   2
  -5  -1  -4 148.167 9.25266   2
  -5  -1  -4 171.265 8.98792   3
   5  -1   4 155.972 9.26421   3
  -5   1  -4 162.308 9.05162   1
   5   1   4 162.821 9.10231   3
  -5   1  -4 162.866 8.71889   2
   5   1   4 157.827 8.64967   2
   5   1   4 158.467 9.11553   1
  -5   1  -4 155.234 9.09307   3
  -6  -1  -4 1637.04 86.9633   3
   6   1   4 1720.94 86.6694   2
  -7  -1  -4 231.415 13.2689   3
  -7  -1  -4 242.212 12.8382   2
   7  -1   4 243.812 12.8652   2
   7  -1   4 233.671 13.6723   3
   7   1   4 240.128 13.4714   3
  -7   1  -4 240.766 12.8902   2
  -7   1  -4 234.618 13.4427   3
  -7   1  -4 237.978 13.1151   1
   7   1   4 242.051 12.8792   2
   7   1   4 230.472 13.5464   1
   8  -1   4 429.730 22.7283   2
  -8  -1  -4 404.717 21.6937   2
   8  -1   4 370.166 22.4385   3
  -8   1  -4 398.504 21.5757   1
  -8   1  -4 371.069 22.1787   3
  -8   1  -4 412.098 21.4984   2
   8   1   4 394.583 22.2257   1
   8   1   4 393.954 21.4288   2
   8   1   4 468.818 23.7755   3
  -9  -1  -4 79.8203 4.63278   2
   9  -1   4 75.7570 4.58251   2
  -9   1  -4 75.3547 4.65438   2
   9   1   4 73.3306 4.62068   2
   9   1   4 74.9606 5.28480   1
  10  -1   4 296.223 15.9028   2
  10   1   4 276.041 16.4791   1
  10   1   4 305.835 16.0658   2
 -10   1  -4 309.112 16.1725   2
 -11  -2   4 448.966 22.7139   2
 -11   2   4 422.188 22.8135   1
  11   2  -4 424.622 22.9785   2
  11   2  -4 419.108 23.2439   1
 -10  -2   4 35.5751 2.68378   2
  10  -2  -4 32.7587 2.19095   2
  10   2  -4 33.1842 2.90687   1
 -10   2   4 33.9910 2.70240   2
  10   2  -4 37.2380 2.76936   2
 -10   2   4 32.1598 2.54027   1
  -9  -2   4 -0.0961 0.47256   2
   9   2  -4 0.88354 0.68460   2
   9   2  -4 2.59978 0.90466   1
  -9   2   4 0.23578 0.45483   1
  -8  -2   4 121.815 7.54467   2
   8  -2  -4 122.323 7.03452   2
   8   2  -4 120.034 8.59042   3
   8   2  -4 123.588 7.58998   2
   8   2  -4 147.194 8.16164   1
  -8   2   4 141.484 7.51602   1
  -8   2   4 110.819 8.45321   3
  -8   2   4 132.170 7.52027   2
  -7  -2   4 190.503 10.2219   2
   7  -2  -4 180.543 9.74894   2
   7   2  -4 183.948 10.6864   1
  -7   2   4 198.977 10.1945   1
   7   2  -4 172.908 10.1913   2
  -7   2   4 164.411 10.0939   2
  -7   2   4 184.989 10.2375   3
   7   2  -4 179.959 10.2401   3
   6  -2  -4 341.754 18.5724   2
  -6  -2   4 386.782 18.9762   2
  -6   2   4 379.640 19.0273   1
   6   2  -4 341.766 19.1528   3
   6   2  -4 357.353 19.5057   1
   6   2  -4 338.477 18.9861   2
  -6   2   4 351.905 19.0565   3
  -5  -2   4 843.054 40.6544   2
   5  -2  -4 755.424 40.2766   2
   5   2  -4 818.846 40.7943   3
  -5   2   4 758.293 40.7727   3
   5   2  -4 755.487 40.7028   2
   5   2  -4 773.308 41.1853   1
  -5   2   4 780.131 40.8927   1
  -4  -2   4 1656.77 88.3459   4
  -4  -2   4 1475.04 80.4153   3
  -4   2   4 1600.38 80.4205   3
   4   2  -4 1540.47 80.3439   2
  -4   2   4 1531.09 85.0850   4
  -3  -2   4 227.926 12.2847   3
  -3  -2   4 255.175 12.1604   2
  -3   2   4 207.637 12.1660   1
   3   2  -4 237.520 12.2994   3
  -3   2   4 235.930 12.2042   3
   3   2  -4 218.859 12.2131   2
   3   2  -4 235.169 12.5228   1
   2   2  -4 2631.05 135.349   3
   0  -2   4 1242.86 61.3787   3
   0   2  -4 1203.43 61.5054   3
   0   2   4 1023.95 61.0827   1
   0   2  -4 1192.68 61.3207   2
   0   2   4 1291.71 61.2403   3
   1  -2   4 116.393 6.46125   2
   1  -2   4 119.498 6.63532   3
   1   2   4 130.945 6.53196   3
   1   2   4 127.898 6.58372   3
  -1   2  -4 127.803 6.74514   3
   1   2   4 114.765 6.38939   1
  -1   2  -4 112.904 6.52082   2
  -1   2  -4 119.644 6.67148   1
   2  -2   4 1.93976 0.35127   2
   2   2   4 2.62202 0.50648   3
   2   2   4 1.65584 0.35012   1
  -2   2  -4 1.14211 0.28393   2
   2   2   4 1.52658 0.38102   3
  -2   2  -4 1.55331 0.43525   1
   3  -2   4 41.6824 2.98057   3
  -3  -2  -4 53.2172 7.44986   4
  -3   2  -4 48.7637 3.07775   3
   3   2   4 49.2782 2.93605   3
  -3   2  -4 43.0343 2.92554   1
   3   2   4 46.0811 2.84710   1
  -3   2  -4 41.0909 2.70281   2
  -4  -2  -4 89.2737 4.96306   2
   4  -2   4 90.5907 5.20139   2
   4   2   4 103.601 5.64451   1
  -4   2  -4 93.3609 5.60239   1
  -4   2  -4 88.0677 5.27609   2
   4   2   4 96.5602 5.58696   3
   5  -2   4 1146.87 55.1797   2
  -5   2  -4 1021.00 55.2187   2
   5   2   4 1004.06 55.6144   3
  -5   2  -4 1042.58 55.6686   1
   5   2   4 1118.54 55.8273   1
   6  -2   4 941.916 46.6237   2
  -6  -2  -4 792.541 46.4919   2
   6   2   4 940.485 47.3349   3
   6   2   4 901.735 47.4566   1
  -6   2  -4 893.400 47.2256   1
  -6   2  -4 912.473 47.5278   3
  -6   2  -4 910.989 46.7318   2
  -7  -2  -4 58.7167 3.53307   2
   7  -2   4 59.7360 3.66762   2
  -7   2  -4 60.3180 3.78444   2
  -7   2  -4 59.0528 4.13471   1
   7   2   4 59.2024 4.41503   1
  -8  -2  -4 77.4589 4.96093   2
   8  -2   4 100.511 5.26458   2
  -8   2  -4 89.0927 5.34430   2
  -8   2  -4 94.2110 5.66227   1
   8   2   4 89.9168 6.10751   1
   9   2   4 348.979 19.6732   1
  -9   2  -4 359.950 18.9146   2
  -9   3   4 402.759 21.4136   1
   9   3  -4 375.436 22.2262   1
  -8   3   4 104.875 6.41547   1
   8   3  -4 113.578 7.13438   1
  -7   3   4 688.981 36.0065   1
   7   3  -4 682.401 36.7772   1
   6   3  -4 113.348 8.47753   1
   6   3  -4 92.4992 6.04228   3
  -5   3   4 25.3771 1.89755   1
   5   3  -4 23.1174 1.88384   3
   5   3  -4 24.7505 2.31627   1
   4   3  -4 907.416 45.5834   1
   4   3  -4 837.443 45.0491   3
  -4   3   4 856.779 45.0026   1
  -3   3   4 298.017 16.5838   1
   3   3  -4 333.536 17.1005   1
   3   3  -4 315.362 16.7051   3
   2   3  -4 1390.42 72.8925   3
   2   3  -4 1433.71 73.1240   1
   1   3  -4 28.8495 2.04926   1
  -1   3   4 26.9980 1.59008   1
   1   3  -4 30.0954 1.90750   3
   0   3   4 272.881 14.9468   1
   0   3  -4 298.242 15.3333   3
   0   3  -4 296.926 15.4702   1
   1   3   4 259.884 14.4189   1
  -1   3  -4 303.057 14.8801   1
  -1   3  -4 266.805 14.7261   3
   2   3   4 435.435 22.8963   1
  -2   3  -4 429.622 23.1254   3
  -2   3  -4 447.851 23.1751   1
  -3   3  -4 289.507 15.0494   1
   3   3   4 273.567 14.8853   1
  -3   3  -4 265.711 15.0287   3
  -4   3  -4 573.159 30.9159   3
  -4   3  -4 587.983 30.8280   1
   4   3   4 580.945 30.7747   1
   5   3   4 170.912 10.0906   1
  -5   3  -4 176.633 10.0540   1
   6   3   4 16.9316 1.88921   1
  -6   3  -4 17.6920 1.87249   1
   7   3   4 293.032 16.1016   1
  -7   3  -4 281.508 15.7631   1
  -8   3  -4 17.5441 1.65173   1
   8   3   4 17.0377 1.82453   1
   6   4  -4 572.847 29.9301   1
  -6   4   4 539.543 29.1091   1
  -5   4   4 22.9014 1.71257   1
   4   4  -4 8.25016 1.11665   1
  -4   4   4 10.1281 1.11796   1
   3   4  -4 56.7061 3.74075   1
  -3   4   4 58.5486 3.28308   1
   2   4  -4 189.374 10.4570   1
   1   4  -4 406.316 21.5405   1
   0   4  -4 27.9946 2.07485   1
  -1   4  -4 514.816 27.1482   1
  -2   4  -4 27.6872 2.18121   1
  -3   4  -4 7.79336 1.08509   1
   3   4   4 7.29405 1.20522   1
  -4   4  -4 768.247 43.3590   1
   4   4   4 889.788 43.6956   1
 -12   0   5 0.65084 0.43502   2
  12   0  -5 0.53576 0.40269   2
  11   0  -5 2.04068 0.70092   2
 -11   0   5 1.22984 0.64198   2
 -10   0   5 -0.3999 0.33865   1
  10   0  -5 -0.2164 0.45301   3
  10   0  -5 -0.2332 0.36421   2
 -10   0   5 0.74907 0.68234   3
 -10   0   5 0.21948 0.43667   2
  -9   0   5 0.12946 0.48796   2
  -9   0   5 1.81806 0.69308   3
   9   0  -5 0.54599 0.48606   2
  -9   0   5 0.05963 0.45043   1
   9   0  -5 -0.1525 0.37645   3
   8   0  -5 0.79098 0.49115   1
   8   0  -5 0.12335 0.38066   3
  -8   0   5 0.07092 0.35736   2
  -8   0   5 0.22807 0.41508   1
  -7   0   5 -3.0340 3.78056   4
  -7   0   5 1.08719 0.48544   2
  -7   0   5 0.40123 0.40431   1
   7   0  -5 0.08749 0.32277   1
   7   0  -5 0.91865 0.44804   2
   7   0  -5 0.31519 0.34574   3
  -7   0   5 0.98527 0.47879   3
  -7   0   5 -3.4629 4.12640   4
   6   0  -5 0.01106 0.25151   1
  -6   0   5 2.82921 2.67882   4
  -6   0   5 -1.8906 3.98466   4
   6   0  -5 0.08233 0.22128   2
  -6   0   5 0.51861 0.35734   1
  -6   0   5 0.57720 0.33868   2
  -6   0   5 0.59023 0.35137   3
   6   0  -5 0.15093 0.28338   3
  -5   0   5 4.95667 0.70519   3
  -5   0   5 11.2482 3.38284   4
   4   0  -5 1.47297 0.38275   1
   4   0  -5 0.87935 0.30217   3
  -4   0   5 0.69297 0.31472   2
  -4   0   5 2.09203 1.71050   4
  -3   0   5 1.58764 1.17981   4
   3   0  -5 1.23636 0.31441   1
  -3   0   5 0.65752 0.23499   2
   3   0  -5 1.15813 1.34203   4
   3   0  -5 0.29917 0.20580   3
   2   0  -5 0.51946 0.21109   1
   2   0  -5 0.61741 0.19302   2
   2   0  -5 0.70123 1.24263   4
  -2   0   5 0.72736 0.22595   1
  -2   0   5 0.03323 0.92260   4
   1   0  -5 1.00656 0.28058   3
  -1   0   5 0.53249 0.95705   4
   1   0  -5 1.07291 0.23737   2
   0   0   5 -0.2875 0.94724   4
   0   0   5 0.86287 0.28980   3
   0   0  -5 0.90655 0.25555   1
   0   0   5 0.58619 0.17715   2
   0   0  -5 1.77004 1.19196   4
   0   0  -5 0.37993 0.16263   2
   1   0   5 0.31628 0.18447   2
  -1   0  -5 0.44747 1.27972   4
   1   0   5 -1.1924 1.34515   4
   1   0   5 0.41883 0.26872   3
  -1   0  -5 0.13677 0.18929   1
  -1   0  -5 0.58984 0.25300   3
  -1   0  -5 1.09085 0.28549   2
   1   0   5 0.40541 0.22244   1
  -2   0  -5 0.52008 1.57478   4
   2   0   5 1.52294 1.80433   4
  -3   0  -5 1.08007 0.39575   3
   3   0   5 0.06464 0.17273   2
   3   0   5 0.28599 0.23197   1
   3   0   5 0.48324 0.28687   3
  -3   0  -5 0.48041 0.20782   2
  -3   0  -5 2.06318 2.35268   4
   3   0   5 -1.0454 2.04405   4
   4   0   5 0.80847 0.41084   3
  -4   0  -5 -2.9801 2.61244   4
   4   0   5 -3.8043 3.40520   4
  -4   0  -5 0.30298 0.22227   2
  -6   0  -5 1.68432 0.60531   3
   6   0   5 0.74986 0.49608   1
   7   0   5 0.46306 0.30051   2
   7   0   5 0.34330 0.40435   3
   7   0   5 -0.4039 0.40185   1
  -7   0  -5 0.69583 0.48732   3
  -8   0  -5 0.45266 0.66111   3
   8   0   5 0.27790 0.42291   2
   8   0   5 1.22986 0.63744   1
  -8   0  -5 0.21802 0.39108   2
   9   0   5 0.97027 0.42570   2
  -9   0  -5 1.24510 0.51611   2
 -10   0  -5 0.63557 0.50195   2
  10   0   5 0.26811 0.38496   2
  12  -1  -5 6.67201 0.93304   2
 -12  -1   5 9.13814 1.16346   2
  12   1  -5 8.25334 1.12560   2
 -12   1   5 6.40054 1.10956   1
 -12   1   5 6.53657 1.11121   2
  11  -1  -5 169.673 9.49609   2
 -11  -1   5 182.936 9.79874   2
 -11   1   5 156.670 9.47313   1
 -11   1   5 175.342 9.75431   2
  11   1  -5 157.079 9.79542   1
  11   1  -5 175.749 9.70965   2
  10  -1  -5 187.480 10.0198   2
 -10  -1   5 190.745 10.3373   2
  10   1  -5 174.550 10.1248   2
  10   1  -5 167.383 11.6865   1
 -10   1   5 178.293 10.1798   2
 -10   1   5 169.713 9.99062   1
   9  -1  -5 332.193 20.2925   3
   9  -1  -5 399.536 20.2543   2
  -9  -1   5 351.502 20.4715   3
  -9  -1   5 380.670 20.5382   2
  -9   1   5 384.669 20.4137   2
  -9   1   5 391.880 20.3147   1
  -9   1   5 370.882 20.5410   3
   9   1  -5 394.637 20.4157   2
   9   1  -5 402.290 20.7831   1
   9   1  -5 376.744 20.5357   3
   8  -1  -5 74.9029 4.81236   3
  -8  -1   5 76.5767 5.03396   2
   8  -1  -5 80.9598 4.77862   2
  -8  -1   5 75.0062 4.96315   3
   8   1  -5 74.4844 4.85868   2
  -8   1   5 89.4695 4.95808   1
   8   1  -5 82.9765 5.25472   1
  -8   1   5 76.5560 4.88113   2
  -8   1   5 78.1646 5.01602   3
   8   1  -5 78.4575 4.99463   3
   7  -1  -5 856.781 44.8066   3
  -7  -1   5 880.237 44.9545   2
  -7  -1   5 838.235 44.9805   3
   7  -1  -5 864.877 44.6841   2
   7   1  -5 867.928 44.8868   3
  -7   1   5 850.664 44.9864   3
   7   1  -5 896.095 45.2430   1
  -7   1   5 821.176 44.7962   2
   7   1  -5 825.480 45.1036   2
  -7   1   5 897.266 44.8487   1
   6  -1  -5 36.4099 2.32625   2
  -6  -1   5 28.8419 6.93264   4
  -6  -1   5 37.6893 2.50015   2
   6  -1  -5 36.8279 2.45172   3
  -6  -1   5 36.2310 2.55369   3
  -6   1   5 37.0532 2.55363   3
   6   1  -5 33.7659 2.65575   1
  -6   1   5 37.5855 2.47688   1
   6   1  -5 35.7274 2.44662   3
   6   1  -5 35.0646 2.40431   2
  -6   1   5 34.8595 2.39704   2
  -5  -1   5 58.2625 3.51554   3
   5  -1  -5 54.6929 3.36102   3
  -5  -1   5 42.6732 8.28158   4
  -5  -1   5 57.4196 3.37674   2
  -5  -1   5 56.9706 7.73824   4
   5  -1  -5 56.5108 3.24706   2
  -5   1   5 51.1258 3.83373   2
  -5   1   5 56.7330 3.39869   1
  -5   1   5 51.2701 8.17950   4
   5   1  -5 54.3594 3.60215   1
   5   1  -5 55.0439 3.33474   2
  -5   1   5 59.7928 3.49831   3
   5   1  -5 57.3278 3.40972   3
   4  -1  -5 461.318 24.0044   3
  -4  -1   5 459.028 31.8131   4
  -4  -1   5 481.784 24.1831   3
   4  -1  -5 458.883 23.8941   2
  -4  -1   5 481.413 24.0231   2
  -4   1   5 470.956 24.0367   1
  -4   1   5 432.169 30.3417   4
  -4   1   5 458.757 29.1372   4
   4   1  -5 462.615 31.8044   4
   4   1  -5 437.441 24.2236   1
  -4   1   5 468.252 23.9804   2
  -4   1   5 451.247 24.1303   3
   4   1  -5 455.354 23.9916   2
   3  -1  -5 71.1182 4.06002   3
   3  -1  -5 74.4713 4.01240   2
   3  -1  -5 77.4765 8.31194   4
  -3  -1   5 67.0749 8.24502   4
  -3  -1   5 77.9057 4.26599   3
  -3  -1   5 75.5214 4.11224   2
   3   1  -5 73.3243 8.59093   4
  -3   1   5 75.0064 7.72604   4
  -3   1   5 71.1511 4.07862   1
  -3   1   5 73.7014 4.06873   2
   3   1  -5 69.7655 4.26313   1
  -3   1   5 77.0154 4.18385   3
   3   1  -5 75.0820 4.18681   3
  -3   1   5 68.8513 4.40677   3
  -2  -1   5 139.967 7.17787   3
   2  -1  -5 130.493 6.95159   3
  -2  -1   5 120.674 11.4331   4
   2  -1  -5 128.087 6.90156   2
  -2  -1   5 137.083 7.02694   2
  -2   1   5 151.096 11.1094   4
   2   1  -5 125.567 7.15309   1
  -2   1   5 133.995 6.97007   2
   2   1  -5 122.630 6.99740   2
  -2   1   5 126.522 7.03176   3
   2   1  -5 123.941 11.6845   4
   1  -1  -5 1793.03 99.4838   4
  -1  -1   5 1825.60 101.257   4
   1   1  -5 1931.13 101.978   4
   0  -1  -5 31.5442 1.85334   3
   0  -1  -5 28.7050 1.76775   2
   0  -1   5 30.7515 5.03968   4
   0  -1   5 34.2212 2.08375   3
   0  -1  -5 30.9304 5.83751   4
   0  -1   5 32.6522 1.87978   2
   0   1   5 28.6816 1.80990   2
   0   1   5 30.1875 4.30813   4
   0   1  -5 30.4017 1.97349   1
   0   1   5 31.0668 1.91640   3
   0   1  -5 28.5615 4.76143   4
   0   1   5 31.6472 1.96849   3
   0   1  -5 28.4963 1.85814   2
   0   1  -5 36.3182 2.08403   3
  -1  -1  -5 303.128 20.4575   4
   1  -1   5 273.230 15.6831   1
  -1  -1  -5 263.129 15.1744   2
   1  -1   5 297.153 15.2818   2
   1  -1   5 292.275 21.3342   4
   1  -1   5 300.468 15.5282   3
  -1  -1  -5 317.831 15.3245   3
   1   1   5 274.779 15.2614   1
   1   1   5 282.070 15.2358   2
   1   1   5 268.656 19.8737   4
  -1   1  -5 296.922 15.4229   1
   1   1   5 305.576 15.7403   3
  -1   1  -5 293.387 15.2793   2
   1   1   5 325.364 15.4855   3
  -1   1  -5 285.448 21.6770   4
  -2  -1  -5 1129.14 64.5629   4
   2  -1   5 1032.64 57.9341   1
   2  -1   5 1254.77 66.9568   4
   2   1   5 1029.21 63.8953   4
   2   1   5 1108.38 57.5657   2
  -2   1  -5 1168.66 66.5853   4
   3  -1   5 609.520 35.0512   1
   3  -1   5 688.548 34.8110   2
  -3  -1  -5 697.439 34.9564   3
  -3  -1  -5 656.052 34.7515   2
  -3  -1  -5 667.895 43.0523   4
   3  -1   5 671.806 35.2337   3
   3  -1   5 658.552 44.0268   4
  -3   1  -5 635.083 44.5828   4
  -3   1  -5 711.802 35.0914   1
   3   1   5 691.665 35.1303   3
  -3   1  -5 690.817 34.8130   2
   3   1   5 607.368 42.4103   4
   3   1   5 718.740 35.0138   1
   4  -1   5 176.006 9.41732   2
  -4  -1  -5 171.158 9.32947   2
   4  -1   5 172.685 9.92735   3
   4  -1   5 158.810 9.65237   1
  -4  -1  -5 178.127 9.59269   3
   4   1   5 167.497 9.35635   2
  -4   1  -5 178.983 9.40223   2
   4   1   5 181.955 9.75588   1
  -4   1  -5 178.619 9.71933   1
   4   1   5 170.527 9.75963   3
  -4   1  -5 177.336 9.79574   3
   5  -1   5 711.069 39.2950   3
  -5  -1  -5 771.419 38.5435   2
   5  -1   5 776.099 38.6130   2
  -5  -1  -5 703.425 39.3538   3
  -5   1  -5 761.259 39.1243   3
  -5   1  -5 743.464 38.6013   2
  -5   1  -5 688.531 38.8883   1
   5   1   5 744.196 39.1027   3
   5   1   5 776.991 39.1339   1
  -6  -1  -5 180.645 10.5369   3
  -6  -1  -5 200.780 10.1565   2
   6  -1   5 186.871 10.1636   2
   6  -1   5 179.667 11.8394   3
   6   1   5 176.129 10.7480   1
  -6   1  -5 190.378 10.2035   2
   6   1   5 180.928 10.1381   2
  -6   1  -5 191.324 10.7923   3
  -6   1  -5 185.849 10.4996   1
   6   1   5 186.366 10.7704   3
  -7  -1  -5 49.9925 3.09092   2
   7  -1   5 49.2372 3.89292   3
   7  -1   5 47.6834 3.10781   2
  -7   1  -5 47.8024 3.32517   1
   7   1   5 46.1679 3.69176   1
  -7   1  -5 46.7072 3.13426   2
  -7   1  -5 50.4126 3.94086   3
   7   1   5 45.5545 3.10489   2
  -8  -1  -5 220.741 11.3822   2
   8  -1   5 215.800 11.4075   2
   8   1   5 201.477 11.3843   2
  -8   1  -5 212.064 11.4512   2
  -8   1  -5 195.217 11.4557   1
   8   1   5 201.900 12.1431   1
   9  -1   5 49.6581 3.21476   2
  -9  -1  -5 51.1591 3.21287   2
   9   1   5 49.4252 3.25419   2
   9   1   5 46.5070 3.75500   1
  -9   1  -5 51.0568 3.28397   2
 -10  -1  -5 38.6025 2.49853   2
  10  -1   5 39.4512 2.57556   2
 -10   1  -5 40.0304 2.63606   2
  10   1   5 33.2813 3.00254   1
  10   1   5 37.7629 2.61173   2
 -11  -2   5 86.4012 5.09427   2
  11   2  -5 83.3666 5.50267   1
 -11   2   5 82.3910 5.14991   1
  11   2  -5 86.4739 5.31422   2
  10  -2  -5 336.593 19.0316   2
 -10  -2   5 359.701 19.6961   2
  10   2  -5 378.437 20.1456   1
  10   2  -5 364.811 19.8333   2
 -10   2   5 381.223 19.6366   1
  -9  -2   5 178.691 10.9071   2
   9  -2  -5 185.950 10.3017   2
   9   2  -5 204.414 11.3953   1
  -9   2   5 209.952 10.8509   1
  -9   2   5 176.953 11.3938   2
   9   2  -5 193.102 11.0233   2
   8  -2  -5 709.456 39.0147   2
  -8  -2   5 737.350 39.6409   2
   8   2  -5 746.272 39.6706   3
   8   2  -5 741.295 39.6959   2
  -8   2   5 714.194 39.5613   3
   8   2  -5 837.256 40.2541   1
  -8   2   5 829.699 39.5644   1
  -8   2   5 707.717 39.8292   2
  -7  -2   5 187.474 10.2543   2
   7  -2  -5 167.551 9.71016   2
   7   2  -5 194.579 10.7986   1
  -7   2   5 177.832 10.2282   3
  -7   2   5 202.294 10.2453   1
   7   2  -5 181.485 10.2555   3
   7   2  -5 167.829 10.2074   2
  -6  -2   5 7.73656 0.91353   2
   6  -2  -5 7.09315 0.63731   2
   6   2  -5 7.83004 0.95022   2
  -6   2   5 9.58892 1.40065   3
   6   2  -5 6.86151 0.90910   3
   6   2  -5 7.62891 1.21256   1
  -6   2   5 7.88518 0.98612   1
  -5  -2   5 264.309 13.6596   2
   5   2  -5 267.263 14.2190   1
   5   2  -5 260.146 13.7972   3
   5   2  -5 223.951 13.6469   2
  -5   2   5 248.205 13.7851   3
  -5   2   5 272.321 13.7606   1
  -4   2   5 2571.37 138.160   4
  -3  -2   5 239.226 13.5007   3
  -3  -2   5 263.792 13.3426   2
   3   2  -5 247.502 13.4114   2
   3   2  -5 278.197 13.7685   1
  -3   2   5 250.246 13.3772   3
  -3   2   5 251.489 13.3964   3
  -3   2   5 249.900 13.3371   1
   3   2  -5 261.434 13.5179   3
  -3   2   5 233.956 17.3213   4
  -2  -2   5 403.495 20.4820   2
  -2  -2   5 418.340 20.7736   3
   2   2  -5 375.501 20.5465   2
  -2   2   5 404.378 20.4988   3
  -2   2   5 354.140 20.3929   1
   2   2  -5 402.444 20.6844   3
   2   2  -5 399.624 20.8095   1
  -2   2   5 391.683 20.4773   3
   0  -2   5 27.5972 1.75975   2
   0   2  -5 25.8719 1.80232   2
   0   2   5 32.8829 1.81481   3
   0   2  -5 32.8859 2.04123   1
   0   2   5 28.8998 1.78026   3
   0   2   5 26.3481 1.67153   1
   0   2  -5 27.9990 1.98408   3
   1  -2   5 114.538 6.58849   2
  -1  -2  -5 123.806 8.85977   4
   1  -2   5 125.443 6.88324   3
   1   2   5 131.416 6.71020   3
   1   2   5 117.691 6.56837   1
   1   2   5 123.191 6.72053   3
  -1   2  -5 120.991 6.83748   1
  -1   2  -5 124.179 6.90193   3
  -2  -2  -5 1483.90 79.1498   4
   2  -2   5 1439.54 73.7971   3
  -2   2  -5 1357.55 73.4461   2
   3  -2   5 306.476 16.5377   2
  -3   2  -5 302.352 16.9768   3
   3   2   5 334.158 16.8784   3
  -3   2  -5 324.735 16.9014   1
  -3   2  -5 303.633 16.5673   2
   4  -2   5 842.466 42.9987   2
  -4   2  -5 855.303 43.4896   1
  -4   2  -5 806.615 43.6064   3
   4   2   5 838.254 43.4332   1
  -4   2  -5 805.488 43.3195   2
   5  -2   5 270.640 13.5487   2
   5   2   5 237.954 14.0503   3
  -5   2  -5 243.264 13.5928   2
  -5   2  -5 263.230 14.3513   3
  -5   2  -5 242.522 14.0330   1
   5   2   5 261.610 14.1966   1
  -6  -2  -5 6.71064 0.74877   2
   6  -2   5 8.53526 0.89422   2
  -6   2  -5 6.62758 0.92893   2
  -6   2  -5 6.32226 1.19053   3
   6   2   5 7.76804 1.19782   3
  -6   2  -5 8.39234 1.30699   1
   7  -2   5 228.081 11.7769   2
  -7   2  -5 215.461 11.9008   2
  -7   2  -5 210.875 12.2748   1
   7   2   5 216.758 12.7080   1
   8  -2   5 709.460 35.4413   2
   8   2   5 662.306 36.3937   1
  -8   2  -5 668.971 35.5606   2
  -8   2  -5 677.847 35.8232   1
   9  -2   5 12.8432 1.08639   2
  -9   2  -5 13.2176 1.23203   2
  -9   2  -5 12.0995 1.31387   1
   9   2   5 10.4086 1.52772   1
   8   3  -5 -0.0221 0.41077   1
  -8   3   5 0.32505 0.37164   1
  -7   3   5 891.756 46.8217   1
   7   3  -5 902.597 47.6323   1
  -6   3   5 198.364 10.8064   1
   6   3  -5 191.782 11.4744   1
  -5   3   5 711.603 38.5236   1
   5   3  -5 766.539 39.2538   1
  -4   3   5 1234.99 63.5418   1
   4   3  -5 1171.42 63.6347   3
   4   3  -5 1281.54 64.1675   1
   3   3  -5 302.200 15.9041   3
  -3   3   5 288.919 15.6692   1
   3   3  -5 302.877 16.2444   1
  -2   3   5 1149.74 60.3998   1
   2   3  -5 1197.50 60.9354   1
   1   3  -5 34.0620 2.37377   1
   1   3  -5 34.7940 2.22713   3
  -1   3   5 30.1276 1.88262   1
   0   3  -5 44.6428 2.86369   3
   0   3   5 43.1506 2.54095   1
   0   3  -5 46.7684 3.00409   1
  -1   3  -5 79.4821 4.77633   3
   1   3   5 75.4956 4.44453   1
  -1   3  -5 84.5408 4.86537   1
   2   3   5 1363.51 70.8908   1
  -2   3  -5 1309.69 71.1626   3
  -2   3  -5 1445.16 71.2266   1
   3   3   5 34.2622 2.45009   1
  -3   3  -5 33.8530 2.58752   1
  -3   3  -5 32.1110 2.59138   3
   4   3   5 94.7823 6.05602   1
  -4   3  -5 103.296 6.17586   1
  -5   3  -5 1130.61 60.0729   1
   5   3   5 1168.63 60.1870   1
   6   3   5 103.780 6.49416   1
  -6   3  -5 100.169 6.32570   1
  -7   3  -5 0.09686 0.41697   1
   7   3   5 0.76684 0.45010   1
  -6   4   5 23.6285 1.77675   1
   6   4  -5 24.4801 2.24961   1
   5   4  -5 9.86039 1.35700   1
  -5   4   5 11.0587 1.02656   1
  -4   4   5 24.1193 1.69175   1
   4   4  -5 25.0023 2.09975   1
   3   4  -5 21.6932 1.86457   1
   2   4  -5 168.635 9.44793   1
   1   4  -5 510.681 26.9530   1
   0   4  -5 25.8609 2.02529   1
  -1   4  -5 166.764 9.37440   1
   2   4   5 263.186 15.1865   1
  -2   4  -5 299.245 15.3559   1
  -3   4  -5 4.19344 0.88530   1
   3   4   5 6.02170 1.09006   1
   4   4   5 4.47541 0.90215   1
  -4   4  -5 5.20577 0.93818   1
 -12   0   6 1.78608 0.55914   2
  12   0  -6 1.87130 0.60609   2
 -11   0   6 157.281 9.37491   2
  11   0  -6 167.798 9.31274   2
  10   0  -6 78.1043 5.18898   3
  10   0  -6 82.0388 5.37766   2
   9   0  -6 3503.83 180.626   3
  -8   0   6 1129.19 58.7843   3
  -8   0   6 1254.52 58.7641   1
  -8   0   6 1077.65 58.5923   2
   8   0  -6 1098.35 58.4569   2
   8   0  -6 1067.46 58.5928   3
  -6   0   6 2284.69 128.194   4
  -6   0   6 2116.51 129.372   4
  -5   0   6 234.325 12.1117   1
   5   0  -6 214.279 12.0611   1
   5   0  -6 227.747 11.9442   2
  -5   0   6 237.235 12.1800   3
  -5   0   6 206.333 19.4847   4
   5   0  -6 195.807 12.0660   3
  -5   0   6 244.933 12.0478   2
   4   0  -6 2033.74 108.971   4
  -4   0   6 1842.86 108.007   4
  -3   0   6 463.041 23.6425   2
  -3   0   6 422.430 29.6952   4
   3   0  -6 475.633 23.5231   3
   3   0  -6 447.604 23.5215   1
   3   0  -6 452.230 30.0921   4
  -3   0   6 423.653 23.4505   1
   3   0  -6 463.961 23.4271   2
   2   0  -6 7710.57 383.739   4
  -2   0   6 6972.23 382.891   4
  -1   0   6 3085.30 166.406   4
   1   0  -6 3142.11 166.975   4
   0   0   6 27.4439 1.85793   1
   0   0  -6 28.4545 1.78403   2
   0   0  -6 29.4380 5.17523   4
   0   0   6 29.0591 1.79513   2
   0   0  -6 31.4172 1.95118   3
   0   0   6 33.5791 2.05612   3
   0   0   6 27.9617 4.95997   4
   0   0  -6 27.5451 1.87591   1
  -1   0  -6 3499.11 186.604   4
   1   0   6 3442.33 185.902   4
  -2   0  -6 4339.47 233.476   4
   2   0   6 4386.22 233.464   4
   3   0   6 312.627 16.8180   1
  -3   0  -6 355.880 16.5670   2
   3   0   6 294.739 16.9037   3
  -3   0  -6 312.796 16.8046   3
  -3   0  -6 299.439 25.1262   4
   3   0   6 322.142 16.5552   2
  -3   0  -6 296.743 16.7185   1
   3   0   6 313.686 25.7544   4
  -4   0  -6 29.9742 2.15515   1
  -4   0  -6 19.8632 6.55775   4
  -4   0  -6 33.4412 2.33604   3
   4   0   6 26.6204 2.25739   1
   4   0   6 30.6643 9.22695   4
   4   0   6 31.9580 2.05496   2
   5   0   6 1815.71 94.2397   3
  -5   0  -6 1866.12 94.0262   3
   5   0   6 1761.06 94.0485   1
   6   0   6 926.429 51.4262   1
  -6   0  -6 968.466 51.4292   3
  -6   0  -6 1049.32 50.9223   2
   6   0   6 976.457 51.7077   3
  -7   0  -6 226.197 12.9987   3
   7   0   6 237.434 12.4662   2
  -7   0  -6 241.227 12.4201   2
   7   0   6 226.136 13.3409   3
   7   0   6 207.375 12.8853   1
  -8   0  -6 12.2374 1.22675   2
  -9   0  -6 1536.62 79.1849   2
   9   0   6 1526.31 79.2259   2
  10   0   6 264.194 14.3065   2
 -10   0  -6 266.856 14.2619   2
 -12  -1   6 1222.32 63.2996   2
  12   1  -6 1275.67 63.3618   2
 -12   1   6 1288.44 63.4318   2
 -12   1   6 1086.38 63.0983   1
  11  -1  -6 91.6128 5.43754   2
 -11  -1   6 92.3419 5.70150   2
 -11   1   6 95.5948 5.69900   2
  11   1  -6 95.6346 5.65924   2
 -11   1   6 78.5529 5.38722   1
  10  -1  -6 628.680 31.3147   2
 -10  -1   6 588.122 31.5865   2
  10   1  -6 573.927 31.6491   1
  10   1  -6 608.767 31.4895   2
 -10   1   6 547.515 31.2631   1
 -10   1   6 612.437 31.5308   2
  -9  -1   6 313.984 18.2318   3
   9  -1  -6 348.098 17.9653   2
  -9  -1   6 328.686 18.2546   2
  -9   1   6 340.286 18.1748   2
   9   1  -6 302.031 18.6513   3
   9   1  -6 326.706 18.1048   2
   9   1  -6 354.775 18.4603   1
  -9   1   6 352.092 18.0774   1
   8  -1  -6 6.56334 0.89940   2
  -8  -1   6 5.23232 1.02512   2
   8  -1  -6 5.30856 0.79053   3
  -8   1   6 5.10828 0.93184   2
   8   1  -6 4.97364 0.94103   2
   8   1  -6 5.46978 0.87553   3
  -8   1   6 6.28523 0.98491   1
  -7  -1   6 50.0840 3.39632   2
  -7  -1   6 47.8621 3.42462   3
   7  -1  -6 49.7697 3.30562   3
   7  -1  -6 51.7304 3.19973   2
  -7   1   6 47.5543 3.29286   2
   7   1  -6 49.2767 3.33634   3
  -7   1   6 52.9865 3.37642   1
  -7   1   6 53.8095 3.63427   3
   7   1  -6 49.3352 3.30872   2
   7   1  -6 50.9816 3.59542   1
  -6  -1   6 257.018 13.7214   2
   6  -1  -6 242.031 13.5854   2
   6  -1  -6 243.586 13.6475   3
  -6  -1   6 254.088 13.8506   3
   6   1  -6 265.564 13.7223   3
  -6   1   6 253.562 13.7455   1
   6   1  -6 257.246 13.9962   1
  -6   1   6 261.646 13.8358   3
   6   1  -6 243.060 13.6273   2
  -6   1   6 259.000 13.6718   2
  -5  -1   6 2587.49 145.922   4
  -5  -1   6 2407.23 133.847   1
   5   1  -6 2922.27 147.009   4
  -5   1   6 2510.64 144.088   4
  -4  -1   6 3149.30 181.315   4
   4   1  -6 3479.07 182.282   4
  -4   1   6 3400.18 180.099   4
   3  -1  -6 1226.79 69.7384   4
  -3  -1   6 1181.59 70.7516   4
  -3   1   6 1249.76 62.5366   2
   3   1  -6 1168.89 70.6381   4
  -3   1   6 1235.69 69.3763   4
   2  -1  -6 1755.64 93.8486   4
  -2  -1   6 1536.01 87.5206   1
  -2  -1   6 1706.75 95.2599   4
  -2   1   6 1732.86 87.5783   3
   2   1  -6 1783.62 95.8748   4
  -2   1   6 1700.56 93.3920   4
  -1  -1   6 6211.32 336.410   4
   1  -1  -6 6540.08 335.121   4
  -1   1   6 6240.75 334.460   4
   1   1  -6 6654.52 337.616   4
   0  -1  -6 821.047 48.2997   4
   0  -1   6 812.860 49.5349   4
   0  -1  -6 749.758 42.4462   3
   0   1   6 822.659 42.1120   2
   0   1  -6 816.614 50.2428   4
   0   1   6 879.366 42.2979   3
   0   1   6 792.653 47.8650   4
   0   1  -6 831.038 42.1703   2
   1  -1   6 132.133 7.99790   1
   1  -1   6 147.810 7.84936   2
   1  -1   6 132.935 13.6003   4
  -1  -1  -6 138.515 13.0952   4
  -1  -1  -6 150.081 7.89867   3
   1  -1   6 145.501 8.13341   3
  -1  -1  -6 150.553 7.75886   2
  -1   1  -6 142.919 7.83284   2
  -1   1  -6 153.649 8.03608   1
   1   1   6 141.052 12.9767   4
  -1   1  -6 146.700 8.08566   3
   1   1   6 154.964 8.09729   3
  -1   1  -6 154.033 14.6081   4
   1   1   6 146.708 7.88403   1
   1   1   6 144.308 7.80515   2
   2  -1   6 46.6773 3.34447   1
  -2  -1  -6 56.9565 3.27955   3
   2  -1   6 55.8686 3.18781   2
   2  -1   6 53.9275 3.49821   3
   2  -1   6 44.5624 8.29974   4
  -2  -1  -6 52.7031 8.19712   4
  -2  -1  -6 57.5314 3.12451   2
  -2   1  -6 50.1147 3.39701   3
   2   1   6 53.8931 3.27414   1
   2   1   6 52.6289 3.13514   2
   2   1   6 61.5464 3.50352   3
  -2   1  -6 52.5575 3.35754   1
  -2   1  -6 58.4313 8.72349   4
  -2   1  -6 61.1200 3.21527   2
   2   1   6 41.6884 7.46067   4
   3  -1   6 1008.11 57.0494   1
  -3  -1  -6 1161.38 56.9628   3
  -3  -1  -6 1116.60 56.7198   2
   3  -1   6 1110.74 57.3079   3
   3   1   6 1097.99 56.7454   2
  -4  -1  -6 1746.82 88.5161   3
   4  -1   6 1689.17 88.9552   3
   4   1   6 1700.64 88.2477   2
   5  -1   6 1537.46 83.4802   3
  -5  -1  -6 1636.17 83.0151   3
  -5   1  -6 1706.93 83.3051   3
  -5   1  -6 1577.15 83.0092   1
   5   1   6 1594.10 82.6178   2
   5   1   6 1552.21 83.2248   3
  -6  -1  -6 292.052 14.7955   2
   6  -1   6 287.451 14.8660   2
   6  -1   6 244.905 15.6935   3
  -6   1  -6 268.936 15.1393   1
   6   1   6 276.204 15.5806   3
  -6   1  -6 291.684 14.9075   2
   6   1   6 283.398 14.8571   2
   6   1   6 265.668 15.4960   1
  -6   1  -6 275.241 15.5224   3
   7  -1   6 144.442 8.57119   2
   7  -1   6 135.173 9.12897   3
   7   1   6 150.326 8.16450   2
  -7   1  -6 146.584 8.31813   1
  -8  -1  -6 646.700 31.9320   2
   8  -1   6 609.334 31.9621   2
   8   1   6 577.312 32.7083   1
   8   1   6 583.053 31.9648   2
  -8   1  -6 631.138 32.0351   2
  -9  -1  -6 14.9181 1.30501   2
   9  -1   6 13.9601 1.33282   2
   9   1   6 15.8570 1.40644   2
   9   1   6 12.9950 1.99602   1
  -9   1  -6 13.8671 1.36375   2
 -11  -2   6 100.031 5.91544   2
  11   2  -6 100.485 6.31653   1
 -11   2   6 99.6197 5.97166   1
  11   2  -6 101.215 6.16196   2
 -10  -2   6 19.2567 1.85147   2
  10   2  -6 19.8513 2.05833   1
  10   2  -6 18.8586 1.90013   2
 -10   2   6 18.2670 1.75333   1
  -9  -2   6 460.036 26.7930   2
   9  -2  -6 464.767 26.0756   2
  -9   2   6 559.578 26.7800   1
   9   2  -6 531.539 27.2946   1
   9   2  -6 491.279 26.8947   2
   8  -2  -6 1095.04 63.6293   2
  -8  -2   6 1204.51 64.3530   2
  -8   2   6 1207.70 64.2953   3
  -8   2   6 1346.82 64.2912   1
   8   2  -6 1406.45 65.0056   1
   8   2  -6 1232.46 64.4142   2
   8   2  -6 1153.88 64.3334   3
   7  -2  -6 158.036 9.10428   2
  -7  -2   6 180.347 9.72337   2
   7   2  -6 167.110 9.71028   3
   7   2  -6 184.848 10.2660   1
  -7   2   6 159.346 9.63863   3
   7   2  -6 165.422 9.69165   2
  -7   2   6 187.458 9.70497   1
   6  -2  -6 569.636 33.9250   2
  -6  -2   6 698.226 34.4418   2
   6   2  -6 643.726 34.4812   3
   6   2  -6 621.471 34.4216   2
   6   2  -6 699.745 35.0441   1
  -6   2   6 712.640 34.4949   1
  -5  -2   6 795.642 39.7098   2
  -5   2   6 732.987 39.7832   3
   5   2  -6 813.666 40.2854   1
   5   2  -6 709.586 39.7047   2
  -5   2   6 764.106 39.7393   1
  -4  -2   6 352.866 20.7865   3
  -4  -2   6 429.135 20.6463   2
  -4   2   6 394.496 20.7066   3
   4   2  -6 412.713 21.1021   1
  -4   2   6 392.196 20.9224   1
   4   2  -6 374.632 20.6487   2
  -3  -2   6 89.8807 5.29070   3
  -3  -2   6 94.3990 5.08359   2
  -3   2   6 92.9576 5.13418   3
  -3   2   6 77.9159 7.78971   4
   3   2  -6 95.7562 5.27910   3
   3   2  -6 89.4788 5.42512   1
  -3   2   6 90.0145 5.05105   1
   3   2  -6 92.5686 5.15155   2
  -2  -2   6 268.571 14.2364   3
  -2  -2   6 280.098 14.0126   2
  -2   2   6 240.299 13.9017   1
   2   2  -6 269.450 14.0757   2
  -2   2   6 263.677 14.0179   3
   2   2  -6 264.144 14.2083   3
  -2   2   6 274.376 14.0452   3
  -1  -2   6 48.3819 3.07114   3
  -1  -2   6 49.1441 2.87232   2
   1   2  -6 51.8333 3.14009   3
  -1   2   6 51.2784 2.89772   3
  -1   2   6 51.7995 2.90728   3
  -1   2   6 41.7683 2.75503   1
   1   2  -6 49.4233 3.28296   1
   1   2  -6 48.6526 2.92752   2
   0  -2   6 92.9140 5.41530   3
   0  -2   6 92.8917 5.14196   2
   0   2  -6 94.1384 5.43822   3
   0   2  -6 92.0535 5.19395   2
   0   2   6 99.7841 5.23116   3
   0   2   6 85.3185 5.07451   1
   0   2  -6 95.8050 5.58451   1
   1  -2   6 1026.37 55.0552   3
  -1  -2  -6 1147.61 66.7054   4
  -1   2  -6 1099.53 55.0854   3
   1   2   6 1021.84 54.7031   1
   1   2   6 1080.42 54.8505   3
  -1   2  -6 998.928 54.7215   2
   2  -2   6 1947.97 102.565   3
  -2   2  -6 2019.84 102.130   2
   3  -2   6 721.323 37.8270   2
   3   2   6 705.680 38.3437   3
  -3   2  -6 688.062 37.9394   2
  -3   2  -6 763.504 38.2567   1
   3   2   6 763.139 38.1151   1
  -4   2  -6 10.5522 1.04028   2
   4   2   6 11.5856 1.36116   1
  -4   2  -6 11.9175 1.45149   3
   4   2   6 10.4993 1.29758   3
  -4   2  -6 11.8297 1.43875   1
   5  -2   6 603.012 30.1464   2
   5   2   6 568.873 30.8458   3
  -5   2  -6 550.033 30.6651   1
  -5   2  -6 558.691 31.3893   3
   5   2   6 615.781 30.9142   1
  -5   2  -6 561.668 30.2246   2
   6  -2   6 195.403 9.76786   2
  -6   2  -6 163.969 10.2046   1
  -6   2  -6 178.676 10.1079   2
   6   2   6 171.638 10.5148   1
   7  -2   6 109.001 6.01612   2
   7   2   6 108.140 6.93282   1
  -7   2  -6 102.209 6.11892   2
  -7   2  -6 103.772 6.46859   1
   8  -2   6 157.258 9.67283   2
   8   2   6 167.284 10.1549   1
  -8   2  -6 162.706 9.37005   2
  -8   2  -6 192.703 10.4214   1
   9   3  -6 177.321 10.1120   1
  -9   3   6 159.882 9.44479   1
   8   3  -6 94.6383 6.28697   1
  -8   3   6 92.0023 5.63973   1
  -7   3   6 405.603 21.6886   1
   7   3  -6 406.276 22.4436   1
  -6   3   6 286.905 16.0412   1
   6   3  -6 308.852 16.8285   1
   5   3  -6 81.0896 5.18149   3
  -5   3   6 91.2996 5.14976   1
   4   3  -6 4.43235 0.75617   3
  -4   3   6 3.89290 0.63158   1
   3   3  -6 7.85323 0.94316   3
  -3   3   6 8.91247 0.83327   1
   2   3  -6 1310.67 66.3917   3
  -2   3   6 1199.75 66.0320   1
   2   3  -6 1337.59 66.6319   1
  -1   3   6 249.545 13.7351   1
   1   3  -6 272.419 14.2880   1
   1   3  -6 263.988 14.1150   3
   0   3  -6 480.621 26.1744   3
   0   3  -6 512.551 26.3250   1
   0   3   6 497.373 25.8450   1
  -1   3  -6 10.4471 1.23208   1
  -1   3  -6 8.51713 1.08117   3
  -2   3  -6 101.191 5.81924   1
   2   3   6 97.6169 5.51197   1
  -2   3  -6 84.1951 5.70787   3
   3   3   6 648.923 33.6602   1
  -3   3  -6 629.376 33.7914   1
   4   3   6 378.014 20.8045   1
  -4   3  -6 390.957 20.8808   1
  -5   3  -6 321.946 17.7540   1
   5   3   6 324.389 17.8383   1
   6   3   6 36.1041 2.85396   1
  -6   3  -6 31.6880 2.68862   1
   5   4  -6 47.7345 3.32984   1
  -5   4   6 42.0650 2.76270   1
  -4   4   6 2.81522 0.54573   1
  -3   4   6 1246.17 67.3363   1
   3   4  -6 1370.08 67.9741   1
   2   4  -6 125.425 7.26984   1
   1   4  -6 66.2150 4.18271   1
   0   4  -6 203.158 11.2540   1
  -1   4  -6 12.2199 1.35791   1
  -2   4  -6 3.92177 0.82877   1
   2   4   6 3.96493 0.91023   1
  -3   4  -6 282.388 15.7962   1
   3   4   6 297.731 15.8156   1
  12   0  -7 0.26160 0.42900   2
 -12   0   7 0.41762 0.45840   2
 -10   0   7 -0.1187 0.44457   1
   9   0  -7 0.14922 0.44233   2
  -9   0   7 -0.2601 0.40234   2
  -9   0   7 0.30735 0.47048   1
   9   0  -7 -0.1757 0.43053   3
   7   0  -7 1.53383 0.49739   2
   7   0  -7 0.45882 0.39218   1
  -7   0   7 0.76204 0.43621   3
  -7   0   7 0.35909 0.38921   2
   7   0  -7 0.61355 0.37602   3
  -6   0   7 0.29008 0.38260   1
  -6   0   7 0.35428 0.31579   2
  -6   0   7 -0.1629 4.45052   4
  -6   0   7 6.60410 4.69354   4
   6   0  -7 0.16927 0.46078   2
   6   0  -7 0.09635 0.32017   1
  -6   0   7 0.12318 0.31594   3
   5   0  -7 2.05003 0.48312   1
   5   0  -7 6.95216 3.89240   4
  -5   0   7 0.19722 4.08235   4
   4   0  -7 -2.2226 2.02118   4
  -4   0   7 0.23253 0.22895   1
   4   0  -7 0.64253 0.26191   1
  -4   0   7 0.20278 0.26151   3
  -4   0   7 3.62457 2.72134   4
   4   0  -7 0.50666 0.24065   2
  -3   0   7 0.15714 0.18397   1
  -3   0   7 -0.6183 1.96012   4
   3   0  -7 0.52456 0.29417   3
   3   0  -7 0.06921 0.21156   1
   3   0  -7 1.43680 0.34725   2
   3   0  -7 -0.9102 1.64898   4
   1   0  -7 2.54794 2.79192   4
   1   0  -7 2.26288 0.45353   1
  -1   0   7 4.20639 2.31646   4
   1   0  -7 3.11379 0.49314   3
   0   0   7 0.64635 0.31603   3
   0   0   7 0.67010 2.19042   4
   0   0  -7 4.15626 2.27030   4
   0   0   7 0.45563 0.21470   2
  -1   0  -7 0.07085 0.25228   1
   1   0   7 0.26227 0.30393   3
  -1   0  -7 1.49949 0.44080   3
   1   0   7 0.48029 0.25613   2
  -1   0  -7 1.08841 0.30550   2
   1   0   7 0.68500 0.31723   1
   1   0   7 -1.0498 2.46582   4
  -1   0  -7 3.08267 2.59395   4
  -2   0  -7 1.65948 0.48982   3
  -2   0  -7 1.89079 0.50305   1
   2   0   7 6.50751 3.39173   4
  -2   0  -7 1.95665 0.41071   2
  -3   0  -7 0.84449 0.42500   3
  -3   0  -7 4.53668 4.65926   4
   3   0   7 0.58350 0.36294   1
  -3   0  -7 0.21584 0.50721   1
  -4   0  -7 0.46158 0.35606   2
   4   0   7 -0.2529 0.33307   1
  -4   0  -7 -0.1440 0.31869   3
   4   0   7 0.31256 0.41302   3
   4   0   7 0.11863 0.31193   2
  -5   0  -7 -0.2477 0.44999   3
   5   0   7 -0.1305 0.40294   1
   5   0   7 0.54824 0.39732   3
   5   0   7 -0.2340 0.22367   2
  -5   0  -7 0.12382 0.28369   2
  -6   0  -7 -0.1269 0.57874   3
   6   0   7 0.71677 0.60052   1
   6   0   7 1.46604 0.73535   3
  -7   0  -7 0.26376 0.39754   2
   7   0   7 0.17540 0.68167   1
   7   0   7 1.03745 0.48725   2
  -8   0  -7 0.16586 0.33308   2
   8   0   7 0.65629 0.43171   2
   9   0   7 -0.0931 0.36506   2
  -9   0  -7 0.94559 0.69403   2
 -12  -1   7 1.22560 0.59013   2
  12  -1  -7 2.18248 0.59253   2
  12   1  -7 1.30096 0.57452   2
 -12   1   7 1.67768 0.63388   2
 -12   1   7 2.22623 0.71037   1
  11  -1  -7 173.702 9.33036   2
 -11  -1   7 170.005 9.61310   2
  11   1  -7 167.350 9.52764   2
 -11   1   7 163.415 9.55623   2
 -11   1   7 155.095 9.33365   1
  10  -1  -7 190.617 10.1460   2
 -10  -1   7 176.025 10.4319   2
 -10   1   7 178.560 10.3486   2
 -10   1   7 172.332 10.1676   1
  10   1  -7 184.011 10.3429   2
   9  -1  -7 217.585 11.6125   2
  -9  -1   7 198.742 11.9227   3
  -9  -1   7 210.056 11.9552   2
  -9   1   7 217.197 11.9935   3
   9   1  -7 200.366 11.7507   2
   9   1  -7 192.413 11.8313   3
  -9   1   7 221.628 11.7712   1
  -9   1   7 202.947 11.7897   2
   9   1  -7 223.706 12.0948   1
  -8  -1   7 8.90376 1.31928   2
  -8  -1   7 8.05962 1.20252   3
   8  -1  -7 6.45813 1.02746   3
   8  -1  -7 9.14209 1.09063   2
  -8   1   7 10.8146 1.28873   3
  -8   1   7 8.72470 1.21495   1
   8   1  -7 8.24532 1.10763   3
   8   1  -7 7.72370 1.16367   2
   8   1  -7 9.28539 1.33110   1
  -8   1   7 9.27771 1.22994   2
   7  -1  -7 12.3980 1.18612   2
   7  -1  -7 9.80328 1.17723   3
  -7  -1   7 12.6888 1.37465   2
  -7   1   7 12.2884 1.29886   2
   7   1  -7 12.0275 1.44847   1
  -7   1   7 11.1055 1.30737   3
   7   1  -7 14.1308 1.34486   3
  -7   1   7 12.0856 1.33003   1
   7   1  -7 12.7201 1.29753   2
  -6  -1   7 4.44857 0.72623   3
  -6  -1   7 3.87076 0.72098   2
   6  -1  -7 3.83525 0.62255   3
   6  -1  -7 4.22956 0.65238   2
  -6   1   7 3.75428 0.75659   1
   6   1  -7 4.41044 1.02162   2
  -6   1   7 5.82711 0.81138   3
   6   1  -7 4.26008 0.69968   3
   6   1  -7 3.83456 0.89497   1
  -6   1   7 4.08708 0.69831   2
   5  -1  -7 1494.11 74.5011   3
  -5  -1   7 1337.71 74.5389   1
  -5   1   7 1495.76 74.4950   2
   4  -1  -7 88.2970 4.92372   2
  -4  -1   7 87.5584 11.4318   4
   4  -1  -7 100.038 5.05087   3
  -4  -1   7 93.9181 5.07070   2
  -4  -1   7 86.6779 5.22189   3
   4  -1  -7 89.6298 11.7268   4
  -4  -1   7 75.7161 5.01585   1
  -4   1   7 88.5997 10.5528   4
  -4   1   7 92.7351 5.18081   3
   4   1  -7 87.7424 5.11351   3
  -4   1   7 85.9425 4.98259   2
   4   1  -7 92.6338 5.05525   2
   4   1  -7 83.0739 11.6519   4
  -4   1   7 82.5795 5.02036   1
  -3  -1   7 128.953 6.97395   3
  -3  -1   7 110.874 6.74826   1
  -3  -1   7 128.702 6.76704   2
   3  -1  -7 129.537 6.63396   2
   3  -1  -7 112.828 12.2491   4
   3  -1  -7 126.836 6.70830   3
  -3   1   7 118.787 11.9237   4
  -3   1   7 115.375 6.69384   1
   3   1  -7 131.108 15.2416   4
   3   1  -7 114.364 6.86780   1
   3   1  -7 120.646 6.85442   3
   3   1  -7 129.089 6.76719   2
  -3   1   7 118.023 6.67252   2
  -3   1   7 130.143 6.87257   3
   2  -1  -7 3394.01 185.130   4
  -2  -1   7 3420.91 187.194   4
  -2   1   7 3484.46 185.047   4
   2   1  -7 3533.28 187.759   4
   1  -1  -7 3.79158 2.65065   4
   1  -1  -7 3.52313 0.42537   2
  -1  -1   7 2.58358 2.17895   4
   1  -1  -7 3.51662 0.46408   3
  -1  -1   7 3.69164 0.61933   3
   1   1  -7 3.82530 0.60842   1
  -1   1   7 3.14957 0.43626   2
   1   1  -7 3.82304 0.50916   2
   1   1  -7 7.31289 3.81796   4
  -1   1   7 2.97850 0.47834   1
   1   1  -7 3.50848 0.60619   3
  -1   1   7 3.65669 0.57566   3
  -1   1   7 3.85683 1.91477   4
   0  -1   7 13.4548 1.03684   2
   0  -1   7 12.5906 1.18409   3
   0  -1  -7 8.25809 3.11618   4
   0  -1   7 10.8884 1.07682   1
   0  -1  -7 11.7046 0.89626   2
   0  -1  -7 12.2625 0.99641   3
   0  -1   7 9.55955 4.64527   4
   0   1   7 11.8965 0.94669   2
   0   1  -7 6.38159 4.15409   4
   0   1   7 12.2701 4.08346   4
   0   1   7 12.8008 1.15636   3
   0   1  -7 12.1567 1.11082   1
   0   1  -7 13.0909 1.19336   3
   0   1  -7 14.1120 1.02476   2
   0   1   7 12.7443 1.03157   1
   1  -1   7 764.674 50.9155   4
   1  -1   7 754.066 41.9068   1
  -1  -1  -7 821.729 41.7865   3
  -1  -1  -7 806.875 41.5919   2
  -1  -1  -7 845.633 50.7254   4
   1  -1   7 820.560 42.0961   3
  -1   1  -7 803.123 42.0088   3
  -1   1  -7 786.462 52.3287   4
  -1   1  -7 860.034 41.7201   2
   1   1   7 786.553 41.7128   2
   1   1   7 761.582 49.6428   4
  -1   1  -7 842.428 41.9384   1
   2  -1   7 624.478 31.3906   2
  -2  -1  -7 594.509 31.2541   2
   2  -1   7 585.839 31.7855   3
  -2  -1  -7 617.537 31.5005   3
   2  -1   7 533.062 31.5840   1
  -2   1  -7 640.579 31.6584   1
  -2   1  -7 612.102 31.3493   2
   2   1   7 624.816 31.7647   3
   2   1   7 603.639 31.5468   1
   2   1   7 589.455 31.3084   2
   3  -1   7 467.044 23.5881   2
  -3  -1  -7 449.422 23.7657   3
   3  -1   7 434.483 24.1304   3
  -3  -1  -7 450.728 23.4936   2
   3   1   7 425.524 23.5152   2
  -3   1  -7 457.584 23.5703   2
   3   1   7 454.355 23.8460   1
   3   1   7 456.906 24.0602   3
  -4  -1  -7 42.3215 2.61088   2
  -4  -1  -7 39.9111 2.86869   3
   4  -1   7 37.6722 3.18399   3
   4  -1   7 45.6089 2.73508   2
  -4   1  -7 39.7429 3.06362   3
  -4   1  -7 41.2122 2.67852   2
   4   1   7 41.4804 3.03198   1
  -4   1  -7 36.3467 2.91807   1
   4   1   7 42.7958 3.15869   3
   5  -1   7 134.388 9.11376   3
  -5  -1  -7 161.788 8.26428   2
   5  -1   7 153.331 8.35917   2
  -5   1  -7 144.105 8.64100   1
  -5   1  -7 155.544 8.36771   2
   5   1   7 148.507 8.31398   2
  -5   1  -7 147.809 8.91402   3
   5   1   7 155.032 8.92203   1
   5   1   7 142.019 8.96379   3
   6  -1   7 398.577 23.4764   3
   6  -1   7 447.191 22.4069   2
  -6  -1  -7 444.840 22.2989   2
   6   1   7 392.547 23.0273   1
  -6   1  -7 448.644 22.4378   2
  -6   1  -7 413.060 23.1249   3
   6   1   7 419.570 22.3692   2
  -6   1  -7 409.652 22.6236   1
   6   1   7 427.346 23.2978   3
   7  -1   7 156.435 8.97346   2
  -7  -1  -7 169.192 8.92414   2
   7   1   7 162.928 9.02100   2
  -7   1  -7 159.687 9.01726   2
   7   1   7 157.693 9.72941   1
   8  -1   7 1.08260 0.45224   2
  -8  -1  -7 0.79242 0.35339   2
  -8   1  -7 1.89922 0.52490   2
   8   1   7 2.09160 0.70329   1
   8   1   7 0.69378 0.38674   2
   9  -1   7 136.470 7.79135   2
  -9  -1  -7 152.249 7.75269   2
  -9   1  -7 137.137 7.83137   2
   9   1   7 144.574 7.88983   2
   9   1   7 130.100 8.34428   1
 -11  -2   7 178.896 9.64558   2
  11   2  -7 173.609 9.85661   2
 -11   2   7 164.426 9.64985   1
 -10  -2   7 120.418 7.35331   2
 -10   2   7 123.210 7.26430   1
  10   2  -7 118.574 7.43134   2
  10   2  -7 131.266 7.72467   1
  -9  -2   7 120.378 8.28552   2
   9   2  -7 162.525 8.90473   1
  -9   2   7 157.061 8.36075   1
   9   2  -7 127.271 8.35751   2
   8  -2  -7 521.361 27.0402   2
  -7  -2   7 20.1155 1.90854   2
   7   2  -7 21.6532 1.96017   2
  -7   2   7 22.2382 1.94483   1
   7   2  -7 24.9367 2.01105   3
   7   2  -7 23.4238 2.30298   1
  -6  -2   7 43.9716 2.84899   2
  -6   2   7 37.0392 2.82505   3
   6   2  -7 38.9340 2.84318   3
   6   2  -7 45.6385 3.31801   1
   6   2  -7 38.6055 2.80040   2
  -6   2   7 42.8499 2.88232   1
  -4  -2   7 85.3132 5.50755   3
  -4  -2   7 100.068 5.33202   2
   4   2  -7 91.6711 5.35541   2
  -4   2   7 92.2609 5.31419   1
  -4   2   7 94.9930 5.40412   3
  -3  -2   7 373.832 18.1833   2
  -3  -2   7 344.980 18.4381   3
   3   2  -7 342.013 18.2097   2
  -3   2   7 338.134 18.1228   1
   3   2  -7 316.166 18.4227   1
  -3   2   7 353.637 18.2373   3
  -2  -2   7 82.4010 4.52907   2
  -2  -2   7 77.5699 4.75982   3
   2   2  -7 77.0231 4.77677   1
   2   2  -7 78.1503 4.55656   2
  -2   2   7 81.3005 4.56865   3
  -1  -2   7 87.0031 5.36377   3
  -1  -2   7 89.1548 5.10233   2
  -1   2   7 94.2147 5.18850   3
   1   2  -7 98.5602 5.44765   3
   1   2  -7 88.1581 5.36157   1
   1   2  -7 89.9882 5.15913   2
   0  -2   7 477.152 25.6414   3
   0  -2   7 480.249 25.2564   2
   0   2  -7 467.352 25.2876   2
   0   2  -7 488.977 25.5691   1
   0   2  -7 495.115 25.6400   3
   0   2   7 507.717 25.4133   3
   0   2   7 473.624 25.2548   1
   1  -2   7 1275.75 69.4284   3
  -1   2  -7 1298.19 68.9904   2
  -1   2  -7 1438.76 70.7520   3
   2  -2   7 6.59581 0.78406   2
   2   2   7 7.70228 0.91698   1
  -2   2  -7 6.24953 0.79319   2
  -2   2  -7 6.82795 0.99965   3
  -2   2  -7 7.35453 1.03148   1
   3  -2   7 1012.18 51.0160   2
  -3   2  -7 936.380 50.9883   2
  -3   2  -7 951.019 51.5656   3
  -3   2  -7 979.024 51.4324   1
   3   2   7 987.847 51.4574   3
   3   2   7 1038.74 51.3614   1
   4   2   7 1453.36 71.1713   1
  -4   2  -7 1306.23 71.6697   3
  -4   2  -7 1326.32 70.6040   2
   4   2   7 1333.15 71.1988   3
  -4   2  -7 1408.31 71.1470   1
   5  -2   7 3.26552 0.68764   2
   5   2   7 1.94977 0.71471   1
  -5   2  -7 1.47427 0.47353   2
   6  -2   7 16.3675 1.33529   2
  -6   2  -7 14.9089 1.71190   1
  -6   2  -7 14.7385 1.39861   2
   6   2   7 14.8827 1.83910   1
   7  -2   7 458.730 22.8586   2
  -7   2  -7 430.424 22.9691   2
   7   2   7 428.091 23.7791   1
  -7   2  -7 419.854 23.2448   1
   8  -2   7 95.6440 5.10690   2
   8   2   7 86.3256 5.83518   1
  -8   2  -7 85.1370 5.31848   1
  -8   2  -7 89.7957 5.23300   2
  -9   3   7 293.056 15.8948   1
  -8   3   7 15.5213 1.54342   1
  -7   3   7 55.6585 3.70944   1
  -6   3   7 253.578 13.8486   1
  -5   3   7 262.868 14.2146   1
   4   3  -7 3.59424 0.79920   3
  -4   3   7 4.61973 0.69814   1
  -3   3   7 258.995 13.8220   1
   3   3  -7 247.924 14.0744   3
   3   3  -7 272.859 14.3951   1
   2   3  -7 1310.60 67.3729   3
  -2   3   7 1222.32 65.8391   1
   2   3  -7 1298.59 66.4031   1
  -1   3   7 82.7118 4.72455   1
   1   3  -7 84.6906 5.18615   1
   0   3  -7 1.38682 0.50297   1
   0   3  -7 1.20327 0.51065   3
   0   3   7 1.79380 0.41461   1
  -1   3  -7 1015.16 57.0502   3
   1   3   7 1173.83 56.7547   1
   3   3   7 54.6125 3.65390   1
  -3   3  -7 52.4492 3.77307   1
  -4   3  -7 14.1434 1.67230   1
   4   3   7 16.9358 1.72725   1
   5   3   7 28.4918 2.44982   1
  -5   3  -7 25.4944 2.36237   1
   6   3   7 91.2115 5.70036   1
  -6   3  -7 84.3338 5.46105   1
  -5   4   7 227.323 13.0163   1
   5   4  -7 262.966 13.7078   1
   4   4  -7 20.8724 1.84412   1
  -4   4   7 16.7073 1.29676   1
  -3   4   7 143.988 7.91635   1
   3   4  -7 151.361 8.78738   1
   0   4  -7 1.45257 0.57724   1
  -1   4  -7 185.505 9.83667   1
   1   4   7 161.245 9.51728   1
  -2   4  -7 103.395 6.20632   1
  12   0  -8 76.8418 4.86154   2
 -12   0   8 81.7594 5.03520   2
 -11   0   8 738.347 38.5215   2
  11   0  -8 719.791 38.3123   2
 -10   0   8 544.932 29.4528   2
  10   0  -8 558.484 29.2933   2
  -9   0   8 263.972 15.4925   3
   9   0  -8 282.358 15.0184   2
  -9   0   8 269.166 15.1651   2
   9   0  -8 259.111 15.1363   3
  -9   0   8 292.974 15.1903   1
  -8   0   8 22.2303 1.96521   2
  -8   0   8 19.0420 1.95698   3
   8   0  -8 21.0333 1.85746   3
  -8   0   8 23.3352 2.03961   1
   8   0  -8 20.8244 1.81826   2
   7   0  -8 57.8290 3.87341   3
   7   0  -8 58.2192 3.80200   2
  -7   0   8 61.1153 3.95806   2
  -7   0   8 65.3021 4.10847   1
  -7   0   8 60.4964 4.08028   3
   5   0  -8 4588.40 239.598   4
  -5   0   8 4192.56 239.039   4
   4   0  -8 33.7377 2.19444   3
  -4   0   8 31.4182 2.29564   3
  -4   0   8 37.1317 8.26307   4
  -4   0   8 31.8603 2.13436   2
   4   0  -8 33.4099 2.12432   2
   4   0  -8 27.8802 6.38340   4
  -4   0   8 30.7256 2.18790   1
   4   0  -8 30.8436 2.17042   1
  -3   0   8 1166.98 71.6535   4
   3   0  -8 1237.50 61.9294   1
   3   0  -8 1182.70 71.6033   4
   2   0  -8 9366.07 506.720   4
  -2   0   8 9999.99 507.339   4
  -1   0   8 233.218 12.6552   3
   1   0  -8 244.393 20.7821   4
   1   0  -8 238.467 12.4472   1
   1   0  -8 223.415 12.2963   2
  -1   0   8 239.556 12.3476   2
  -1   0   8 229.724 19.9023   4
  -1   0   8 220.526 12.4149   1
   0   0   8 222.369 11.6135   3
   0   0  -8 198.597 11.3049   1
   0   0  -8 214.652 11.1738   2
   0   0  -8 191.583 18.5912   4
   0   0   8 211.591 11.3522   1
   0   0   8 203.414 19.0367   4
   0   0   8 212.519 11.2022   2
   0   0  -8 213.216 11.4178   3
  -1   0  -8 75.5801 4.03604   2
   1   0   8 63.1987 13.6700   4
   1   0   8 70.1584 4.40146   3
  -1   0  -8 70.9487 4.26671   3
   1   0   8 67.3443 4.19961   1
  -1   0  -8 63.4627 4.13537   1
  -1   0  -8 71.2654 10.1573   4
   1   0   8 70.4143 4.03385   2
   3   0   8 930.672 47.0002   2
  -3   0  -8 950.838 46.9701   2
   3   0   8 897.042 47.3699   1
   3   0   8 873.101 47.5756   3
  -3   0  -8 876.084 47.3218   3
  -4   0  -8 1890.66 100.893   3
   4   0   8 2003.39 101.017   1
   4   0   8 1950.66 101.264   3
   5   0   8 1997.50 105.862   3
  -5   0  -8 2146.80 105.544   3
   5   0   8 1957.65 105.486   1
   6   0   8 6.97771 1.31447   1
  -6   0  -8 7.75744 1.31980   2
  -6   0  -8 8.20787 1.25136   3
   7   0   8 338.487 18.7285   2
  -7   0  -8 362.592 18.7121   2
   8   0   8 37.9684 2.62861   2
  -8   0  -8 35.7656 2.52393   2
  12  -1  -8 195.518 10.6683   2
 -12  -1   8 194.047 10.9232   2
 -12   1   8 189.299 10.9903   2
  12   1  -8 198.244 10.9669   2
 -12   1   8 203.576 11.2654   1
 -11  -1   8 151.158 8.80914   2
  11  -1  -8 160.674 8.55103   2
 -11   1   8 140.576 8.57729   1
  11   1  -8 153.736 8.75879   2
 -11   1   8 148.274 8.81001   2
 -10  -1   8 502.024 27.5409   2
  10  -1  -8 540.922 27.2405   2
  10   1  -8 504.302 27.4137   2
 -10   1   8 505.639 27.3291   1
 -10   1   8 515.410 27.4992   2
  -9  -1   8 1019.38 58.8248   2
  -9   1   8 1081.90 57.7833   2
  -9   1   8 1160.90 59.1660   1
   9   1  -8 1160.79 58.8587   2
  -8  -1   8 2155.50 111.470   3
  -8   1   8 2188.32 111.419   3
  -8   1   8 2169.68 111.218   2
   8   1  -8 2087.80 111.204   3
   7  -1  -8 412.848 25.0982   3
   7  -1  -8 507.686 25.0634   2
  -7  -1   8 473.014 25.2658   2
  -7   1   8 518.997 25.3622   1
   7   1  -8 489.200 25.2189   2
  -7   1   8 456.951 25.1755   2
  -7   1   8 476.152 25.3979   3
   7   1  -8 461.172 25.2089   3
   6  -1  -8 87.5579 4.85662   2
  -6  -1   8 84.6523 5.21825   3
  -6  -1   8 82.0044 4.99705   2
  -6   1   8 84.0088 5.06396   1
  -6   1   8 76.4193 5.64353   3
   6   1  -8 83.8799 5.18944   1
  -6   1   8 78.3307 4.91789   2
   6   1  -8 79.0660 5.50502   3
   6   1  -8 87.0564 5.00172   2
   5  -1  -8 1152.88 61.0344   3
  -5  -1   8 1171.93 61.3306   3
  -5  -1   8 1231.72 61.1182   2
  -5   1   8 1195.77 61.2517   3
  -5   1   8 1169.23 61.0322   2
   5   1  -8 1163.49 61.1569   3
   5   1  -8 1169.37 61.6599   1
  -4  -1   8 390.996 20.6250   3
   4  -1  -8 388.246 20.3258   3
  -4  -1   8 344.597 20.3787   1
   4  -1  -8 410.183 20.2351   2
  -4   1   8 388.064 20.3060   2
   4   1  -8 390.397 20.4863   3
   4   1  -8 370.679 20.5268   1
   4   1  -8 389.154 20.3600   2
  -4   1   8 400.775 20.5312   3
  -3  -1   8 2283.88 131.437   4
   3  -1  -8 2261.90 127.508   4
  -3  -1   8 2338.05 117.638   1
  -3   1   8 2301.87 127.943   4
   3   1  -8 2227.27 129.451   4
   2  -1  -8 1456.07 82.7594   4
   2  -1  -8 1485.34 73.4720   3
  -2  -1   8 1376.57 73.5723   1
  -2  -1   8 1464.44 84.7137   4
   2   1  -8 1420.72 85.0660   4
  -2   1   8 1293.97 81.3448   4
  -2   1   8 1470.19 73.4359   2
   1  -1  -8 474.618 24.3976   3
  -1  -1   8 495.139 24.7784   3
  -1  -1   8 435.215 33.5217   4
   1  -1  -8 489.375 24.2669   2
  -1  -1   8 436.258 24.4979   1
   1  -1  -8 450.106 32.4138   4
  -1  -1   8 495.943 24.4163   2
   1   1  -8 473.169 24.5663   1
  -1   1   8 470.090 24.3283   2
  -1   1   8 425.430 31.7285   4
   1   1  -8 477.201 24.4025   2
  -1   1   8 470.357 24.4233   1
   1   1  -8 442.443 34.2316   4
   0  -1  -8 1406.36 69.9051   3
   0  -1   8 1314.61 70.0409   1
   0   1   8 1377.94 69.8005   2
   0   1  -8 1307.61 85.5188   4
   1  -1   8 2266.63 117.498   1
   2  -1   8 659.010 32.3262   2
  -2  -1  -8 594.416 32.4279   3
  -2  -1  -8 615.903 32.1743   2
   2  -1   8 591.854 32.8116   3
  -2   1  -8 630.921 32.6340   1
  -2   1  -8 642.716 32.2851   2
   2   1   8 628.562 32.5238   1
   2   1   8 598.685 32.2353   2
  -2   1  -8 611.870 32.6821   3
  -3  -1  -8 281.433 14.4204   2
  -3  -1  -8 246.503 14.6716   3
   3  -1   8 290.490 14.5366   2
   3  -1   8 254.147 15.1077   3
   3   1   8 244.966 15.0726   2
  -3   1  -8 285.920 14.5079   2
  -3   1  -8 273.137 14.9740   3
   3   1   8 283.127 14.8642   1
   3   1   8 278.858 15.1065   3
  -3   1  -8 270.223 14.8412   1
   4  -1   8 932.553 46.1347   2
   4  -1   8 782.557 46.8397   3
  -4  -1  -8 930.088 46.0017   2
  -4   1  -8 861.761 46.4494   1
  -4   1  -8 922.812 46.1060   2
   4   1   8 952.483 46.6752   1
   4   1   8 842.822 46.0490   2
  -4   1  -8 865.942 46.6546   3
   5  -1   8 85.3372 6.57992   3
   5  -1   8 103.514 5.86090   2
  -5  -1  -8 113.361 5.76587   2
  -5   1  -8 98.7734 6.10803   1
  -5   1  -8 103.969 5.85555   2
   5   1   8 103.913 5.84151   2
   5   1   8 94.4215 6.52660   3
   5   1   8 98.7607 6.38571   1
  -5   1  -8 90.9197 7.52593   3
   6  -1   8 72.9723 4.37498   2
  -6  -1  -8 73.8371 4.26326   2
   6   1   8 65.6909 4.91733   1
  -6   1  -8 72.5544 4.39081   2
   6   1   8 70.1524 4.88399   2
  -7  -1  -8 3.24272 0.59624   2
  -7   1  -8 2.20313 0.60099   2
   7   1   8 3.81410 0.72808   2
   7   1   8 2.28370 0.74102   1
  -8  -1  -8 1468.29 73.4635   2
  -8   1  -8 1534.50 73.8038   2
   8   1   8 1282.23 74.1741   1
   8   1   8 1407.38 73.6211   2
 -11  -2   8 239.169 13.0296   2
 -10  -2   8 45.7361 3.36566   2
 -10   2   8 46.9938 3.29708   1
  10   2  -8 42.9973 3.69511   1
  10   2  -8 52.9618 4.44522   2
  -9  -2   8 11.4502 1.49382   2
  -9   2   8 12.9484 1.46934   1
   9   2  -8 13.7849 1.58050   2
  -8  -2   8 36.4431 2.96560   2
   8   2  -8 37.2306 2.98651   2
  -8   2   8 43.2471 3.02296   1
  -7  -2   8 39.2726 2.84800   2
   7   2  -8 35.8915 2.80717   3
  -7   2   8 36.0838 2.81606   3
  -7   2   8 38.7676 2.83585   1
   7   2  -8 39.6540 2.85334   2
  -6  -2   8 294.964 15.5292   2
  -6   2   8 306.697 15.6211   1
   6   2  -8 282.559 15.5333   2
   6   2  -8 276.755 15.6281   3
  -6   2   8 271.996 15.5817   3
  -5  -2   8 614.012 31.7075   2
   5   2  -8 573.133 31.7214   2
  -5   2   8 625.056 31.7873   1
   5   2  -8 621.886 32.1559   1
  -5   2   8 580.290 31.8073   3
   5   2  -8 615.817 31.8951   3
  -4  -2   8 247.277 12.7272   2
   4   2  -8 221.751 12.7190   2
   4   2  -8 248.596 12.9593   3
   4   2  -8 227.057 13.0585   1
  -4   2   8 236.248 12.7378   1
  -4   2   8 235.733 12.8397   3
  -3  -2   8 235.458 11.5841   2
  -3  -2   8 204.646 11.8528   3
  -3   2   8 209.476 11.5243   1
   3   2  -8 224.148 11.8298   3
   3   2  -8 213.823 11.8828   1
  -3   2   8 222.515 11.6657   3
   3   2  -8 190.205 11.6580   2
  -2  -2   8 1215.97 62.8652   2
  -2   2   8 1216.90 62.9631   3
   2   2  -8 1205.02 62.9220   2
   2   2  -8 1229.07 63.1606   3
  -1  -2   8 303.614 14.2829   2
  -1  -2   8 256.558 14.6923   3
   1   2  -8 265.303 14.5205   1
  -1   2   8 265.824 14.3393   3
   1   2  -8 264.927 14.5652   3
  -1   2   8 260.281 14.2057   1
   1   2  -8 254.821 14.2393   2
   0  -2   8 12.7028 1.43592   3
   0  -2   8 15.2717 1.21992   2
   0   2   8 13.6658 1.28117   3
   0   2  -8 14.2889 1.43503   3
   0   2  -8 13.6949 1.21988   2
   0   2  -8 15.0002 1.45311   1
   0   2   8 14.1896 1.22799   1
   1  -2   8 3.94848 0.66542   2
   1  -2   8 4.48822 1.07069   3
  -1   2  -8 3.93393 0.78495   3
  -1   2  -8 3.57492 0.82864   1
   1   2   8 3.90748 0.69925   3
  -1   2  -8 4.74936 0.65605   2
   1   2   8 4.48747 0.72219   1
   2  -2   8 7.03973 0.83412   2
  -2   2  -8 7.01280 0.85373   2
  -2   2  -8 7.69880 1.11117   3
   2   2   8 6.94109 0.95905   1
   2   2   8 7.66637 0.98243   3
  -2   2  -8 6.49851 1.04709   1
   3  -2   8 471.757 23.9891   2
   3   2   8 489.480 24.4200   1
  -3   2  -8 412.949 25.0195   3
  -3   2  -8 436.212 23.9558   2
   3   2   8 453.660 24.4993   3
  -3   2  -8 467.127 24.4736   1
   4   2   8 742.957 40.4925   1
  -4   2  -8 732.929 38.5106   2
   5  -2   8 205.857 10.6807   2
  -5   2  -8 188.886 10.7346   2
   5   2   8 203.450 11.4660   1
  -5   2  -8 183.423 11.1572   1
   6  -2   8 3.34480 0.59216   2
   6   2   8 4.40365 0.99454   1
  -6   2  -8 4.25765 0.70078   2
  -6   2  -8 4.04810 0.91069   1
   7  -2   8 60.8099 3.68574   2
  -7   2  -8 64.1849 3.84321   2
   7   2   8 62.8571 4.50276   1
  -7   2  -8 61.1658 4.02009   1
   8   3  -8 80.1551 6.69891   1
  -8   3   8 88.4069 6.12206   1
  -7   3   8 94.8581 5.61274   1
   7   3  -8 87.2447 5.98476   1
   6   3  -8 91.4487 6.10392   1
  -6   3   8 95.8393 5.67852   1
  -5   3   8 37.4384 2.59889   1
   5   3  -8 34.5025 2.94936   1
   4   3  -8 637.974 33.1559   1
  -4   3   8 608.866 32.5931   1
   3   3  -8 153.779 8.94841   1
   2   3  -8 108.954 6.65498   1
   1   3  -8 72.8116 4.68616   1
   0   3   8 68.5847 4.27990   1
   0   3  -8 73.7982 4.62711   1
   1   3   8 225.500 12.6473   1
  -1   3  -8 240.607 13.0266   1
   2   3   8 456.088 24.6236   1
  -2   3  -8 471.050 24.8922   1
   3   3   8 2.72105 0.72396   1
  -3   3  -8 1.21750 0.61425   1
  -4   3  -8 0.55007 0.50315   1
   4   3   8 1.48148 0.58632   1
  -5   3  -8 267.281 15.3896   1
   5   3   8 291.971 15.6078   1
   3   4  -8 164.797 9.36345   1
   2   4  -8 29.1127 2.29226   1
   1   4  -8 454.310 24.1800   1
   0   4  -8 22.3631 1.92290   1
 -12   0   9 -0.0701 0.42304   2
  12   0  -9 0.26217 0.37892   2
  11   0  -9 1.15934 0.46331   2
 -11   0   9 -0.0098 0.40150   2
 -10   0   9 0.43907 0.58563   1
  10   0  -9 0.06555 0.42763   2
 -10   0   9 1.25244 0.59418   2
  -9   0   9 0.57316 0.63357   1
   9   0  -9 0.32486 0.58750   3
  -9   0   9 0.67943 0.99451   2
  -9   0   9 0.65342 0.97154   3
  -8   0   9 0.12576 0.38373   3
  -8   0   9 0.88301 0.57978   1
  -8   0   9 0.19816 0.39703   2
   8   0  -9 0.02843 0.39334   3
   8   0  -9 -0.2734 0.30947   2
   7   0  -9 1.75665 0.56821   2
  -6   0   9 0.44438 0.51503   1
   5   0  -9 1.14520 0.46709   2
  -5   0   9 1.47982 0.59505   3
  -5   0   9 0.44479 0.38542   2
   4   0  -9 0.36765 0.30169   2
  -4   0   9 0.48379 0.30537   2
   4   0  -9 1.04428 0.38980   1
   3   0  -9 3.45263 0.56801   3
   3   0  -9 -0.3170 5.31970   4
   2   0  -9 0.06056 0.27951   1
  -2   0   9 0.06648 0.31588   3
   2   0  -9 0.59229 0.29730   2
  -2   0   9 0.06157 0.23009   2
  -2   0   9 -1.5249 5.22202   4
   2   0  -9 0.70871 0.37394   3
  -2   0   9 0.47576 0.32120   1
   2   0  -9 1.64387 4.25557   4
  -1   0   9 0.53961 0.38948   3
  -1   0   9 0.31160 0.27912   2
  -1   0   9 0.33318 0.27464   1
   1   0  -9 0.44357 0.37953   1
   1   0  -9 0.52348 0.30586   2
   1   0  -9 0.15414 0.30159   3
  -1   0   9 1.27854 4.85453   4
   1   0  -9 -3.3480 3.90958   4
   0   0  -9 0.83597 0.36800   1
   0   0   9 0.15867 0.30241   1
   0   0   9 0.79238 0.45498   3
   0   0   9 0.50131 0.34112   2
   0   0  -9 1.80013 0.55960   3
   0   0  -9 0.17768 0.25312   2
  -1   0  -9 0.53649 0.32176   2
   1   0   9 0.29374 0.48679   2
   1   0   9 -0.1910 0.29687   3
  -1   0  -9 1.04644 0.43094   3
  -2   0  -9 0.06161 0.31270   2
   2   0   9 0.37655 0.38006   2
   2   0   9 0.52305 0.46334   1
   2   0   9 0.88246 0.75290   3
   3   0   9 0.25428 0.33463   2
  -3   0  -9 0.81240 0.39997   2
  -3   0  -9 0.86791 0.54708   3
   3   0   9 -0.0062 0.42105   3
   3   0   9 0.62944 0.53054   1
   4   0   9 1.73491 0.71016   1
   4   0   9 1.56025 0.48839   2
  -4   0  -9 0.64614 0.37805   2
   4   0   9 0.36120 0.53249   3
  -4   0  -9 0.87268 0.58744   3
  -5   0  -9 -0.4967 0.65380   3
  -5   0  -9 0.52355 0.49893   2
   5   0   9 -0.3858 0.56015   3
   5   0   9 0.13618 0.49289   1
   5   0   9 0.38526 0.38351   2
   6   0   9 2.39243 0.79194   1
  -7   0  -9 0.79887 0.39969   2
   7   0   9 0.14505 0.32142   2
   8   0   9 0.15349 0.35102   2
  -8   0  -9 0.79191 0.36880   2
 -11  -1   9 4.15915 0.93561   2
 -11   1   9 2.20508 0.64301   1
  11   1  -9 1.34907 0.55414   2
 -11   1   9 2.53117 0.72907   2
  10  -1  -9 175.293 9.47112   2
 -10  -1   9 158.888 9.74830   2
 -10   1   9 175.541 9.67650   1
  10   1  -9 166.975 9.69827   2
 -10   1   9 162.616 9.72718   2
  -9  -1   9 584.899 32.6360   2
   9  -1  -9 633.697 32.3257   2
  -9   1   9 640.967 32.6000   1
  -9   1   9 586.244 32.5637   2
   9   1  -9 621.183 32.5791   2
  -8  -1   9 10.7706 1.43852   3
   8  -1  -9 10.5907 1.21905   2
  -8  -1   9 10.1971 1.42957   2
   8   1  -9 11.6186 1.47420   1
   8   1  -9 10.5829 1.35195   2
  -8   1   9 10.5177 1.38836   1
  -8   1   9 9.36699 1.31724   3
   8   1  -9 10.5168 1.32343   3
  -8   1   9 11.0451 1.36591   2
  -7  -1   9 25.5222 2.16607   2
   7  -1  -9 27.5629 2.01217   2
  -7   1   9 25.7558 2.19737   1
   7   1  -9 24.4428 2.08286   3
   7   1  -9 25.4272 2.23716   1
  -7   1   9 25.7597 2.09431   2
  -7   1   9 24.3389 2.18367   3
   7   1  -9 24.6181 2.08830   2
  -6  -1   9 1831.14 98.8105   3
  -6   1   9 1966.29 98.1096   2
   5  -1  -9 31.5337 2.26452   3
   5  -1  -9 38.1955 2.26553   2
  -5  -1   9 34.7965 2.57591   3
  -5  -1   9 32.8247 2.35535   2
   5   1  -9 29.0825 3.04379   3
   5   1  -9 31.0137 2.45630   1
  -5   1   9 32.0690 2.38469   1
   5   1  -9 30.5218 2.28435   2
  -5   1   9 32.0398 2.43401   3
  -5   1   9 30.4984 2.24564   2
  -4  -1   9 164.505 8.85886   2
   4  -1  -9 172.365 8.70140   2
   4  -1  -9 158.473 8.81226   3
  -4  -1   9 167.618 9.16101   3
   4   1  -9 155.579 8.95344   3
   4   1  -9 144.876 9.22763   1
  -4   1   9 160.110 8.77809   2
  -4   1   9 149.566 8.82837   1
   4   1  -9 160.717 8.81949   2
  -4   1   9 162.591 9.01994   3
   3  -1  -9 170.350 8.99153   2
  -3  -1   9 155.576 9.24701   1
  -3  -1   9 176.004 9.16961   2
  -3  -1   9 169.487 9.45815   3
   3  -1  -9 162.654 9.09048   3
  -3   1   9 160.557 9.14269   1
  -3   1   9 169.860 9.33652   3
   3   1  -9 165.902 9.30359   2
   3   1  -9 164.176 9.29435   1
   3   1  -9 175.227 9.36253   3
  -3   1   9 162.256 9.06694   2
  -2  -1   9 7.94062 0.90516   2
  -2  -1   9 7.55402 0.95346   1
   2  -1  -9 8.10340 1.17534   2
   2  -1  -9 7.61281 0.84724   3
  -2   1   9 8.17259 0.92867   1
  -2   1   9 9.44103 1.04186   3
  -2   1   9 8.70626 0.85571   2
   2   1  -9 9.11593 1.02193   3
   2   1  -9 9.23914 1.03221   1
   1  -1  -9 326.535 17.9340   3
  -1  -1   9 339.552 18.3445   3
   1  -1  -9 338.976 17.7900   2
  -1  -1   9 311.702 18.0615   1
  -1  -1   9 366.936 17.9802   2
   1   1  -9 348.279 18.2656   3
  -1   1   9 337.627 18.0092   1
  -1   1   9 324.777 17.8478   2
   1   1  -9 342.066 18.1409   2
   1   1  -9 353.845 18.1460   1
   0  -1  -9 318.466 16.7494   2
   0  -1  -9 295.435 16.9108   3
   0  -1   9 281.241 17.0521   1
   0  -1   9 332.386 16.9234   2
   0   1   9 315.421 16.8359   2
   0   1  -9 337.912 16.9105   2
   0   1   9 343.147 17.3466   3
   0   1   9 326.174 17.0429   1
  -1  -1  -9 194.390 11.3822   3
   1  -1   9 222.137 11.3296   2
   1  -1   9 191.975 11.7239   3
  -1  -1  -9 204.633 11.1423   2
  -1   1  -9 228.207 11.3302   2
   1   1   9 200.280 11.2147   2
   1   1   9 216.372 11.5083   1
  -1   1  -9 206.405 11.6691   3
  -1   1  -9 214.307 11.5641   1
  -2  -1  -9 1390.28 70.1960   2
   2  -1   9 1269.04 70.9747   3
  -2   1  -9 1362.05 70.7986   3
   2   1   9 1411.57 70.9242   3
   2   1   9 1390.69 70.2848   2
  -2   1  -9 1336.20 70.6224   1
   3  -1   9 538.466 30.8178   3
   3  -1   9 579.928 30.0492   2
  -3  -1  -9 592.561 29.9378   2
  -3   1  -9 584.420 30.0297   2
  -3   1  -9 540.865 30.3426   1
  -3   1  -9 557.226 30.5663   3
   3   1   9 580.566 30.7474   3
   3   1   9 568.840 30.0041   2
   3   1   9 613.263 30.5274   1
   4  -1   9 16.7571 2.23379   3
  -4  -1  -9 21.3702 1.62074   2
   4  -1   9 22.2222 1.74880   2
  -4   1  -9 23.1429 1.75368   2
   4   1   9 20.1162 2.17070   3
  -4   1  -9 18.7351 1.94140   1
   4   1   9 22.1012 2.12199   1
   4   1   9 25.1505 1.81514   2
  -5  -1  -9 207.270 10.9912   2
   5  -1   9 202.314 11.1562   2
  -5   1  -9 208.871 11.1668   2
   5   1   9 191.512 11.7290   1
  -6  -1  -9 259.904 13.1205   2
   6  -1   9 253.364 13.2689   2
   6   1   9 220.874 13.8603   1
   6   1   9 242.527 13.2688   2
  -6   1  -9 242.119 13.2374   2
   7  -1   9 49.8364 3.22915   2
  -7  -1  -9 52.2568 3.17046   2
   7   1   9 49.5610 3.28551   2
  -7   1  -9 49.1486 3.22334   2
   7   1   9 49.3184 4.57060   1
 -10  -2   9 132.686 8.20129   2
 -10   2   9 159.319 9.52971   1
  10   2  -9 141.198 8.34208   2
  10   2  -9 134.103 8.32287   1
  -9  -2   9 59.8414 4.40205   2
   9   2  -9 65.2804 4.58451   1
   9   2  -9 69.7499 4.54882   2
  -9   2   9 70.8491 4.46501   1
  -8  -2   9 9.50189 1.38578   2
  -8   2   9 11.6951 1.42184   1
   8   2  -9 12.5468 1.44067   2
   8   2  -9 9.46346 1.45779   1
  -7  -2   9 154.731 8.70773   2
   7   2  -9 152.173 9.08192   1
  -7   2   9 160.990 8.77892   1
   7   2  -9 130.428 9.24050   2
  -6  -2   9 253.297 13.9036   2
   6   2  -9 260.183 13.9741   2
  -6   2   9 239.035 14.7405   3
   6   2  -9 256.635 14.3277   1
  -6   2   9 265.084 14.0288   1
   6   2  -9 252.952 14.1048   3
  -5  -2   9 2.23713 0.57241   2
  -5   2   9 1.30586 0.49132   3
   5   2  -9 1.97419 0.52479   2
   5   2  -9 1.98103 0.70837   1
   5   2  -9 1.28787 0.52919   3
  -4  -2   9 697.763 34.8542   2
   4   2  -9 666.262 34.8864   2
  -4   2   9 655.234 34.8793   1
   4   2  -9 683.771 35.1238   3
   4   2  -9 667.322 35.2338   1
  -4   2   9 630.414 34.9481   3
  -3  -2   9 2074.06 114.925   3
  -3   2   9 2372.70 114.743   3
  -2  -2   9 120.451 6.45369   2
  -2  -2   9 105.775 6.77137   3
   2   2  -9 115.858 6.49099   2
   2   2  -9 115.454 6.74246   3
   2   2  -9 114.866 6.74959   1
  -2   2   9 112.493 6.55407   3
  -2   2   9 112.077 6.44530   1
  -1  -2   9 202.619 10.3709   2
  -1  -2   9 174.532 10.7397   3
  -1   2   9 187.217 10.3851   1
   1   2  -9 197.645 10.6884   1
   1   2  -9 187.919 10.3651   2
   1   2  -9 195.409 10.7367   3
  -1   2   9 185.651 10.5044   3
   0  -2   9 1299.21 76.8713   3
   0   2   9 1550.41 76.6907   3
   0   2  -9 1535.38 76.4277   2
   0   2  -9 1530.40 76.8673   3
   1  -2   9 131.412 7.10391   2
  -1   2  -9 120.301 7.53557   3
  -1   2  -9 120.079 7.08591   2
  -1   2  -9 132.579 7.50708   1
   1   2   9 133.473 7.32168   1
   1   2   9 120.394 7.37546   3
   2  -2   9 22.2480 1.68546   2
  -2   2  -9 20.6864 2.05583   3
   2   2   9 22.1112 1.90983   1
  -2   2  -9 22.4676 2.02118   1
  -2   2  -9 19.6835 1.65460   2
   2   2   9 20.6382 2.28500   3
   3  -2   9 5.15077 0.83343   2
   3   2   9 4.75669 0.97813   1
  -3   2  -9 5.26248 0.83238   2
   4   2   9 147.531 8.41062   1
  -4   2  -9 131.654 8.19255   1
  -4   2  -9 133.985 7.76381   2
   5  -2   9 480.243 23.8784   2
   5   2   9 449.173 24.6585   1
  -5   2  -9 426.336 24.3192   1
  -5   2  -9 456.020 23.9582   2
   6  -2   9 29.2547 2.49101   2
  -6   2  -9 35.9959 2.44270   2
  -6   2  -9 36.3434 2.70215   1
   6   2   9 39.8515 3.55892   1
   8   3  -9 84.2643 5.66627   1
  -8   3   9 89.5877 5.39445   1
  -7   3   9 33.6376 2.54927   1
   7   3  -9 31.6035 2.80170   1
   6   3  -9 811.805 42.4179   1
  -6   3   9 788.748 41.9016   1
   5   3  -9 16.6847 1.85466   1
  -5   3   9 16.5278 1.54993   1
  -4   3   9 22.1519 1.82163   1
   4   3  -9 25.2650 2.22561   1
   3   3  -9 1.21878 0.56115   1
  -3   3   9 1.39330 0.43433   1
  -2   3   9 109.264 6.39078   1
   2   3  -9 115.979 6.84241   1
   1   3  -9 171.458 9.63577   1
  -1   3   9 162.794 9.21954   1
   0   3   9 170.892 9.78838   1
   0   3  -9 183.581 10.1790   1
   1   3   9 77.8924 4.91496   1
  -1   3  -9 83.8863 5.23938   1
  -2   3  -9 297.797 16.3569   1
   2   3   9 295.167 16.1563   1
  -3   3  -9 570.918 30.2533   1
   3   3   9 563.363 30.1603   1
   4   3   9 25.0537 2.20957   1
  -4   3  -9 23.2035 2.12148   1
 -11   0  10 1.84852 0.70344   2
  11   0 -10 0.16402 0.36297   2
 -10   0  10 606.336 33.1672   2
  10   0 -10 642.020 33.0156   2
  -9   0  10 3449.91 178.015   1
  -8   0  10 100.990 6.36299   3
  -8   0  10 102.488 6.25849   1
  -8   0  10 99.3181 6.14616   2
   8   0 -10 90.6184 6.02960   3
   8   0 -10 101.252 6.00137   2
  -7   0  10 285.143 15.7024   2
   7   0 -10 295.141 15.5955   2
   7   0 -10 268.634 15.6358   3
  -7   0  10 284.358 15.9553   3
  -7   0  10 302.104 15.9056   1
  -5   0  10 1573.71 81.3990   2
  -4   0  10 1240.14 62.9519   2
  -4   0  10 1189.28 63.0385   1
  -3   0  10 962.908 49.3622   3
  -3   0  10 913.904 49.0583   1
  -3   0  10 955.992 48.9657   2
   3   0 -10 908.393 49.0519   3
   3   0 -10 973.348 48.9090   2
   1   0 -10 663.111 33.9112   2
  -1   0  10 639.108 34.1321   1
   1   0 -10 633.651 34.1568   3
  -1   0  10 667.706 33.9659   2
  -1   0 -10 2299.90 118.825   3
   2   0  10 1013.21 53.6350   1
   2   0  10 1050.57 53.2501   2
  -2   0 -10 1049.32 53.1844   2
  -2   0 -10 989.543 53.6208   3
   3   0  10 707.058 39.2691   3
  -3   0 -10 749.281 38.4069   2
   3   0  10 719.241 38.9424   1
   3   0  10 781.730 38.4984   2
  -3   0 -10 723.924 38.9529   3
   4   0  10 37.9966 3.13028   1
   4   0  10 40.8499 2.74976   2
  -4   0 -10 38.1149 3.12636   3
   4   0  10 35.7923 3.39852   3
  -4   0 -10 42.3578 3.50276   2
  -5   0 -10 56.9971 3.54009   2
   5   0  10 49.9206 3.98766   1
   5   0  10 59.0021 3.65594   2
  -6   0 -10 102.744 5.92013   2
   6   0  10 101.564 5.98118   2
  -7   0 -10 2050.82 102.005   2
   7   0  10 1906.21 102.041   2
 -11  -1  10 88.7164 5.59998   2
  11  -1 -10 91.4451 5.24778   2
 -11   1  10 92.2633 5.65748   2
 -11   1  10 85.1568 5.43384   1
  11   1 -10 91.9768 5.56209   2
  10  -1 -10 275.169 13.6410   2
 -10  -1  10 235.951 13.9076   2
  10   1 -10 249.829 13.8614   2
 -10   1  10 237.455 13.8955   2
 -10   1  10 247.518 13.8140   1
  -9  -1  10 2.17604 0.81972   2
  -9   1  10 2.06595 0.72765   1
   9   1 -10 2.14566 0.74669   2
  -8  -1  10 34.9720 3.09710   3
  -8  -1  10 38.7223 3.02412   2
   8  -1 -10 42.7299 3.20427   2
   8   1 -10 36.6096 2.93171   1
  -8   1  10 37.9830 2.95802   2
   8   1 -10 40.5381 3.25664   2
  -8   1  10 41.2467 3.66765   1
   7  -1 -10 1219.69 60.1555   2
  -7  -1  10 1138.83 60.7327   3
   7   1 -10 1148.05 60.5034   1
  -7   1  10 1149.74 60.3800   2
   7   1 -10 1183.02 60.3780   2
   7   1 -10 1028.13 60.3870   3
  -7   1  10 1244.66 60.5715   1
  -6  -1  10 1473.03 74.8641   2
  -6  -1  10 1429.28 75.1763   3
   6  -1 -10 1452.31 74.5887   2
   6   1 -10 1466.97 75.0113   1
  -6   1  10 1407.95 74.7516   2
   6   1 -10 1427.31 74.9252   3
  -5  -1  10 758.052 39.3842   2
   5  -1 -10 784.501 39.1732   2
  -5  -1  10 716.965 39.6771   3
   5   1 -10 764.476 39.5619   1
  -5   1  10 727.589 39.2853   2
   5   1 -10 740.516 39.4962   3
  -5   1  10 759.678 39.6124   3
  -5   1  10 768.029 39.4763   1
   5   1 -10 752.541 39.3287   2
  -4  -1  10 29.5592 2.08297   2
   4  -1 -10 26.8358 1.86182   2
   4   1 -10 26.0005 2.09182   3
   4   1 -10 26.7841 2.00690   2
  -4   1  10 25.7002 2.14302   3
  -4   1  10 25.3376 2.04870   1
   4   1 -10 24.8734 2.09595   1
  -2  -1  10 143.882 8.65330   3
   2  -1 -10 154.615 8.12250   2
  -2  -1  10 156.685 8.30889   2
   2   1 -10 133.794 8.75788   3
   2   1 -10 152.400 8.28598   2
  -2   1  10 144.411 8.18659   2
   2   1 -10 146.745 8.43690   1
  -2   1  10 158.616 8.65211   3
  -2   1  10 149.133 8.37090   1
   1  -1 -10 111.475 6.09664   2
  -1  -1  10 112.085 6.27516   2
  -1  -1  10 102.367 6.64362   3
  -1   1  10 109.236 6.37664   1
  -1   1  10 106.737 6.17627   2
  -1   1  10 116.076 6.67163   3
   1   1 -10 109.147 6.43940   1
   1   1 -10 108.312 6.23819   2
   1   1 -10 111.693 6.59972   3
   0  -1 -10 62.8704 3.74419   2
   0  -1  10 69.1868 3.95442   2
   0  -1  10 55.2091 4.66703   3
   0   1  10 57.8992 4.15599   2
   0   1  10 67.1334 4.32391   3
   0   1 -10 67.1439 3.90405   2
   0   1  10 64.0321 4.06987   1
   0   1 -10 63.7546 4.10778   1
   0   1 -10 66.5422 4.26535   3
   1   1  10 2589.51 129.811   2
  -1   1 -10 2453.61 130.297   3
   2  -1  10 132.521 7.30285   2
  -2  -1 -10 134.853 7.16381   2
   2  -1  10 118.547 7.90096   3
  -2   1 -10 121.401 7.70957   3
   2   1  10 136.831 7.67586   1
   2   1  10 124.947 7.21487   2
   2   1  10 133.496 7.94391   3
  -2   1 -10 118.276 7.51388   1
  -2   1 -10 135.062 7.29106   2
   3  -1  10 790.600 38.0632   2
   3  -1  10 651.747 39.0594   3
  -3  -1 -10 773.744 37.8803   2
  -3   1 -10 759.518 37.9939   2
   3   1  10 768.038 38.5583   1
  -3   1 -10 666.253 38.2471   1
  -3   1 -10 685.737 38.5759   3
   3   1  10 721.973 37.9851   2
   3   1  10 724.314 38.8308   3
  -4  -1 -10 2086.90 104.205   2
   4   1  10 1947.21 104.428   2
   4   1  10 2032.52 105.014   1
   5  -1  10 30.9460 2.27041   2
  -5  -1 -10 31.8797 2.12405   2
   5   1  10 27.0431 2.63966   1
  -5   1 -10 31.6901 2.26327   2
   6  -1  10 28.2702 2.05952   2
  -6  -1 -10 29.5057 1.93277   2
   6   1  10 24.0919 2.49293   1
  -6   1 -10 28.3767 2.05771   2
  -7  -1 -10 74.3835 4.20564   2
  -7   1 -10 75.2939 4.41879   2
   7   1  10 69.3654 4.90436   1
   7   1  10 75.8453 4.46290   2
 -10  -2  10 322.802 18.5923   2
  10   2 -10 341.199 18.7851   2
 -10   2  10 372.230 18.7436   1
  -9  -2  10 641.398 37.5970   2
   9   2 -10 683.257 38.0467   2
   9   2 -10 712.137 38.0991   1
  -9   2  10 819.295 37.8376   1
  -8  -2  10 197.768 11.8763   2
   8   2 -10 207.857 12.1161   1
  -8   2  10 229.966 12.0476   1
   8   2 -10 211.168 11.9547   2
  -7  -2  10 8.81135 1.20009   2
   7   2 -10 8.50154 1.35334   1
   7   2 -10 8.48597 1.24495   2
  -7   2  10 9.81146 1.32274   1
  -5  -2  10 1.32895 0.48553   2
  -5   2  10 3.02018 0.71878   1
  -5   2  10 1.28685 0.56407   3
   5   2 -10 2.10607 0.61167   3
   5   2 -10 1.95870 0.68433   1
  -4  -2  10 772.782 40.1184   2
  -4   2  10 781.765 40.2372   1
   4   2 -10 759.581 40.1661   2
  -4   2  10 743.851 40.3083   3
   4   2 -10 786.568 40.5401   1
  -3  -2  10 1163.79 58.8317   2
  -3   2  10 1121.56 59.0236   3
   3   2 -10 1126.74 58.8713   2
   3   2 -10 1166.49 59.2133   1
  -3   2  10 1142.26 58.9059   1
   3   2 -10 1086.53 59.1354   3
  -2  -2  10 330.025 17.3362   2
   2   2 -10 309.205 17.6653   3
   2   2 -10 323.613 17.3747   2
   2   2 -10 340.705 17.7174   1
  -2   2  10 327.951 17.4295   1
  -2   2  10 319.963 17.5416   3
  -1  -2  10 103.190 5.63014   2
  -1   2  10 98.7076 5.73763   1
   1   2 -10 101.485 5.96263   1
   1   2 -10 90.7999 5.92333   3
  -1   2  10 93.7899 5.82103   3
   1   2 -10 92.4311 5.60322   2
   0  -2  10 350.278 18.2870   2
   0   2 -10 332.473 18.7750   3
   0   2  10 320.066 18.5942   3
   0   2 -10 346.691 18.3301   2
   0   2  10 359.258 18.5110   1
   0   2 -10 354.328 18.6965   1
   1  -2  10 305.067 15.8084   2
  -1   2 -10 262.428 16.2715   3
   1   2  10 292.368 16.2631   3
   1   2  10 297.753 16.1543   1
  -1   2 -10 295.598 15.8197   2
  -1   2 -10 317.288 16.2930   1
   2  -2  10 84.4035 5.03126   2
  -2   2 -10 84.6485 5.06455   2
  -2   2 -10 86.2215 5.48021   1
   2   2  10 86.0616 5.40035   1
   3  -2  10 3.39621 0.65874   2
  -3   2 -10 3.85497 0.70029   2
  -3   2 -10 2.87505 0.82258   1
   3   2  10 3.40159 0.89180   1
   4   2  10 0.45628 0.47340   1
  -4   2 -10 1.12374 0.42559   2
  -4   2 -10 0.76797 0.57749   1
   5  -2  10 0.12231 0.31393   2
   5   2  10 0.02133 0.38540   1
  -5   2 -10 -0.0371 0.36298   2
  -7   3  10 97.9978 5.94919   1
   7   3 -10 98.4737 6.26417   1
   6   3 -10 325.075 17.7154   1
  -6   3  10 314.418 17.2931   1
  -5   3  10 440.982 24.0207   1
   5   3 -10 463.854 24.4784   1
  -4   3  10 4.20114 0.78031   1
   4   3 -10 2.96935 0.81555   1
   3   3 -10 25.5405 2.26913   1
  -3   3  10 25.8467 1.98825   1
  -2   3  10 499.017 27.3414   1
   2   3 -10 540.313 27.7718   1
   1   3 -10 38.9152 3.03177   1
  -1   3  10 41.8868 2.80540   1
   0   3  10 257.111 14.1154   1
   0   3 -10 261.710 14.4129   1
  -1   3 -10 20.1129 1.91576   1
   1   3  10 18.2987 1.70311   1
  -2   3 -10 16.0169 1.92636   1
   2   3  10 14.0492 1.89315   1
   3   3  10 201.512 11.2947   1
  -3   3 -10 196.159 11.2774   1
 -11   0  11 0.22553 0.46180   2
  11   0 -11 0.47334 0.43055   2
 -10   0  11 0.50548 0.46970   2
  10   0 -11 0.12645 0.39977   2
  -9   0  11 0.58041 0.57978   2
   9   0 -11 0.40595 0.44543   2
  -9   0  11 -0.1883 0.54346   1
  -8   0  11 0.62799 0.99669   1
   8   0 -11 0.72936 0.46420   2
  -8   0  11 0.81935 0.49068   2
  -7   0  11 0.46280 0.50962   3
   7   0 -11 0.93381 0.47810   2
   7   0 -11 0.24610 0.52265   3
  -7   0  11 2.24411 0.68302   1
  -6   0  11 0.41707 0.42587   3
   6   0 -11 0.63811 0.45914   2
   6   0 -11 0.01725 0.47791   3
  -6   0  11 0.12720 0.42661   1
  -6   0  11 1.83444 0.58963   2
  -5   0  11 0.60119 0.45208   2
  -5   0  11 0.84120 0.53183   1
  -5   0  11 2.02298 0.70479   3
   5   0 -11 0.29753 0.37419   3
   5   0 -11 0.83150 0.44729   2
   4   0 -11 0.73405 0.42297   3
   4   0 -11 0.49266 0.36989   2
  -4   0  11 0.07586 0.34950   1
  -4   0  11 0.39751 0.41658   2
  -4   0  11 0.25098 0.41744   3
  -3   0  11 0.74166 0.46515   3
   3   0 -11 0.33049 0.30357   2
  -3   0  11 0.38796 0.37360   2
   3   0 -11 0.69129 0.35874   3
  -2   0  11 0.06645 0.32682   2
  -2   0  11 0.77774 0.54663   3
   2   0 -11 0.62264 0.35571   3
   1   0 -11 0.68672 0.37453   2
  -1   0  11 1.13141 0.54659   3
  -1   0  11 0.86094 0.42856   2
   1   0 -11 0.20643 0.34323   3
   0   0  11 0.31772 0.36268   3
   0   0 -11 0.30562 0.43478   3
   0   0  11 0.34085 0.33293   2
   0   0 -11 0.33792 0.30486   2
  -1   0 -11 1.74950 0.51395   2
   2   0  11 2.94632 1.51013   3
  -2   0 -11 4.24619 0.88745   3
   3   0  11 0.33862 0.53050   1
  -3   0 -11 1.30227 0.45100   2
  -3   0 -11 2.69775 1.02425   3
   3   0  11 1.31063 0.71009   2
  -4   0 -11 0.32868 0.41180   2
   4   0  11 0.48996 0.40108   2
   4   0  11 -0.2143 0.54745   1
  -5   0 -11 0.26918 0.27807   2
   5   0  11 1.61894 1.12554   1
   5   0  11 0.20653 0.33836   2
  -6   0 -11 0.17058 0.36026   2
   6   0  11 0.31892 0.38305   2
 -10  -1  11 87.3145 5.79121   2
  10  -1 -11 94.2259 5.48120   2
 -10   1  11 92.5978 5.81685   2
  10   1 -11 93.0002 5.74527   2
  -9  -1  11 14.7765 1.69369   2
   9  -1 -11 14.0060 1.34967   2
  -9   1  11 12.4721 1.57934   2
  -9   1  11 13.7080 1.60567   1
   9   1 -11 13.8291 1.56839   2
  -8  -1  11 211.756 12.3661   2
   8  -1 -11 227.697 12.0418   2
  -8   1  11 210.257 12.3105   2
   8   1 -11 221.475 12.3185   2
  -8   1  11 224.510 12.4552   1
  -7  -1  11 55.1921 3.99565   2
  -7  -1  11 55.3905 4.22580   3
   7   1 -11 67.7967 5.19018   2
  -7   1  11 57.9087 3.95417   2
   6  -1 -11 12.1846 1.17404   2
  -6  -1  11 11.3781 1.46266   3
  -6  -1  11 14.3263 1.47610   2
  -6   1  11 12.4997 1.47983   3
  -6   1  11 10.9766 1.41342   1
   6   1 -11 9.73066 1.22372   2
   6   1 -11 10.8452 1.41862   1
  -6   1  11 10.0398 1.23460   2
  -5  -1  11 639.217 35.0830   3
  -5  -1  11 671.841 34.6907   2
   5  -1 -11 676.570 34.4548   2
   5   1 -11 663.566 34.8290   1
  -5   1  11 652.414 34.9658   3
  -5   1  11 667.751 34.8119   1
   5   1 -11 635.619 34.8344   3
  -5   1  11 643.932 34.6065   2
   5   1 -11 686.223 34.6585   2
  -4  -1  11 401.600 20.6136   2
   4  -1 -11 401.189 20.3878   2
  -4  -1  11 376.654 20.9945   3
   4   1 -11 379.834 20.5341   2
   4   1 -11 379.146 20.7978   3
   4   1 -11 401.942 20.7744   1
  -4   1  11 367.524 20.4819   2
  -4   1  11 373.072 20.8553   3
  -4   1  11 393.098 20.7127   1
   3  -1 -11 15.8071 1.24285   2
  -3  -1  11 13.2101 1.52397   3
  -3  -1  11 16.6369 1.44201   2
   3   1 -11 14.9579 1.49108   3
  -3   1  11 14.0358 1.29349   2
   3   1 -11 12.7080 1.43712   1
   3   1 -11 12.6037 1.30614   2
  -3   1  11 15.1385 1.57263   3
  -3   1  11 15.1317 1.48383   1
  -2  -1  11 290.953 15.2814   2
   2  -1 -11 295.585 15.0888   2
  -2  -1  11 276.697 15.7338   3
  -2   1  11 295.283 15.7192   3
   2   1 -11 292.332 15.2656   2
  -2   1  11 277.433 15.1750   2
  -2   1  11 275.663 15.3893   1
   2   1 -11 269.136 15.5260   3
   2   1 -11 279.804 15.4348   1
   1  -1 -11 794.958 39.4941   2
  -1  -1  11 777.865 39.6981   2
  -1  -1  11 710.501 40.1892   3
   1   1 -11 783.231 39.6635   2
  -1   1  11 722.613 39.5799   2
   1   1 -11 753.203 39.8871   1
  -1   1  11 777.594 39.8981   1
  -1   1  11 793.793 40.2485   3
   1   1 -11 728.605 40.0240   3
   0  -1 -11 1.04940 0.39650   2
   0   1 -11 0.31983 0.36975   2
   0   1  11 1.37794 0.56729   1
   0   1  11 1.43912 0.61899   3
   0   1 -11 2.58911 0.71678   1
   1  -1  11 178.553 9.56194   2
   1  -1  11 156.628 10.1423   3
  -1  -1 -11 172.919 9.34905   2
  -1   1 -11 169.909 10.0248   3
  -1   1 -11 152.803 9.71024   1
   1   1  11 175.940 9.51709   2
  -1   1 -11 183.785 9.53657   2
   1   1  11 181.837 9.91490   1
   2  -1  11 25.4463 2.47672   2
   2  -1  11 20.8282 2.47498   3
  -2  -1 -11 28.1190 1.88767   2
   2   1  11 23.5726 2.76358   3
  -2   1 -11 22.8378 2.31202   3
   2   1  11 27.8198 2.47361   1
   2   1  11 27.2290 1.99942   2
  -2   1 -11 27.6247 2.01689   2
  -3  -1 -11 6.29604 0.79797   2
   3   1  11 5.40219 0.86236   2
  -3   1 -11 6.10238 0.90018   2
   3   1  11 6.66788 1.18304   1
  -4  -1 -11 74.0991 4.27756   2
   4  -1  11 75.1131 4.51256   2
   4   1  11 71.5349 4.47536   2
   4   1  11 70.1465 4.99598   1
  -4   1 -11 71.3951 4.44649   2
  -5  -1 -11 0.89593 0.34516   2
   5   1  11 0.71163 0.55026   1
  -5   1 -11 0.57872 0.38338   2
  -6  -1 -11 4.15109 0.57648   2
   6   1  11 2.16409 0.81850   1
   6   1  11 4.00913 0.67901   2
  -6   1 -11 3.17367 0.66572   2
  -9  -2  11 31.4119 2.62102   2
   9   2 -11 33.9675 2.75363   2
  -9   2  11 40.0735 2.95221   1
   9   2 -11 36.8692 2.87148   1
  -8  -2  11 100.293 6.42323   2
  -8   2  11 112.261 6.61497   1
   8   2 -11 106.620 6.51554   2
   8   2 -11 107.942 6.66342   1
  -7  -2  11 1201.24 63.9694   2
   7   2 -11 1245.12 64.3173   1
   7   2 -11 1191.36 64.0056   2
  -7   2  11 1281.12 64.1870   1
  -6  -2  11 47.7215 3.42273   2
   6   2 -11 51.6119 3.52209   2
  -6   2  11 53.0382 3.65198   1
   6   2 -11 53.0832 3.79795   1
  -5  -2  11 7.07254 1.00395   2
   5   2 -11 8.45843 1.29228   1
  -5   2  11 9.00258 1.18482   1
   5   2 -11 9.13639 1.09798   2
  -4  -2  11 289.255 15.3332   2
   4   2 -11 275.079 16.9256   1
  -4   2  11 297.476 15.5009   1
   4   2 -11 271.915 16.2277   2
  -3   2  11 38.8917 3.01837   3
   3   2 -11 41.9971 2.85141   2
   3   2 -11 42.6308 3.42011   1
  -2  -2  11 237.880 15.0627   2
  -2   2  11 255.715 14.5360   3
   2   2 -11 277.223 14.3089   2
   2   2 -11 282.929 14.8897   1
  -1  -2  11 12.7634 1.29803   2
  -1   2  11 16.5454 1.56784   1
   1   2 -11 13.5567 1.32444   2
   0  -2  11 195.699 10.6968   2
   0   2 -11 190.245 10.7199   2
   0   2 -11 195.529 11.0898   1
   0   2  11 199.221 10.9867   1
   1  -2  11 1096.35 58.0575   2
  -1   2 -11 1096.45 58.1027   2
  -1   2 -11 1119.75 58.5322   1
   1   2  11 1167.47 58.4954   1
   2  -2  11 641.708 33.5370   2
  -2   2 -11 623.226 33.5634   2
  -2   2 -11 652.081 34.3027   1
   2   2  11 647.434 34.0353   1
   3  -2  11 52.6012 3.31800   2
   3   2  11 56.0520 3.87462   1
  -3   2 -11 47.0195 3.63010   1
  -3   2 -11 52.6882 3.36006   2
   4  -2  11 230.135 12.6145   2
  -4   2 -11 225.806 12.3299   2
   4   2  11 242.189 13.4373   1
  -4   2 -11 209.726 12.5970   1
  -6   3  11 248.957 13.8528   1
   6   3 -11 256.280 14.1715   1
   5   3 -11 435.560 24.4554   1
   4   3 -11 708.261 36.2722   1
  -4   3  11 660.652 35.8786   1
  -3   3  11 284.744 15.4656   1
   3   3 -11 287.215 15.7746   1
  -2   3  11 155.140 8.86495   1
   2   3 -11 159.924 9.17347   1
  -1   3  11 503.164 27.2329   1
   1   3 -11 527.629 27.5409   1
   0   3  11 42.5353 3.63795   1
   0   3 -11 42.4833 3.46479   1
  -1   3 -11 53.1733 3.76708   1
   1   3  11 56.2938 3.70578   1
   2   3  11 168.347 9.47493   1
  -2   3 -11 161.274 9.48361   1
  10   0 -12 16.5863 1.64021   2
 -10   0  12 13.9135 2.14770   2
   9   0 -12 601.661 31.1765   2
  -9   0  12 577.582 31.3876   2
   8   0 -12 262.866 14.4607   2
  -8   0  12 257.285 14.6598   2
  -8   0  12 271.855 14.8332   1
  -7   0  12 280.572 15.5347   2
   7   0 -12 283.856 15.3583   2
   6   0 -12 1335.08 79.1385   3
   6   0 -12 1588.72 78.5965   2
  -6   0  12 1598.67 78.7690   2
  -6   0  12 1545.62 79.2028   3
   5   0 -12 244.931 14.1228   3
  -5   0  12 247.835 14.0177   2
  -5   0  12 262.437 14.2733   1
   5   0 -12 271.398 13.9676   2
  -4   0  12 1519.05 77.0507   2
  -4   0  12 1516.50 77.6022   3
  -4   0  12 1503.85 77.2595   1
   4   0 -12 1410.28 77.1548   3
   3   0 -12 259.041 15.2236   3
  -3   0  12 275.189 15.2884   1
  -3   0  12 273.682 15.6062   3
   3   0 -12 299.559 15.0516   2
  -3   0  12 288.289 15.1041   2
   2   0 -12 106.146 6.91602   3
  -2   0  12 115.687 6.96256   1
   2   0 -12 126.557 6.71435   2
  -2   0  12 119.165 6.76729   2
  -2   0  12 118.807 7.33111   3
  -1   0  12 385.966 20.8600   3
   1   0 -12 392.440 20.0783   2
  -1   0  12 394.661 20.1633   2
   1   0 -12 336.656 20.3208   3
  -1   0  12 381.034 20.4253   1
   0   0  12 2084.28 107.903   3
   0   0  12 2126.32 106.982   1
   0   0 -12 1986.86 106.935   3
   1   0  12 33.2295 2.36908   2
   1   0  12 31.6816 2.66276   1
  -1   0 -12 35.4568 2.67263   2
   1   0  12 29.6263 2.76248   3
   2   0  12 52.3799 3.92260   1
  -2   0 -12 58.5744 3.51476   2
   2   0  12 53.5199 3.53452   2
   3   0  12 2323.96 112.575   2
   3   0  12 2037.66 113.023   1
  -4   0 -12 94.4450 5.57232   2
   4   0  12 96.8665 5.69514   2
  -5   0 -12 19.5908 1.69666   2
  10  -1 -12 1247.78 64.6273   2
 -10   1  12 1232.84 65.1955   2
 -10   1  12 1267.23 65.0801   1
  10   1 -12 1252.66 65.0157   2
   9  -1 -12 233.367 13.2543   2
  -9  -1  12 231.317 13.6991   2
  -9   1  12 259.507 13.7918   1
  -9   1  12 260.755 14.4007   2
   9   1 -12 245.584 13.6203   2
   8  -1 -12 1.53735 0.46449   2
  -8  -1  12 2.41012 0.76225   2
  -8   1  12 1.22126 0.57448   1
  -8   1  12 0.23413 0.58657   2
   8   1 -12 1.64718 0.62197   2
  -7  -1  12 333.049 18.7702   2
   7  -1 -12 355.261 18.4664   2
   7   1 -12 337.408 18.6886   2
  -7   1  12 325.009 18.7316   2
  -7   1  12 378.018 19.0472   1
   6  -1 -12 829.188 41.9374   2
  -6  -1  12 776.113 42.1844   2
  -6   1  12 827.399 42.4230   1
   6   1 -12 785.158 42.1242   2
   5  -1 -12 284.576 14.8451   2
  -5  -1  12 277.657 15.1446   2
  -5  -1  12 253.148 15.5109   3
  -5   1  12 294.158 15.3375   1
   5   1 -12 283.553 15.0600   2
   5   1 -12 271.990 15.3231   3
  -5   1  12 273.044 15.5415   3
  -5   1  12 275.333 15.0574   2
  -4  -1  12 614.594 30.9715   2
  -4  -1  12 530.292 31.9481   3
   4  -1 -12 624.128 30.7249   2
  -4   1  12 588.086 31.3633   3
   4   1 -12 565.041 31.2206   3
   4   1 -12 595.191 30.9242   2
  -4   1  12 578.301 30.8882   2
  -4   1  12 600.055 31.1410   1
  -3  -1  12 2218.69 119.018   3
  -3   1  12 2265.56 118.922   3
   3   1 -12 2356.46 118.677   1
  -3   1  12 2345.42 118.437   2
  -2  -1  12 7.99694 1.05746   2
  -2  -1  12 8.31653 1.26997   3
   2  -1 -12 7.46705 0.86095   2
   2   1 -12 9.57808 1.07238   2
  -2   1  12 7.68206 1.01262   2
  -2   1  12 9.05853 1.18974   1
   2   1 -12 7.54409 1.16166   1
  -2   1  12 9.23567 1.21335   3
  -1  -1  12 243.660 17.0065   3
   1  -1 -12 284.538 14.7561   2
  -1  -1  12 297.594 15.0323   2
  -1   1  12 282.003 15.2397   1
   1   1 -12 283.504 14.9450   2
  -1   1  12 278.298 14.9386   2
   1   1 -12 254.667 15.2968   3
  -1   1  12 286.269 15.6167   3
   0  -1 -12 1313.75 63.3967   2
   0  -1  12 1120.73 64.3109   3
   0   1 -12 1187.72 64.0853   3
   0   1 -12 1210.09 63.8598   2
   0   1  12 1307.23 64.7981   1
   0   1  12 1215.11 63.5388   2
  -1  -1 -12 411.358 22.0838   2
   1  -1  12 414.883 22.3068   2
  -1   1 -12 426.970 22.2837   2
   1   1  12 427.643 22.7289   1
   1   1  12 419.176 22.9004   2
  -2  -1 -12 66.9702 4.18052   2
   2  -1  12 73.2757 4.42553   2
  -2   1 -12 69.7180 4.35375   2
   2   1  12 73.3264 4.40151   2
   2   1  12 72.8728 4.85293   1
  -3  -1 -12 20.7787 1.52347   2
   3  -1  12 20.1097 1.71544   2
   3   1  12 17.3787 2.02116   1
  -3   1 -12 21.4979 1.69843   2
   3   1  12 19.5099 1.69622   2
   4  -1  12 1.12285 0.39419   2
  -4  -1 -12 1.27328 0.37671   2
   4   1  12 0.89282 0.49420   2
  -4   1 -12 0.69487 0.36757   2
   4   1  12 1.55962 0.65780   1
  -5  -1 -12 69.7249 3.88060   2
   5   1  12 69.1232 4.16159   2
  -5   1 -12 70.3624 4.12883   2
   5   1  12 61.7738 4.59314   1
  -8  -2  12 413.785 22.7341   2
   8   2 -12 409.867 22.1860   2
   8   2 -12 416.240 22.3081   1
  -7  -2  12 772.877 42.4867   2
   7   2 -12 814.899 42.7761   1
  -7   2  12 877.771 42.8128   1
   7   2 -12 779.890 42.5323   2
  -6  -2  12 812.249 45.0656   2
   6   2 -12 809.417 45.1116   2
   6   2 -12 890.085 45.4745   1
  -6   2  12 940.652 45.4294   1
  -5  -2  12 61.8440 3.85637   2
   5   2 -12 48.1774 4.47453   1
  -5   2  12 64.9354 4.08821   1
   5   2 -12 60.8221 3.89930   2
  -4  -2  12 267.560 14.4674   2
   4   2 -12 266.369 14.7997   1
  -4   2  12 272.819 14.6953   1
   4   2 -12 260.920 14.5050   2
  -3  -2  12 341.430 18.3877   2
   3   2 -12 336.280 18.4225   2
   3   2 -12 346.282 18.7501   1
  -3   2  12 352.520 18.6350   1
  -2  -2  12 48.6422 3.15093   2
   2   2 -12 46.7741 3.43169   1
   2   2 -12 46.1169 3.15513   2
  -2   2  12 49.7392 3.38358   1
  -1  -2  12 88.3087 5.30334   2
   1   2 -12 86.3794 5.33551   2
  -1   2  12 98.8719 5.66532   1
   1   2 -12 87.1611 5.63534   1
   0  -2  12 781.421 40.8080   2
   0   2 -12 775.805 40.8530   2
   0   2  12 824.340 41.2396   1
   0   2 -12 750.126 41.1932   1
   1  -2  12 284.657 15.6828   2
  -1   2 -12 293.803 15.7469   2
  -1   2 -12 289.997 16.1296   1
   1   2  12 303.240 16.1730   1
   2  -2  12 92.7323 5.41994   2
  -2   2 -12 94.1332 6.85938   1
   2   2  12 95.5736 5.93895   1
  -2   2 -12 89.8719 5.44975   2
   3  -2  12 717.595 36.3517   2
  -3   2 -12 634.140 36.6805   1
   3   2  12 721.653 37.1995   1
  -3   2 -12 715.710 36.4515   2
   5   3 -12 116.288 7.10309   1
  -5   3  12 119.842 6.93285   1
  -4   3  12 650.799 34.2669   1
   4   3 -12 652.881 34.5077   1
  -3   3  12 102.507 6.15432   1
   3   3 -12 106.274 6.38991   1
   2   3 -12 67.6116 4.40727   1
  -2   3  12 65.7752 4.20427   1
   1   3 -12 30.6523 2.47532   1
  -1   3  12 29.4842 2.29495   1
   0   3 -12 57.2042 3.95676   1
   0   3  12 60.3676 3.87737   1
 -10   0  13 0.46402 0.54840   2
  10   0 -13 1.89127 0.55771   2
  -9   0  13 2.67443 0.83532   2
   8   0 -13 1.45241 0.56479   2
  -8   0  13 1.80726 0.70270   2
  -7   0  13 0.05366 0.42500   2
   6   0 -13 0.26296 0.38129   2
  -6   0  13 -0.2275 0.47239   1
  -6   0  13 0.48800 0.45288   2
  -5   0  13 0.00040 0.43013   2
   5   0 -13 0.22728 0.32435   2
  -4   0  13 -0.1873 0.37546   1
   4   0 -13 0.91928 0.73587   3
   4   0 -13 0.52067 0.39586   2
  -3   0  13 0.45864 0.42963   1
  -3   0  13 0.66160 0.42766   2
   3   0 -13 2.08251 0.91506   3
  -2   0  13 0.06245 0.35518   2
   2   0 -13 1.24438 0.61941   2
   2   0 -13 0.62687 0.72203   3
  -2   0  13 0.97881 0.56829   1
   1   0 -13 1.29701 0.99535   3
  -1   0  13 1.66039 0.97050   1
   1   0  13 0.51201 0.34521   2
  -1   0 -13 0.75402 0.37765   2
   1   0  13 0.16243 0.57171   1
   2   0  13 0.28224 0.40961   2
   2   0  13 -0.7733 0.57882   1
  -2   0 -13 0.43275 0.33633   2
  -3   0 -13 0.53801 0.33439   2
   3   0  13 0.20711 0.32759   2
  -4   0 -13 0.18934 0.26699   2
   4   0  13 0.00210 0.26407   2
  -9  -1  13 230.388 13.1115   2
   9  -1 -13 228.347 12.6372   2
  -9   1  13 232.831 13.1436   2
  -9   1  13 242.517 13.2017   1
   9   1 -13 244.517 13.0540   2
   8  -1 -13 78.2767 4.73394   2
  -8  -1  13 77.7025 5.11010   2
   8   1 -13 80.5883 5.04739   2
  -8   1  13 85.4106 5.29462   1
  -8   1  13 79.4387 5.86989   2
   7  -1 -13 113.746 6.64570   2
  -7  -1  13 117.329 7.03220   2
  -7   1  13 122.774 7.24094   1
   7   1 -13 121.215 6.96465   2
  -7   1  13 110.032 6.96621   2
   6  -1 -13 23.5193 1.87723   2
  -6  -1  13 25.4447 2.18179   2
  -6   1  13 26.7940 2.35219   1
  -6   1  13 25.4081 2.13629   2
   6   1 -13 25.5241 2.10786   2
   5  -1 -13 120.574 6.79016   2
  -5  -1  13 121.614 7.08149   2
   5   1 -13 117.913 7.02587   2
  -5   1  13 123.173 7.32284   1
  -5   1  13 118.985 7.04322   2
   4  -1 -13 14.0459 1.26867   2
  -4  -1  13 13.9834 1.47134   2
   4   1 -13 15.6646 1.48446   2
  -4   1  13 14.3616 1.61928   1
  -4   1  13 14.7612 1.45292   2
  -3  -1  13 42.1550 3.09603   2
   3  -1 -13 47.7933 2.91590   2
  -3   1  13 43.7279 3.17464   2
   3   1 -13 49.7539 3.14826   2
  -3   1  13 44.7228 3.32295   1
   2  -1 -13 44.2875 2.86408   2
  -2  -1  13 43.9410 3.09310   2
   2   1 -13 46.1873 3.07297   2
  -2   1  13 46.4276 3.10250   2
  -2   1  13 47.2922 3.34862   1
   1  -1 -13 1.34105 0.41417   2
  -1  -1  13 0.94171 0.44781   2
   1   1 -13 1.68827 0.52990   2
  -1   1  13 1.05069 0.51968   1
   0  -1 -13 155.654 8.62354   2
   0  -1  13 153.976 8.86398   2
   0   1  13 163.235 9.27509   1
   0   1 -13 163.326 8.85158   2
   0   1  13 152.281 8.82726   2
   1  -1  13 283.101 14.7310   2
  -1  -1 -13 258.676 14.4271   2
   1   1  13 281.480 15.1929   1
  -1   1 -13 277.440 14.6626   2
   1   1  13 256.277 14.6306   2
  -2  -1 -13 3.82766 0.61201   2
   2  -1  13 5.09908 0.81071   2
   2   1  13 3.49356 0.90943   1
   2   1  13 3.88834 0.76585   2
  -2   1 -13 4.43406 0.76130   2
  -3  -1 -13 77.2551 4.33536   2
   3  -1  13 80.1087 4.80738   2
  -3   1 -13 84.2223 4.96398   2
   3   1  13 72.1869 4.57646   2
   3   1  13 66.3150 5.13860   1
  -4  -1 -13 158.989 8.42648   2
   4  -1  13 163.739 8.77235   2
  -4   1 -13 164.694 8.75201   2
   4   1  13 142.797 9.22346   1
  -7  -2  13 108.150 6.82621   2
   7   2 -13 116.814 7.07238   1
  -7   2  13 126.750 7.23054   1
   7   2 -13 118.900 6.94839   2
  -6  -2  13 872.003 47.2483   2
   6   2 -13 887.758 48.4363   2
   6   2 -13 922.462 47.5686   1
  -6   2  13 940.358 47.5698   1
  -5  -2  13 177.834 10.2889   2
   5   2 -13 178.572 10.3363   2
  -5   2  13 193.258 10.6176   1
   5   2 -13 192.548 10.6423   1
  -4  -2  13 76.4264 4.67270   2
   4   2 -13 73.2303 4.92976   1
   4   2 -13 74.4582 4.68047   2
  -4   2  13 82.3121 4.97463   1
  -3  -2  13 347.960 19.0780   2
   3   2 -13 353.487 19.1350   2
   3   2 -13 362.628 19.4619   1
  -3   2  13 368.135 19.4114   1
  -2  -2  13 619.445 32.3027   2
  -2   2  13 633.202 32.6585   1
   2   2 -13 610.136 32.3630   2
   2   2 -13 602.985 32.6616   1
  -1  -2  13 7.34034 0.99311   2
   1   2 -13 8.22297 1.28400   1
  -1   2  13 8.35106 1.20822   1
   1   2 -13 8.85597 1.01551   2
   0  -2  13 55.3464 3.59646   2
   0   2 -13 57.9174 3.66110   2
   0   2  13 60.5593 4.01761   1
  -1   2 -13 342.894 18.6453   1
   2  -2  13 0.55828 0.34394   2
  -2   2 -13 0.88346 0.37913   2
   2   2  13 0.05257 0.44175   1
  -9   0  14 118.904 7.14441   2
   9   0 -14 122.043 6.93194   2
   8   0 -14 66.3885 4.10790   2
  -8   0  14 60.5805 5.15265   2
  -7   0  14 1126.09 60.3958   2
   7   0 -14 1192.17 60.2479   2
  -6   0  14 22.3298 1.98002   2
   6   0 -14 23.4726 1.92049   2
  -6   0  14 24.4468 2.27705   1
   5   0 -14 98.5456 5.73633   2
  -5   0  14 91.5090 5.79643   2
  -5   0  14 100.189 6.17724   1
  -4   0  14 2834.75 146.433   1
   3   0 -14 76.6612 4.59754   2
  -3   0  14 71.0591 4.91713   1
  -3   0  14 79.6151 4.74106   2
  -2   0  14 10.5806 1.22501   2
   2   0 -14 10.9841 1.13403   2
  -2   0  14 12.4175 1.45954   1
  -1   0  14 848.770 46.6400   1
  -1   0  14 905.153 46.3148   2
   1   0 -14 908.568 46.1783   2
   0   0 -14 78.0218 4.30328   2
   0   0  14 63.5713 4.63646   1
   0   0  14 67.9553 4.33364   2
   1   0  14 50.5529 4.86105   1
   1   0  14 59.7429 3.73759   2
  -1   0 -14 62.1529 3.65182   2
   2   0  14 33.5636 2.75798   2
  -2   0 -14 39.6168 2.63674   2
  -3   0 -14 72.1118 4.22846   2
   3   0  14 71.1166 4.33980   2
  -8  -1  14 156.337 8.87976   2
   8  -1 -14 139.033 8.34922   2
   8   1 -14 154.713 8.79333   2
  -8   1  14 154.165 8.88928   2
  -8   1  14 168.254 9.12051   1
  -7  -1  14 1393.46 70.8799   2
   7   1 -14 1386.62 70.8016   2
  -7   1  14 1331.86 72.1480   1
  -7   1  14 1342.83 70.8555   2
  -6  -1  14 416.389 22.4839   2
   6  -1 -14 411.182 22.0951   2
  -6   1  14 399.011 22.4356   2
   6   1 -14 420.948 22.4343   2
  -6   1  14 453.863 22.8463   1
  -5  -1  14 116.377 6.71365   2
   5  -1 -14 111.601 6.36339   2
  -5   1  14 108.983 6.65045   2
  -5   1  14 119.869 6.99077   1
   5   1 -14 109.362 6.61218   2
  -4  -1  14 216.404 11.9532   2
   4  -1 -14 220.874 11.6432   2
  -4   1  14 212.493 12.1970   1
   4   1 -14 221.756 11.9092   2
  -4   1  14 208.698 11.9102   2
   3  -1 -14 30.0494 2.03808   2
  -3  -1  14 29.8227 2.28026   2
   3   1 -14 29.9287 2.23520   2
  -3   1  14 28.6742 2.46579   1
  -3   1  14 31.0222 2.32436   2
  -2  -1  14 83.4596 4.97476   2
   2  -1 -14 82.4137 4.66617   2
   2   1 -14 78.4269 4.88238   2
  -2   1  14 77.7332 4.89957   2
  -2   1  14 81.5023 5.22271   1
  -1  -1  14 1065.92 53.3186   2
   1  -1 -14 983.812 52.9710   2
   1   1 -14 1038.55 53.2420   2
  -1   1  14 1040.53 53.6912   1
  -1   1  14 993.368 53.2450   2
   0  -1  14 275.483 14.6954   2
   0  -1 -14 270.271 14.3908   2
   0   1 -14 280.229 14.6463   2
   0   1  14 276.840 15.1197   1
   0   1  14 252.440 14.6691   2
  -1  -1 -14 130.143 7.29193   2
   1  -1  14 126.695 7.10449   2
  -1   1 -14 123.823 7.03340   2
   1   1  14 112.783 8.34195   1
  -2  -1 -14 1007.94 52.5315   2
   2  -1  14 1023.32 52.8842   2
   2   1  14 1020.54 52.9010   2
  -2   1 -14 1034.03 52.8420   2
   2   1  14 1004.70 53.4326   1
  -6  -2  14 0.39105 0.42934   2
  -6   2  14 0.39987 0.49798   1
   6   2 -14 1.31537 0.54606   2
  -5  -2  14 251.943 13.9475   2
   5   2 -14 248.209 13.9789   2
  -5   2  14 273.079 14.3282   1
  -4  -2  14 814.243 45.2918   2
   4   2 -14 920.720 45.6549   1
   4   2 -14 869.678 45.2646   2
  -3  -2  14 304.057 15.5491   2
   3   2 -14 265.970 15.4438   1
   3   2 -14 276.908 15.1992   2
  -2  -2  14 8.49446 1.06612   2
   2   2 -14 10.6953 1.08173   2
  -2   2  14 11.6724 2.00209   1
   2   2 -14 7.04020 1.45828   1
  -1  -2  14 413.462 22.5319   2
   1   2 -14 425.546 22.6174   2
  -1   2  14 444.232 23.0206   1
   0  -2  14 463.371 24.2373   2
   0   2  14 465.126 24.7265   1
   0   2 -14 455.296 24.2963   2
   7   0 -15 -0.0241 0.38719   2
  -7   0  15 0.42509 0.44430   2
   6   0 -15 2.25742 0.51538   2
   5   0 -15 0.51233 0.38312   2
  -5   0  15 -0.5744 1.12827   1
  -5   0  15 0.25586 0.37000   2
  -4   0  15 0.14733 0.47432   2
   4   0 -15 0.26376 0.40941   2
   3   0 -15 0.32694 0.31427   2
  -3   0  15 -0.5367 0.31341   2
  -2   0  15 0.67639 0.39382   2
   2   0 -15 -0.0037 0.28080   2
  -1   0  15 0.38714 1.14646   1
  -1   0  15 0.36060 0.36904   2
   0   0  15 0.68720 0.46595   2
   0   0 -15 0.28497 0.33619   2
  -1   0 -15 0.10766 0.27639   2
   1   0  15 0.37245 0.33033   2
  -7  -1  15 327.225 17.2208   2
   7  -1 -15 291.819 16.6749   2
  -7   1  15 353.457 17.5532   1
  -7   1  15 300.615 17.7250   2
   6  -1 -15 19.0087 1.45908   2
  -6  -1  15 20.2073 1.80250   2
   6   1 -15 21.3303 1.74912   2
  -6   1  15 21.9335 1.85721   2
  -6   1  15 20.9242 1.99185   1
   5  -1 -15 6.02854 0.72433   2
  -5  -1  15 6.97667 1.55361   2
   5   1 -15 7.81427 1.33167   2
  -5   1  15 6.19967 1.11567   1
  -5   1  15 5.10590 0.88970   2
   4  -1 -15 87.9076 5.23098   2
  -4  -1  15 94.4324 5.48652   2
   4   1 -15 90.7700 5.38785   2
  -4   1  15 89.8656 5.45871   2
  -3  -1  15 191.155 10.6796   2
   3  -1 -15 176.806 10.4493   2
   3   1 -15 187.944 10.6076   2
  -3   1  15 222.680 12.0434   1
  -3   1  15 188.372 10.6711   2
  -2  -1  15 30.3673 2.29746   2
   2  -1 -15 29.0713 1.97980   2
   2   1 -15 31.5942 2.28835   2
  -2   1  15 32.5331 2.30329   2
  -1  -1  15 2.02657 0.77086   2
   1  -1 -15 1.67736 0.41513   2
   1   1 -15 1.00664 0.47845   2
  -1   1  15 1.77193 0.65115   1
  -1   1  15 1.41549 0.52845   2
   0  -1 -15 395.109 21.6592   2
   0  -1  15 430.771 22.0641   2
   0   1  15 423.183 22.5309   1
  -5   0  16 66.4908 4.11116   2
   5   0 -16 64.2272 3.95206   2
   4   0 -16 8.52069 0.94079   2
  -4   0  16 7.75560 0.98314   2
  -3   0  16 139.563 7.97352   2
   3   0 -16 141.907 7.81086   2
   2   0 -16 757.112 39.4835   2
  -2   0  16 761.900 39.6589   2
   0   0   0    0.00    0.00   0

 _exptl_absorpt_process_details
)
 SADABS 2016/2: Krause, L., Herbst-Irmer, R., Sheldrick G.M. & Stalke D.,
 J. Appl. Cryst. 48 (2015) 3-10
)
 _exptl_absorpt_correction_type   multi-scan
 _exptl_absorpt_correction_T_max  0.7508
 _exptl_absorpt_correction_T_min  0.3680
 _exptl_special_details
)
 The following wavelength and cell were deduced by SADABS from the
 direction cosines etc. They are given here for emergency use only:
 CELL 1.34179   10.414    3.848   13.340   90.000  106.097   89.996
)
;
_shelx_hkl_checksum              74831
_olex2_submission_special_instructions 'No special instructions were received'
loop_
_space_group_symop_operation_xyz
'x, y, z'
'-x, y+1/2, -z+1/2'
'-x, -y, -z'
'x, -y-1/2, z-1/2'
loop_
_atom_site_label
_atom_site_type_symbol
_atom_site_fract_x
_atom_site_fract_y
_atom_site_fract_z
_atom_site_U_iso_or_equiv
_atom_site_adp_type
_atom_site_occupancy
_atom_site_site_symmetry_order
_atom_site_calc_flag
_atom_site_refinement_flags_posn
_atom_site_refinement_flags_adp
_atom_site_refinement_flags_occupancy
_atom_site_disorder_assembly
_atom_site_disorder_group
Cl1 Cl 0.45834(4) 0.63282(14) 0.62704(4) 0.03435(19) Uani 1 1 d . . . . .
Cl2 Cl 0.20559(4) 0.33351(12) 0.69647(3) 0.02671(18) Uani 1 1 d . . . . .
S1 S 0.09759(4) 0.73053(12) 0.38799(3) 0.02341(18) Uani 1 1 d . . . . .
C1 C 0.26558(18) 0.7596(5) 0.44524(15) 0.0268(4) Uani 1 1 d . . . . .
H1 H 0.327904 0.850999 0.411860 0.032 Uiso 1 1 calc R . . . .
C2 C 0.29893(17) 0.6358(5) 0.54435(13) 0.0243(4) Uani 1 1 d . . . . .
C3 C 0.18664(16) 0.5128(5) 0.57474(12) 0.0217(4) Uani 1 1 d . . . . .
C4 C 0.06726(16) 0.5467(4) 0.49868(11) 0.0201(3) Uani 1 1 d . . . . .
loop_
_atom_site_aniso_label
_atom_site_aniso_U_11
_atom_site_aniso_U_22
_atom_site_aniso_U_33
_atom_site_aniso_U_23
_atom_site_aniso_U_13
_atom_site_aniso_U_12
Cl1 0.0233(3) 0.0458(3) 0.0333(3) 0.0009(2) 0.00684(19) -0.00263(18)
Cl2 0.0300(3) 0.0336(3) 0.0177(3) 0.00230(15) 0.00864(18) 0.00073(17)
S1 0.0268(3) 0.0268(3) 0.0198(3) 0.00321(15) 0.01188(19) -0.00079(16)
C1 0.0268(9) 0.0279(9) 0.0305(9) 0.0016(7) 0.0158(8) -0.0016(7)
C2 0.0244(8) 0.0257(9) 0.0249(8) -0.0025(7) 0.0101(7) -0.0006(7)
C3 0.0280(8) 0.0205(8) 0.0194(7) -0.0017(6) 0.0115(6) 0.0010(7)
C4 0.0273(8) 0.0180(8) 0.0188(7) -0.0024(6) 0.0130(6) -0.0005(6)
loop_
_atom_type_symbol
_atom_type_description
_atom_type_scat_dispersion_real
_atom_type_scat_dispersion_imag
_atom_type_scat_source
C C 0.0148 0.0070 'International Tables Vol C Tables 4.2.6.8 and 6.1.1.4'
H H 0.0000 0.0000 'International Tables Vol C Tables 4.2.6.8 and 6.1.1.4'
Cl Cl 0.3294 0.5404 'International Tables Vol C Tables 4.2.6.8 and 6.1.1.4'
S S 0.2924 0.4247 'International Tables Vol C Tables 4.2.6.8 and 6.1.1.4'
loop_
_geom_angle_atom_site_label_1
_geom_angle_atom_site_label_2
_geom_angle_atom_site_label_3
_geom_angle
_geom_angle_site_symmetry_1
_geom_angle_site_symmetry_3
_geom_angle_publ_flag
C1 S1 C4 92.94(8) . . ?
S1 C1 H1 124.2 . . ?
C2 C1 S1 111.52(14) . . ?
C2 C1 H1 124.2 . . ?
C1 C2 Cl1 124.63(14) . . ?
C1 C2 C3 112.72(16) . . ?
C3 C2 Cl1 122.64(13) . . ?
C2 C3 Cl2 120.89(13) . . ?
C4 C3 Cl2 125.21(13) . . ?
C4 C3 C2 113.90(15) . . ?
C3 C4 S1 108.92(12) . . ?
C3 C4 C4 129.62(18) . 3_566 ?
C4 C4 S1 121.45(15) 3_566 . ?
loop_
_geom_bond_atom_site_label_1
_geom_bond_atom_site_label_2
_geom_bond_distance
_geom_bond_site_symmetry_2
_geom_bond_publ_flag
Cl1 C2 1.7192(18) . ?
Cl2 C3 1.7236(16) . ?
S1 C1 1.7069(19) . ?
S1 C4 1.7423(15) . ?
C1 H1 0.9500 . ?
C1 C2 1.356(3) . ?
C2 C3 1.420(2) . ?
C3 C4 1.375(2) . ?
C4 C4 1.455(3) 3_566 ?
