#------------------------------------------------------------------------------
#$Date: 2021-07-05 19:48:10 +0300 (Mon, 05 Jul 2021) $
#$Revision: 267059 $
#$URL: file:///home/coder/svn-repositories/cod/cif/1/55/97/1559794.cif $
#------------------------------------------------------------------------------
#
# This file is available in the Crystallography Open Database (COD),
# http://www.crystallography.net/
#
# All data on this site have been placed in the public domain by the
# contributors.
#
data_1559794
loop_
_publ_author_name
'Kleemiss, Florian'
'Dolomanov, Oleg V.'
'Bodensteiner, Michael'
'Peyerimhoff, Norbert'
'Midgley, Laura'
'Bourhis, Luc J.'
'Genoni, Alessandro'
'Malaspina, Lorraine A.'
'Jayatilaka, Dylan'
'Spencer, John L.'
'White, Fraser'
'Grundk\"otter-Stock, Bernhard'
'Steinhauer, Simon'
'Lentz, Dieter'
'Puschmann, Horst'
'Grabowsky, Simon'
_publ_section_title
;
 Accurate crystal structures and chemical properties from NoSpherA2.
;
_journal_issue                   5
_journal_name_full               'Chemical science'
_journal_page_first              1675
_journal_page_last               1692
_journal_paper_doi               10.1039/d0sc05526c
_journal_volume                  12
_journal_year                    2020
_chemical_absolute_configuration syn
_chemical_formula_moiety         'C3 H7 N O2'
_chemical_formula_sum            'C3 H7 N O2'
_chemical_formula_weight         89.0947
_space_group_IT_number           19
_space_group_name_Hall           'P 2ac 2ab'
_space_group_name_H-M_alt        'P 21 21 21'
_symmetry_cell_setting           orthorhombic
_symmetry_Int_Tables_number      19
_symmetry_space_group_name_Hall  'P 2ac 2ab'
_symmetry_space_group_name_H-M   'P 21 21 21'
_atom_sites_solution_hydrogens   difmap
_audit_creation_date             2020-17-11
_audit_creation_method
;
Olex2 1.3-dev
(compiled 2020.01.16 svn.ra754ea2f for OlexSys, GUI svn.r6014)
;
_audit_update_record
;
2020-10-02 deposited with the CCDC.	2020-11-09 downloaded from the CCDC.
;
_cell_angle_alpha                90
_cell_angle_beta                 90
_cell_angle_gamma                90
_cell_formula_units_Z            4
_cell_length_a                   5.9279(10)
_cell_length_b                   12.2597(17)
_cell_length_c                   5.7939(9)
_cell_measurement_reflns_used    1524
_cell_measurement_temperature    23
_cell_measurement_theta_max      22.50
_cell_measurement_theta_min      15.00
_cell_measurement_wavelength     0.71073
_cell_volume                     421.07(11)
_computing_structure_refinement  'olex2.refine 1.3-dev (Bourhis et al., 2015)'
_computing_structure_solution    'SHELXS-2013 (Sheldrick, 2008)'
_diffrn_ambient_temperature      23
_diffrn_measured_fraction_theta_full 0.9641
_diffrn_measured_fraction_theta_max 0.9412
_diffrn_measurement_device_type  'P-1 four circle diffractometer'
_diffrn_measurement_method       'area detector'
_diffrn_radiation_probe          x-ray
_diffrn_radiation_type           MoK\a
_diffrn_radiation_wavelength     0.71073
_diffrn_reflns_av_unetI/netI     0.0243
_diffrn_reflns_limit_h_max       12
_diffrn_reflns_limit_h_min       0
_diffrn_reflns_limit_k_max       26
_diffrn_reflns_limit_k_min       0
_diffrn_reflns_limit_l_max       12
_diffrn_reflns_limit_l_min       0
_diffrn_reflns_number            2387
_diffrn_reflns_point_group_measured_fraction_full 0.9641
_diffrn_reflns_point_group_measured_fraction_max 0.9412
_diffrn_reflns_theta_full        25.2417
_diffrn_reflns_theta_max         50.14
_diffrn_reflns_theta_min         3.32
_diffrn_standards_number         0
_exptl_absorpt_coefficient_mu    0.117
_exptl_absorpt_correction_type   none
_exptl_crystal_colour            colorless
_exptl_crystal_density_diffrn    1.406
_exptl_crystal_density_method    'not measured'
_exptl_crystal_description       sphere
_exptl_crystal_F_000             192
_exptl_crystal_size_rad          0.18
_refine_diff_density_max         0.1628
_refine_diff_density_min         -0.1652
_refine_diff_density_rms         0.0419
_refine_ls_d_res_high            0.4630
_refine_ls_d_res_low             6.1299
_refine_ls_goodness_of_fit_ref   1.2147
_refine_ls_hydrogen_treatment    refall
_refine_ls_matrix_type           full
_refine_ls_number_constraints    0
_refine_ls_number_parameters     118
_refine_ls_number_reflns         2387
_refine_ls_number_restraints     0
_refine_ls_restrained_S_all      1.2147
_refine_ls_R_factor_all          0.0196
_refine_ls_R_factor_gt           0.0196
_refine_ls_shift/su_max          0.0005
_refine_ls_shift/su_mean         0.0000
_refine_ls_structure_factor_coef Fsqd
_refine_ls_weighting_details     w=1/[\s^2^(Fo^2^)]
_refine_ls_weighting_scheme      calc
_refine_ls_wR_factor_gt          0.0332
_refine_ls_wR_factor_ref         0.0332
_reflns_Friedel_coverage         0.0
_reflns_Friedel_fraction_full    0
_reflns_Friedel_fraction_max     0
_reflns_number_gt                2387
_reflns_number_total             2387
_reflns_threshold_expression     I/u(I)>2.1
_iucr_refine_instructions_details
;
TITL L-ALA_23K_TONTO_IAM OLEX2: imported from CIF
CELL 0.71073 5.9279 12.2597 5.7939 90 90 90
ZERR 4 0.001 0.0017 0.0009 0 0 0
LATT -1
SYMM 0.5-X,-Y,0.5+Z
SYMM 0.5+X,0.5-Y,-Z
SYMM -X,0.5+Y,0.5-Z
SFAC C H N O
UNIT 12 28 4 8

CONF
MORE -1
BOND $H
ACTA 
LIST -3
WGHT 0 0
FVAR 0.999759
REM <olex2.extras>
REM <HklSrc "%.\\lala_23K.hkl">
REM </olex2.extras>

N1    3     0.64723  0.13752  0.18292  11.00000  0.00557  0.00616  0.00434 =
 -0.00012  0.00070  0.00012 
H1a   2     0.70386  0.05931  0.20145  11.00000  0.02934  0.03445  0.01472 =
 -0.00277  0.00886 -0.00488 
H1b   2     0.77742  0.18996  0.21155  11.00000  0.02245  0.02493  0.02165 =
 -0.00163  0.00166  0.00434 
H1c   2     0.58046  0.14950  0.01821  11.00000  0.02328  0.01539  0.03295 =
 -0.00842  0.02059 -0.00228 
C1    1     0.46639  0.16112  0.35429  11.00000  0.00535  0.00488  0.00368 =
 0.00009 -0.00054  0.00039 
H1    2     0.42672  0.24810  0.34261  11.00000  0.02735  0.01496  0.02301 =
 0.00218 -0.00726  0.00548 
C2    1     0.25992  0.09066  0.30333  11.00000  0.00604  0.00898  0.00628 =
 -0.00042 -0.00057 -0.00137 
H2a   2     0.19115  0.11020  0.13334  11.00000  0.02388  0.04611  0.02041 =
 0.00431 -0.00442 -0.01168 
H2b   2     0.12592  0.10455  0.43036  11.00000  0.02179  0.03934  0.02858 =
 0.00211  0.00391 -0.00714 
H2c   2     0.30313  0.00517  0.30831  11.00000  0.02793  0.02532  0.03640 =
 0.00007  0.00173 -0.00741 
C3    1     0.55406  0.14079  0.59985  11.00000  0.00498  0.00458  0.00363 =
 -0.00006 -0.00013  0.00047 
O1    4     0.72667  0.08380  0.62429  11.00000  0.00683  0.00711  0.00561 =
 0.00047 -0.00062  0.00234 
O2    4     0.44091  0.18401  0.76109  11.00000  0.00746  0.00754  0.00397 =
 -0.00043  0.00043  0.00210 
HKLF 4

END
Q1 1 0.5 0.222222 0.90625 11 0.05 0.16
Q2 1 0.5 0.138889 0.53125 11 0.05 0.16
Q3 1 0.861111 0.041667 0.0625 11 0.05 0.15
Q4 1 0.555556 0.055556 0.46875 11 0.05 0.15
Q5 1 0.194444 0.041667 0.09375 11 0.05 0.15

  REM The information below was added by Olex2.
  REM
  REM R1 = 0.0196 for 2387 Fo > 4sig(Fo) and 0.0196 for all 2387 data
  REM 118 parameters refined using 0 restraints
  REM Highest difference peak 0.1628, deepest hole -0.1652
  REM Mean Shift 0.0000, Max Shift 0.0005.

  REM +++ Tabular Listing of Refinement Information +++
  REM R1_all = 0.0196
  REM R1_gt = 0.0196
  REM wR_ref = 0.0332
  REM GOOF = 1.2147
  REM Shift_max = 0.0005
  REM Shift_mean = 0.0000
  REM Reflections_all = 2387
  REM Reflections_gt = 2387
  REM Parameters = 118
  REM Hole = -0.1652
  REM Peak = 0.1628
  REM Flack = n/a
;
_cod_data_source_file            d0sc05526c2.cif
_cod_data_source_block           L-Ala_23K_NoSpherA2_ORCA_NoSpherA2
_cod_depositor_comments
;
The following automatic conversions were performed:

data item '_symmetry_cell_setting' value 'Orthorhombic' was changed
to 'orthorhombic' in accordance with the
/home/data/users/saulius/crontab/automatic-downloads/rss-feeds/RSC/lib/dictionaries/cif_core.dic
dictionary named 'cif_core.dic' version 2.4.2 last updated on
2011-04-26.

Automatic conversion script
Id: cif_fix_values 7556 2019-12-06 15:28:31Z antanas 

 Adding full bibliography for 1559792--1559798.cif.

 Adding full bibliography for 1559792--1559798.cif.
;
_cod_original_sg_symbol_Hall     'p 2ac 2ab'
_cod_original_sg_symbol_H-M      'p 21 21 21'
_cod_database_code               1559794
_iucr_refine_fcf_details
;
data_L-Ala_23K_NoSpherA2_ORCA_NoSpherA2_CCDC1
_computing_structure_refinement   'olex2.refine 1.3-dev (Bourhis et al., 2015)'
_shelx_refln_list_code            4
loop_
  _space_group_symop_id
  _space_group_symop_operation_xyz
  1  x,y,z
  2  x+1/2,-y+1/2,-z
  3  -x,y+1/2,-z+1/2
  4  -x+1/2,-y,z+1/2

_space_group_crystal_system       orthorhombic
_space_group_IT_number            19
_space_group_name_H-M_alt         'P 21 21 21'
_space_group_name_Hall            ' P 2ac 2ab'
_symmetry_space_group_name_H-M    'P 21 21 21'
_symmetry_space_group_name_Hall   ' P 2ac 2ab'
_symmetry_Int_Tables_number       19
_cell_length_a                    5.9279(10)
_cell_length_b                    12.2597(17)
_cell_length_c                    5.7939(9)
_cell_angle_alpha                 90
_cell_angle_beta                  90
_cell_angle_gamma                 90
_cell_volume                      421.07(11)
loop_
  _refln_index_h
  _refln_index_k
  _refln_index_l
  _refln_F_squared_calc
  _refln_F_squared_meas
  _refln_F_squared_sigma
  _refln_F_squared_weight
  _refln_observed_status
0 0 2 2912.100 2782.450 32.606 0.049 o
0 0 4 202.286 205.249 3.822 3.564 o
0 0 8 23.987 23.962 1.481 23.744 o
0 0 10 4.683 4.712 1.201 36.118 o
0 1 1 723.722 709.131 7.173 1.012 o
0 1 2 519.155 521.921 6.413 1.266 o
0 1 3 82.973 82.220 1.711 17.787 o
0 1 4 35.857 38.979 1.181 37.353 o
0 1 5 237.095 231.121 4.422 2.662 o
0 1 6 91.637 91.764 2.401 9.030 o
0 1 7 61.522 57.538 2.011 12.873 o
0 1 8 3.060 3.512 0.930 60.134 o
0 1 9 6.404 8.344 1.141 40.020 o
0 1 12 26.587 26.443 2.201 10.746 o
0 2 0 180.003 179.907 1.721 17.580 o
0 2 1 112.387 117.016 1.191 36.728 o
0 2 2 178.180 177.736 2.031 12.621 o
0 2 3 148.803 154.434 2.861 6.358 o
0 2 4 88.329 91.094 2.011 12.873 o
0 2 5 128.880 134.375 2.891 6.227 o
0 2 6 15.324 15.858 1.000 52.010 o
0 2 7 531.915 529.775 9.525 0.574 o
0 2 8 9.427 8.524 1.121 41.462 o
0 2 9 47.745 45.402 2.151 11.252 o
0 2 10 21.047 20.270 1.701 17.997 o
0 2 11 2.180 2.641 1.211 35.523 o
0 2 12 18.500 19.779 1.921 14.109 o
0 3 1 696.156 693.624 6.263 1.327 o
0 3 2 56.002 55.007 0.780 85.486 o
0 3 3 198.781 201.097 2.401 9.030 o
0 3 4 6.487 7.834 0.440 268.646 o
0 3 5 47.839 48.173 1.501 23.116 o
0 3 6 0.742 1.461 0.630 131.040 o
0 3 8 17.015 15.387 1.321 29.850 o
0 3 9 61.383 62.010 2.481 8.456 o
0 3 10 48.851 47.933 2.361 9.338 o
0 3 11 7.678 6.653 1.451 24.737 o
0 3 12 115.661 113.775 3.872 3.473 o
0 4 0 5310.530 5076.150 43.511 0.027 o
0 4 1 94.920 96.196 1.040 48.086 o
0 4 2 169.304 167.601 1.751 16.983 o
0 4 3 709.083 723.418 7.614 0.898 o
0 4 4 218.470 224.618 2.781 6.730 o
0 4 5 368.743 380.863 4.492 2.580 o
0 4 6 15.695 15.648 1.061 46.289 o
0 4 7 11.371 11.536 1.081 44.590 o
0 4 9 20.829 21.750 1.591 20.573 o
0 4 10 26.795 27.743 1.901 14.407 o
0 5 2 544.395 554.867 5.213 1.916 o
0 5 3 78.601 79.598 1.171 37.994 o
0 5 5 177.494 173.974 2.381 9.182 o
0 5 6 81.638 84.431 1.541 21.930 o
0 5 7 24.916 23.571 1.401 26.536 o
0 5 10 31.898 32.015 2.011 12.873 o
0 5 12 8.929 9.575 1.681 18.428 o
0 6 0 87.134 87.802 1.020 49.990 o
0 6 1 469.864 464.954 4.482 2.591 o
0 6 2 92.452 94.676 1.141 40.020 o
0 6 3 259.368 266.598 2.781 6.730 o
0 6 4 68.831 69.433 1.201 36.118 o
0 6 6 12.280 10.945 0.640 126.977 o
0 6 7 42.268 42.260 1.191 36.728 o
0 6 8 9.759 10.055 0.800 81.266 o
0 6 10 40.699 40.740 2.281 10.005 o
0 6 11 8.455 7.554 1.501 23.116 o
0 6 12 54.876 54.606 2.701 7.134 o
0 7 1 36.209 36.147 0.600 144.472 o
0 7 2 4.606 5.303 0.330 477.593 o
0 7 3 21.853 21.931 0.560 165.848 o
0 7 4 29.066 28.604 0.760 90.045 o
0 7 5 7.264 6.483 0.520 192.344 o
0 7 6 137.872 139.047 2.191 10.844 o
0 7 7 47.351 45.662 1.251 33.286 o
0 7 8 58.237 58.378 1.531 22.218 o
0 7 9 47.423 45.542 1.491 23.427 o
0 7 10 53.119 53.206 2.551 7.998 o
0 7 11 2.450 3.031 1.321 29.850 o
0 7 12 63.002 63.461 2.981 5.857 o
0 8 0 44.162 44.391 0.700 106.143 o
0 8 1 44.984 43.421 0.710 103.174 o
0 8 2 107.477 109.363 1.371 27.710 o
0 8 3 59.345 60.349 0.970 55.277 o
0 8 4 64.078 63.120 1.051 47.175 o
0 8 5 142.592 142.158 2.131 11.464 o
0 8 6 28.894 29.364 0.960 56.434 o
0 8 7 1.582 1.911 0.420 294.841 o
0 8 8 87.834 85.651 1.891 14.560 o
0 8 9 78.245 77.978 1.901 14.407 o
0 8 10 56.297 58.928 1.761 16.790 o
0 8 11 7.065 8.214 1.501 23.116 o
0 9 1 31.134 31.405 0.650 123.100 o
0 9 2 21.841 23.191 0.580 154.607 o
0 9 3 142.354 139.717 1.741 17.179 o
0 9 4 7.322 7.043 0.450 256.839 o
0 9 5 74.412 67.893 1.391 26.919 o
0 9 6 11.849 14.047 0.760 90.045 o
0 9 7 4.292 4.832 0.510 199.961 o
0 9 8 11.305 12.006 0.850 71.986 o
0 9 9 16.782 16.128 1.051 47.175 o
0 9 10 6.751 6.593 0.640 126.977 o
0 9 11 7.403 7.834 0.750 92.462 o
0 10 0 0.977 0.780 0.340 449.913 o
0 10 1 132.954 134.415 1.661 18.874 o
0 10 2 45.369 45.282 0.840 73.710 o
0 10 3 38.348 38.779 0.810 79.271 o
0 10 4 86.854 88.433 1.351 28.538 o
0 10 5 8.666 7.784 0.540 178.361 o
0 10 6 14.508 15.277 0.800 81.266 o
0 10 7 10.002 9.024 0.790 83.336 o
0 10 8 5.417 6.403 0.680 112.478 o
0 10 9 14.402 13.556 1.000 52.010 o
0 10 10 1.333 1.821 0.510 199.961 o
0 10 11 0.831 1.541 0.520 192.344 o
0 11 1 65.860 65.311 1.081 44.590 o
0 11 2 82.332 82.010 1.231 34.378 o
0 11 3 66.751 68.883 1.161 38.652 o
0 11 4 95.439 95.906 1.481 23.744 o
0 11 5 21.383 20.310 0.760 90.045 o
0 11 6 117.113 114.735 1.861 15.034 o
0 11 7 29.502 30.735 1.161 38.652 o
0 11 8 40.265 39.249 1.371 27.710 o
0 11 9 1.745 2.191 0.510 199.961 o
0 11 10 18.049 16.038 1.121 41.462 o
0 11 11 8.948 8.174 0.820 77.350 o
0 12 0 227.675 227.860 2.601 7.694 o
0 12 1 74.148 74.736 1.201 36.118 o
0 12 2 27.518 27.653 0.730 97.598 o
0 12 3 115.359 116.406 1.661 18.874 o
0 12 4 37.858 38.178 0.940 58.861 o
0 12 5 1.276 1.461 0.320 507.909 o
0 12 6 6.362 6.173 0.550 171.934 o
0 12 7 4.849 5.713 0.630 131.040 o
0 12 8 39.169 39.379 1.411 26.161 o
0 12 9 34.361 34.156 1.371 27.710 o
0 12 10 12.293 13.136 0.910 62.806 o
0 12 11 33.141 29.524 1.371 27.710 o
0 13 1 18.336 18.439 0.680 112.478 o
0 13 2 21.155 21.040 0.680 112.478 o
0 13 3 140.649 142.439 1.961 13.539 o
0 13 4 10.454 11.245 0.640 126.977 o
0 13 5 76.403 77.507 1.471 24.069 o
0 13 6 4.493 4.672 0.470 235.446 o
0 13 7 13.255 11.396 0.780 85.486 o
0 13 8 32.035 31.475 1.321 29.850 o
0 13 9 27.167 28.534 1.311 30.307 o
0 13 10 11.930 12.276 1.030 49.024 o
0 14 0 56.448 57.328 1.101 42.983 o
0 14 1 39.088 37.108 0.920 61.448 o
0 14 2 21.886 20.840 0.740 94.978 o
0 14 3 27.824 27.233 0.840 73.710 o
0 14 4 140.739 139.417 2.041 12.498 o
0 14 5 2.638 3.442 0.400 325.062 o
0 14 6 10.433 11.445 0.720 100.328 o
0 14 7 1.142 1.451 0.380 360.180 o
0 14 8 10.959 12.276 0.960 56.434 o
0 14 10 42.629 42.651 1.591 20.573 o
0 15 1 88.687 89.053 1.521 22.511 o
0 15 2 180.377 177.495 2.341 9.498 o
0 15 3 88.115 88.553 1.551 21.648 o
0 15 4 45.749 44.311 1.161 38.652 o
0 15 5 12.719 13.797 0.770 87.721 o
0 15 9 44.698 46.302 1.611 20.065 o
0 15 10 5.255 5.733 0.630 131.040 o
0 16 0 24.586 24.712 0.840 73.710 o
0 16 2 3.650 4.352 0.400 325.062 o
0 16 3 152.052 151.523 2.211 10.649 o
0 16 4 92.218 92.675 1.701 17.997 o
0 16 5 13.535 12.996 0.780 85.486 o
0 16 6 42.887 40.660 1.251 33.286 o
0 16 7 83.137 79.969 1.771 16.601 o
0 16 8 0.621 0.980 0.390 341.946 o
0 16 9 12.640 14.157 1.071 45.428 o
0 17 1 0.838 1.111 0.340 449.913 o
0 17 2 62.228 59.779 1.351 28.538 o
0 17 3 47.878 46.212 1.211 35.523 o
0 17 4 5.194 5.583 0.450 256.839 o
0 17 5 72.715 75.396 1.621 19.818 o
0 17 6 28.691 28.504 1.081 44.590 o
0 17 7 0.552 1.030 0.390 341.946 o
0 17 8 7.292 6.433 0.540 178.361 o
0 17 9 15.431 15.197 0.960 56.434 o
0 18 0 221.472 222.837 2.911 6.142 o
0 18 1 60.672 58.618 1.341 28.965 o
0 18 2 19.285 19.970 0.890 65.661 o
0 18 3 27.718 26.433 0.970 55.277 o
0 18 4 10.141 9.435 0.730 97.598 o
0 18 5 2.581 2.281 0.410 309.399 o
0 18 6 6.414 7.634 0.670 115.861 o
0 18 7 1.532 2.261 0.430 281.287 o
0 18 9 9.044 8.404 0.630 131.040 o
0 19 1 15.180 15.818 0.870 68.714 o
0 19 2 114.627 117.347 2.051 12.376 o
0 19 3 2.849 2.451 0.400 325.062 o
0 19 4 3.751 3.292 0.430 281.287 o
0 19 5 14.128 13.336 0.880 67.162 o
0 19 6 41.557 43.281 1.361 28.120 o
0 19 7 5.042 6.713 0.540 178.361 o
0 19 8 10.156 9.034 0.750 92.462 o
0 20 1 26.740 26.863 1.020 49.990 o
0 20 2 0.905 0.960 0.400 325.062 o
0 20 3 41.770 43.501 1.311 30.307 o
0 20 4 1.506 1.791 0.400 325.062 o
0 20 6 1.370 1.801 0.420 294.841 o
0 20 7 128.774 132.374 2.401 9.030 o
0 20 8 6.124 6.033 0.520 192.344 o
0 21 1 2.152 2.631 0.410 309.399 o
0 21 2 44.791 44.972 1.331 29.402 o
0 21 3 0.737 0.850 0.380 360.180 o
0 21 5 21.403 19.219 1.020 49.990 o
0 21 6 22.114 20.850 1.061 46.289 o
0 21 7 0.453 0.890 0.390 341.946 o
0 22 0 129.088 132.684 2.311 9.747 o
0 22 2 36.765 36.037 1.261 32.760 o
0 22 3 0.616 1.131 0.400 325.062 o
0 22 4 3.533 4.262 0.480 225.738 o
0 22 5 5.035 5.383 0.510 199.961 o
0 22 6 10.281 10.355 0.760 90.045 o
0 23 1 1.837 1.691 0.410 309.399 o
0 23 2 16.326 17.639 1.010 50.985 o
0 23 3 26.239 27.563 1.141 40.020 o
0 23 5 13.589 12.256 0.940 58.861 o
0 23 6 17.986 16.648 0.970 55.277 o
0 24 2 1.716 2.441 0.450 256.839 o
0 24 3 10.831 12.446 0.890 65.661 o
0 24 4 25.611 26.012 1.111 42.212 o
0 25 1 2.209 2.921 0.550 171.934 o
0 25 2 19.976 21.991 1.231 34.378 o
0 25 3 5.789 4.872 0.560 165.848 o
0 25 4 2.338 2.841 0.500 208.040 o
0 26 0 5.145 6.313 0.600 144.472 o
0 26 1 18.227 19.369 1.211 35.523 o
0 26 2 1.722 2.501 0.490 216.618 o
1 0 1 74.016 75.186 0.810 79.271 o
1 0 2 3237.870 3040.780 35.387 0.042 o
1 0 3 31.168 31.375 0.900 64.210 o
1 0 4 321.545 321.605 5.713 1.595 o
1 0 5 266.443 278.694 5.192 1.931 o
1 0 7 240.274 242.857 5.042 2.048 o
1 0 8 10.051 10.235 1.181 37.353 o
1 0 10 2.666 3.412 1.151 39.327 o
1 0 12 15.910 17.528 1.891 14.560 o
1 1 0 254.044 246.239 2.311 9.747 o
1 1 1 125.651 130.783 1.331 29.402 o
1 1 2 71.522 70.174 0.920 61.448 o
1 1 3 292.199 296.283 5.122 1.984 o
1 1 4 238.553 254.673 4.632 2.426 o
1 1 5 119.394 119.898 2.651 7.406 o
1 1 7 25.529 26.303 1.421 25.794 o
1 1 8 34.030 34.627 1.751 16.983 o
1 1 9 2.927 2.191 0.980 54.154 o
1 1 10 23.622 25.222 1.841 15.362 o
1 1 11 13.374 11.766 1.581 20.834 o
1 1 12 72.064 74.496 3.122 5.343 o
1 2 0 5343.160 5372.220 56.887 0.016 o
1 2 1 104.573 101.949 1.081 44.590 o
1 2 2 572.647 560.540 5.993 1.450 o
1 2 3 220.340 220.106 2.581 7.814 o
1 2 4 26.501 28.154 1.020 49.990 o
1 2 5 455.242 454.179 7.954 0.823 o
1 2 6 7.550 7.394 0.810 79.271 o
1 2 7 58.020 60.109 2.071 12.138 o
1 2 8 18.418 19.459 1.411 26.161 o
1 2 9 49.509 50.514 2.221 10.553 o
1 2 11 33.478 33.156 2.211 10.649 o
1 2 12 9.421 8.134 1.701 17.997 o
1 3 0 56.439 57.868 0.670 115.861 o
1 3 1 1084.120 1064.920 9.475 0.580 o
1 3 2 188.273 190.062 1.981 13.267 o
1 3 3 88.595 89.833 1.251 33.286 o
1 3 4 22.101 22.931 0.630 131.040 o
1 3 5 177.477 172.673 3.562 4.104 o
1 3 6 11.724 12.166 0.970 55.277 o
1 3 7 77.860 79.788 2.441 8.736 o
1 3 8 30.655 31.475 1.671 18.649 o
1 3 10 17.610 19.759 1.681 18.428 o
1 3 11 24.219 22.941 1.911 14.257 o
1 4 0 1711.740 1643.450 14.457 0.249 o
1 4 1 159.434 153.764 1.601 20.316 o
1 4 2 1050.060 1042.130 9.435 0.585 o
1 4 3 89.333 93.685 1.311 30.307 o
1 4 4 107.361 107.412 1.531 22.218 o
1 4 5 105.988 105.891 1.651 19.104 o
1 4 6 16.172 15.668 1.061 46.289 o
1 4 7 141.011 138.427 3.442 4.395 o
1 4 8 32.156 32.126 1.721 17.580 o
1 4 9 3.735 3.192 1.111 42.212 o
1 4 10 21.690 21.280 1.781 16.415 o
1 4 11 12.262 11.666 1.591 20.573 o
1 4 12 28.833 28.474 2.171 11.045 o
1 5 0 334.341 331.320 3.222 5.016 o
1 5 1 437.185 428.756 4.142 3.034 o
1 5 2 17.302 18.219 0.400 325.062 o
1 5 3 21.867 22.561 0.510 199.961 o
1 5 4 78.552 81.960 1.311 30.307 o
1 5 5 8.174 8.384 0.520 192.344 o
1 5 6 11.948 13.016 0.650 123.100 o
1 5 7 28.846 29.954 1.020 49.990 o
1 5 8 103.038 100.208 3.051 5.591 o
1 5 9 27.528 28.023 1.801 16.052 o
1 5 10 32.617 32.045 2.051 12.376 o
1 5 11 5.268 6.023 1.421 25.794 o
1 5 12 70.787 67.262 3.051 5.591 o
1 6 0 61.257 60.579 0.780 85.486 o
1 6 1 20.595 21.430 0.430 281.287 o
1 6 2 214.184 214.934 2.261 10.183 o
1 6 3 133.028 135.255 1.601 20.316 o
1 6 4 126.607 127.671 1.831 15.530 o
1 6 5 218.603 225.018 2.951 5.976 o
1 6 6 20.438 21.440 0.800 81.266 o
1 6 7 61.282 60.469 1.441 25.082 o
1 6 8 15.766 14.747 0.900 64.210 o
1 6 9 8.824 9.855 1.271 32.246 o
1 6 10 38.887 40.780 2.261 10.183 o
1 6 11 2.768 3.872 1.321 29.850 o
1 7 0 18.045 18.849 0.430 281.287 o
1 7 1 332.352 332.280 3.342 4.662 o
1 7 2 156.980 158.676 1.781 16.415 o
1 7 3 4.586 5.072 0.370 379.912 o
1 7 4 81.475 81.990 1.201 36.118 o
1 7 5 73.519 71.454 1.361 28.120 o
1 7 6 6.952 7.624 0.610 139.774 o
1 7 7 10.200 9.314 0.750 92.462 o
1 7 8 93.290 89.533 1.921 14.109 o
1 7 9 13.994 15.557 0.990 53.066 o
1 7 10 32.076 31.075 2.061 12.256 o
1 7 11 7.951 8.444 1.551 21.648 o
1 7 12 23.571 22.411 2.041 12.498 o
1 8 0 390.155 393.750 3.922 3.385 o
1 8 1 230.495 229.701 2.431 8.808 o
1 8 2 10.139 10.035 0.420 294.841 o
1 8 3 249.037 252.311 2.751 6.877 o
1 8 4 44.548 44.241 0.870 68.714 o
1 8 5 68.447 67.903 1.351 28.538 o
1 8 6 9.430 8.904 0.670 115.861 o
1 8 7 56.124 55.197 1.421 25.794 o
1 8 8 3.428 3.182 0.480 225.738 o
1 8 9 7.674 8.184 0.730 97.598 o
1 8 10 24.354 24.042 1.231 34.378 o
1 8 11 15.819 15.317 1.161 38.652 o
1 9 0 2.499 3.192 0.340 449.913 o
1 9 1 224.031 227.450 2.481 8.456 o
1 9 2 56.555 60.519 0.960 56.434 o
1 9 3 27.722 28.414 0.690 109.242 o
1 9 4 2.279 2.131 0.380 360.180 o
1 9 5 90.266 88.192 1.431 25.434 o
1 9 6 11.151 10.845 0.750 92.462 o
1 9 7 68.120 66.002 1.581 20.834 o
1 9 8 50.217 50.214 1.491 23.427 o
1 9 9 19.736 19.439 1.091 43.776 o
1 9 10 7.214 7.233 0.790 83.336 o
1 9 11 24.620 23.061 1.281 31.744 o
1 10 0 39.444 42.160 0.790 83.336 o
1 10 1 132.035 128.482 1.641 19.337 o
1 10 2 57.944 58.238 0.980 54.154 o
1 10 3 77.203 78.038 1.211 35.523 o
1 10 4 21.199 22.241 0.690 109.242 o
1 10 5 9.469 9.324 0.570 160.080 o
1 10 6 2.442 2.381 0.430 281.287 o
1 10 7 17.895 18.379 0.940 58.861 o
1 10 8 40.831 38.939 1.351 28.538 o
1 10 9 30.812 28.994 1.291 31.254 o
1 10 10 62.353 54.866 1.761 16.790 o
1 10 11 19.297 18.359 1.201 36.118 o
1 11 0 91.429 94.866 1.331 29.402 o
1 11 1 17.033 16.788 0.550 171.934 o
1 11 2 113.303 115.506 1.561 21.372 o
1 11 3 14.901 16.318 0.580 154.607 o
1 11 4 61.790 61.059 1.151 39.327 o
1 11 5 34.315 35.117 0.930 60.134 o
1 11 6 10.472 9.635 0.660 119.398 o
1 11 7 21.226 21.400 0.890 65.661 o
1 11 8 93.001 93.635 2.081 12.021 o
1 11 9 44.742 45.192 1.541 21.930 o
1 11 10 14.986 15.978 1.121 41.462 o
1 11 11 2.751 3.532 0.580 154.607 o
1 12 0 26.824 26.353 0.690 109.242 o
1 12 2 113.327 113.014 1.591 20.573 o
1 12 3 31.588 31.625 0.820 77.350 o
1 12 4 142.036 137.966 1.951 13.678 o
1 12 5 24.436 24.562 0.840 73.710 o
1 12 6 28.481 28.404 0.940 58.861 o
1 12 7 2.397 1.871 0.450 256.839 o
1 12 8 12.668 11.536 0.950 57.629 o
1 12 9 7.942 8.764 0.810 79.271 o
1 12 10 48.865 44.672 1.611 20.065 o
1 12 11 0.864 1.581 0.520 192.344 o
1 13 0 57.206 56.127 1.061 46.289 o
1 13 1 123.953 124.980 1.731 17.378 o
1 13 2 110.560 107.932 1.601 20.316 o
1 13 3 34.239 33.106 0.890 65.661 o
1 13 4 25.113 26.573 0.840 73.710 o
1 13 5 43.737 43.811 1.131 40.731 o
1 13 6 7.546 7.384 0.590 149.411 o
1 13 7 40.535 41.490 1.221 34.944 o
1 13 8 27.078 27.753 1.241 33.825 o
1 13 9 16.548 15.778 1.111 42.212 o
1 14 1 28.624 28.964 0.810 79.271 o
1 14 2 53.205 53.576 1.111 42.212 o
1 14 3 112.417 112.474 1.741 17.179 o
1 14 4 41.080 38.599 1.040 48.086 o
1 14 5 38.769 39.379 1.101 42.983 o
1 14 6 27.461 27.443 0.980 54.154 o
1 14 7 25.691 24.122 1.030 49.024 o
1 14 8 1.895 1.181 0.500 208.040 o
1 14 9 7.144 7.764 0.810 79.271 o
1 14 10 7.314 6.443 0.650 123.100 o
1 15 0 83.335 84.511 1.451 24.737 o
1 15 1 85.709 85.801 1.481 23.744 o
1 15 2 30.237 30.985 0.900 64.210 o
1 15 3 33.469 32.796 0.960 56.434 o
1 15 4 2.170 2.921 0.390 341.946 o
1 15 5 29.192 29.234 1.000 52.010 o
1 15 6 11.619 10.785 0.800 81.266 o
1 15 7 34.485 31.665 1.151 39.327 o
1 15 8 43.476 45.362 1.351 28.538 o
1 15 9 20.538 21.800 1.211 35.523 o
1 15 10 10.197 10.325 0.860 70.322 o
1 16 0 24.054 23.951 0.830 75.497 o
1 16 1 60.950 60.499 1.261 32.760 o
1 16 2 28.709 27.053 0.920 61.448 o
1 16 3 9.775 9.104 0.600 144.472 o
1 16 4 22.082 23.091 0.890 65.661 o
1 16 5 72.645 76.997 1.601 20.316 o
1 16 6 2.879 2.921 0.420 294.841 o
1 16 7 23.605 25.332 1.051 47.175 o
1 16 8 5.575 5.473 0.510 199.961 o
1 16 9 41.751 42.090 1.551 21.648 o
1 17 0 29.298 28.924 0.940 58.861 o
1 17 1 24.578 24.902 0.880 67.162 o
1 17 2 76.379 74.156 1.491 23.427 o
1 17 3 25.478 24.512 0.920 61.448 o
1 17 4 26.534 27.513 1.000 52.010 o
1 17 5 10.833 11.225 0.780 85.486 o
1 17 6 20.419 21.080 0.980 54.154 o
1 17 7 18.970 20.090 0.990 53.066 o
1 17 8 30.281 26.293 1.161 38.652 o
1 17 9 17.829 17.939 1.030 49.024 o
1 18 0 0.780 0.910 0.370 379.912 o
1 18 1 22.950 23.291 0.910 62.806 o
1 18 2 107.326 107.812 1.891 14.560 o
1 18 3 27.235 25.973 0.980 54.154 o
1 18 4 55.707 57.378 1.431 25.434 o
1 18 5 7.531 6.813 0.630 131.040 o
1 18 6 13.483 13.576 0.880 67.162 o
1 18 7 43.830 42.180 1.361 28.120 o
1 18 8 4.840 5.353 0.510 199.961 o
1 18 9 11.780 11.345 0.880 67.162 o
1 19 0 32.820 33.026 1.081 44.590 o
1 19 1 14.378 14.987 0.810 79.271 o
1 19 2 39.715 40.359 1.181 37.353 o
1 19 3 27.047 26.653 1.030 49.024 o
1 19 4 40.013 39.969 1.221 34.944 o
1 19 5 17.719 18.299 0.950 57.629 o
1 19 6 10.825 11.566 0.840 73.710 o
1 19 7 6.507 6.613 0.600 144.472 o
1 19 8 1.760 2.221 0.430 281.287 o
1 20 0 41.615 39.429 1.221 34.944 o
1 20 1 6.370 5.703 0.470 235.446 o
1 20 2 10.211 9.505 0.690 109.242 o
1 20 3 7.832 7.604 0.650 123.100 o
1 20 4 8.978 9.054 0.780 85.486 o
1 20 5 65.618 63.340 1.611 20.065 o
1 20 6 32.475 30.955 1.221 34.944 o
1 20 7 13.576 15.137 0.970 55.277 o
1 21 0 1.243 1.401 0.420 294.841 o
1 21 1 1.448 2.021 0.400 325.062 o
1 21 2 21.637 22.401 1.000 52.010 o
1 21 3 23.876 23.101 1.030 49.024 o
1 21 4 11.095 10.575 0.770 87.721 o
1 21 5 24.785 24.592 1.091 43.776 o
1 21 6 8.834 9.214 0.760 90.045 o
1 21 7 8.322 9.124 0.650 123.100 o
1 22 0 3.383 3.912 0.460 245.794 o
1 22 1 32.832 34.046 1.181 37.353 o
1 22 2 38.272 35.827 1.251 33.286 o
1 22 3 6.190 7.043 0.600 144.472 o
1 22 4 20.558 21.320 1.020 49.990 o
1 22 5 1.672 1.691 0.420 294.841 o
1 22 6 9.757 8.454 0.740 94.978 o
1 23 0 5.650 6.863 0.590 149.411 o
1 23 1 9.222 10.435 0.870 68.714 o
1 23 2 42.546 42.511 1.391 26.919 o
1 23 3 2.727 2.691 0.450 256.839 o
1 23 4 14.200 14.767 0.940 58.861 o
1 23 5 3.568 4.482 0.490 216.618 o
1 23 6 11.946 11.786 0.870 68.714 o
1 24 0 9.793 9.585 0.770 87.721 o
1 24 1 21.291 20.500 1.051 47.175 o
1 24 2 9.876 10.435 0.780 85.486 o
1 24 3 7.689 7.964 0.630 131.040 o
1 24 4 2.081 2.091 0.420 294.841 o
1 24 5 18.094 17.078 0.980 54.154 o
1 25 1 8.395 9.294 0.800 81.266 o
1 25 3 15.509 17.538 1.141 40.020 o
1 26 0 6.353 7.173 0.620 135.302 o
1 26 1 0.859 1.961 0.470 235.446 o
1 26 2 3.676 4.402 0.550 171.934 o
2 0 0 41.850 41.050 0.520 192.344 o
2 0 1 1.600 1.601 0.160 2031.640 o
2 0 2 3.788 4.112 0.220 1074.590 o
2 0 3 133.505 129.342 1.501 23.116 o
2 0 4 51.396 55.607 1.501 23.116 o
2 0 5 141.940 141.528 3.041 5.628 o
2 0 6 73.776 74.906 2.161 11.148 o
2 0 7 6.528 7.263 0.960 56.434 o
2 0 8 53.511 52.986 2.151 11.252 o
2 0 9 70.973 74.176 2.711 7.082 o
2 0 10 49.601 48.693 2.401 9.030 o
2 0 11 11.998 12.336 1.641 19.337 o
2 0 12 47.957 45.732 2.591 7.753 o
2 1 0 29.154 30.465 0.430 281.287 o
2 1 1 76.794 76.367 0.860 70.322 o
2 1 2 306.933 302.145 2.991 5.818 o
2 1 3 135.381 137.466 1.551 21.648 o
2 1 4 100.177 104.690 1.511 22.810 o
2 1 5 35.918 33.266 1.281 31.744 o
2 1 6 86.403 92.044 2.451 8.665 o
2 1 7 43.843 43.041 1.781 16.415 o
2 1 8 58.017 57.628 2.251 10.274 o
2 1 9 15.901 17.128 1.471 24.069 o
2 1 10 67.224 65.832 2.771 6.778 o
2 1 11 10.951 9.715 1.561 21.372 o
2 1 12 21.548 20.160 2.051 12.376 o
2 2 0 1735.430 1643.420 14.477 0.248 o
2 2 1 266.689 271.581 2.671 7.296 o
2 2 2 1063.130 1061.700 9.605 0.564 o
2 2 3 378.226 375.691 3.722 3.758 o
2 2 4 127.068 128.452 1.791 16.232 o
2 2 5 154.660 158.026 2.201 10.746 o
2 2 6 2.092 2.261 0.700 106.143 o
2 2 7 12.243 12.306 1.101 42.983 o
2 2 8 24.388 23.101 1.551 21.648 o
2 2 9 109.184 107.172 3.362 4.607 o
2 2 10 2.097 2.801 1.161 38.652 o
2 2 11 3.666 3.242 1.341 28.965 o
2 2 12 6.695 6.093 1.591 20.573 o
2 3 0 781.740 770.031 7.023 1.055 o
2 3 1 537.406 525.163 4.942 2.131 o
2 3 2 108.203 104.850 1.231 34.378 o
2 3 3 437.548 438.921 4.342 2.761 o
2 3 4 127.054 130.623 1.811 15.876 o
2 3 5 31.107 30.985 0.830 75.497 o
2 3 6 2.481 2.211 0.560 165.848 o
2 3 7 13.873 14.187 1.171 37.994 o
2 3 8 27.796 28.444 1.641 19.337 o
2 3 9 4.791 5.253 1.081 44.590 o
2 3 10 6.535 6.433 1.311 30.307 o
2 3 11 6.542 7.113 1.431 25.434 o
2 3 12 41.254 41.750 2.481 8.456 o
2 4 0 35.556 35.097 0.520 192.344 o
2 4 1 153.521 154.484 1.631 19.575 o
2 4 2 85.932 87.202 1.071 45.428 o
2 4 3 64.624 64.481 0.920 61.448 o
2 4 4 12.676 12.736 0.560 165.848 o
2 4 5 144.187 145.310 2.081 12.021 o
2 4 6 22.197 22.171 0.800 81.266 o
2 4 7 131.288 127.701 2.621 7.577 o
2 4 8 16.509 15.607 1.351 28.538 o
2 4 9 48.176 47.793 2.251 10.274 o
2 4 10 4.484 4.592 1.231 34.378 o
2 4 12 12.125 10.955 1.741 17.179 o
2 5 0 86.542 89.213 1.061 46.289 o
2 5 1 413.022 417.801 4.062 3.155 o
2 5 2 8.367 8.214 0.340 449.913 o
2 5 3 240.652 244.228 2.611 7.635 o
2 5 4 59.977 58.598 0.960 56.434 o
2 5 5 62.214 62.440 1.221 34.944 o
2 5 6 95.794 96.576 1.721 17.580 o
2 5 7 69.641 69.564 1.541 21.930 o
2 5 8 56.989 55.387 1.491 23.427 o
2 5 9 10.527 11.235 1.361 28.120 o
2 5 10 46.724 45.732 2.361 9.338 o
2 6 0 2075.150 2037.390 18.089 0.159 o
2 6 1 23.075 22.431 0.470 235.446 o
2 6 2 279.272 285.978 2.951 5.976 o
2 6 3 85.858 89.133 1.201 36.118 o
2 6 4 107.983 105.981 1.421 25.794 o
2 6 5 12.002 12.226 0.620 135.302 o
2 6 7 29.209 28.734 1.040 48.086 o
2 6 8 48.586 46.102 1.411 26.161 o
2 6 9 50.310 48.853 1.541 21.930 o
2 6 10 16.693 16.628 1.631 19.575 o
2 6 11 13.894 13.366 1.641 19.337 o
2 6 12 30.056 28.744 2.171 11.045 o
2 7 0 283.244 287.568 2.941 6.017 o
2 7 1 94.315 95.916 1.201 36.118 o
2 7 2 136.380 137.446 1.631 19.575 o
2 7 3 102.380 106.371 1.381 27.310 o
2 7 4 98.551 100.378 1.401 26.536 o
2 7 5 14.323 13.867 0.690 109.242 o
2 7 6 75.736 75.566 1.531 22.218 o
2 7 7 83.698 81.980 1.741 17.179 o
2 7 8 43.172 40.980 1.341 28.965 o
2 7 9 10.163 10.355 0.900 64.210 o
2 7 10 26.966 25.692 1.291 31.254 o
2 8 0 0.248 0.750 0.300 577.888 o
2 8 1 4.314 4.742 0.350 424.571 o
2 8 2 137.138 141.068 1.721 17.580 o
2 8 3 116.165 117.176 1.521 22.511 o
2 8 4 110.282 114.095 1.561 21.372 o
2 8 5 59.458 61.450 1.151 39.327 o
2 8 7 80.102 80.709 1.731 17.378 o
2 8 9 2.020 3.292 0.530 185.155 o
2 8 10 30.318 29.784 1.371 27.710 o
2 8 11 5.995 5.543 0.640 126.977 o
2 9 0 229.553 230.001 2.531 8.125 o
2 9 1 266.488 267.449 2.881 6.270 o
2 9 2 124.545 125.460 1.581 20.834 o
2 9 3 280.243 283.477 3.122 5.343 o
2 9 4 45.599 47.633 0.960 56.434 o
2 9 5 25.182 25.662 0.790 83.336 o
2 9 6 3.721 4.822 0.470 235.446 o
2 9 7 4.654 4.882 0.520 192.344 o
2 9 8 11.254 11.526 0.780 85.486 o
2 9 9 38.398 37.588 1.401 26.536 o
2 9 10 11.097 11.976 0.900 64.210 o
2 10 0 246.986 249.000 2.731 6.978 o
2 10 1 8.665 8.524 0.450 256.839 o
2 10 2 2.698 2.591 0.360 401.311 o
2 10 3 246.401 251.661 2.861 6.358 o
2 10 4 134.793 135.475 1.841 15.362 o
2 10 5 135.683 135.785 1.931 13.963 o
2 10 6 10.180 11.866 0.680 112.478 o
2 10 7 8.560 9.304 0.780 85.486 o
2 10 8 1.131 1.381 0.480 225.738 o
2 10 9 12.222 13.837 1.000 52.010 o
2 10 10 32.826 32.826 1.421 25.794 o
2 10 11 5.516 6.173 0.770 87.721 o
2 11 0 2.397 2.361 0.350 424.571 o
2 11 1 5.088 4.652 0.420 294.841 o
2 11 2 63.394 62.770 1.101 42.983 o
2 11 3 11.841 11.766 0.570 160.080 o
2 11 4 48.826 48.794 1.051 47.175 o
2 11 5 59.162 59.099 1.231 34.378 o
2 11 6 101.797 102.349 1.751 16.983 o
2 11 7 93.260 95.636 2.021 12.746 o
2 11 8 9.571 8.354 0.760 90.045 o
2 11 9 14.778 15.317 1.051 47.175 o
2 11 10 42.197 43.431 1.551 21.648 o
2 11 11 3.400 4.492 0.600 144.472 o
2 12 0 43.630 42.480 0.890 65.661 o
2 12 1 41.142 39.839 0.870 68.714 o
2 12 2 56.528 56.117 1.061 46.289 o
2 12 3 83.053 82.740 1.381 27.310 o
2 12 4 12.544 12.416 0.640 126.977 o
2 12 5 14.479 14.017 0.730 97.598 o
2 12 6 8.106 7.724 0.530 185.155 o
2 12 7 1.338 2.131 0.380 360.180 o
2 12 9 16.730 17.018 1.111 42.212 o
2 12 10 48.657 47.353 1.651 19.104 o
2 13 0 161.892 164.429 2.101 11.794 o
2 13 1 78.279 78.148 1.321 29.850 o
2 13 2 70.497 71.965 1.281 31.744 o
2 13 3 42.385 42.961 1.010 50.985 o
2 13 5 1.329 2.211 0.370 379.912 o
2 13 6 60.367 61.049 1.391 26.919 o
2 13 7 47.504 47.933 1.331 29.402 o
2 13 8 33.780 30.785 1.341 28.965 o
2 13 9 32.961 34.427 1.431 25.434 o
2 13 10 6.417 6.953 0.670 115.861 o
2 14 0 10.738 10.705 0.590 149.411 o
2 14 1 42.022 43.791 1.000 52.010 o
2 14 2 31.309 33.116 0.890 65.661 o
2 14 3 49.011 47.193 1.111 42.212 o
2 14 4 12.213 11.456 0.690 109.242 o
2 14 5 92.406 90.544 1.681 18.428 o
2 14 6 10.597 11.035 0.730 97.598 o
2 14 7 37.197 39.439 1.221 34.944 o
2 14 8 8.396 9.775 0.790 83.336 o
2 14 9 66.965 70.844 1.941 13.819 o
2 14 10 16.693 16.748 1.131 40.731 o
2 15 0 70.699 68.473 1.301 30.775 o
2 15 1 21.175 23.251 0.790 83.336 o
2 15 2 32.276 31.155 0.920 61.448 o
2 15 3 16.383 16.628 0.780 85.486 o
2 15 4 12.299 12.566 0.730 97.598 o
2 15 5 11.490 12.446 0.750 92.462 o
2 15 6 56.463 55.617 1.411 26.161 o
2 15 7 31.965 32.105 1.171 37.994 o
2 15 8 6.880 6.873 0.680 112.478 o
2 15 10 2.413 2.891 0.560 165.848 o
2 16 0 38.113 36.217 1.000 52.010 o
2 16 1 3.474 3.492 0.390 341.946 o
2 16 2 76.150 71.704 1.431 25.434 o
2 16 3 2.345 2.731 0.390 341.946 o
2 16 4 24.671 24.682 0.900 64.210 o
2 16 5 1.121 1.111 0.350 424.571 o
2 16 6 14.969 15.057 0.880 67.162 o
2 16 7 4.654 4.202 0.470 235.446 o
2 16 8 2.379 3.182 0.460 245.794 o
2 16 9 16.104 15.217 0.990 53.066 o
2 17 0 35.826 34.927 1.020 49.990 o
2 17 1 11.259 9.865 0.680 112.478 o
2 17 3 11.177 12.496 0.740 94.978 o
2 17 4 39.489 37.958 1.161 38.652 o
2 17 5 5.235 5.223 0.470 235.446 o
2 17 6 46.283 45.962 1.341 28.965 o
2 17 7 49.297 49.794 1.451 24.737 o
2 17 8 23.770 23.031 1.111 42.212 o
2 17 9 3.748 4.242 0.510 199.961 o
2 18 0 42.856 42.791 1.171 37.994 o
2 18 1 10.014 9.745 0.710 103.174 o
2 18 2 9.755 10.595 0.720 100.328 o
2 18 3 2.760 2.061 0.380 360.180 o
2 18 4 26.421 24.852 1.020 49.990 o
2 18 5 43.942 43.411 1.341 28.965 o
2 18 6 48.653 48.633 1.431 25.434 o
2 18 7 9.225 9.695 0.750 92.462 o
2 18 8 1.586 1.881 0.420 294.841 o
2 19 0 35.802 36.968 1.141 40.020 o
2 19 1 28.591 28.624 1.040 48.086 o
2 19 2 1.269 1.111 0.360 401.311 o
2 19 3 38.174 38.058 1.191 36.728 o
2 19 4 8.566 8.534 0.690 109.242 o
2 19 5 9.466 10.895 0.820 77.350 o
2 19 6 1.359 2.301 0.430 281.287 o
2 19 7 5.837 6.863 0.620 135.302 o
2 19 8 5.514 6.583 0.530 185.155 o
2 20 0 1.527 0.900 0.360 401.311 o
2 20 1 69.467 70.154 1.601 20.316 o
2 20 2 30.803 31.185 1.101 42.983 o
2 20 3 8.867 9.675 0.650 123.100 o
2 20 4 24.235 26.103 1.071 45.428 o
2 20 5 1.394 1.381 0.410 309.399 o
2 20 6 3.680 3.732 0.470 235.446 o
2 20 7 0.361 0.960 0.400 325.062 o
2 21 0 7.969 7.574 0.630 131.040 o
2 21 1 26.958 28.264 1.101 42.983 o
2 21 2 28.753 29.614 1.141 40.020 o
2 21 3 42.899 42.440 1.341 28.965 o
2 21 4 19.436 19.860 1.020 49.990 o
2 21 5 1.031 0.930 0.400 325.062 o
2 21 6 14.096 13.466 0.940 58.861 o
2 21 7 11.296 10.185 0.780 85.486 o
2 22 0 15.056 14.807 0.910 62.806 o
2 22 1 23.219 22.841 1.051 47.175 o
2 22 2 3.209 3.492 0.460 245.794 o
2 22 3 8.750 7.644 0.700 106.143 o
2 22 4 17.759 16.438 1.010 50.985 o
2 22 5 19.970 20.540 1.020 49.990 o
2 22 6 45.596 44.782 1.391 26.919 o
2 23 0 10.416 10.925 0.860 70.322 o
2 23 1 2.949 2.511 0.440 268.646 o
2 23 2 1.800 2.481 0.440 268.646 o
2 23 3 4.037 5.102 0.560 165.848 o
2 23 4 20.406 22.961 1.051 47.175 o
2 23 5 16.075 16.108 1.000 52.010 o
2 24 0 32.062 31.705 1.211 35.523 o
2 24 1 38.091 40.279 1.311 30.307 o
2 24 2 9.211 8.534 0.740 94.978 o
2 24 4 4.387 3.272 0.460 245.794 o
2 25 0 3.064 4.032 0.560 165.848 o
2 25 1 22.820 22.511 1.291 31.254 o
2 25 2 41.902 39.089 1.631 19.575 o
2 25 3 12.447 12.786 1.051 47.175 o
2 26 0 0.861 1.051 0.440 268.646 o
2 26 1 29.794 29.834 1.421 25.794 o
3 0 1 168.305 171.943 1.821 15.702 o
3 0 3 181.292 179.496 2.001 13.002 o
3 0 4 10.112 11.335 0.460 245.794 o
3 0 5 49.637 48.883 0.950 57.629 o
3 0 7 5.411 5.793 0.980 54.154 o
3 0 8 2.044 2.091 0.980 54.154 o
3 0 9 68.725 67.562 2.651 7.406 o
3 0 12 7.252 5.403 1.631 19.575 o
3 1 0 31.132 30.355 0.500 208.040 o
3 1 1 359.296 361.174 3.562 4.104 o
3 1 2 181.915 175.915 1.921 14.109 o
3 1 3 242.510 246.099 2.611 7.635 o
3 1 4 110.089 110.913 1.441 25.082 o
3 1 5 42.769 43.761 0.900 64.210 o
3 1 6 3.400 3.702 0.500 208.040 o
3 1 8 112.620 111.404 3.252 4.924 o
3 1 9 11.515 11.696 1.381 27.310 o
3 1 10 52.195 56.187 2.551 7.998 o
3 1 11 10.404 10.745 1.641 19.337 o
3 1 12 6.246 7.163 1.641 19.337 o
3 2 1 59.381 57.718 0.770 87.721 o
3 2 2 262.078 266.048 2.731 6.978 o
3 2 3 17.149 17.028 0.500 208.040 o
3 2 4 29.301 30.305 0.680 112.478 o
3 2 5 34.273 34.707 0.810 79.271 o
3 2 6 40.255 40.810 1.071 45.428 o
3 2 7 149.203 148.161 3.652 3.904 o
3 2 8 56.027 58.228 2.301 9.832 o
3 2 9 19.669 18.979 1.581 20.834 o
3 2 10 26.561 27.183 1.961 13.539 o
3 2 11 13.743 14.837 1.691 18.210 o
3 2 12 3.514 3.202 1.501 23.116 o
3 3 0 69.255 67.723 0.860 70.322 o
3 3 1 424.293 425.095 4.162 3.005 o
3 3 2 261.927 261.156 2.711 7.082 o
3 3 3 163.104 163.659 1.881 14.715 o
3 3 4 76.069 78.388 1.161 38.652 o
3 3 5 68.313 71.684 1.191 36.728 o
3 3 6 4.405 4.722 0.550 171.934 o
3 3 7 30.562 28.384 1.051 47.175 o
3 3 8 44.788 44.882 2.051 12.376 o
3 3 9 13.554 13.657 1.461 24.399 o
3 3 10 76.945 80.749 3.111 5.377 o
3 3 11 33.697 34.116 2.231 10.459 o
3 4 0 403.610 404.785 3.952 3.333 o
3 4 1 80.517 80.149 1.020 49.990 o
3 4 2 53.361 53.906 0.840 73.710 o
3 4 3 13.469 12.346 0.470 235.446 o
3 4 4 23.581 24.462 0.630 131.040 o
3 4 5 68.126 70.114 1.191 36.728 o
3 4 6 9.408 9.354 0.660 119.398 o
3 4 7 10.205 9.435 0.770 87.721 o
3 4 8 38.846 38.168 1.281 31.744 o
3 4 9 98.709 99.818 3.302 4.776 o
3 4 10 12.917 11.696 1.541 21.930 o
3 4 11 16.721 16.588 1.831 15.530 o
3 5 0 200.745 204.168 2.171 11.045 o
3 5 1 23.142 23.782 0.520 192.344 o
3 5 2 307.676 308.218 3.192 5.111 o
3 5 3 199.751 209.481 2.321 9.663 o
3 5 4 264.127 264.778 2.921 6.100 o
3 5 5 71.216 70.844 1.211 35.523 o
3 5 6 20.907 20.580 0.840 73.710 o
3 5 7 31.792 31.395 1.101 42.983 o
3 5 8 39.684 37.748 1.281 31.744 o
3 5 10 6.790 7.003 1.381 27.310 o
3 5 11 15.573 15.327 1.711 17.787 o
3 6 0 36.872 38.599 0.680 112.478 o
3 6 1 66.643 67.493 0.960 56.434 o
3 6 2 616.799 624.511 6.123 1.389 o
3 6 3 3.641 3.322 0.370 379.912 o
3 6 4 81.756 78.278 1.221 34.944 o
3 6 5 42.007 43.061 0.940 58.861 o
3 6 6 19.270 18.239 0.840 73.710 o
3 6 7 12.242 11.756 0.830 75.497 o
3 6 8 26.147 25.662 1.111 42.212 o
3 6 9 7.961 7.924 0.650 123.100 o
3 6 10 22.445 22.851 1.221 34.944 o
3 6 11 11.921 11.886 1.661 18.874 o
3 7 0 239.640 237.925 2.551 7.998 o
3 7 1 154.991 155.835 1.821 15.702 o
3 7 2 6.081 7.143 0.410 309.399 o
3 7 3 246.430 248.930 2.761 6.828 o
3 7 4 55.433 58.258 1.051 47.175 o
3 7 5 119.279 119.958 1.721 17.580 o
3 7 6 40.511 38.498 1.121 41.462 o
3 7 7 35.192 35.237 1.181 37.353 o
3 7 8 29.419 29.624 1.181 37.353 o
3 7 9 8.086 8.834 0.730 97.598 o
3 7 10 9.630 11.456 0.870 68.714 o
3 7 11 21.833 22.091 1.261 32.760 o
3 8 0 77.395 79.048 1.131 40.731 o
3 8 1 41.374 41.800 0.790 83.336 o
3 8 2 87.549 87.102 1.241 33.825 o
3 8 3 41.471 42.160 0.850 71.986 o
3 8 4 52.600 52.735 1.030 49.024 o
3 8 5 186.934 183.168 2.341 9.498 o
3 8 6 19.075 18.369 0.780 85.486 o
3 8 7 12.676 10.915 0.840 73.710 o
3 8 8 33.854 32.696 1.261 32.760 o
3 8 9 44.232 42.340 1.501 23.116 o
3 8 10 7.651 7.103 0.670 115.861 o
3 8 11 5.658 6.383 0.790 83.336 o
3 9 0 105.749 105.481 1.411 26.161 o
3 9 1 381.050 374.000 3.932 3.367 o
3 9 2 60.605 60.909 1.030 49.024 o
3 9 3 23.862 25.602 0.710 103.174 o
3 9 4 64.152 65.942 1.191 36.728 o
3 9 5 1.812 1.781 0.460 245.794 o
3 9 6 31.129 31.715 0.950 57.629 o
3 9 7 103.200 106.601 2.091 11.907 o
3 9 8 22.436 21.710 1.101 42.983 o
3 9 9 6.289 6.163 0.630 131.040 o
3 9 10 34.132 32.676 1.421 25.794 o
3 9 11 11.068 10.535 0.820 77.350 o
3 10 0 29.091 29.404 0.710 103.174 o
3 10 1 36.128 36.127 0.800 81.266 o
3 10 2 249.283 248.520 2.821 6.540 o
3 10 3 11.156 11.315 0.550 171.934 o
3 10 4 20.690 20.540 0.710 103.174 o
3 10 5 131.923 130.683 1.941 13.819 o
3 10 6 23.597 23.481 0.870 68.714 o
3 10 7 49.426 49.554 1.281 31.744 o
3 10 8 5.302 4.312 0.550 171.934 o
3 10 9 27.514 27.363 1.271 32.246 o
3 10 10 7.859 7.434 0.820 77.350 o
3 10 11 8.537 8.794 0.850 71.986 o
3 11 0 247.250 246.068 2.801 6.634 o
3 11 1 52.833 52.445 1.010 50.985 o
3 11 2 35.996 33.876 0.830 75.497 o
3 11 3 75.106 74.286 1.291 31.254 o
3 11 4 29.953 28.394 0.860 70.322 o
3 11 5 5.543 7.143 0.520 192.344 o
3 11 6 67.305 66.422 1.421 25.794 o
3 11 7 6.137 6.033 0.470 235.446 o
3 11 8 98.771 97.857 2.171 11.045 o
3 11 9 3.759 4.162 0.580 154.607 o
3 11 10 5.065 4.482 0.600 144.472 o
3 11 11 10.261 9.204 2.881 6.270 o
3 12 0 8.560 8.014 0.520 192.344 o
3 12 1 55.003 53.256 1.061 46.289 o
3 12 2 104.424 104.180 1.591 20.573 o
3 12 3 40.551 39.309 0.950 57.629 o
3 12 4 28.269 29.334 0.880 67.162 o
3 12 5 123.635 120.848 1.921 14.109 o
3 12 6 2.833 3.532 0.420 294.841 o
3 12 7 2.540 2.341 0.390 341.946 o
3 12 8 16.187 16.908 1.051 47.175 o
3 12 9 4.016 4.832 0.600 144.472 o
3 12 10 0.878 1.101 0.500 208.040 o
3 13 0 3.230 2.681 0.440 268.646 o
3 13 1 87.287 87.652 1.481 23.744 o
3 13 2 25.954 25.662 0.800 81.266 o
3 13 3 10.957 12.156 0.650 123.100 o
3 13 4 100.645 102.439 1.711 17.787 o
3 13 5 9.695 10.055 0.700 106.143 o
3 13 6 56.246 55.317 1.371 27.710 o
3 13 7 36.830 37.298 1.201 36.118 o
3 13 8 7.375 6.183 0.570 160.080 o
3 13 9 1.625 1.511 0.520 192.344 o
3 13 10 19.354 18.659 1.191 36.728 o
3 14 0 2.884 3.672 0.480 225.738 o
3 14 1 26.396 26.493 0.840 73.710 o
3 14 2 6.968 6.503 0.580 154.607 o
3 14 3 9.010 8.874 0.580 154.607 o
3 14 4 9.638 9.835 0.670 115.861 o
3 14 5 66.853 62.570 1.431 25.434 o
3 14 6 24.234 25.192 1.000 52.010 o
3 14 7 48.727 48.013 1.351 28.538 o
3 14 8 4.495 4.492 0.480 225.738 o
3 14 9 28.724 30.505 1.331 29.402 o
3 14 10 17.670 16.618 1.111 42.212 o
3 15 0 22.715 23.521 0.830 75.497 o
3 15 1 1.476 1.951 0.360 401.311 o
3 15 2 12.423 12.626 0.700 106.143 o
3 15 3 11.865 11.776 0.710 103.174 o
3 15 4 36.924 36.778 1.091 43.776 o
3 15 5 42.989 43.281 1.221 34.944 o
3 15 6 6.900 7.033 0.570 160.080 o
3 15 7 36.428 36.407 1.241 33.825 o
3 15 8 17.808 17.639 0.970 55.277 o
3 15 9 6.399 6.283 0.600 144.472 o
3 16 0 43.444 42.010 1.111 42.212 o
3 16 1 36.628 38.539 1.071 45.428 o
3 16 2 35.374 35.927 1.040 48.086 o
3 16 3 1.697 2.001 0.380 360.180 o
3 16 4 16.276 16.918 0.820 77.350 o
3 16 5 9.563 9.795 0.760 90.045 o
3 16 6 41.028 40.800 1.281 31.744 o
3 16 7 2.958 2.721 0.440 268.646 o
3 16 8 17.124 15.027 0.970 55.277 o
3 16 9 9.742 8.834 0.650 123.100 o
3 17 0 41.571 41.400 1.141 40.020 o
3 17 1 30.735 29.544 0.990 53.066 o
3 17 2 27.765 27.923 0.980 54.154 o
3 17 3 8.574 8.004 0.620 135.302 o
3 17 4 31.463 31.495 1.091 43.776 o
3 17 5 2.807 3.071 0.430 281.287 o
3 17 6 23.561 23.461 1.040 48.086 o
3 17 7 3.106 2.771 0.440 268.646 o
3 17 8 10.322 10.975 0.880 67.162 o
3 17 9 21.579 21.330 1.061 46.289 o
3 18 0 1.506 2.091 0.370 379.912 o
3 18 1 52.087 49.994 1.301 30.775 o
3 18 2 8.784 8.854 0.700 106.143 o
3 18 4 23.569 24.932 1.030 49.024 o
3 18 5 5.443 6.263 0.520 192.344 o
3 18 6 10.547 9.965 0.750 92.462 o
3 18 7 7.674 7.664 0.620 135.302 o
3 18 8 8.691 8.144 0.630 131.040 o
3 19 0 2.516 2.881 0.410 309.399 o
3 19 1 18.691 19.309 0.900 64.210 o
3 19 2 6.129 5.413 0.530 185.155 o
3 19 3 9.427 10.065 0.800 81.266 o
3 19 4 17.048 16.508 0.920 61.448 o
3 19 5 12.353 10.375 0.760 90.045 o
3 19 6 21.197 21.350 1.061 46.289 o
3 19 7 20.971 20.400 1.061 46.289 o
3 19 8 22.059 22.601 1.091 43.776 o
3 20 0 25.910 27.333 1.051 47.175 o
3 20 1 3.809 3.622 0.440 268.646 o
3 20 2 11.489 11.315 0.820 77.350 o
3 20 3 6.873 5.983 0.510 199.961 o
3 20 4 20.550 20.400 0.990 53.066 o
3 20 5 2.054 2.771 0.450 256.839 o
3 20 6 60.551 62.100 1.621 19.818 o
3 20 7 10.250 8.974 0.730 97.598 o
3 21 0 29.033 29.734 1.121 41.462 o
3 21 1 62.319 66.242 1.601 20.316 o
3 21 3 1.898 1.581 0.410 309.399 o
3 21 4 23.471 25.192 1.091 43.776 o
3 21 5 3.066 3.502 0.470 235.446 o
3 21 6 4.937 5.653 0.520 192.344 o
3 21 7 5.207 5.092 0.500 208.040 o
3 22 0 3.526 3.992 0.470 235.446 o
3 22 1 63.023 60.669 1.601 20.316 o
3 22 2 2.831 2.751 0.440 268.646 o
3 22 3 6.511 6.253 0.530 185.155 o
3 22 4 6.544 6.823 0.610 139.774 o
3 22 5 15.230 14.807 0.970 55.277 o
3 22 6 5.785 5.042 0.500 208.040 o
3 23 1 14.901 15.137 0.930 60.134 o
3 23 2 9.509 9.605 0.850 71.986 o
3 23 3 39.303 38.959 1.351 28.538 o
3 23 4 9.791 9.835 0.840 73.710 o
3 23 5 2.907 3.692 0.470 235.446 o
3 24 0 8.731 7.884 0.640 126.977 o
3 24 1 26.502 29.194 1.181 37.353 o
3 24 2 26.218 26.983 1.151 39.327 o
3 24 3 6.726 8.324 0.710 103.174 o
3 24 4 0.955 1.071 0.400 325.062 o
3 25 0 26.336 28.944 1.401 26.536 o
3 25 1 6.127 7.634 0.750 92.462 o
3 25 2 4.534 4.442 0.550 171.934 o
4 0 0 384.919 384.345 3.812 3.583 o
4 0 1 1.112 1.431 0.290 618.430 o
4 0 2 9.915 10.515 0.430 281.287 o
4 0 3 4.469 4.582 0.380 360.180 o
4 0 4 73.617 75.707 1.171 37.994 o
4 0 5 27.345 27.353 0.760 90.045 o
4 0 7 138.343 135.535 2.061 12.256 o
4 0 8 40.540 43.441 2.051 12.376 o
4 0 9 18.623 18.879 1.621 19.818 o
4 0 11 27.665 27.353 2.091 11.907 o
4 1 0 376.289 378.602 3.802 3.602 o
4 1 1 145.096 145.550 1.671 18.649 o
4 1 2 258.978 258.845 2.771 6.778 o
4 1 3 219.803 219.956 2.431 8.808 o
4 1 4 119.392 121.468 1.601 20.316 o
4 1 5 20.966 22.551 0.700 106.143 o
4 1 6 87.531 86.672 1.471 24.069 o
4 1 7 10.134 9.244 0.700 106.143 o
4 1 8 18.957 19.259 1.221 34.944 o
4 1 9 12.870 13.447 1.461 24.399 o
4 1 10 78.633 81.479 3.162 5.208 o
4 2 0 39.099 39.449 0.690 109.242 o
4 2 1 34.770 33.906 0.650 123.100 o
4 2 2 10.213 9.485 0.440 268.646 o
4 2 3 36.606 37.638 0.770 87.721 o
4 2 4 32.785 33.416 0.770 87.721 o
4 2 5 5.752 6.073 0.480 225.738 o
4 2 6 14.115 15.007 0.670 115.861 o
4 2 7 13.230 12.586 0.820 77.350 o
4 2 8 13.614 13.466 0.890 65.661 o
4 2 9 12.330 13.056 1.431 25.434 o
4 2 10 13.489 13.937 1.611 20.065 o
4 2 11 2.894 3.111 1.321 29.850 o
4 3 0 1.963 1.721 0.300 577.888 o
4 3 1 146.911 147.571 1.711 17.787 o
4 3 2 74.625 73.595 1.061 46.289 o
4 3 3 449.319 454.309 4.592 2.469 o
4 3 4 93.797 94.746 1.371 27.710 o
4 3 5 161.803 160.527 2.071 12.138 o
4 3 6 26.897 25.212 0.820 77.350 o
4 3 7 11.483 11.876 0.800 81.266 o
4 3 8 11.988 11.586 0.870 68.714 o
4 3 9 23.316 23.721 1.181 37.353 o
4 3 10 3.971 3.041 1.261 32.760 o
4 3 11 9.132 8.854 1.541 21.930 o
4 4 0 33.726 36.237 0.690 109.242 o
4 4 1 12.728 11.886 0.450 256.839 o
4 4 2 191.029 195.854 2.201 10.746 o
4 4 3 94.215 93.135 1.311 30.307 o
4 4 4 34.446 34.387 0.790 83.336 o
4 4 5 27.618 28.014 0.780 85.486 o
4 4 6 11.805 11.626 0.650 123.100 o
4 4 7 64.437 63.931 1.551 21.648 o
4 4 8 27.739 28.624 1.161 38.652 o
4 4 9 55.441 58.198 1.681 18.428 o
4 4 10 30.091 29.694 1.341 28.965 o
4 4 11 32.826 32.396 2.211 10.649 o
4 5 0 14.746 15.107 0.500 208.040 o
4 5 1 58.705 58.788 0.930 60.134 o
4 5 2 135.900 132.994 1.671 18.649 o
4 5 3 105.410 106.211 1.461 24.399 o
4 5 4 81.124 85.521 1.331 29.402 o
4 5 5 80.566 82.950 1.381 27.310 o
4 5 6 137.005 135.245 1.981 13.267 o
4 5 7 15.207 16.078 0.890 65.661 o
4 5 8 4.346 4.322 0.530 185.155 o
4 5 9 14.349 13.627 0.990 53.066 o
4 5 10 58.382 56.677 1.791 16.232 o
4 5 11 12.891 12.886 1.321 29.850 o
4 6 0 126.861 128.982 1.601 20.316 o
4 6 1 43.318 42.600 0.800 81.266 o
4 6 2 32.358 31.675 0.710 103.174 o
4 6 3 4.964 5.313 0.420 294.841 o
4 6 4 53.539 54.926 1.051 47.175 o
4 6 5 12.889 13.496 0.610 139.774 o
4 6 6 41.011 40.459 1.051 47.175 o
4 6 7 19.543 19.750 0.840 73.710 o
4 6 8 9.610 8.864 0.750 92.462 o
4 6 9 37.767 35.517 1.421 25.794 o
4 6 10 28.075 27.603 1.341 28.965 o
4 7 0 86.757 86.292 1.241 33.825 o
4 7 1 239.739 240.416 2.671 7.296 o
4 7 2 176.542 173.424 2.101 11.794 o
4 7 3 59.039 59.218 1.061 46.289 o
4 7 4 41.346 42.090 0.940 58.861 o
4 7 5 35.335 34.497 0.920 61.448 o
4 7 6 41.479 39.599 1.061 46.289 o
4 7 7 26.418 25.642 0.950 57.629 o
4 7 8 34.026 31.965 1.271 32.246 o
4 7 9 5.052 5.493 0.610 139.774 o
4 7 10 16.545 15.297 1.091 43.776 o
4 7 11 5.451 6.633 0.660 119.398 o
4 8 0 134.054 129.742 1.671 18.649 o
4 8 1 42.651 42.080 0.850 71.986 o
4 8 2 157.413 158.126 1.971 13.402 o
4 8 3 86.709 85.321 1.361 28.120 o
4 8 4 8.142 8.744 0.530 185.155 o
4 8 5 46.457 47.243 1.071 45.428 o
4 8 6 55.182 53.126 1.251 33.286 o
4 8 7 52.094 50.624 1.291 31.254 o
4 8 8 3.771 3.662 0.530 185.155 o
4 8 9 81.952 83.640 2.081 12.021 o
4 8 10 14.080 15.207 1.091 43.776 o
4 8 11 21.345 20.210 1.251 33.286 o
4 9 0 131.243 127.561 1.691 18.210 o
4 9 1 3.955 4.162 0.400 325.062 o
4 9 2 5.002 5.523 0.440 268.646 o
4 9 3 30.059 31.325 0.810 79.271 o
4 9 4 2.190 1.411 0.440 268.646 o
4 9 5 45.119 44.011 1.091 43.776 o
4 9 6 137.115 133.004 2.081 12.021 o
4 9 7 6.368 6.113 0.580 154.607 o
4 9 8 91.357 87.432 2.071 12.138 o
4 9 9 16.305 16.708 1.081 44.590 o
4 9 11 8.957 9.655 0.840 73.710 o
4 10 0 66.621 67.703 1.171 37.994 o
4 10 1 33.467 33.536 0.810 79.271 o
4 10 2 38.914 40.369 0.910 62.806 o
4 10 3 16.921 16.578 0.660 119.398 o
4 10 4 34.065 35.357 0.940 58.861 o
4 10 5 24.194 26.603 0.870 68.714 o
4 10 6 27.394 25.892 0.960 56.434 o
4 10 7 41.709 43.061 1.211 35.523 o
4 10 8 18.716 18.799 0.970 55.277 o
4 10 9 17.883 19.539 1.131 40.731 o
4 10 10 14.166 14.797 1.091 43.776 o
4 11 0 12.194 12.406 0.600 144.472 o
4 11 1 259.271 260.936 3.031 5.665 o
4 11 2 17.410 18.319 0.680 112.478 o
4 11 3 29.950 29.084 0.850 71.986 o
4 11 4 22.535 24.052 0.820 77.350 o
4 11 5 8.528 9.685 0.650 123.100 o
4 11 6 34.797 35.807 1.071 45.428 o
4 11 7 50.457 51.095 1.361 28.120 o
4 11 8 9.819 8.674 0.720 100.328 o
4 11 10 6.574 6.933 0.670 115.861 o
4 12 0 239.254 235.493 2.911 6.142 o
4 12 1 66.572 66.372 1.251 33.286 o
4 12 2 46.369 45.362 1.040 48.086 o
4 12 3 40.677 41.190 1.040 48.086 o
4 12 4 67.827 67.573 1.371 27.710 o
4 12 5 19.307 18.929 0.850 71.986 o
4 12 6 60.939 61.930 1.441 25.082 o
4 12 7 36.406 39.249 1.211 35.523 o
4 12 8 0.319 0.830 0.390 341.946 o
4 12 9 23.313 23.371 1.271 32.246 o
4 12 10 1.411 1.591 0.530 185.155 o
4 13 0 66.207 67.793 1.281 31.744 o
4 13 1 43.750 42.080 1.030 49.024 o
4 13 3 12.073 12.066 0.690 109.242 o
4 13 4 25.538 25.562 0.910 62.806 o
4 13 5 6.081 6.593 0.580 154.607 o
4 13 6 48.911 48.333 1.301 30.775 o
4 13 7 10.369 10.315 0.720 100.328 o
4 13 8 53.208 51.545 1.481 23.744 o
4 13 9 8.796 9.124 0.750 92.462 o
4 13 10 10.111 8.524 0.700 106.143 o
4 14 0 3.513 2.761 0.360 401.311 o
4 14 1 45.158 45.212 1.101 42.983 o
4 14 2 13.872 14.127 0.720 100.328 o
4 14 3 23.021 22.051 0.870 68.714 o
4 14 4 8.198 9.004 0.620 135.302 o
4 14 5 9.021 8.334 0.630 131.040 o
4 14 6 12.587 12.246 0.810 79.271 o
4 14 7 30.938 30.015 1.151 39.327 o
4 14 8 33.595 33.466 1.241 33.825 o
4 14 9 10.074 11.546 0.880 67.162 o
4 15 0 12.343 12.386 0.700 106.143 o
4 15 1 44.492 44.091 1.141 40.020 o
4 15 2 14.944 14.747 0.760 90.045 o
4 15 3 73.030 72.145 1.491 23.427 o
4 15 4 41.994 39.219 1.171 37.994 o
4 15 5 2.164 1.921 0.390 341.946 o
4 15 6 53.510 53.556 1.441 25.082 o
4 15 7 1.454 2.081 0.420 294.841 o
4 15 8 1.821 2.201 0.440 268.646 o
4 15 9 26.267 26.032 1.131 40.731 o
4 16 0 88.249 88.683 1.661 18.874 o
4 16 1 53.208 51.385 1.261 32.760 o
4 16 2 17.991 16.208 0.820 77.350 o
4 16 3 26.690 26.783 0.990 53.066 o
4 16 4 53.611 52.825 1.371 27.710 o
4 16 5 20.421 20.770 0.970 55.277 o
4 16 6 16.842 17.909 0.950 57.629 o
4 16 7 2.831 3.302 0.460 245.794 o
4 16 8 10.919 9.625 0.770 87.721 o
4 16 9 1.527 2.411 0.440 268.646 o
4 17 0 0.916 1.161 0.340 449.913 o
4 17 1 17.166 16.698 0.850 71.986 o
4 17 2 19.960 18.959 0.890 65.661 o
4 17 3 1.593 0.940 0.350 424.571 o
4 17 4 60.294 58.348 1.481 23.744 o
4 17 5 9.745 10.155 0.790 83.336 o
4 17 6 40.536 41.500 1.331 29.402 o
4 17 7 9.724 9.224 0.760 90.045 o
4 18 0 1.980 2.001 0.380 360.180 o
4 18 1 31.526 30.375 1.051 47.175 o
4 18 2 5.789 5.993 0.530 185.155 o
4 18 3 20.653 21.170 0.970 55.277 o
4 18 4 1.800 1.551 0.400 325.062 o
4 18 5 1.838 2.261 0.430 281.287 o
4 18 6 25.418 26.063 1.111 42.212 o
4 18 7 6.235 5.593 0.520 192.344 o
4 18 8 16.267 15.948 0.970 55.277 o
4 19 0 8.953 7.103 0.650 123.100 o
4 19 1 40.140 41.740 1.251 33.286 o
4 19 2 10.332 10.975 0.810 79.271 o
4 19 3 31.871 34.327 1.171 37.994 o
4 19 4 8.910 8.324 0.620 135.302 o
4 19 5 5.411 5.343 0.510 199.961 o
4 19 6 35.614 36.328 1.271 32.246 o
4 19 7 14.153 12.676 0.890 65.661 o
4 20 1 31.315 32.005 1.161 38.652 o
4 20 2 7.742 8.264 0.600 144.472 o
4 20 3 12.679 12.936 0.860 70.322 o
4 20 4 22.587 22.071 1.071 45.428 o
4 20 5 28.471 28.464 1.171 37.994 o
4 20 6 1.164 1.821 0.420 294.841 o
4 20 7 1.349 1.911 0.420 294.841 o
4 21 0 7.640 7.824 0.610 139.774 o
4 21 1 8.012 7.564 0.680 112.478 o
4 21 2 7.748 9.314 0.810 79.271 o
4 21 3 33.108 33.076 1.231 34.378 o
4 21 4 18.467 19.709 1.020 49.990 o
4 21 5 1.423 2.181 0.430 281.287 o
4 21 6 22.584 22.041 1.081 44.590 o
4 22 1 16.512 13.997 0.940 58.861 o
4 22 2 8.109 9.515 0.650 123.100 o
4 22 3 26.395 24.922 1.141 40.020 o
4 22 4 1.854 2.041 0.460 245.794 o
4 22 5 1.161 1.061 0.400 325.062 o
4 23 0 3.585 4.692 0.500 208.040 o
4 23 1 2.287 2.141 0.440 268.646 o
4 23 2 17.694 17.358 1.010 50.985 o
4 23 3 0.980 0.970 0.400 325.062 o
4 23 4 62.826 62.670 1.621 19.818 o
4 24 0 20.976 21.400 1.061 46.289 o
4 24 1 18.662 19.209 1.030 49.024 o
4 24 2 1.750 1.581 0.410 309.399 o
4 24 3 14.590 13.667 0.950 57.629 o
4 25 1 4.562 5.122 0.570 160.080 o
5 0 1 5.301 5.853 0.400 325.062 o
5 0 2 324.502 324.796 3.442 4.395 o
5 0 3 30.088 30.565 0.750 92.462 o
5 0 5 7.246 6.943 0.550 171.934 o
5 0 6 46.811 46.522 1.131 40.731 o
5 0 7 1.250 1.461 0.360 401.311 o
5 0 8 37.139 35.977 1.151 39.327 o
5 0 10 76.823 73.675 3.071 5.518 o
5 0 11 5.417 3.672 1.491 23.427 o
5 1 0 39.153 39.399 0.760 90.045 o
5 1 1 132.237 131.163 1.631 19.575 o
5 1 2 169.132 166.310 2.011 12.873 o
5 1 3 193.380 195.194 2.321 9.663 o
5 1 4 69.584 68.693 1.191 36.728 o
5 1 5 184.784 182.888 2.341 9.498 o
5 1 6 47.056 44.642 1.091 43.776 o
5 1 7 29.341 29.374 0.980 54.154 o
5 1 8 47.559 46.913 1.291 31.254 o
5 1 9 30.852 29.534 1.121 41.462 o
5 1 10 5.815 5.112 0.880 67.162 o
5 1 11 25.114 23.391 1.961 13.539 o
5 2 0 41.446 42.811 0.810 79.271 o
5 2 1 88.221 89.223 1.261 32.760 o
5 2 3 23.657 24.052 0.680 112.478 o
5 2 4 42.292 42.901 0.930 60.134 o
5 2 5 31.736 31.265 0.870 68.714 o
5 2 6 12.509 10.895 0.680 112.478 o
5 2 7 16.313 16.428 0.830 75.497 o
5 2 8 2.964 3.192 0.420 294.841 o
5 2 9 35.134 34.857 1.391 26.919 o
5 2 10 2.465 2.791 0.560 165.848 o
5 2 11 11.250 12.066 1.581 20.834 o
5 3 0 227.404 226.649 2.521 8.190 o
5 3 1 377.824 374.410 3.832 3.546 o
5 3 2 247.749 247.759 2.791 6.682 o
5 3 3 9.104 9.395 0.500 208.040 o
5 3 4 28.683 27.823 0.790 83.336 o
5 3 5 15.194 15.818 0.660 119.398 o
5 3 6 55.331 52.995 1.211 35.523 o
5 3 7 3.926 3.952 0.420 294.841 o
5 3 9 6.591 5.403 0.600 144.472 o
5 3 10 51.406 50.214 1.691 18.210 o
5 3 11 17.166 16.078 1.151 39.327 o
5 4 0 59.924 59.859 1.000 52.010 o
5 4 1 4.818 5.203 0.400 325.062 o
5 4 2 86.750 84.241 1.271 32.246 o
5 4 3 1.000 1.331 0.380 360.180 o
5 4 4 16.197 16.978 0.650 123.100 o
5 4 5 71.505 71.654 1.341 28.965 o
5 4 6 51.709 48.883 1.181 37.353 o
5 4 7 109.373 105.671 1.851 15.197 o
5 4 8 20.355 19.159 0.940 58.861 o
5 4 9 5.080 6.113 0.620 135.302 o
5 4 10 24.421 24.152 1.261 32.760 o
5 4 11 11.665 10.795 0.890 65.661 o
5 5 0 69.946 71.684 1.121 41.462 o
5 5 1 35.507 35.007 0.760 90.045 o
5 5 2 41.856 41.840 0.870 68.714 o
5 5 3 67.590 67.463 1.161 38.652 o
5 5 4 7.203 6.133 0.500 208.040 o
5 5 5 59.182 58.488 1.221 34.944 o
5 5 6 80.026 78.838 1.521 22.511 o
5 5 7 10.024 10.175 0.660 119.398 o
5 5 8 140.121 137.746 2.291 9.918 o
5 5 9 15.320 13.937 1.040 48.086 o
5 5 10 30.944 29.474 1.421 25.794 o
5 6 1 70.616 69.784 1.141 40.020 o
5 6 2 6.414 6.473 0.450 256.839 o
5 6 3 33.738 34.187 0.840 73.710 o
5 6 4 26.703 27.893 0.820 77.350 o
5 6 5 18.852 18.299 0.770 87.721 o
5 6 6 12.683 13.196 0.720 100.328 o
5 6 7 18.899 20.640 0.890 65.661 o
5 6 9 27.120 26.783 1.261 32.760 o
5 6 10 5.385 6.493 0.670 115.861 o
5 6 11 38.219 39.029 1.501 23.116 o
5 7 0 10.821 11.566 0.530 185.155 o
5 7 1 151.545 151.473 1.921 14.109 o
5 7 2 14.097 12.706 0.570 160.080 o
5 7 3 63.138 62.970 1.171 37.994 o
5 7 4 29.151 29.584 0.850 71.986 o
5 7 5 33.718 33.896 0.960 56.434 o
5 7 6 104.583 102.860 1.791 16.232 o
5 7 7 9.010 9.545 0.730 97.598 o
5 7 8 5.119 5.162 0.480 225.738 o
5 7 9 9.520 9.365 0.820 77.350 o
5 7 10 17.826 17.528 1.161 38.652 o
5 7 11 1.950 2.381 0.550 171.934 o
5 8 0 15.245 16.038 0.600 144.472 o
5 8 1 2.586 3.142 0.410 309.399 o
5 8 2 28.648 28.634 0.790 83.336 o
5 8 3 17.923 18.279 0.680 112.478 o
5 8 4 89.223 87.902 1.501 23.116 o
5 8 5 50.731 49.344 1.181 37.353 o
5 8 6 22.012 21.580 0.890 65.661 o
5 8 7 99.499 98.407 1.861 15.034 o
5 8 8 2.742 2.891 0.430 281.287 o
5 8 9 0.590 1.091 0.500 208.040 o
5 8 10 6.058 6.853 0.670 115.861 o
5 9 0 24.713 25.082 0.730 97.598 o
5 9 1 55.919 57.298 1.111 42.212 o
5 9 2 37.015 36.778 0.900 64.210 o
5 9 3 8.446 8.914 0.580 154.607 o
5 9 4 1.926 2.621 0.370 379.912 o
5 9 5 11.500 10.725 0.690 109.242 o
5 9 6 20.915 20.690 0.870 68.714 o
5 9 7 10.030 11.205 0.750 92.462 o
5 9 8 24.064 23.721 1.040 48.086 o
5 9 9 0.737 1.301 0.410 309.399 o
5 9 10 33.740 32.136 1.391 26.919 o
5 10 0 37.291 37.838 0.910 62.806 o
5 10 1 11.898 12.486 0.600 144.472 o
5 10 2 0.553 1.371 0.430 281.287 o
5 10 3 44.397 42.511 1.040 48.086 o
5 10 4 113.022 110.023 1.801 16.052 o
5 10 5 19.271 18.609 0.820 77.350 o
5 10 6 66.172 67.773 1.491 23.427 o
5 10 7 1.934 1.981 0.400 325.062 o
5 10 8 1.991 2.021 0.420 294.841 o
5 10 9 20.918 20.960 1.051 47.175 o
5 11 0 36.359 36.207 0.940 58.861 o
5 11 1 64.505 67.172 1.261 32.760 o
5 11 2 15.914 15.978 0.710 103.174 o
5 11 3 26.455 25.462 0.870 68.714 o
5 11 4 33.852 34.016 1.020 49.990 o
5 11 5 19.518 20.050 0.880 67.162 o
5 11 6 77.007 78.668 1.641 19.337 o
5 11 7 4.249 4.192 0.460 245.794 o
5 11 8 10.881 12.496 0.860 70.322 o
5 11 9 15.025 15.247 0.960 56.434 o
5 11 10 1.193 1.991 0.520 192.344 o
5 12 0 1.382 1.591 0.470 235.446 o
5 12 1 21.926 21.350 0.800 81.266 o
5 12 2 123.668 122.199 1.901 14.407 o
5 12 3 27.795 26.983 0.920 61.448 o
5 12 4 83.596 84.211 1.601 20.316 o
5 12 5 0.391 0.950 0.340 449.913 o
5 12 7 13.893 13.026 0.780 85.486 o
5 12 8 8.300 7.934 0.620 135.302 o
5 12 9 0.994 1.681 0.420 294.841 o
5 12 10 5.256 5.773 0.520 192.344 o
5 13 0 11.971 11.996 0.690 109.242 o
5 13 1 21.034 18.649 0.820 77.350 o
5 13 3 18.989 18.809 0.830 75.497 o
5 13 4 3.465 4.322 0.420 294.841 o
5 13 5 17.689 17.458 0.890 65.661 o
5 13 6 65.651 66.082 1.571 21.100 o
5 13 7 13.588 15.938 0.910 62.806 o
5 13 8 31.950 31.885 1.241 33.825 o
5 13 9 8.062 8.624 0.650 123.100 o
5 14 0 51.276 51.635 1.231 34.378 o
5 14 1 16.265 15.898 0.770 87.721 o
5 14 2 7.068 7.424 0.650 123.100 o
5 14 3 46.694 46.252 1.211 35.523 o
5 14 4 81.044 84.621 1.691 18.210 o
5 14 5 40.815 41.530 1.221 34.944 o
5 14 6 53.570 52.965 1.441 25.082 o
5 14 7 5.438 6.293 0.530 185.155 o
5 14 8 8.356 8.014 0.640 126.977 o
5 14 9 6.560 6.673 0.540 178.361 o
5 15 0 16.015 15.117 0.810 79.271 o
5 15 1 212.901 213.973 2.871 6.314 o
5 15 2 3.278 3.021 0.390 341.946 o
5 15 3 3.275 3.662 0.410 309.399 o
5 15 4 19.273 20.330 0.950 57.629 o
5 15 5 1.294 1.291 0.390 341.946 o
5 15 6 13.408 15.017 0.890 65.661 o
5 15 7 17.874 17.979 0.980 54.154 o
5 15 8 8.220 8.664 0.640 126.977 o
5 15 9 2.115 2.581 0.440 268.646 o
5 16 0 4.245 4.502 0.420 294.841 o
5 16 1 59.020 60.289 1.411 26.161 o
5 16 2 58.236 59.529 1.431 25.434 o
5 16 3 50.693 50.004 1.361 28.120 o
5 16 4 20.217 21.811 0.980 54.154 o
5 16 5 17.760 18.389 0.930 60.134 o
5 16 6 4.875 5.233 0.500 208.040 o
5 16 7 8.637 7.714 0.730 97.598 o
5 16 8 10.778 11.736 0.880 67.162 o
5 17 0 11.168 10.315 0.680 112.478 o
5 17 1 4.117 4.182 0.440 268.646 o
5 17 2 14.450 14.457 0.840 73.710 o
5 17 3 22.976 23.331 1.000 52.010 o
5 17 4 8.773 8.114 0.680 112.478 o
5 17 5 3.037 3.612 0.460 245.794 o
5 17 6 52.498 51.875 1.501 23.116 o
5 17 7 4.177 4.822 0.500 208.040 o
5 17 8 58.535 57.868 1.561 21.372 o
5 18 0 6.167 6.173 0.630 131.040 o
5 18 1 8.186 7.574 0.670 115.861 o
5 18 2 10.781 11.355 0.800 81.266 o
5 18 3 23.716 23.551 1.040 48.086 o
5 18 4 23.817 25.082 1.071 45.428 o
5 18 5 28.349 29.014 1.151 39.327 o
5 18 6 7.521 7.113 0.630 131.040 o
5 18 7 2.527 2.881 0.450 256.839 o
5 19 1 52.538 52.665 1.461 24.399 o
5 19 2 30.513 29.824 1.121 41.462 o
5 19 3 3.689 4.352 0.480 225.738 o
5 19 4 73.647 74.426 1.761 16.790 o
5 19 5 2.644 3.091 0.470 235.446 o
5 19 6 5.069 5.132 0.510 199.961 o
5 20 1 51.209 50.794 1.431 25.434 o
5 20 2 1.968 2.121 0.430 281.287 o
5 20 3 54.634 55.597 1.541 21.930 o
5 20 5 12.406 11.716 0.920 61.448 o
5 21 0 1.113 0.900 0.390 341.946 o
5 21 1 3.796 3.452 0.470 235.446 o
5 21 2 41.226 38.398 1.301 30.775 o
5 21 3 8.198 8.114 0.640 126.977 o
5 21 4 42.303 43.401 1.381 27.310 o
5 21 5 10.187 8.664 0.650 123.100 o
5 22 0 9.306 7.794 0.620 135.302 o
5 22 1 0.793 0.890 0.400 325.062 o
5 22 2 1.008 1.741 0.420 294.841 o
5 22 3 4.463 4.722 0.500 208.040 o
5 22 4 13.371 11.536 0.920 61.448 o
5 23 1 1.887 1.851 0.420 294.841 o
5 23 2 5.929 5.263 0.560 165.848 o
5 23 3 9.186 8.514 0.630 131.040 o
5 24 0 3.186 2.021 0.430 281.287 o
5 24 1 13.112 14.387 0.920 61.448 o
5 24 2 6.583 7.233 0.880 67.162 o
6 0 0 134.158 131.653 1.721 17.580 o
6 0 1 40.224 38.709 0.860 70.322 o
6 0 2 17.755 18.789 0.640 126.977 o
6 0 3 11.511 12.006 0.580 154.607 o
6 0 4 0.723 1.020 0.420 294.841 o
6 0 5 15.729 13.917 0.730 97.598 o
6 0 6 52.663 49.534 1.221 34.944 o
6 0 7 16.689 17.248 0.840 73.710 o
6 0 8 26.737 27.703 1.061 46.289 o
6 0 9 35.686 38.208 1.281 31.744 o
6 0 10 3.416 4.832 0.510 199.961 o
6 0 11 5.781 7.284 0.620 135.302 o
6 1 0 62.514 64.931 1.101 42.983 o
6 1 1 117.727 116.026 1.601 20.316 o
6 1 2 111.408 111.514 1.591 20.573 o
6 1 3 94.868 97.067 1.501 23.116 o
6 1 4 92.757 91.524 1.521 22.511 o
6 1 5 64.361 63.291 1.301 30.775 o
6 1 6 98.866 98.407 1.741 17.179 o
6 1 7 1.800 2.191 0.380 360.180 o
6 1 8 1.127 1.221 0.380 360.180 o
6 1 9 0.996 1.091 0.400 325.062 o
6 1 10 40.856 42.571 1.361 28.120 o
6 1 11 28.796 29.004 1.361 28.120 o
6 2 0 4.932 4.742 0.430 281.287 o
6 2 1 82.289 83.850 1.311 30.307 o
6 2 2 174.202 170.382 2.151 11.252 o
6 2 3 17.475 16.188 0.660 119.398 o
6 2 4 19.744 20.450 0.740 94.978 o
6 2 5 18.050 19.139 0.780 85.486 o
6 2 6 71.845 70.444 1.471 24.069 o
6 2 7 48.058 48.633 1.291 31.254 o
6 2 8 13.285 14.427 0.850 71.986 o
6 2 9 10.869 11.185 0.850 71.986 o
6 2 10 43.612 44.852 1.421 25.794 o
6 2 11 2.973 4.202 0.590 149.411 o
6 3 0 31.406 31.005 0.780 85.486 o
6 3 1 75.883 74.516 1.231 34.378 o
6 3 2 3.101 3.242 0.420 294.841 o
6 3 3 195.348 194.994 2.411 8.955 o
6 3 4 54.406 55.287 1.161 38.652 o
6 3 5 104.806 103.220 1.731 17.378 o
6 3 6 55.273 54.406 1.291 31.254 o
6 3 7 11.982 11.505 0.780 85.486 o
6 3 8 48.247 48.193 1.351 28.538 o
6 3 9 12.326 10.965 0.800 81.266 o
6 3 10 1.071 1.581 0.450 256.839 o
6 4 0 9.880 9.725 0.510 199.961 o
6 4 1 85.103 85.701 1.351 28.538 o
6 4 3 64.519 65.051 1.221 34.944 o
6 4 5 19.541 18.579 0.800 81.266 o
6 4 6 18.314 19.129 0.850 71.986 o
6 4 7 7.723 7.964 0.640 126.977 o
6 4 8 8.087 7.594 0.670 115.861 o
6 4 9 9.350 8.784 0.740 94.978 o
6 4 10 5.380 6.883 0.550 171.934 o
6 5 0 75.484 74.866 1.261 32.760 o
6 5 1 102.534 102.319 1.531 22.218 o
6 5 2 47.448 46.292 1.000 52.010 o
6 5 3 4.331 4.432 0.500 208.040 o
6 5 4 37.240 35.847 0.980 54.154 o
6 5 5 3.896 4.072 0.400 325.062 o
6 5 6 78.079 77.497 1.571 21.100 o
6 5 7 20.240 20.150 0.900 64.210 o
6 5 8 3.217 3.322 0.440 268.646 o
6 5 9 2.356 2.651 0.440 268.646 o
6 5 10 50.644 50.554 1.481 23.744 o
6 6 0 68.682 69.053 1.221 34.944 o
6 6 1 9.479 9.274 0.530 185.155 o
6 6 2 8.454 9.294 0.550 171.934 o
6 6 3 23.323 23.841 0.780 85.486 o
6 6 4 66.885 65.201 1.321 29.850 o
6 6 5 41.381 42.660 1.111 42.212 o
6 6 6 69.303 71.925 1.531 22.218 o
6 6 7 94.497 96.016 1.851 15.197 o
6 6 8 11.871 12.876 0.870 68.714 o
6 6 9 10.748 12.786 0.880 67.162 o
6 6 10 7.809 8.384 0.650 123.100 o
6 7 0 84.216 82.600 1.391 26.919 o
6 7 1 59.801 59.729 1.161 38.652 o
6 7 2 17.153 17.549 0.700 106.143 o
6 7 3 55.220 56.067 1.181 37.353 o
6 7 4 4.983 4.802 0.410 309.399 o
6 7 5 10.953 9.885 0.690 109.242 o
6 7 6 6.729 6.173 0.470 235.446 o
6 7 7 1.514 2.251 0.410 309.399 o
6 7 8 50.125 51.955 1.431 25.434 o
6 7 9 6.448 6.873 0.550 171.934 o
6 7 10 21.313 22.101 1.091 43.776 o
6 8 0 57.138 57.718 1.151 39.327 o
6 8 1 51.756 51.685 1.101 42.983 o
6 8 2 46.489 45.522 1.061 46.289 o
6 8 3 23.061 22.281 0.810 79.271 o
6 8 4 17.048 16.458 0.770 87.721 o
6 8 6 11.261 10.545 0.760 90.045 o
6 8 7 18.477 18.529 0.920 61.448 o
6 8 9 27.030 29.444 1.161 38.652 o
6 8 10 0.820 1.541 0.420 294.841 o
6 9 1 1.705 1.431 0.460 245.794 o
6 9 2 6.414 5.333 0.560 165.848 o
6 9 3 25.995 24.732 0.870 68.714 o
6 9 4 39.486 38.909 1.091 43.776 o
6 9 5 32.966 32.826 1.061 46.289 o
6 9 6 73.713 73.976 1.621 19.818 o
6 9 7 5.264 4.962 0.530 185.155 o
6 9 8 2.593 3.071 0.460 245.794 o
6 9 9 4.750 5.703 0.520 192.344 o
6 9 10 3.782 4.442 0.490 216.618 o
6 10 0 88.065 86.082 1.531 22.218 o
6 10 1 1.005 1.431 0.330 477.593 o
6 10 2 106.499 103.990 1.731 17.378 o
6 10 3 0.778 1.261 0.350 424.571 o
6 10 4 48.407 47.033 1.221 34.944 o
6 10 5 2.011 2.231 0.380 360.180 o
6 10 6 13.166 12.376 0.840 73.710 o
6 10 7 55.901 56.487 1.481 23.744 o
6 10 8 6.665 7.644 0.640 126.977 o
6 10 9 40.409 41.250 1.371 27.710 o
6 11 1 26.954 26.083 0.880 67.162 o
6 11 2 3.100 3.622 0.400 325.062 o
6 11 3 6.306 6.663 0.510 199.961 o
6 11 4 2.176 2.421 0.370 379.912 o
6 11 5 20.408 18.819 0.900 64.210 o
6 11 6 33.254 32.316 1.141 40.020 o
6 11 7 4.870 4.992 0.490 216.618 o
6 11 8 18.005 17.238 1.010 50.985 o
6 11 9 5.869 6.423 0.600 144.472 o
6 12 0 62.217 62.720 1.331 29.402 o
6 12 1 12.589 12.506 0.730 97.598 o
6 12 2 29.386 29.814 1.000 52.010 o
6 12 3 21.967 20.190 0.880 67.162 o
6 12 4 27.839 26.613 0.990 53.066 o
6 12 5 23.126 22.551 0.970 55.277 o
6 12 6 37.747 39.439 1.241 33.825 o
6 12 7 16.726 17.048 0.980 54.154 o
6 12 8 1.230 2.351 0.450 256.839 o
6 12 9 33.809 35.667 1.281 31.744 o
6 13 0 20.449 21.010 0.880 67.162 o
6 13 1 119.112 117.006 1.941 13.819 o
6 13 2 10.107 10.525 0.660 119.398 o
6 13 3 3.988 4.282 0.420 294.841 o
6 13 4 3.732 4.552 0.450 256.839 o
6 13 5 8.392 9.284 0.610 139.774 o
6 13 6 34.376 33.836 1.211 35.523 o
6 13 7 16.213 15.137 0.950 57.629 o
6 13 8 9.889 10.225 0.730 97.598 o
6 13 9 13.931 13.657 0.930 60.134 o
6 14 0 8.533 9.044 0.630 131.040 o
6 14 1 38.380 40.249 1.151 39.327 o
6 14 2 91.365 89.153 1.751 16.983 o
6 14 3 46.104 46.803 1.301 30.775 o
6 14 4 40.271 38.629 1.221 34.944 o
6 14 5 20.827 22.031 1.010 50.985 o
6 14 6 13.494 12.826 0.910 62.806 o
6 14 7 12.053 13.466 0.930 60.134 o
6 14 8 14.992 14.937 0.950 57.629 o
6 15 0 26.206 27.853 1.000 52.010 o
6 15 1 17.990 18.159 0.870 68.714 o
6 15 2 1.181 1.000 0.360 401.311 o
6 15 3 31.280 31.455 1.111 42.212 o
6 15 4 4.232 3.712 0.450 256.839 o
6 15 5 2.097 1.861 0.410 309.399 o
6 15 6 40.904 42.390 1.341 28.965 o
6 15 7 2.984 3.432 0.470 235.446 o
6 15 8 39.990 40.369 1.341 28.965 o
6 16 0 6.477 7.133 0.620 135.302 o
6 16 1 10.719 11.486 0.770 87.721 o
6 16 2 7.905 6.813 0.570 160.080 o
6 16 3 29.426 27.623 1.091 43.776 o
6 16 4 29.910 31.085 1.151 39.327 o
6 16 5 16.501 16.378 0.970 55.277 o
6 16 6 25.032 28.064 1.151 39.327 o
6 16 8 21.611 20.680 1.061 46.289 o
6 17 0 7.775 8.744 0.680 112.478 o
6 17 1 69.804 70.344 1.611 20.065 o
6 17 2 13.894 13.937 0.870 68.714 o
6 17 3 12.039 12.466 0.850 71.986 o
6 17 4 78.236 78.188 1.771 16.601 o
6 17 5 1.433 1.841 0.420 294.841 o
6 17 6 22.675 22.201 1.071 45.428 o
6 17 7 10.807 11.596 0.850 71.986 o
6 18 0 21.031 20.770 1.010 50.985 o
6 18 1 62.136 64.911 1.591 20.573 o
6 18 2 6.726 7.294 0.600 144.472 o
6 18 3 67.985 67.783 1.671 18.649 o
6 18 4 9.670 9.625 0.770 87.721 o
6 18 5 17.463 17.278 0.980 54.154 o
6 18 6 7.757 8.404 0.580 154.607 o
6 18 7 6.750 6.903 0.540 178.361 o
6 19 0 5.673 6.823 0.670 115.861 o
6 19 1 16.966 18.119 0.960 56.434 o
6 19 2 6.153 6.773 0.590 149.411 o
6 19 3 45.892 45.772 1.431 25.434 o
6 19 4 30.817 30.575 1.221 34.944 o
6 19 5 6.309 5.853 0.530 185.155 o
6 19 6 14.258 13.937 0.920 61.448 o
6 20 1 12.096 12.886 0.900 64.210 o
6 20 2 1.489 1.791 0.430 281.287 o
6 20 3 3.385 2.941 0.460 245.794 o
6 20 4 11.739 12.036 0.900 64.210 o
6 21 0 2.464 2.221 0.440 268.646 o
6 21 1 8.684 7.864 0.640 126.977 o
6 21 2 9.793 8.544 0.750 92.462 o
6 21 3 20.768 20.390 1.081 44.590 o
6 21 4 54.640 53.045 1.511 22.810 o
6 22 0 24.602 23.051 1.081 44.590 o
6 22 1 23.558 21.340 1.071 45.428 o
6 22 2 6.092 6.083 0.530 185.155 o
6 22 3 28.823 28.164 1.171 37.994 o
6 23 1 10.608 9.134 0.850 71.986 o
6 23 2 11.966 13.136 1.511 22.810 o
7 0 1 214.590 214.333 2.641 7.462 o
7 0 2 12.382 11.235 0.620 135.302 o
7 0 3 3.904 3.672 0.520 192.344 o
7 0 4 1.848 2.551 0.370 379.912 o
7 0 5 2.677 2.931 0.390 341.946 o
7 0 6 13.570 14.037 0.800 81.266 o
7 0 7 31.206 29.824 1.111 42.212 o
7 0 8 0.820 1.161 0.400 325.062 o
7 0 9 3.694 4.542 0.500 208.040 o
7 1 1 54.335 55.227 1.121 41.462 o
7 1 2 2.164 2.001 0.470 235.446 o
7 1 3 116.118 115.406 1.801 16.052 o
7 1 4 63.436 64.751 1.341 28.965 o
7 1 5 21.604 21.520 0.870 68.714 o
7 1 6 59.516 59.839 1.421 25.794 o
7 1 7 1.122 1.191 0.370 379.912 o
7 1 8 31.068 31.425 1.191 36.728 o
7 1 9 3.583 4.342 0.490 216.618 o
7 1 10 29.559 30.445 1.211 35.523 o
7 2 0 70.161 69.974 1.271 32.246 o
7 2 1 16.353 15.568 0.670 115.861 o
7 2 2 37.438 37.918 0.960 56.434 o
7 2 3 29.655 29.474 0.900 64.210 o
7 2 4 12.418 11.666 0.700 106.143 o
7 2 5 20.606 21.180 0.850 71.986 o
7 2 6 73.568 75.226 1.601 20.316 o
7 2 7 68.458 70.544 1.621 19.818 o
7 2 8 69.653 69.393 1.651 19.104 o
7 2 9 9.561 10.165 0.780 85.486 o
7 2 10 2.568 3.842 0.470 235.446 o
7 3 0 12.954 13.386 0.610 139.774 o
7 3 1 38.894 40.610 0.970 55.277 o
7 3 2 27.999 28.444 0.850 71.986 o
7 3 3 17.248 17.528 0.760 90.045 o
7 3 4 24.710 22.841 0.870 68.714 o
7 3 5 7.789 7.073 0.600 144.472 o
7 3 6 55.601 56.237 1.401 26.536 o
7 3 7 8.121 7.984 0.680 112.478 o
7 3 8 16.316 17.759 0.960 56.434 o
7 3 9 6.600 7.013 0.580 154.607 o
7 3 10 62.389 64.591 1.651 19.104 o
7 4 0 3.607 3.732 0.500 208.040 o
7 4 1 67.265 68.483 1.281 31.744 o
7 4 2 13.172 12.346 0.650 123.100 o
7 4 3 26.396 23.982 0.840 73.710 o
7 4 4 56.276 55.687 1.261 32.760 o
7 4 5 31.607 30.665 1.020 49.990 o
7 4 6 52.601 53.466 1.351 28.538 o
7 4 7 3.312 3.051 0.430 281.287 o
7 4 8 5.732 6.183 0.580 154.607 o
7 4 9 18.317 18.799 1.020 49.990 o
7 4 10 6.498 7.284 0.550 171.934 o
7 5 0 52.965 51.485 1.131 40.731 o
7 5 1 70.320 71.364 1.331 29.402 o
7 5 2 46.669 49.424 1.121 41.462 o
7 5 3 101.511 100.368 1.691 18.210 o
7 5 4 50.380 50.674 1.241 33.825 o
7 5 5 30.897 31.845 1.040 48.086 o
7 5 6 6.148 6.333 0.530 185.155 o
7 5 7 4.496 4.692 0.470 235.446 o
7 5 8 8.914 10.225 0.820 77.350 o
7 5 9 11.391 10.445 0.680 112.478 o
7 6 0 21.202 20.670 0.780 85.486 o
7 6 1 37.856 39.009 1.000 52.010 o
7 6 2 207.154 204.008 2.631 7.519 o
7 6 3 41.982 43.291 1.101 42.983 o
7 6 4 47.814 47.423 1.201 36.118 o
7 6 5 26.538 26.623 0.980 54.154 o
7 6 6 12.751 11.826 0.810 79.271 o
7 6 7 2.941 3.182 0.440 268.646 o
7 6 8 3.567 4.382 0.480 225.738 o
7 6 9 9.255 10.075 0.720 100.328 o
7 6 10 10.000 9.495 0.860 70.322 o
7 7 0 2.145 2.371 0.350 424.571 o
7 7 1 22.776 22.351 0.810 79.271 o
7 7 2 7.788 6.923 0.490 216.618 o
7 7 3 11.086 11.736 0.690 109.242 o
7 7 4 5.074 4.412 0.430 281.287 o
7 7 5 44.836 43.851 1.231 34.378 o
7 7 6 31.811 32.816 1.151 39.327 o
7 7 7 20.258 21.710 1.010 50.985 o
7 7 8 9.177 8.444 0.720 100.328 o
7 7 9 3.036 3.722 0.480 225.738 o
7 8 0 32.442 33.946 0.970 55.277 o
7 8 1 0.731 1.121 0.340 449.913 o
7 8 2 17.492 17.088 0.790 83.336 o
7 8 3 37.763 36.588 1.061 46.289 o
7 8 4 9.341 8.934 0.630 131.040 o
7 8 5 62.063 61.119 1.461 24.399 o
7 8 6 28.030 27.683 1.081 44.590 o
7 8 7 33.492 34.617 1.201 36.118 o
7 8 8 3.706 3.812 0.520 192.344 o
7 8 9 56.539 56.187 1.561 21.372 o
7 9 0 43.896 42.050 1.091 43.776 o
7 9 1 99.181 98.047 1.711 17.787 o
7 9 2 24.203 23.031 0.910 62.806 o
7 9 3 6.014 5.553 0.500 208.040 o
7 9 4 17.359 16.118 0.830 75.497 o
7 9 5 5.157 4.712 0.460 245.794 o
7 9 6 9.695 8.684 0.700 106.143 o
7 9 7 17.788 16.728 0.980 54.154 o
7 9 8 23.439 22.891 1.091 43.776 o
7 10 0 99.038 95.976 1.711 17.787 o
7 10 1 19.515 18.639 0.830 75.497 o
7 10 2 141.907 139.097 2.171 11.045 o
7 10 3 5.866 5.853 0.500 208.040 o
7 10 4 10.787 11.526 0.760 90.045 o
7 10 5 42.722 43.141 1.271 32.246 o
7 10 6 7.221 7.294 0.670 115.861 o
7 10 7 35.376 36.057 1.271 32.246 o
7 10 8 2.007 2.051 0.440 268.646 o
7 10 9 30.148 30.955 1.201 36.118 o
7 11 0 31.381 32.045 1.030 49.024 o
7 11 1 18.605 17.789 0.840 73.710 o
7 11 2 10.341 10.415 0.650 123.100 o
7 11 3 6.330 5.813 0.580 154.607 o
7 11 4 13.798 13.667 0.830 75.497 o
7 11 5 13.132 11.736 0.830 75.497 o
7 11 6 23.750 24.602 1.051 47.175 o
7 11 7 13.261 12.566 0.800 81.266 o
7 11 8 28.175 26.913 1.151 39.327 o
7 11 9 5.885 6.443 0.530 185.155 o
7 12 0 23.853 23.782 0.930 60.134 o
7 12 2 57.416 56.997 1.391 26.919 o
7 12 3 13.989 14.537 0.820 77.350 o
7 12 4 27.519 26.593 1.051 47.175 o
7 12 5 29.924 27.473 1.121 41.462 o
7 12 6 6.837 6.513 0.590 149.411 o
7 12 7 22.070 20.020 1.071 45.428 o
7 12 8 15.954 16.748 0.980 54.154 o
7 13 1 35.627 36.167 1.131 40.731 o
7 13 2 5.732 5.152 0.510 199.961 o
7 13 3 20.523 20.860 0.960 56.434 o
7 13 4 39.989 38.438 1.271 32.246 o
7 13 5 5.065 4.472 0.480 225.738 o
7 13 6 12.312 13.076 0.890 65.661 o
7 13 7 7.577 7.444 0.620 135.302 o
7 13 8 20.224 20.520 1.030 49.024 o
7 14 0 17.576 17.058 0.870 68.714 o
7 14 1 20.331 17.678 0.940 58.861 o
7 14 2 5.984 5.633 0.490 216.618 o
7 14 3 42.150 41.580 1.291 31.254 o
7 14 4 11.922 11.526 0.850 71.986 o
7 14 5 51.804 51.915 1.461 24.399 o
7 14 6 8.937 10.535 0.760 90.045 o
7 14 7 28.590 28.314 1.211 35.523 o
7 14 8 2.387 2.371 0.430 281.287 o
7 15 0 16.718 14.817 0.870 68.714 o
7 15 1 11.387 10.495 0.770 87.721 o
7 15 2 17.099 19.549 0.930 60.134 o
7 15 3 14.732 15.958 0.910 62.806 o
7 15 4 36.821 37.308 1.281 31.744 o
7 15 5 2.648 3.071 0.460 245.794 o
7 15 6 18.146 17.028 1.000 52.010 o
7 15 7 6.510 6.703 0.540 178.361 o
7 16 0 3.018 2.431 0.430 281.287 o
7 16 1 17.708 16.958 0.940 58.861 o
7 16 2 15.457 14.827 0.910 62.806 o
7 16 3 25.486 24.002 1.111 42.212 o
7 16 4 32.743 34.617 1.231 34.378 o
7 16 5 12.549 11.876 0.810 79.271 o
7 16 6 19.471 18.439 1.020 49.990 o
7 17 0 13.002 11.255 0.840 73.710 o
7 17 1 36.328 35.167 1.231 34.378 o
7 17 2 6.564 6.013 0.580 154.607 o
7 17 3 32.928 31.705 1.221 34.944 o
7 17 4 21.855 22.621 1.051 47.175 o
7 17 5 3.917 3.932 0.480 225.738 o
7 17 6 16.507 14.437 0.960 56.434 o
7 18 0 1.471 1.201 0.410 309.399 o
7 18 1 40.448 41.880 1.351 28.538 o
7 18 2 10.434 10.975 0.850 71.986 o
7 18 3 8.251 7.724 0.630 131.040 o
7 18 4 14.466 15.718 0.960 56.434 o
7 18 5 6.670 5.533 0.520 192.344 o
7 18 6 7.793 6.863 0.610 139.774 o
7 19 0 3.029 3.031 0.460 245.794 o
7 19 1 26.148 25.742 1.141 40.020 o
7 19 2 1.306 1.621 0.420 294.841 o
7 19 3 22.039 20.640 1.061 46.289 o
7 19 4 26.163 25.022 1.161 38.652 o
7 19 5 4.600 5.353 0.510 199.961 o
7 20 0 21.204 24.322 1.091 43.776 o
7 20 1 10.620 10.935 0.880 67.162 o
7 20 2 1.094 1.841 0.440 268.646 o
7 20 3 12.249 12.356 0.900 64.210 o
7 20 4 2.659 1.891 0.430 281.287 o
7 21 0 17.234 17.468 1.000 52.010 o
7 21 1 25.100 24.652 1.131 40.731 o
7 21 2 0.842 0.950 0.400 325.062 o
7 21 3 9.233 8.654 0.730 97.598 o
7 22 0 1.067 1.401 0.430 281.287 o
7 22 1 32.701 32.856 1.251 33.286 o
8 0 0 2.609 2.301 0.360 401.311 o
8 0 1 33.373 30.805 0.960 56.434 o
8 0 3 80.519 81.069 1.571 21.100 o
8 0 4 5.440 5.393 0.480 225.738 o
8 0 6 82.107 83.890 1.771 16.601 o
8 0 7 55.420 53.726 1.501 23.116 o
8 0 8 46.171 46.582 1.421 25.794 o
8 0 9 6.342 6.133 0.530 185.155 o
8 1 0 1.362 1.671 0.340 449.913 o
8 1 1 29.843 30.415 0.940 58.861 o
8 1 2 2.281 3.061 0.380 360.180 o
8 1 3 2.000 1.861 0.370 379.912 o
8 1 4 12.831 13.787 0.750 92.462 o
8 1 5 21.065 22.931 0.930 60.134 o
8 1 6 1.911 1.851 0.400 325.062 o
8 1 7 4.632 4.912 0.490 216.618 o
8 1 8 43.768 44.001 1.391 26.919 o
8 1 9 4.951 5.703 0.530 185.155 o
8 2 0 48.677 48.313 1.131 40.731 o
8 2 1 98.475 94.195 1.641 19.337 o
8 2 2 32.187 31.585 0.980 54.154 o
8 2 3 14.005 14.397 0.770 87.721 o
8 2 4 15.725 16.008 0.810 79.271 o
8 2 5 16.987 17.839 0.870 68.714 o
8 2 6 8.733 8.244 0.680 112.478 o
8 2 7 1.178 1.281 0.400 325.062 o
8 2 8 10.506 9.805 0.750 92.462 o
8 2 9 18.328 19.579 1.061 46.289 o
8 3 1 0.686 1.211 0.340 449.913 o
8 3 2 11.436 11.155 0.700 106.143 o
8 3 3 34.678 34.206 1.030 49.024 o
8 3 4 44.301 44.932 1.211 35.523 o
8 3 5 13.990 14.567 0.830 75.497 o
8 3 6 11.609 12.066 0.830 75.497 o
8 3 7 11.159 11.115 0.750 92.462 o
8 3 8 36.337 34.627 1.281 31.744 o
8 3 9 14.703 16.818 0.990 53.066 o
8 4 0 1.864 2.321 0.360 401.311 o
8 4 1 32.879 31.915 0.980 54.154 o
8 4 2 128.392 126.611 2.021 12.746 o
8 4 3 42.051 41.150 1.151 39.327 o
8 4 4 22.716 23.281 0.940 58.861 o
8 4 5 15.666 16.748 0.860 70.322 o
8 4 6 35.843 36.217 1.201 36.118 o
8 4 7 56.620 58.828 1.541 21.930 o
8 4 8 11.567 11.526 0.800 81.266 o
8 4 9 18.988 17.578 1.020 49.990 o
8 5 0 9.553 10.365 0.670 115.861 o
8 5 1 67.646 65.291 1.381 27.310 o
8 5 2 2.738 3.011 0.400 325.062 o
8 5 3 22.228 22.501 0.920 61.448 o
8 5 4 10.345 11.826 0.730 97.598 o
8 5 5 34.113 33.246 1.141 40.020 o
8 5 6 21.050 21.961 1.000 52.010 o
8 5 7 1.279 0.990 0.400 325.062 o
8 5 8 14.954 13.877 0.950 57.629 o
8 6 0 131.209 128.372 2.031 12.621 o
8 6 1 2.307 2.491 0.390 341.946 o
8 6 2 49.970 48.853 1.231 34.378 o
8 6 3 33.699 35.067 1.081 44.590 o
8 6 4 6.108 6.763 0.510 199.961 o
8 6 5 45.551 45.632 1.301 30.775 o
8 6 6 14.415 16.098 0.920 61.448 o
8 6 7 2.739 3.051 0.450 256.839 o
8 6 8 8.950 8.734 0.620 135.302 o
8 6 9 41.299 43.371 1.341 28.965 o
8 7 0 18.000 17.578 0.830 75.497 o
8 7 1 21.101 21.360 0.870 68.714 o
8 7 2 13.638 12.216 0.790 83.336 o
8 7 3 34.253 34.217 1.091 43.776 o
8 7 4 38.621 40.279 1.211 35.523 o
8 7 5 8.163 8.144 0.680 112.478 o
8 7 6 30.175 27.773 1.151 39.327 o
8 7 7 35.601 35.177 1.261 32.760 o
8 7 8 12.846 13.116 0.920 61.448 o
8 7 9 20.301 22.761 1.081 44.590 o
8 8 0 5.362 5.593 0.500 208.040 o
8 8 1 4.574 4.992 0.480 225.738 o
8 8 2 173.467 178.486 2.571 7.874 o
8 8 3 20.403 20.810 0.900 64.210 o
8 8 4 64.125 63.901 1.521 22.511 o
8 8 5 35.898 36.248 1.221 34.944 o
8 8 6 12.747 12.746 0.910 62.806 o
8 8 7 28.356 29.844 1.191 36.728 o
8 8 8 3.163 3.041 0.460 245.794 o
8 8 9 6.254 7.374 0.630 131.040 o
8 9 0 62.320 62.700 1.441 25.082 o
8 9 1 61.727 59.709 1.431 25.434 o
8 9 2 1.873 1.921 0.370 379.912 o
8 9 3 58.229 58.448 1.441 25.082 o
8 9 4 23.869 24.052 1.000 52.010 o
8 9 5 13.358 13.206 0.870 68.714 o
8 9 6 4.561 5.172 0.500 208.040 o
8 9 7 9.323 10.155 0.770 87.721 o
8 9 8 3.256 3.842 0.480 225.738 o
8 10 0 17.618 17.418 0.860 70.322 o
8 10 1 3.747 4.242 0.430 281.287 o
8 10 2 24.797 22.641 0.960 56.434 o
8 10 3 68.894 69.443 1.591 20.573 o
8 10 4 28.420 30.145 1.121 41.462 o
8 10 5 49.941 48.583 1.411 26.161 o
8 10 8 4.113 4.372 0.490 216.618 o
8 11 0 21.059 22.281 0.940 58.861 o
8 11 1 4.136 3.882 0.440 268.646 o
8 11 2 4.994 4.112 0.450 256.839 o
8 11 3 10.596 10.745 0.800 81.266 o
8 11 4 54.780 53.236 1.441 25.082 o
8 11 5 0.553 1.081 0.390 341.946 o
8 11 6 27.709 28.974 1.191 36.728 o
8 11 7 30.209 27.803 1.201 36.118 o
8 11 8 20.933 22.021 1.071 45.428 o
8 12 0 8.681 9.965 0.650 123.100 o
8 12 1 19.908 20.750 0.960 56.434 o
8 12 2 26.319 27.133 1.061 46.289 o
8 12 3 61.960 61.770 1.551 21.648 o
8 12 4 14.902 15.347 0.900 64.210 o
8 12 5 54.275 52.765 1.511 22.810 o
8 12 7 31.979 32.136 1.211 35.523 o
8 13 0 55.192 57.138 1.461 24.399 o
8 13 1 25.161 25.672 1.040 48.086 o
8 13 2 2.868 2.681 0.430 281.287 o
8 13 3 33.883 36.708 1.231 34.378 o
8 13 4 24.591 24.172 1.071 45.428 o
8 13 5 0.931 1.201 0.410 309.399 o
8 13 6 8.753 9.615 0.720 100.328 o
8 13 7 7.177 8.504 0.640 126.977 o
8 14 0 1.597 1.251 0.390 341.946 o
8 14 1 4.127 4.442 0.480 225.738 o
8 14 2 26.922 26.613 1.091 43.776 o
8 14 3 14.440 15.598 0.910 62.806 o
8 14 4 24.207 24.482 1.111 42.212 o
8 14 5 6.535 5.373 0.520 192.344 o
8 14 6 2.439 3.232 0.470 235.446 o
8 14 7 11.388 12.926 0.910 62.806 o
8 15 0 1.654 1.751 0.410 309.399 o
8 15 1 18.742 18.149 0.960 56.434 o
8 15 2 3.594 3.622 0.460 245.794 o
8 15 4 36.436 38.078 1.301 30.775 o
8 15 5 12.734 13.777 0.920 61.448 o
8 15 6 13.957 14.507 0.960 56.434 o
8 16 0 35.106 35.427 1.231 34.378 o
8 16 1 8.884 8.534 0.740 94.978 o
8 16 2 21.823 20.780 1.030 49.024 o
8 16 3 11.275 12.016 0.880 67.162 o
8 16 4 7.468 8.234 0.580 154.607 o
8 16 5 9.721 10.025 0.860 70.322 o
8 16 6 18.102 18.379 1.010 50.985 o
8 17 0 16.988 16.638 0.950 57.629 o
8 17 1 17.660 17.979 1.010 50.985 o
8 17 2 5.121 5.273 0.520 192.344 o
8 17 3 2.325 3.172 0.470 235.446 o
8 17 4 6.767 7.003 0.610 139.774 o
8 17 5 5.370 5.303 0.510 199.961 o
8 18 1 3.518 3.842 0.480 225.738 o
8 18 2 3.904 2.861 0.460 245.794 o
8 18 3 5.335 5.843 0.520 192.344 o
8 19 0 9.549 9.074 0.660 119.398 o
8 19 1 39.889 39.689 1.331 29.402 o
8 19 2 2.177 2.951 0.460 245.794 o
8 19 3 1.329 1.811 0.430 281.287 o
8 20 1 34.745 36.638 1.271 32.246 o
8 20 2 10.094 10.195 0.750 92.462 o
9 0 1 7.380 7.314 0.530 185.155 o
9 0 2 110.212 110.493 1.961 13.539 o
9 0 3 18.748 19.860 0.890 65.661 o
9 0 4 66.064 65.652 1.561 21.372 o
9 0 5 69.412 68.313 1.651 19.104 o
9 0 6 0.413 0.870 0.390 341.946 o
9 0 7 18.689 18.079 1.010 50.985 o
9 0 8 4.332 4.332 0.490 216.618 o
9 1 1 12.110 11.706 0.740 94.978 o
9 1 2 1.365 1.791 0.360 401.311 o
9 1 3 19.465 20.290 0.920 61.448 o
9 1 4 0.779 1.561 0.390 341.946 o
9 1 5 12.104 12.066 0.840 73.710 o
9 1 6 2.517 2.821 0.450 256.839 o
9 1 7 5.033 5.973 0.590 149.411 o
9 1 8 2.485 2.311 0.440 268.646 o
9 2 0 23.268 23.641 0.930 60.134 o
9 2 1 25.382 26.093 0.970 55.277 o
9 2 2 4.709 4.502 0.430 281.287 o
9 2 3 73.213 72.555 1.581 20.834 o
9 2 4 3.151 3.402 0.430 281.287 o
9 2 5 43.705 43.041 1.311 30.307 o
9 2 6 15.885 15.818 0.940 58.861 o
9 2 7 21.030 20.430 1.061 46.289 o
9 2 8 3.104 2.911 0.460 245.794 o
9 3 1 13.960 12.786 0.780 85.486 o
9 3 2 2.979 2.761 0.400 325.062 o
9 3 4 13.650 15.067 0.850 71.986 o
9 3 5 40.991 39.679 1.271 32.246 o
9 3 6 29.080 29.894 1.161 38.652 o
9 3 7 5.098 5.433 0.520 192.344 o
9 3 8 12.748 13.457 0.930 60.134 o
9 4 0 176.419 174.514 2.571 7.874 o
9 4 1 4.705 5.773 0.510 199.961 o
9 4 2 89.906 90.864 1.781 16.415 o
9 4 3 7.703 7.664 0.570 160.080 o
9 4 4 40.553 41.870 1.261 32.760 o
9 4 5 13.292 13.066 0.870 68.714 o
9 4 6 9.841 9.054 0.730 97.598 o
9 4 7 19.859 19.369 1.051 47.175 o
9 4 8 24.014 23.281 1.121 41.462 o
9 5 1 7.285 6.863 0.600 144.472 o
9 5 2 31.383 32.156 1.081 44.590 o
9 5 3 20.960 21.320 0.970 55.277 o
9 5 4 18.169 18.969 0.940 58.861 o
9 5 5 0.566 1.131 0.390 341.946 o
9 5 6 10.973 10.685 0.840 73.710 o
9 5 7 18.288 19.840 1.051 47.175 o
9 5 8 7.306 6.863 0.610 139.774 o
9 6 0 5.865 6.563 0.530 185.155 o
9 6 1 19.321 19.339 0.900 64.210 o
9 6 2 10.759 9.865 0.770 87.721 o
9 6 3 26.445 27.453 1.071 45.428 o
9 6 4 27.840 28.744 1.081 44.590 o
9 6 5 16.759 17.588 0.970 55.277 o
9 6 6 9.036 9.965 0.810 79.271 o
9 6 7 62.177 62.360 1.631 19.575 o
9 6 8 17.192 18.669 0.990 53.066 o
9 7 0 7.534 7.093 0.630 131.040 o
9 7 1 38.969 38.759 1.221 34.944 o
9 7 2 11.548 11.015 0.810 79.271 o
9 7 3 16.360 16.268 0.900 64.210 o
9 7 4 13.876 13.046 0.870 68.714 o
9 7 5 36.637 36.187 1.241 33.825 o
9 7 6 15.748 15.788 0.960 56.434 o
9 7 7 1.001 1.331 0.410 309.399 o
9 7 8 28.109 28.964 1.191 36.728 o
9 8 0 125.589 124.080 2.161 11.148 o
9 8 1 13.683 14.077 0.820 77.350 o
9 8 2 6.315 6.203 0.500 208.040 o
9 8 3 83.077 84.911 1.811 15.876 o
9 8 4 32.904 34.587 1.211 35.523 o
9 8 5 19.527 20.350 1.000 52.010 o
9 8 6 3.322 3.152 0.470 235.446 o
9 8 7 20.989 20.820 1.020 49.990 o
9 8 8 4.486 5.002 0.500 208.040 o
9 9 0 5.304 4.312 0.460 245.794 o
9 9 1 37.286 38.208 1.191 36.728 o
9 9 2 61.078 62.940 1.541 21.930 o
9 9 3 8.664 9.845 0.810 79.271 o
9 9 4 18.487 20.250 0.980 54.154 o
9 9 5 1.630 1.591 0.420 294.841 o
9 9 6 21.357 23.461 1.091 43.776 o
9 9 7 11.639 11.355 0.910 62.806 o
9 10 0 16.563 15.488 0.890 65.661 o
9 10 1 4.664 4.252 0.470 235.446 o
9 10 2 8.943 9.915 0.760 90.045 o
9 10 3 48.126 49.024 1.411 26.161 o
9 10 4 45.482 48.383 1.441 25.082 o
9 10 5 2.646 2.871 0.460 245.794 o
9 10 6 5.372 5.152 0.570 160.080 o
9 10 7 12.071 13.236 0.910 62.806 o
9 11 0 25.413 24.652 1.051 47.175 o
9 11 1 34.309 34.086 1.201 36.118 o
9 11 2 15.658 15.648 0.910 62.806 o
9 11 3 15.044 15.447 0.930 60.134 o
9 11 5 20.582 20.490 1.040 48.086 o
9 11 6 21.805 20.820 1.051 47.175 o
9 11 7 1.174 1.391 0.420 294.841 o
9 12 0 5.744 5.443 0.500 208.040 o
9 12 1 3.275 3.222 0.450 256.839 o
9 12 2 18.969 19.139 1.000 52.010 o
9 12 3 42.282 43.811 1.361 28.120 o
9 12 4 34.980 35.227 1.251 33.286 o
9 12 5 10.883 11.515 0.860 70.322 o
9 12 6 7.659 9.074 0.730 97.598 o
9 13 0 5.817 6.663 0.540 178.361 o
9 13 1 57.646 58.728 1.561 21.372 o
9 13 2 33.314 34.847 1.261 32.760 o
9 13 3 4.485 3.882 0.480 225.738 o
9 13 4 1.221 1.291 0.420 294.841 o
9 13 5 9.213 7.684 0.640 126.977 o
9 13 6 7.942 7.734 0.560 165.848 o
9 14 0 38.783 41.520 1.351 28.538 o
9 14 1 13.440 13.427 0.920 61.448 o
9 14 2 11.120 10.455 0.780 85.486 o
9 14 3 30.558 30.195 1.221 34.944 o
9 14 4 4.411 4.412 0.500 208.040 o
9 14 5 2.164 2.761 0.460 245.794 o
9 15 0 36.658 36.848 1.281 31.744 o
9 15 1 3.828 4.142 0.490 216.618 o
9 15 2 9.759 10.735 0.830 75.497 o
9 15 3 2.301 3.532 0.470 235.446 o
9 15 4 5.391 5.253 0.520 192.344 o
9 15 5 9.331 9.324 0.750 92.462 o
9 16 1 9.555 10.095 0.830 75.497 o
9 16 2 16.164 18.069 1.010 50.985 o
9 16 3 2.064 2.121 0.430 281.287 o
9 16 4 4.798 4.672 0.500 208.040 o
9 17 1 22.738 21.580 1.061 46.289 o
9 17 2 4.237 3.622 0.470 235.446 o
9 17 3 4.906 4.822 0.500 208.040 o
9 18 0 5.227 4.582 0.490 216.618 o
9 18 1 1.417 1.371 0.410 309.399 o
9 18 2 12.900 12.876 0.880 67.162 o
10 0 0 265.635 269.630 3.532 4.174 o
10 0 2 53.859 51.175 1.411 26.161 o
10 0 3 8.929 7.504 0.690 109.242 o
10 0 4 2.814 3.172 0.450 256.839 o
10 0 5 17.539 17.879 0.980 54.154 o
10 0 7 2.913 3.382 0.470 235.446 o
10 1 1 39.435 40.489 1.251 33.286 o
10 1 2 3.936 3.632 0.450 256.839 o
10 1 4 8.371 8.704 0.710 103.174 o
10 1 5 32.230 32.376 1.211 35.523 o
10 1 6 9.454 9.254 0.630 131.040 o
10 1 7 4.472 5.783 0.520 192.344 o
10 2 0 9.974 10.155 0.780 85.486 o
10 2 1 12.280 13.066 0.790 83.336 o
10 2 2 49.864 50.144 1.421 25.794 o
10 2 3 15.182 14.987 0.880 67.162 o
10 2 4 14.260 14.647 0.880 67.162 o
10 2 5 33.230 30.114 1.221 34.944 o
10 2 6 12.389 11.636 0.910 62.806 o
10 2 7 83.044 85.091 1.911 14.257 o
10 3 0 1.143 1.721 0.400 325.062 o
10 3 1 18.413 18.899 0.930 60.134 o
10 3 2 13.479 14.257 0.860 70.322 o
10 3 3 5.034 5.052 0.490 216.618 o
10 3 4 18.431 17.779 0.990 53.066 o
10 3 5 1.037 1.271 0.410 309.399 o
10 3 7 3.231 3.662 0.470 235.446 o
10 4 0 117.384 117.827 2.131 11.464 o
10 4 1 14.294 12.956 0.870 68.714 o
10 4 2 16.945 18.619 0.930 60.134 o
10 4 3 15.510 15.457 0.900 64.210 o
10 4 4 13.317 15.457 0.920 61.448 o
10 4 5 22.603 23.031 1.071 45.428 o
10 4 6 1.909 1.971 0.430 281.287 o
10 4 7 8.962 9.214 0.760 90.045 o
10 5 0 11.688 10.375 0.800 81.266 o
10 5 1 5.655 5.743 0.550 171.934 o
10 5 2 5.993 5.293 0.500 208.040 o
10 5 3 8.617 8.174 0.620 135.302 o
10 5 4 33.192 32.406 1.221 34.944 o
10 5 5 56.081 56.797 1.581 20.834 o
10 5 6 3.410 3.932 0.490 216.618 o
10 5 7 4.306 4.612 0.490 216.618 o
10 6 0 22.806 24.222 1.040 48.086 o
10 6 1 40.271 41.000 1.281 31.744 o
10 6 2 2.426 2.671 0.440 268.646 o
10 6 3 56.042 57.167 1.511 22.810 o
10 6 4 4.382 3.882 0.470 235.446 o
10 6 5 17.712 19.720 1.040 48.086 o
10 6 6 3.643 3.152 0.460 245.794 o
10 6 7 36.242 36.858 1.281 31.744 o
10 7 0 0.985 1.311 0.400 325.062 o
10 7 1 11.223 11.706 0.770 87.721 o
10 7 2 36.459 36.608 1.231 34.378 o
10 7 3 2.286 2.401 0.430 281.287 o
10 7 4 39.302 38.819 1.341 28.965 o
10 7 5 2.602 2.181 0.450 256.839 o
10 7 6 13.254 13.016 0.830 75.497 o
10 7 7 11.531 11.676 0.900 64.210 o
10 8 0 3.203 3.041 0.450 256.839 o
10 8 1 1.919 2.151 0.430 281.287 o
10 8 2 7.534 7.324 0.690 109.242 o
10 8 4 21.196 21.961 1.071 45.428 o
10 8 5 11.728 12.486 0.890 65.661 o
10 8 6 6.103 6.243 0.530 185.155 o
10 9 0 19.939 18.309 0.980 54.154 o
10 9 1 8.771 9.955 0.830 75.497 o
10 9 2 2.222 2.671 0.450 256.839 o
10 9 3 10.616 10.735 0.850 71.986 o
10 9 4 13.208 15.557 0.950 57.629 o
10 9 5 42.178 41.270 1.381 27.310 o
10 9 6 6.722 6.633 0.600 144.472 o
10 10 0 4.345 3.662 0.470 235.446 o
10 10 1 11.046 10.925 0.840 73.710 o
10 10 2 32.040 32.306 1.241 33.825 o
10 10 3 24.303 22.831 1.111 42.212 o
10 10 4 22.666 22.721 1.101 42.983 o
10 10 5 12.491 13.056 0.930 60.134 o
10 10 6 14.822 15.547 0.940 58.861 o
10 11 0 1.997 2.421 0.440 268.646 o
10 11 1 50.104 48.073 1.441 25.082 o
10 11 2 45.223 44.131 1.411 26.161 o
10 11 3 1.669 1.801 0.430 281.287 o
10 11 4 20.083 20.990 1.061 46.289 o
10 11 5 2.301 2.151 0.440 268.646 o
10 12 0 0.907 1.901 0.430 281.287 o
10 12 1 10.640 8.854 0.760 90.045 o
10 12 2 1.487 2.311 0.450 256.839 o
10 12 3 21.259 21.761 1.051 47.175 o
10 12 4 1.108 1.531 0.420 294.841 o
10 12 5 10.891 9.284 0.760 90.045 o
10 13 1 9.169 9.224 0.670 115.861 o
10 13 2 0.527 0.950 0.400 325.062 o
10 13 3 27.148 27.173 1.171 37.994 o
10 13 4 0.715 0.940 0.400 325.062 o
10 14 0 7.261 7.374 0.700 106.143 o
10 14 1 9.064 8.754 0.750 92.462 o
10 14 2 34.491 34.417 1.261 32.760 o
10 14 3 1.999 2.501 0.450 256.839 o
10 14 4 20.596 19.669 1.020 49.990 o
10 15 0 1.318 1.581 0.420 294.841 o
10 15 1 15.583 16.778 0.980 54.154 o
10 15 2 33.133 33.056 1.241 33.825 o
10 15 3 3.754 2.461 0.440 268.646 o
10 16 1 2.188 2.331 0.440 268.646 o
11 0 2 8.328 7.554 0.690 109.242 o
11 0 3 15.784 15.988 0.960 56.434 o
11 0 4 7.347 7.023 0.610 139.774 o
11 0 5 8.316 9.024 0.660 119.398 o
11 0 6 21.072 18.279 1.030 49.024 o
11 1 1 31.058 30.515 1.191 36.728 o
11 1 2 9.599 10.135 0.830 75.497 o
11 1 3 18.655 19.509 1.000 52.010 o
11 1 4 13.254 14.607 0.940 58.861 o
11 1 5 15.143 14.567 0.970 55.277 o
11 1 6 5.402 4.802 0.500 208.040 o
11 2 0 186.169 183.799 2.871 6.314 o
11 2 1 1.485 1.581 0.420 294.841 o
11 2 2 17.029 14.587 0.960 56.434 o
11 2 3 8.711 8.744 0.730 97.598 o
11 2 4 26.750 27.833 1.161 38.652 o
11 2 5 36.183 35.187 1.281 31.744 o
11 2 6 0.386 0.920 0.430 281.287 o
11 3 0 10.794 10.415 0.770 87.721 o
11 3 1 9.894 8.614 0.730 97.598 o
11 3 2 23.515 20.990 1.071 45.428 o
11 3 4 34.301 35.577 1.281 31.744 o
11 3 5 22.754 22.781 1.051 47.175 o
11 3 6 29.305 27.913 1.151 39.327 o
11 4 1 7.934 8.094 0.630 131.040 o
11 4 2 10.885 12.966 0.880 67.162 o
11 4 3 28.969 27.793 1.171 37.994 o
11 4 4 7.363 7.474 0.570 160.080 o
11 4 5 2.338 2.431 0.440 268.646 o
11 4 6 6.938 7.003 0.600 144.472 o
11 5 1 26.644 26.243 1.131 40.731 o
11 5 2 1.136 1.491 0.420 294.841 o
11 5 3 17.352 19.289 1.000 52.010 o
11 5 4 3.515 3.272 0.460 245.794 o
11 5 5 3.528 3.091 0.460 245.794 o
11 6 0 16.369 19.750 1.020 49.990 o
11 6 1 1.531 1.641 0.430 281.287 o
11 6 2 1.720 1.941 0.430 281.287 o
11 6 3 16.964 18.309 1.010 50.985 o
11 6 4 15.282 16.558 0.940 58.861 o
11 6 5 46.563 48.373 1.481 23.744 o
11 7 0 57.072 58.648 1.571 21.100 o
11 7 1 26.538 28.564 1.151 39.327 o
11 7 2 19.560 19.930 1.040 48.086 o
11 7 3 13.755 12.636 0.910 62.806 o
11 7 4 5.202 5.102 0.520 192.344 o
11 7 5 10.991 12.236 0.870 68.714 o
11 8 0 0.388 0.890 0.410 309.399 o
11 8 1 14.279 15.117 0.950 57.629 o
11 8 2 8.074 9.435 0.750 92.462 o
11 8 3 15.811 15.427 0.990 53.066 o
11 8 4 0.929 1.421 0.410 309.399 o
11 9 0 1.246 1.711 0.420 294.841 o
11 9 1 2.713 2.111 0.440 268.646 o
11 9 2 2.250 2.281 0.450 256.839 o
11 9 3 2.525 3.152 0.460 245.794 o
11 9 4 12.709 10.965 0.790 83.336 o
11 10 0 11.034 10.405 0.790 83.336 o
11 10 1 7.434 7.994 0.640 126.977 o
11 10 2 3.154 3.212 0.470 235.446 o
11 10 3 3.749 3.722 0.470 235.446 o
11 10 4 3.878 3.392 0.460 245.794 o
11 11 0 56.220 55.697 1.531 22.218 o
11 11 1 5.415 5.223 0.510 199.961 o
11 11 2 21.550 21.770 1.061 46.289 o
11 11 3 18.203 16.368 1.000 52.010 o
11 12 0 4.938 4.472 0.490 216.618 o
11 12 1 0.732 0.860 0.400 325.062 o
11 12 2 6.878 6.003 0.580 154.607 o
11 13 0 11.057 9.715 0.780 85.486 o
11 13 1 14.117 13.517 0.800 81.266 o
12 0 0 8.675 8.974 0.670 115.861 o
12 0 1 10.986 12.356 0.880 67.162 o
12 0 2 0.827 0.990 0.400 325.062 o
12 0 4 11.073 14.187 0.920 61.448 o
12 1 0 12.468 13.907 0.940 58.861 o
12 1 1 4.693 5.122 0.510 199.961 o
12 1 2 5.317 5.132 0.510 199.961 o
12 1 3 15.971 18.019 0.970 55.277 o
12 1 4 42.903 44.031 1.391 26.919 o
12 2 0 5.320 5.373 0.570 160.080 o
12 2 1 4.707 3.812 0.480 225.738 o
12 2 2 50.172 47.473 1.481 23.744 o
12 2 4 7.630 9.064 0.830 75.497 o
12 3 0 25.290 24.802 1.121 41.462 o
12 3 1 25.290 22.431 1.101 42.983 o
12 3 2 1.099 1.521 0.420 294.841 o
12 3 3 20.849 20.760 1.051 47.175 o
12 3 4 15.780 17.128 0.990 53.066 o
12 4 0 2.053 2.331 0.440 268.646 o
12 4 1 7.636 8.854 0.690 109.242 o
12 4 2 9.733 8.654 0.750 92.462 o
12 4 3 1.029 1.851 0.420 294.841 o
12 5 0 17.871 17.599 0.980 54.154 o
12 5 1 38.066 34.497 1.281 31.744 o
12 5 2 8.512 7.744 0.620 135.302 o
12 5 3 6.639 7.033 0.690 109.242 o
12 6 0 19.341 20.450 1.030 49.024 o
12 6 2 15.555 15.107 0.970 55.277 o
12 6 3 1.141 0.890 0.400 325.062 o
12 7 0 6.981 8.054 0.570 160.080 o
12 7 1 20.619 22.761 1.101 42.983 o
12 7 2 4.852 4.892 0.500 208.040 o
12 8 1 8.530 10.075 0.850 71.986 o
12 8 2 5.424 5.313 0.570 160.080 o
12 9 0 35.437 35.887 1.281 31.744 o
;
loop_
_symmetry_equiv_pos_as_xyz
'+x, +y, +z'
'-x+1/2, -y, +z+1/2'
'+x+1/2, -y+1/2, -z'
'-x, +y+1/2, -z+1/2'
loop_
_atom_site_label
_atom_site_type_symbol
_atom_site_fract_x
_atom_site_fract_y
_atom_site_fract_z
_atom_site_U_iso_or_equiv
_atom_site_adp_type
_atom_site_occupancy
_atom_site_refinement_flags_posn
N1 N 0.64723(5) 0.13752(2) 0.18292(5) 0.00536(4) Uani 1.000000 .
H1a H 0.7039(13) 0.0593(6) 0.2015(15) 0.026(2) Uani 1.000000 .
H1b H 0.7774(12) 0.1900(5) 0.2116(15) 0.0230(19) Uani 1.000000 .
H1c H 0.5805(12) 0.1495(5) 0.0182(14) 0.0239(19) Uani 1.000000 .
C1 C 0.46639(5) 0.16112(2) 0.35429(5) 0.00464(4) Uani 1.000000 .
H1 H 0.4267(10) 0.2481(4) 0.3426(12) 0.0218(17) Uani 1.000000 .
C2 C 0.25992(5) 0.09066(3) 0.30333(6) 0.00710(4) Uani 1.000000 .
H2a H 0.1911(11) 0.1102(5) 0.1333(13) 0.030(2) Uani 1.000000 .
H2b H 0.1259(12) 0.1046(6) 0.4304(14) 0.030(2) Uani 1.000000 .
H2c H 0.3031(10) 0.0052(5) 0.3083(14) 0.030(2) Uani 1.000000 .
C3 C 0.55406(5) 0.14079(2) 0.59985(5) 0.00440(4) Uani 1.000000 .
O1 O 0.72667(4) 0.083801(18) 0.62429(4) 0.00651(4) Uani 1.000000 .
O2 O 0.44091(4) 0.184009(18) 0.76109(4) 0.00632(3) Uani 1.000000 .
loop_
_atom_site_aniso_label
_atom_site_aniso_U_11
_atom_site_aniso_U_22
_atom_site_aniso_U_33
_atom_site_aniso_U_12
_atom_site_aniso_U_13
_atom_site_aniso_U_23
N1 0.00557(8) 0.00616(7) 0.00434(9) 0.00012(7) 0.00070(7) -0.00012(7)
H1a 0.029(5) 0.034(4) 0.015(5) -0.005(4) 0.009(4) -0.003(4)
H1b 0.022(4) 0.025(4) 0.022(5) 0.004(4) 0.002(4) -0.002(4)
H1c 0.023(4) 0.015(4) 0.033(5) -0.002(4) 0.021(4) -0.008(4)
C1 0.00535(9) 0.00488(8) 0.00368(10) 0.00039(7) -0.00054(7) 0.00009(7)
H1 0.027(4) 0.015(3) 0.023(4) 0.005(3) -0.007(4) 0.002(3)
C2 0.00604(9) 0.00898(9) 0.00628(11) -0.00137(8) -0.00057(8) -0.00042(8)
H2a 0.024(4) 0.046(5) 0.020(5) -0.012(4) -0.004(4) 0.004(4)
H2b 0.022(4) 0.039(5) 0.029(5) -0.007(4) 0.004(4) 0.002(4)
H2c 0.028(5) 0.025(3) 0.036(6) -0.007(4) 0.002(4) 0.000(4)
C3 0.00498(8) 0.00458(7) 0.00363(9) 0.00047(7) -0.00013(7) -0.00006(7)
O1 0.00683(7) 0.00711(7) 0.00561(9) 0.00234(6) -0.00062(7) 0.00047(6)
O2 0.00746(7) 0.00754(7) 0.00397(8) 0.00210(6) 0.00043(7) -0.00043(6)
loop_
_atom_type_symbol
_atom_type_scat_dispersion_real
_atom_type_scat_dispersion_imag
_atom_type_scat_source
_atom_type_scat_dispersion_source
H 0.00000 0.00000 'NoSPherA2 (see refine special details)'
'Henke, Gullikson and Davis, At. Data and Nucl. Data Tables, 1993, 54, 2'
C 0.00347 0.00161 'NoSPherA2 (see refine special details)'
'Henke, Gullikson and Davis, At. Data and Nucl. Data Tables, 1993, 54, 2'
O 0.01158 0.00611 'NoSPherA2 (see refine special details)'
'Henke, Gullikson and Davis, At. Data and Nucl. Data Tables, 1993, 54, 2'
N 0.00653 0.00323 'NoSPherA2 (see refine special details)'
'Henke, Gullikson and Davis, At. Data and Nucl. Data Tables, 1993, 54, 2'
loop_
_diffrn_refln_index_h
_diffrn_refln_index_k
_diffrn_refln_index_l
_diffrn_refln_intensity_net
_diffrn_refln_intensity_u
0 2 0 179.82 1.72
0 4 0 5073.71 43.49
0 6 0 87.76 1.02
0 8 0 44.37 0.7
0 10 0 0.78 0.34
0 12 0 227.75 2.6
0 14 0 57.3 1.1
0 16 0 24.7 0.84
0 18 0 222.73 2.91
0 22 0 132.62 2.31
0 26 0 6.31 0.6
0 1 1 708.79 7.17
0 2 1 116.96 1.19
0 3 1 693.29 6.26
0 4 1 96.15 1.04
0 6 1 464.73 4.48
0 7 1 36.13 0.6
0 8 1 43.4 0.71
0 9 1 31.39 0.65
0 10 1 134.35 1.66
0 11 1 65.28 1.08
0 12 1 74.7 1.2
0 13 1 18.43 0.68
0 14 1 37.09 0.92
0 15 1 89.01 1.52
0 17 1 1.11 0.34
0 18 1 58.59 1.34
0 19 1 15.81 0.87
0 20 1 26.85 1.02
0 21 1 2.63 0.41
0 23 1 1.69 0.41
0 25 1 2.92 0.55
0 26 1 19.36 1.21
0 0 2 2781.11 32.59
0 1 2 521.67 6.41
0 2 2 177.65 2.03
0 3 2 54.98 0.78
0 4 2 167.52 1.75
0 5 2 554.6 5.21
0 6 2 94.63 1.14
0 7 2 5.3 0.33
0 8 2 109.31 1.37
0 9 2 23.18 0.58
0 10 2 45.26 0.84
0 11 2 81.97 1.23
0 12 2 27.64 0.73
0 13 2 21.03 0.68
0 14 2 20.83 0.74
0 15 2 177.41 2.34
0 16 2 4.35 0.4
0 17 2 59.75 1.35
0 18 2 19.96 0.89
0 19 2 117.29 2.05
0 20 2 0.96 0.4
0 21 2 44.95 1.33
0 22 2 36.02 1.26
0 23 2 17.63 1.01
0 24 2 2.44 0.45
0 25 2 21.98 1.23
0 26 2 2.5 0.49
0 1 3 82.18 1.71
0 2 3 154.36 2.86
0 3 3 201 2.4
0 4 3 723.07 7.61
0 5 3 79.56 1.17
0 6 3 266.47 2.78
0 7 3 21.92 0.56
0 8 3 60.32 0.97
0 9 3 139.65 1.74
0 10 3 38.76 0.81
0 11 3 68.85 1.16
0 12 3 116.35 1.66
0 13 3 142.37 1.96
0 14 3 27.22 0.84
0 15 3 88.51 1.55
0 16 3 151.45 2.21
0 17 3 46.19 1.21
0 18 3 26.42 0.97
0 19 3 2.45 0.4
0 20 3 43.48 1.31
0 21 3 0.85 0.38
0 22 3 1.13 0.4
0 23 3 27.55 1.14
0 24 3 12.44 0.89
0 25 3 4.87 0.56
0 0 4 205.15 3.82
0 1 4 38.96 1.18
0 2 4 91.05 2.01
0 3 4 7.83 0.44
0 4 4 224.51 2.78
0 6 4 69.4 1.2
0 7 4 28.59 0.76
0 8 4 63.09 1.05
0 9 4 7.04 0.45
0 10 4 88.39 1.35
0 11 4 95.86 1.48
0 12 4 38.16 0.94
0 13 4 11.24 0.64
0 14 4 139.35 2.04
0 15 4 44.29 1.16
0 16 4 92.63 1.7
0 17 4 5.58 0.45
0 18 4 9.43 0.73
0 19 4 3.29 0.43
0 20 4 1.79 0.4
0 22 4 4.26 0.48
0 24 4 26 1.11
0 25 4 2.84 0.5
0 1 5 231.01 4.42
0 2 5 134.31 2.89
0 3 5 48.15 1.5
0 4 5 380.68 4.49
0 5 5 173.89 2.38
0 7 5 6.48 0.52
0 8 5 142.09 2.13
0 9 5 67.86 1.39
0 10 5 7.78 0.54
0 11 5 20.3 0.76
0 12 5 1.46 0.32
0 13 5 77.47 1.47
0 14 5 3.44 0.4
0 15 5 13.79 0.77
0 16 5 12.99 0.78
0 17 5 75.36 1.62
0 18 5 2.28 0.41
0 19 5 13.33 0.88
0 21 5 19.21 1.02
0 22 5 5.38 0.51
0 23 5 12.25 0.94
0 1 6 91.72 2.4
0 2 6 15.85 1
0 3 6 1.46 0.63
0 4 6 15.64 1.06
0 5 6 84.39 1.54
0 6 6 10.94 0.64
0 7 6 138.98 2.19
0 8 6 29.35 0.96
0 9 6 14.04 0.76
0 10 6 15.27 0.8
0 11 6 114.68 1.86
0 12 6 6.17 0.55
0 13 6 4.67 0.47
0 14 6 11.44 0.72
0 16 6 40.64 1.25
0 17 6 28.49 1.08
0 18 6 7.63 0.67
0 19 6 43.26 1.36
0 20 6 1.8 0.42
0 21 6 20.84 1.06
0 22 6 10.35 0.76
0 23 6 16.64 0.97
0 1 7 57.51 2.01
0 2 7 529.52 9.52
0 4 7 11.53 1.08
0 5 7 23.56 1.4
0 6 7 42.24 1.19
0 7 7 45.64 1.25
0 8 7 1.91 0.42
0 9 7 4.83 0.51
0 10 7 9.02 0.79
0 11 7 30.72 1.16
0 12 7 5.71 0.63
0 13 7 11.39 0.78
0 14 7 1.45 0.38
0 16 7 79.93 1.77
0 17 7 1.03 0.39
0 18 7 2.26 0.43
0 19 7 6.71 0.54
0 20 7 132.31 2.4
0 21 7 0.89 0.39
0 0 8 23.95 1.48
0 1 8 3.51 0.93
0 2 8 8.52 1.12
0 3 8 15.38 1.32
0 6 8 10.05 0.8
0 7 8 58.35 1.53
0 8 8 85.61 1.89
0 9 8 12 0.85
0 10 8 6.4 0.68
0 11 8 39.23 1.37
0 12 8 39.36 1.41
0 13 8 31.46 1.32
0 14 8 12.27 0.96
0 16 8 0.98 0.39
0 17 8 6.43 0.54
0 19 8 9.03 0.75
0 20 8 6.03 0.52
0 1 9 8.34 1.14
0 2 9 45.38 2.15
0 3 9 61.98 2.48
0 4 9 21.74 1.59
0 7 9 45.52 1.49
0 8 9 77.94 1.9
0 9 9 16.12 1.05
0 10 9 13.55 1
0 11 9 2.19 0.51
0 12 9 34.14 1.37
0 13 9 28.52 1.31
0 15 9 46.28 1.61
0 16 9 14.15 1.07
0 17 9 15.19 0.96
0 18 9 8.4 0.63
0 0 10 4.71 1.2
0 2 10 20.26 1.7
0 3 10 47.91 2.36
0 4 10 27.73 1.9
0 5 10 32 2.01
0 6 10 40.72 2.28
0 7 10 53.18 2.55
0 8 10 58.9 1.76
0 9 10 6.59 0.64
0 10 10 1.82 0.51
0 11 10 16.03 1.12
0 12 10 13.13 0.91
0 13 10 12.27 1.03
0 14 10 42.63 1.59
0 15 10 5.73 0.63
0 2 11 2.64 1.21
0 3 11 6.65 1.45
0 6 11 7.55 1.5
0 7 11 3.03 1.32
0 8 11 8.21 1.5
0 9 11 7.83 0.75
0 10 11 1.54 0.52
0 11 11 8.17 0.82
0 12 11 29.51 1.37
0 1 12 26.43 2.2
0 2 12 19.77 1.92
0 3 12 113.72 3.87
0 5 12 9.57 1.68
0 6 12 54.58 2.7
0 7 12 63.43 2.98
1 1 0 246.12 2.31
1 2 0 5369.63 56.86
1 3 0 57.84 0.67
1 4 0 1642.66 14.45
1 5 0 331.16 3.22
1 6 0 60.55 0.78
1 7 0 18.84 0.43
1 8 0 393.56 3.92
1 9 0 3.19 0.34
1 10 0 42.14 0.79
1 11 0 94.82 1.33
1 12 0 26.34 0.69
1 13 0 56.1 1.06
1 15 0 84.47 1.45
1 16 0 23.94 0.83
1 17 0 28.91 0.94
1 18 0 0.91 0.37
1 19 0 33.01 1.08
1 20 0 39.41 1.22
1 21 0 1.4 0.42
1 22 0 3.91 0.46
1 23 0 6.86 0.59
1 24 0 9.58 0.77
1 26 0 7.17 0.62
1 0 1 75.15 0.81
1 1 1 130.72 1.33
1 2 1 101.9 1.08
1 3 1 1064.41 9.47
1 4 1 153.69 1.6
1 5 1 428.55 4.14
1 6 1 21.42 0.43
1 7 1 332.12 3.34
1 8 1 229.59 2.43
1 9 1 227.34 2.48
1 10 1 128.42 1.64
1 11 1 16.78 0.55
1 13 1 124.92 1.73
1 14 1 28.95 0.81
1 15 1 85.76 1.48
1 16 1 60.47 1.26
1 17 1 24.89 0.88
1 18 1 23.28 0.91
1 19 1 14.98 0.81
1 20 1 5.7 0.47
1 21 1 2.02 0.4
1 22 1 34.03 1.18
1 23 1 10.43 0.87
1 24 1 20.49 1.05
1 25 1 9.29 0.8
1 26 1 1.96 0.47
1 0 2 3039.32 35.37
1 1 2 70.14 0.92
1 2 2 560.27 5.99
1 3 2 189.97 1.98
1 4 2 1041.63 9.43
1 5 2 18.21 0.4
1 6 2 214.83 2.26
1 7 2 158.6 1.78
1 8 2 10.03 0.42
1 9 2 60.49 0.96
1 10 2 58.21 0.98
1 11 2 115.45 1.56
1 12 2 112.96 1.59
1 13 2 107.88 1.6
1 14 2 53.55 1.11
1 15 2 30.97 0.9
1 16 2 27.04 0.92
1 17 2 74.12 1.49
1 18 2 107.76 1.89
1 19 2 40.34 1.18
1 20 2 9.5 0.69
1 21 2 22.39 1
1 22 2 35.81 1.25
1 23 2 42.49 1.39
1 24 2 10.43 0.78
1 26 2 4.4 0.55
1 0 3 31.36 0.9
1 1 3 296.14 5.12
1 2 3 220 2.58
1 3 3 89.79 1.25
1 4 3 93.64 1.31
1 5 3 22.55 0.51
1 6 3 135.19 1.6
1 7 3 5.07 0.37
1 8 3 252.19 2.75
1 9 3 28.4 0.69
1 10 3 78 1.21
1 11 3 16.31 0.58
1 12 3 31.61 0.82
1 13 3 33.09 0.89
1 14 3 112.42 1.74
1 15 3 32.78 0.96
1 16 3 9.1 0.6
1 17 3 24.5 0.92
1 18 3 25.96 0.98
1 19 3 26.64 1.03
1 20 3 7.6 0.65
1 21 3 23.09 1.03
1 22 3 7.04 0.6
1 23 3 2.69 0.45
1 24 3 7.96 0.63
1 25 3 17.53 1.14
1 0 4 321.45 5.71
1 1 4 254.55 4.63
1 2 4 28.14 1.02
1 3 4 22.92 0.63
1 4 4 107.36 1.53
1 5 4 81.92 1.31
1 6 4 127.61 1.83
1 7 4 81.95 1.2
1 8 4 44.22 0.87
1 9 4 2.13 0.38
1 10 4 22.23 0.69
1 11 4 61.03 1.15
1 12 4 137.9 1.95
1 13 4 26.56 0.84
1 14 4 38.58 1.04
1 15 4 2.92 0.39
1 16 4 23.08 0.89
1 17 4 27.5 1
1 18 4 57.35 1.43
1 19 4 39.95 1.22
1 20 4 9.05 0.78
1 21 4 10.57 0.77
1 22 4 21.31 1.02
1 23 4 14.76 0.94
1 24 4 2.09 0.42
1 0 5 278.56 5.19
1 1 5 119.84 2.65
1 2 5 453.96 7.95
1 3 5 172.59 3.56
1 4 5 105.84 1.65
1 5 5 8.38 0.52
1 6 5 224.91 2.95
1 7 5 71.42 1.36
1 8 5 67.87 1.35
1 9 5 88.15 1.43
1 10 5 9.32 0.57
1 11 5 35.1 0.93
1 12 5 24.55 0.84
1 13 5 43.79 1.13
1 14 5 39.36 1.1
1 15 5 29.22 1
1 16 5 76.96 1.6
1 17 5 11.22 0.78
1 18 5 6.81 0.63
1 19 5 18.29 0.95
1 20 5 63.31 1.61
1 21 5 24.58 1.09
1 22 5 1.69 0.42
1 23 5 4.48 0.49
1 24 5 17.07 0.98
1 2 6 7.39 0.81
1 3 6 12.16 0.97
1 4 6 15.66 1.06
1 5 6 13.01 0.65
1 6 6 21.43 0.8
1 7 6 7.62 0.61
1 8 6 8.9 0.67
1 9 6 10.84 0.75
1 10 6 2.38 0.43
1 11 6 9.63 0.66
1 12 6 28.39 0.94
1 13 6 7.38 0.59
1 14 6 27.43 0.98
1 15 6 10.78 0.8
1 16 6 2.92 0.42
1 17 6 21.07 0.98
1 18 6 13.57 0.88
1 19 6 11.56 0.84
1 20 6 30.94 1.22
1 21 6 9.21 0.76
1 22 6 8.45 0.74
1 23 6 11.78 0.87
1 0 7 242.74 5.04
1 1 7 26.29 1.42
1 2 7 60.08 2.07
1 3 7 79.75 2.44
1 4 7 138.36 3.44
1 5 7 29.94 1.02
1 6 7 60.44 1.44
1 7 7 9.31 0.75
1 8 7 55.17 1.42
1 9 7 65.97 1.58
1 10 7 18.37 0.94
1 11 7 21.39 0.89
1 12 7 1.87 0.45
1 13 7 41.47 1.22
1 14 7 24.11 1.03
1 15 7 31.65 1.15
1 16 7 25.32 1.05
1 17 7 20.08 0.99
1 18 7 42.16 1.36
1 19 7 6.61 0.6
1 20 7 15.13 0.97
1 21 7 9.12 0.65
1 0 8 10.23 1.18
1 1 8 34.61 1.75
1 2 8 19.45 1.41
1 3 8 31.46 1.67
1 4 8 32.11 1.72
1 5 8 100.16 3.05
1 6 8 14.74 0.9
1 7 8 89.49 1.92
1 8 8 3.18 0.48
1 9 8 50.19 1.49
1 10 8 38.92 1.35
1 11 8 93.59 2.08
1 12 8 11.53 0.95
1 13 8 27.74 1.24
1 14 8 1.18 0.5
1 15 8 45.34 1.35
1 16 8 5.47 0.51
1 17 8 26.28 1.16
1 18 8 5.35 0.51
1 19 8 2.22 0.43
1 1 9 2.19 0.98
1 2 9 50.49 2.22
1 4 9 3.19 1.11
1 5 9 28.01 1.8
1 6 9 9.85 1.27
1 7 9 15.55 0.99
1 8 9 8.18 0.73
1 9 9 19.43 1.09
1 10 9 28.98 1.29
1 11 9 45.17 1.54
1 12 9 8.76 0.81
1 13 9 15.77 1.11
1 14 9 7.76 0.81
1 15 9 21.79 1.21
1 16 9 42.07 1.55
1 17 9 17.93 1.03
1 18 9 11.34 0.88
1 0 10 3.41 1.15
1 1 10 25.21 1.84
1 3 10 19.75 1.68
1 4 10 21.27 1.78
1 5 10 32.03 2.05
1 6 10 40.76 2.26
1 7 10 31.06 2.06
1 8 10 24.03 1.23
1 9 10 7.23 0.79
1 10 10 54.84 1.76
1 11 10 15.97 1.12
1 12 10 44.65 1.61
1 14 10 6.44 0.65
1 15 10 10.32 0.86
1 1 11 11.76 1.58
1 2 11 33.14 2.21
1 3 11 22.93 1.91
1 4 11 11.66 1.59
1 5 11 6.02 1.42
1 6 11 3.87 1.32
1 7 11 8.44 1.55
1 8 11 15.31 1.16
1 9 11 23.05 1.28
1 10 11 18.35 1.2
1 11 11 3.53 0.58
1 12 11 1.58 0.52
1 0 12 17.52 1.89
1 1 12 74.46 3.12
1 2 12 8.13 1.7
1 4 12 28.46 2.17
1 5 12 67.23 3.05
1 7 12 22.4 2.04
2 0 0 41.03 0.52
2 1 0 30.45 0.43
2 2 0 1642.63 14.47
2 3 0 769.66 7.02
2 4 0 35.08 0.52
2 5 0 89.17 1.06
2 6 0 2036.41 18.08
2 7 0 287.43 2.94
2 8 0 0.75 0.3
2 9 0 229.89 2.53
2 10 0 248.88 2.73
2 11 0 2.36 0.35
2 12 0 42.46 0.89
2 13 0 164.35 2.1
2 14 0 10.7 0.59
2 15 0 68.44 1.3
2 16 0 36.2 1
2 17 0 34.91 1.02
2 18 0 42.77 1.17
2 19 0 36.95 1.14
2 20 0 0.9 0.36
2 21 0 7.57 0.63
2 22 0 14.8 0.91
2 23 0 10.92 0.86
2 24 0 31.69 1.21
2 25 0 4.03 0.56
2 26 0 1.05 0.44
2 0 1 1.6 0.16
2 1 1 76.33 0.86
2 2 1 271.45 2.67
2 3 1 524.91 4.94
2 4 1 154.41 1.63
2 5 1 417.6 4.06
2 6 1 22.42 0.47
2 7 1 95.87 1.2
2 8 1 4.74 0.35
2 9 1 267.32 2.88
2 10 1 8.52 0.45
2 11 1 4.65 0.42
2 12 1 39.82 0.87
2 13 1 78.11 1.32
2 14 1 43.77 1
2 15 1 23.24 0.79
2 16 1 3.49 0.39
2 17 1 9.86 0.68
2 18 1 9.74 0.71
2 19 1 28.61 1.04
2 20 1 70.12 1.6
2 21 1 28.25 1.1
2 22 1 22.83 1.05
2 23 1 2.51 0.44
2 24 1 40.26 1.31
2 25 1 22.5 1.29
2 26 1 29.82 1.42
2 0 2 4.11 0.22
2 1 2 302 2.99
2 2 2 1061.19 9.6
2 3 2 104.8 1.23
2 4 2 87.16 1.07
2 5 2 8.21 0.34
2 6 2 285.84 2.95
2 7 2 137.38 1.63
2 8 2 141 1.72
2 9 2 125.4 1.58
2 10 2 2.59 0.36
2 11 2 62.74 1.1
2 12 2 56.09 1.06
2 13 2 71.93 1.28
2 14 2 33.1 0.89
2 15 2 31.14 0.92
2 16 2 71.67 1.43
2 18 2 10.59 0.72
2 19 2 1.11 0.36
2 20 2 31.17 1.1
2 21 2 29.6 1.14
2 22 2 3.49 0.46
2 23 2 2.48 0.44
2 24 2 8.53 0.74
2 25 2 39.07 1.63
2 0 3 129.28 1.5
2 1 3 137.4 1.55
2 2 3 375.51 3.72
2 3 3 438.71 4.34
2 4 3 64.45 0.92
2 5 3 244.11 2.61
2 6 3 89.09 1.2
2 7 3 106.32 1.38
2 8 3 117.12 1.52
2 9 3 283.34 3.12
2 10 3 251.54 2.86
2 11 3 11.76 0.57
2 12 3 82.7 1.38
2 13 3 42.94 1.01
2 14 3 47.17 1.11
2 15 3 16.62 0.78
2 16 3 2.73 0.39
2 17 3 12.49 0.74
2 18 3 2.06 0.38
2 19 3 38.04 1.19
2 20 3 9.67 0.65
2 21 3 42.42 1.34
2 22 3 7.64 0.7
2 23 3 5.1 0.56
2 25 3 12.78 1.05
2 0 4 55.58 1.5
2 1 4 104.64 1.51
2 2 4 128.39 1.79
2 3 4 130.56 1.81
2 4 4 12.73 0.56
2 5 4 58.57 0.96
2 6 4 105.93 1.42
2 7 4 100.33 1.4
2 8 4 114.04 1.56
2 9 4 47.61 0.96
2 10 4 135.41 1.84
2 11 4 48.77 1.05
2 12 4 12.41 0.64
2 14 4 11.45 0.69
2 15 4 12.56 0.73
2 16 4 24.67 0.9
2 17 4 37.94 1.16
2 18 4 24.84 1.02
2 19 4 8.53 0.69
2 20 4 26.09 1.07
2 21 4 19.85 1.02
2 22 4 16.43 1.01
2 23 4 22.95 1.05
2 24 4 3.27 0.46
2 0 5 141.46 3.04
2 1 5 33.25 1.28
2 2 5 157.95 2.2
2 3 5 30.97 0.83
2 4 5 145.24 2.08
2 5 5 62.41 1.22
2 6 5 12.22 0.62
2 7 5 13.86 0.69
2 8 5 61.42 1.15
2 9 5 25.65 0.79
2 10 5 135.72 1.93
2 11 5 59.07 1.23
2 12 5 14.01 0.73
2 13 5 2.21 0.37
2 14 5 90.5 1.68
2 15 5 12.44 0.75
2 16 5 1.11 0.35
2 17 5 5.22 0.47
2 18 5 43.39 1.34
2 19 5 10.89 0.82
2 20 5 1.38 0.41
2 21 5 0.93 0.4
2 22 5 20.53 1.02
2 23 5 16.1 1
2 0 6 74.87 2.16
2 1 6 92 2.45
2 2 6 2.26 0.7
2 3 6 2.21 0.56
2 4 6 22.16 0.8
2 5 6 96.53 1.72
2 7 6 75.53 1.53
2 9 6 4.82 0.47
2 10 6 11.86 0.68
2 11 6 102.3 1.75
2 12 6 7.72 0.53
2 13 6 61.02 1.39
2 14 6 11.03 0.73
2 15 6 55.59 1.41
2 16 6 15.05 0.88
2 17 6 45.94 1.34
2 18 6 48.61 1.43
2 19 6 2.3 0.43
2 20 6 3.73 0.47
2 21 6 13.46 0.94
2 22 6 44.76 1.39
2 0 7 7.26 0.96
2 1 7 43.02 1.78
2 2 7 12.3 1.1
2 3 7 14.18 1.17
2 4 7 127.64 2.62
2 5 7 69.53 1.54
2 6 7 28.72 1.04
2 7 7 81.94 1.74
2 8 7 80.67 1.73
2 9 7 4.88 0.52
2 10 7 9.3 0.78
2 11 7 95.59 2.02
2 12 7 2.13 0.38
2 13 7 47.91 1.33
2 14 7 39.42 1.22
2 15 7 32.09 1.17
2 16 7 4.2 0.47
2 17 7 49.77 1.45
2 18 7 9.69 0.75
2 19 7 6.86 0.62
2 20 7 0.96 0.4
2 21 7 10.18 0.78
2 0 8 52.96 2.15
2 1 8 57.6 2.25
2 2 8 23.09 1.55
2 3 8 28.43 1.64
2 4 8 15.6 1.35
2 5 8 55.36 1.49
2 6 8 46.08 1.41
2 7 8 40.96 1.34
2 9 8 11.52 0.78
2 10 8 1.38 0.48
2 11 8 8.35 0.76
2 13 8 30.77 1.34
2 14 8 9.77 0.79
2 15 8 6.87 0.68
2 16 8 3.18 0.46
2 17 8 23.02 1.11
2 18 8 1.88 0.42
2 19 8 6.58 0.53
2 0 9 74.14 2.71
2 1 9 17.12 1.47
2 2 9 107.12 3.36
2 3 9 5.25 1.08
2 4 9 47.77 2.25
2 5 9 11.23 1.36
2 6 9 48.83 1.54
2 7 9 10.35 0.9
2 8 9 3.29 0.53
2 9 9 37.57 1.4
2 10 9 13.83 1
2 11 9 15.31 1.05
2 12 9 17.01 1.11
2 13 9 34.41 1.43
2 14 9 70.81 1.94
2 16 9 15.21 0.99
2 17 9 4.24 0.51
2 0 10 48.67 2.4
2 1 10 65.8 2.77
2 2 10 2.8 1.16
2 3 10 6.43 1.31
2 4 10 4.59 1.23
2 5 10 45.71 2.36
2 6 10 16.62 1.63
2 7 10 25.68 1.29
2 8 10 29.77 1.37
2 9 10 11.97 0.9
2 10 10 32.81 1.42
2 11 10 43.41 1.55
2 12 10 47.33 1.65
2 13 10 6.95 0.67
2 14 10 16.74 1.13
2 15 10 2.89 0.56
2 0 11 12.33 1.64
2 1 11 9.71 1.56
2 2 11 3.24 1.34
2 3 11 7.11 1.43
2 6 11 13.36 1.64
2 8 11 5.54 0.64
2 10 11 6.17 0.77
2 11 11 4.49 0.6
2 0 12 45.71 2.59
2 1 12 20.15 2.05
2 2 12 6.09 1.59
2 3 12 41.73 2.48
2 4 12 10.95 1.74
2 6 12 28.73 2.17
3 1 0 30.34 0.5
3 3 0 67.69 0.86
3 4 0 404.59 3.95
3 5 0 204.07 2.17
3 6 0 38.58 0.68
3 7 0 237.81 2.55
3 8 0 79.01 1.13
3 9 0 105.43 1.41
3 10 0 29.39 0.71
3 11 0 245.95 2.8
3 12 0 8.01 0.52
3 13 0 2.68 0.44
3 14 0 3.67 0.48
3 15 0 23.51 0.83
3 16 0 41.99 1.11
3 17 0 41.38 1.14
3 18 0 2.09 0.37
3 19 0 2.88 0.41
3 20 0 27.32 1.05
3 21 0 29.72 1.12
3 22 0 3.99 0.47
3 24 0 7.88 0.64
3 25 0 28.93 1.4
3 0 1 171.86 1.82
3 1 1 361 3.56
3 2 1 57.69 0.77
3 3 1 424.89 4.16
3 4 1 80.11 1.02
3 5 1 23.77 0.52
3 6 1 67.46 0.96
3 7 1 155.76 1.82
3 8 1 41.78 0.79
3 9 1 373.82 3.93
3 10 1 36.11 0.8
3 11 1 52.42 1.01
3 12 1 53.23 1.06
3 13 1 87.61 1.48
3 14 1 26.48 0.84
3 15 1 1.95 0.36
3 16 1 38.52 1.07
3 17 1 29.53 0.99
3 18 1 49.97 1.3
3 19 1 19.3 0.9
3 20 1 3.62 0.44
3 21 1 66.21 1.6
3 22 1 60.64 1.6
3 23 1 15.13 0.93
3 24 1 29.18 1.18
3 25 1 7.63 0.75
3 1 2 175.83 1.92
3 2 2 265.92 2.73
3 3 2 261.03 2.71
3 4 2 53.88 0.84
3 5 2 308.07 3.19
3 6 2 624.21 6.12
3 7 2 7.14 0.41
3 8 2 87.06 1.24
3 9 2 60.88 1.03
3 10 2 248.4 2.82
3 11 2 33.86 0.83
3 12 2 104.13 1.59
3 13 2 25.65 0.8
3 14 2 6.5 0.58
3 15 2 12.62 0.7
3 16 2 35.91 1.04
3 17 2 27.91 0.98
3 18 2 8.85 0.7
3 19 2 5.41 0.53
3 20 2 11.31 0.82
3 22 2 2.75 0.44
3 23 2 9.6 0.85
3 24 2 26.97 1.15
3 25 2 4.44 0.55
3 0 3 179.41 2
3 1 3 245.98 2.61
3 2 3 17.02 0.5
3 3 3 163.58 1.88
3 4 3 12.34 0.47
3 5 3 209.38 2.32
3 6 3 3.32 0.37
3 7 3 248.81 2.76
3 8 3 42.14 0.85
3 9 3 25.59 0.71
3 10 3 11.31 0.55
3 11 3 74.25 1.29
3 12 3 39.29 0.95
3 13 3 12.15 0.65
3 14 3 8.87 0.58
3 15 3 11.77 0.71
3 16 3 2 0.38
3 17 3 8 0.62
3 19 3 10.06 0.8
3 20 3 5.98 0.51
3 21 3 1.58 0.41
3 22 3 6.25 0.53
3 23 3 38.94 1.35
3 24 3 8.32 0.71
3 0 4 11.33 0.46
3 1 4 110.86 1.44
3 2 4 30.29 0.68
3 3 4 78.35 1.16
3 4 4 24.45 0.63
3 5 4 264.65 2.92
3 6 4 78.24 1.22
3 7 4 58.23 1.05
3 8 4 52.71 1.03
3 9 4 65.91 1.19
3 10 4 20.53 0.71
3 11 4 28.38 0.86
3 12 4 29.32 0.88
3 13 4 102.39 1.71
3 14 4 9.83 0.67
3 15 4 36.76 1.09
3 16 4 16.91 0.82
3 17 4 31.48 1.09
3 18 4 24.92 1.03
3 19 4 16.5 0.92
3 20 4 20.39 0.99
3 21 4 25.18 1.09
3 22 4 6.82 0.61
3 23 4 9.83 0.84
3 24 4 1.07 0.4
3 0 5 48.86 0.95
3 1 5 43.74 0.9
3 2 5 34.69 0.81
3 3 5 71.65 1.19
3 4 5 70.08 1.19
3 5 5 70.81 1.21
3 6 5 43.04 0.94
3 7 5 119.9 1.72
3 8 5 183.08 2.34
3 9 5 1.78 0.46
3 10 5 130.62 1.94
3 11 5 7.14 0.52
3 12 5 120.79 1.92
3 13 5 10.05 0.7
3 14 5 62.54 1.43
3 15 5 43.26 1.22
3 16 5 9.79 0.76
3 17 5 3.07 0.43
3 18 5 6.26 0.52
3 19 5 10.37 0.76
3 20 5 2.77 0.45
3 21 5 3.5 0.47
3 22 5 14.8 0.97
3 23 5 3.69 0.47
3 1 6 3.7 0.5
3 2 6 40.79 1.07
3 3 6 4.72 0.55
3 4 6 9.35 0.66
3 5 6 20.57 0.84
3 6 6 18.23 0.84
3 7 6 38.48 1.12
3 8 6 18.36 0.78
3 9 6 31.7 0.95
3 10 6 23.47 0.87
3 11 6 66.39 1.42
3 12 6 3.53 0.42
3 13 6 55.29 1.37
3 14 6 25.18 1
3 15 6 7.03 0.57
3 16 6 40.78 1.28
3 17 6 23.45 1.04
3 18 6 9.96 0.75
3 19 6 21.34 1.06
3 20 6 62.07 1.62
3 21 6 5.65 0.52
3 22 6 5.04 0.5
3 0 7 5.79 0.98
3 2 7 148.09 3.65
3 3 7 28.37 1.05
3 4 7 9.43 0.77
3 5 7 31.38 1.1
3 6 7 11.75 0.83
3 7 7 35.22 1.18
3 8 7 10.91 0.84
3 9 7 106.55 2.09
3 10 7 49.53 1.28
3 11 7 6.03 0.47
3 12 7 2.34 0.39
3 13 7 37.28 1.2
3 14 7 47.99 1.35
3 15 7 36.39 1.24
3 16 7 2.72 0.44
3 17 7 2.77 0.44
3 18 7 7.66 0.62
3 19 7 20.39 1.06
3 20 7 8.97 0.73
3 21 7 5.09 0.5
3 0 8 2.09 0.98
3 1 8 111.35 3.25
3 2 8 58.2 2.3
3 3 8 44.86 2.05
3 4 8 38.15 1.28
3 5 8 37.73 1.28
3 6 8 25.65 1.11
3 7 8 29.61 1.18
3 8 8 32.68 1.26
3 9 8 21.7 1.1
3 10 8 4.31 0.55
3 11 8 97.81 2.17
3 12 8 16.9 1.05
3 13 8 6.18 0.57
3 14 8 4.49 0.48
3 15 8 17.63 0.97
3 16 8 15.02 0.97
3 17 8 10.97 0.88
3 18 8 8.14 0.63
3 19 8 22.59 1.09
3 0 9 67.53 2.65
3 1 9 11.69 1.38
3 2 9 18.97 1.58
3 3 9 13.65 1.46
3 4 9 99.77 3.3
3 6 9 7.92 0.65
3 7 9 8.83 0.73
3 8 9 42.32 1.5
3 9 9 6.16 0.63
3 10 9 27.35 1.27
3 11 9 4.16 0.58
3 12 9 4.83 0.6
3 13 9 1.51 0.52
3 14 9 30.49 1.33
3 15 9 6.28 0.6
3 16 9 8.83 0.65
3 17 9 21.32 1.06
3 1 10 56.16 2.55
3 2 10 27.17 1.96
3 3 10 80.71 3.11
3 4 10 11.69 1.54
3 5 10 7 1.38
3 6 10 22.84 1.22
3 7 10 11.45 0.87
3 8 10 7.1 0.67
3 9 10 32.66 1.42
3 10 10 7.43 0.82
3 11 10 4.48 0.6
3 12 10 1.1 0.5
3 13 10 18.65 1.19
3 14 10 16.61 1.11
3 1 11 10.74 1.64
3 2 11 14.83 1.69
3 3 11 34.1 2.23
3 4 11 16.58 1.83
3 5 11 15.32 1.71
3 6 11 11.88 1.66
3 7 11 22.08 1.26
3 8 11 6.38 0.79
3 9 11 10.53 0.82
3 10 11 8.79 0.85
3 11 11 9.2 2.88
3 0 12 5.4 1.63
3 1 12 7.16 1.64
3 2 12 3.2 1.5
4 0 0 384.16 3.81
4 1 0 378.42 3.8
4 2 0 39.43 0.69
4 3 0 1.72 0.3
4 4 0 36.22 0.69
4 5 0 15.1 0.5
4 6 0 128.92 1.6
4 7 0 86.25 1.24
4 8 0 129.68 1.67
4 9 0 127.5 1.69
4 10 0 67.67 1.17
4 11 0 12.4 0.6
4 12 0 235.38 2.91
4 13 0 67.76 1.28
4 14 0 2.76 0.36
4 15 0 12.38 0.7
4 16 0 88.64 1.66
4 17 0 1.16 0.34
4 18 0 2 0.38
4 19 0 7.1 0.65
4 21 0 7.82 0.61
4 23 0 4.69 0.5
4 24 0 21.39 1.06
4 0 1 1.43 0.29
4 1 1 145.48 1.67
4 2 1 33.89 0.65
4 3 1 147.5 1.71
4 4 1 11.88 0.45
4 5 1 58.76 0.93
4 6 1 42.58 0.8
4 7 1 240.3 2.67
4 8 1 42.06 0.85
4 9 1 4.16 0.4
4 10 1 33.52 0.81
4 11 1 260.81 3.03
4 12 1 66.34 1.25
4 13 1 42.06 1.03
4 14 1 45.19 1.1
4 15 1 44.07 1.14
4 16 1 51.36 1.26
4 17 1 16.69 0.85
4 18 1 30.36 1.05
4 19 1 41.72 1.25
4 20 1 31.99 1.16
4 21 1 7.56 0.68
4 22 1 13.99 0.94
4 23 1 2.14 0.44
4 24 1 19.2 1.03
4 25 1 5.12 0.57
4 0 2 10.51 0.43
4 1 2 258.72 2.77
4 2 2 9.48 0.44
4 3 2 73.56 1.06
4 4 2 195.76 2.2
4 5 2 132.93 1.67
4 6 2 31.66 0.71
4 7 2 173.34 2.1
4 8 2 158.05 1.97
4 9 2 5.52 0.44
4 10 2 40.35 0.91
4 11 2 18.31 0.68
4 12 2 45.34 1.04
4 14 2 14.12 0.72
4 15 2 14.74 0.76
4 16 2 16.2 0.82
4 17 2 18.95 0.89
4 18 2 5.99 0.53
4 19 2 10.97 0.81
4 20 2 8.26 0.6
4 21 2 9.31 0.81
4 22 2 9.51 0.65
4 23 2 17.35 1.01
4 24 2 1.58 0.41
4 0 3 4.58 0.38
4 1 3 219.85 2.43
4 2 3 37.62 0.77
4 3 3 454.09 4.59
4 4 3 93.09 1.31
4 5 3 106.16 1.46
4 6 3 5.31 0.42
4 7 3 59.19 1.06
4 8 3 85.28 1.36
4 9 3 31.31 0.81
4 10 3 16.57 0.66
4 11 3 29.07 0.85
4 12 3 41.17 1.04
4 13 3 12.06 0.69
4 14 3 22.04 0.87
4 15 3 72.11 1.49
4 16 3 26.77 0.99
4 17 3 0.94 0.35
4 18 3 21.16 0.97
4 19 3 34.31 1.17
4 20 3 12.93 0.86
4 21 3 33.06 1.23
4 22 3 24.91 1.14
4 23 3 0.97 0.4
4 24 3 13.66 0.95
4 0 4 75.67 1.17
4 1 4 121.41 1.6
4 2 4 33.4 0.77
4 3 4 94.7 1.37
4 4 4 34.37 0.79
4 5 4 85.48 1.33
4 6 4 54.9 1.05
4 7 4 42.07 0.94
4 8 4 8.74 0.53
4 9 4 1.41 0.44
4 10 4 35.34 0.94
4 11 4 24.04 0.82
4 12 4 67.54 1.37
4 13 4 25.55 0.91
4 14 4 9 0.62
4 15 4 39.2 1.17
4 16 4 52.8 1.37
4 17 4 58.32 1.48
4 18 4 1.55 0.4
4 19 4 8.32 0.62
4 20 4 22.06 1.07
4 21 4 19.7 1.02
4 22 4 2.04 0.46
4 23 4 62.64 1.62
4 0 5 27.34 0.76
4 1 5 22.54 0.7
4 2 5 6.07 0.48
4 3 5 160.45 2.07
4 4 5 28 0.78
4 5 5 82.91 1.38
4 6 5 13.49 0.61
4 7 5 34.48 0.92
4 8 5 47.22 1.07
4 9 5 43.99 1.09
4 10 5 26.59 0.87
4 11 5 9.68 0.65
4 12 5 18.92 0.85
4 13 5 6.59 0.58
4 14 5 8.33 0.63
4 15 5 1.92 0.39
4 16 5 20.76 0.97
4 17 5 10.15 0.79
4 18 5 2.26 0.43
4 19 5 5.34 0.51
4 20 5 28.45 1.17
4 21 5 2.18 0.43
4 22 5 1.06 0.4
4 1 6 86.63 1.47
4 2 6 15 0.67
4 3 6 25.2 0.82
4 4 6 11.62 0.65
4 5 6 135.18 1.98
4 6 6 40.44 1.05
4 7 6 39.58 1.06
4 8 6 53.1 1.25
4 9 6 132.94 2.08
4 10 6 25.88 0.96
4 11 6 35.79 1.07
4 12 6 61.9 1.44
4 13 6 48.31 1.3
4 14 6 12.24 0.81
4 15 6 53.53 1.44
4 16 6 17.9 0.95
4 17 6 41.48 1.33
4 18 6 26.05 1.11
4 19 6 36.31 1.27
4 20 6 1.82 0.42
4 21 6 22.03 1.08
4 0 7 135.47 2.06
4 1 7 9.24 0.7
4 2 7 12.58 0.82
4 3 7 11.87 0.8
4 4 7 63.9 1.55
4 5 7 16.07 0.89
4 6 7 19.74 0.84
4 7 7 25.63 0.95
4 8 7 50.6 1.29
4 9 7 6.11 0.58
4 10 7 43.04 1.21
4 11 7 51.07 1.36
4 12 7 39.23 1.21
4 13 7 10.31 0.72
4 14 7 30 1.15
4 15 7 2.08 0.42
4 16 7 3.3 0.46
4 17 7 9.22 0.76
4 18 7 5.59 0.52
4 19 7 12.67 0.89
4 20 7 1.91 0.42
4 0 8 43.42 2.05
4 1 8 19.25 1.22
4 2 8 13.46 0.89
4 3 8 11.58 0.87
4 4 8 28.61 1.16
4 5 8 4.32 0.53
4 6 8 8.86 0.75
4 7 8 31.95 1.27
4 8 8 3.66 0.53
4 9 8 87.39 2.07
4 10 8 18.79 0.97
4 11 8 8.67 0.72
4 12 8 0.83 0.39
4 13 8 51.52 1.48
4 14 8 33.45 1.24
4 15 8 2.2 0.44
4 16 8 9.62 0.77
4 18 8 15.94 0.97
4 0 9 18.87 1.62
4 1 9 13.44 1.46
4 2 9 13.05 1.43
4 3 9 23.71 1.18
4 4 9 58.17 1.68
4 5 9 13.62 0.99
4 6 9 35.5 1.42
4 7 9 5.49 0.61
4 8 9 83.6 2.08
4 9 9 16.7 1.08
4 10 9 19.53 1.13
4 12 9 23.36 1.27
4 13 9 9.12 0.75
4 14 9 11.54 0.88
4 15 9 26.02 1.13
4 16 9 2.41 0.44
4 1 10 81.44 3.16
4 2 10 13.93 1.61
4 3 10 3.04 1.26
4 4 10 29.68 1.34
4 5 10 56.65 1.79
4 6 10 27.59 1.34
4 7 10 15.29 1.09
4 8 10 15.2 1.09
4 10 10 14.79 1.09
4 11 10 6.93 0.67
4 12 10 1.59 0.53
4 13 10 8.52 0.7
4 0 11 27.34 2.09
4 2 11 3.11 1.32
4 3 11 8.85 1.54
4 4 11 32.38 2.21
4 5 11 12.88 1.32
4 7 11 6.63 0.66
4 8 11 20.2 1.25
4 9 11 9.65 0.84
5 1 0 39.38 0.76
5 2 0 42.79 0.81
5 3 0 226.54 2.52
5 4 0 59.83 1
5 5 0 71.65 1.12
5 7 0 11.56 0.53
5 8 0 16.03 0.6
5 9 0 25.07 0.73
5 10 0 37.82 0.91
5 11 0 36.19 0.94
5 12 0 1.59 0.47
5 13 0 11.99 0.69
5 14 0 51.61 1.23
5 15 0 15.11 0.81
5 16 0 4.5 0.42
5 17 0 10.31 0.68
5 18 0 6.17 0.63
5 21 0 0.9 0.39
5 22 0 7.79 0.62
5 24 0 2.02 0.43
5 0 1 5.85 0.4
5 1 1 131.1 1.63
5 2 1 89.18 1.26
5 3 1 374.23 3.83
5 4 1 5.2 0.4
5 5 1 34.99 0.76
5 6 1 69.75 1.14
5 7 1 151.4 1.92
5 8 1 3.14 0.41
5 9 1 57.27 1.11
5 10 1 12.48 0.6
5 11 1 67.14 1.26
5 12 1 21.34 0.8
5 13 1 18.64 0.82
5 14 1 15.89 0.77
5 15 1 213.87 2.87
5 16 1 60.26 1.41
5 17 1 4.18 0.44
5 18 1 7.57 0.67
5 19 1 52.64 1.46
5 20 1 50.77 1.43
5 21 1 3.45 0.47
5 22 1 0.89 0.4
5 23 1 1.85 0.42
5 24 1 14.38 0.92
5 0 2 324.64 3.44
5 1 2 166.23 2.01
5 3 2 247.64 2.79
5 4 2 84.2 1.27
5 5 2 41.82 0.87
5 6 2 6.47 0.45
5 7 2 12.7 0.57
5 8 2 28.62 0.79
5 9 2 36.76 0.9
5 10 2 1.37 0.43
5 11 2 15.97 0.71
5 12 2 122.14 1.9
5 14 2 7.42 0.65
5 15 2 3.02 0.39
5 16 2 59.5 1.43
5 17 2 14.45 0.84
5 18 2 11.35 0.8
5 19 2 29.81 1.12
5 20 2 2.12 0.43
5 21 2 38.38 1.3
5 22 2 1.74 0.42
5 23 2 5.26 0.56
5 24 2 7.23 0.88
5 0 3 30.55 0.75
5 1 3 195.1 2.32
5 2 3 24.04 0.68
5 3 3 9.39 0.5
5 4 3 1.33 0.38
5 5 3 67.43 1.16
5 6 3 34.17 0.84
5 7 3 62.94 1.17
5 8 3 18.27 0.68
5 9 3 8.91 0.58
5 10 3 42.49 1.04
5 11 3 25.45 0.87
5 12 3 26.97 0.92
5 13 3 18.8 0.83
5 14 3 46.23 1.21
5 15 3 3.66 0.41
5 16 3 49.98 1.36
5 17 3 23.32 1
5 18 3 23.54 1.04
5 19 3 4.35 0.48
5 20 3 55.57 1.54
5 21 3 8.11 0.64
5 22 3 4.72 0.5
5 23 3 8.51 0.63
5 1 4 68.66 1.19
5 2 4 42.88 0.93
5 3 4 27.81 0.79
5 4 4 16.97 0.65
5 5 4 6.13 0.5
5 6 4 27.88 0.82
5 7 4 29.57 0.85
5 8 4 87.86 1.5
5 9 4 2.62 0.37
5 10 4 109.97 1.8
5 11 4 34 1.02
5 12 4 84.17 1.6
5 13 4 4.32 0.42
5 14 4 84.58 1.69
5 15 4 20.32 0.95
5 16 4 21.8 0.98
5 17 4 8.11 0.68
5 18 4 25.07 1.07
5 19 4 74.39 1.76
5 21 4 43.38 1.38
5 22 4 11.53 0.92
5 0 5 6.94 0.55
5 1 5 182.8 2.34
5 2 5 31.25 0.87
5 3 5 15.81 0.66
5 4 5 71.62 1.34
5 5 5 58.46 1.22
5 6 5 18.29 0.77
5 7 5 33.88 0.96
5 8 5 49.32 1.18
5 9 5 10.72 0.69
5 10 5 18.6 0.82
5 11 5 20.04 0.88
5 12 5 0.95 0.34
5 13 5 17.45 0.89
5 14 5 41.51 1.22
5 15 5 1.29 0.39
5 16 5 18.38 0.93
5 17 5 3.61 0.46
5 18 5 29 1.15
5 19 5 3.09 0.47
5 20 5 11.71 0.92
5 21 5 8.66 0.65
5 0 6 46.5 1.13
5 1 6 44.62 1.09
5 2 6 10.89 0.68
5 3 6 52.97 1.21
5 4 6 48.86 1.18
5 5 6 78.8 1.52
5 6 6 13.19 0.72
5 7 6 102.81 1.79
5 8 6 21.57 0.89
5 9 6 20.68 0.87
5 10 6 67.74 1.49
5 11 6 78.63 1.64
5 13 6 66.05 1.57
5 14 6 52.94 1.44
5 15 6 15.01 0.89
5 16 6 5.23 0.5
5 17 6 51.85 1.5
5 18 6 7.11 0.63
5 19 6 5.13 0.51
5 0 7 1.46 0.36
5 1 7 29.36 0.98
5 2 7 16.42 0.83
5 3 7 3.95 0.42
5 4 7 105.62 1.85
5 5 7 10.17 0.66
5 6 7 20.63 0.89
5 7 7 9.54 0.73
5 8 7 98.36 1.86
5 9 7 11.2 0.75
5 10 7 1.98 0.4
5 11 7 4.19 0.46
5 12 7 13.02 0.78
5 13 7 15.93 0.91
5 14 7 6.29 0.53
5 15 7 17.97 0.98
5 16 7 7.71 0.73
5 17 7 4.82 0.5
5 18 7 2.88 0.45
5 0 8 35.96 1.15
5 1 8 46.89 1.29
5 2 8 3.19 0.42
5 4 8 19.15 0.94
5 5 8 137.68 2.29
5 7 8 5.16 0.48
5 8 8 2.89 0.43
5 9 8 23.71 1.04
5 10 8 2.02 0.42
5 11 8 12.49 0.86
5 12 8 7.93 0.62
5 13 8 31.87 1.24
5 14 8 8.01 0.64
5 15 8 8.66 0.64
5 16 8 11.73 0.88
5 17 8 57.84 1.56
5 1 9 29.52 1.12
5 2 9 34.84 1.39
5 3 9 5.4 0.6
5 4 9 6.11 0.62
5 5 9 13.93 1.04
5 6 9 26.77 1.26
5 7 9 9.36 0.82
5 8 9 1.09 0.5
5 9 9 1.3 0.41
5 10 9 20.95 1.05
5 11 9 15.24 0.96
5 12 9 1.68 0.42
5 13 9 8.62 0.65
5 14 9 6.67 0.54
5 15 9 2.58 0.44
5 0 10 73.64 3.07
5 1 10 5.11 0.88
5 2 10 2.79 0.56
5 3 10 50.19 1.69
5 4 10 24.14 1.26
5 5 10 29.46 1.42
5 6 10 6.49 0.67
5 7 10 17.52 1.16
5 8 10 6.85 0.67
5 9 10 32.12 1.39
5 11 10 1.99 0.52
5 12 10 5.77 0.52
5 0 11 3.67 1.49
5 1 11 23.38 1.96
5 2 11 12.06 1.58
5 3 11 16.07 1.15
5 4 11 10.79 0.89
5 6 11 39.01 1.5
5 7 11 2.38 0.55
6 0 0 131.59 1.72
6 1 0 64.9 1.1
6 2 0 4.74 0.43
6 3 0 30.99 0.78
6 4 0 9.72 0.51
6 5 0 74.83 1.26
6 6 0 69.02 1.22
6 7 0 82.56 1.39
6 8 0 57.69 1.15
6 10 0 86.04 1.53
6 12 0 62.69 1.33
6 13 0 21 0.88
6 14 0 9.04 0.63
6 15 0 27.84 1
6 16 0 7.13 0.62
6 17 0 8.74 0.68
6 18 0 20.76 1.01
6 19 0 6.82 0.67
6 21 0 2.22 0.44
6 22 0 23.04 1.08
6 0 1 38.69 0.86
6 1 1 115.97 1.6
6 2 1 83.81 1.31
6 3 1 74.48 1.23
6 4 1 85.66 1.35
6 5 1 102.27 1.53
6 6 1 9.27 0.53
6 7 1 59.7 1.16
6 8 1 51.66 1.1
6 9 1 1.43 0.46
6 10 1 1.43 0.33
6 11 1 26.07 0.88
6 12 1 12.5 0.73
6 13 1 116.95 1.94
6 14 1 40.23 1.15
6 15 1 18.15 0.87
6 16 1 11.48 0.77
6 17 1 70.31 1.61
6 18 1 64.88 1.59
6 19 1 18.11 0.96
6 20 1 12.88 0.9
6 21 1 7.86 0.64
6 22 1 21.33 1.07
6 23 1 9.13 0.85
6 0 2 18.78 0.64
6 1 2 111.46 1.59
6 2 2 170.3 2.15
6 3 2 3.24 0.42
6 5 2 46.27 1
6 6 2 9.29 0.55
6 7 2 17.54 0.7
6 8 2 45.5 1.06
6 9 2 5.33 0.56
6 10 2 103.94 1.73
6 11 2 3.62 0.4
6 12 2 29.8 1
6 13 2 10.52 0.66
6 14 2 89.11 1.75
6 15 2 1 0.36
6 16 2 6.81 0.57
6 17 2 13.93 0.87
6 18 2 7.29 0.6
6 19 2 6.77 0.59
6 20 2 1.79 0.43
6 21 2 8.54 0.75
6 22 2 6.08 0.53
6 23 2 13.13 1.51
6 0 3 12 0.58
6 1 3 97.02 1.5
6 2 3 16.18 0.66
6 3 3 194.9 2.41
6 4 3 65.02 1.22
6 5 3 4.43 0.5
6 6 3 23.83 0.78
6 7 3 56.04 1.18
6 8 3 22.27 0.81
6 9 3 24.72 0.87
6 10 3 1.26 0.35
6 11 3 6.66 0.51
6 12 3 20.18 0.88
6 13 3 4.28 0.42
6 14 3 46.78 1.3
6 15 3 31.44 1.11
6 16 3 27.61 1.09
6 17 3 12.46 0.85
6 18 3 67.75 1.67
6 19 3 45.75 1.43
6 20 3 2.94 0.46
6 21 3 20.38 1.08
6 22 3 28.15 1.17
6 0 4 1.02 0.42
6 1 4 91.48 1.52
6 2 4 20.44 0.74
6 3 4 55.26 1.16
6 5 4 35.83 0.98
6 6 4 65.17 1.32
6 7 4 4.8 0.41
6 8 4 16.45 0.77
6 9 4 38.89 1.09
6 10 4 47.01 1.22
6 11 4 2.42 0.37
6 12 4 26.6 0.99
6 13 4 4.55 0.45
6 14 4 38.61 1.22
6 15 4 3.71 0.45
6 16 4 31.07 1.15
6 17 4 78.15 1.77
6 18 4 9.62 0.77
6 19 4 30.56 1.22
6 20 4 12.03 0.9
6 21 4 53.02 1.51
6 0 5 13.91 0.73
6 1 5 63.26 1.3
6 2 5 19.13 0.78
6 3 5 103.17 1.73
6 4 5 18.57 0.8
6 5 5 4.07 0.4
6 6 5 42.64 1.11
6 7 5 9.88 0.69
6 9 5 32.81 1.06
6 10 5 2.23 0.38
6 11 5 18.81 0.9
6 12 5 22.54 0.97
6 13 5 9.28 0.61
6 14 5 22.02 1.01
6 15 5 1.86 0.41
6 16 5 16.37 0.97
6 17 5 1.84 0.42
6 18 5 17.27 0.98
6 19 5 5.85 0.53
6 0 6 49.51 1.22
6 1 6 98.36 1.74
6 2 6 70.41 1.47
6 3 6 54.38 1.29
6 4 6 19.12 0.85
6 5 6 77.46 1.57
6 6 6 71.89 1.53
6 7 6 6.17 0.47
6 8 6 10.54 0.76
6 9 6 73.94 1.62
6 10 6 12.37 0.84
6 11 6 32.3 1.14
6 12 6 39.42 1.24
6 13 6 33.82 1.21
6 14 6 12.82 0.91
6 15 6 42.37 1.34
6 16 6 28.05 1.15
6 17 6 22.19 1.07
6 18 6 8.4 0.58
6 19 6 13.93 0.92
6 0 7 17.24 0.84
6 1 7 2.19 0.38
6 2 7 48.61 1.29
6 3 7 11.5 0.78
6 4 7 7.96 0.64
6 5 7 20.14 0.9
6 6 7 95.97 1.85
6 7 7 2.25 0.41
6 8 7 18.52 0.92
6 9 7 4.96 0.53
6 10 7 56.46 1.48
6 11 7 4.99 0.49
6 12 7 17.04 0.98
6 13 7 15.13 0.95
6 14 7 13.46 0.93
6 15 7 3.43 0.47
6 17 7 11.59 0.85
6 18 7 6.9 0.54
6 0 8 27.69 1.06
6 1 8 1.22 0.38
6 2 8 14.42 0.85
6 3 8 48.17 1.35
6 4 8 7.59 0.67
6 5 8 3.32 0.44
6 6 8 12.87 0.87
6 7 8 51.93 1.43
6 9 8 3.07 0.46
6 10 8 7.64 0.64
6 11 8 17.23 1.01
6 12 8 2.35 0.45
6 13 8 10.22 0.73
6 14 8 14.93 0.95
6 15 8 40.35 1.34
6 16 8 20.67 1.06
6 0 9 38.19 1.28
6 1 9 1.09 0.4
6 2 9 11.18 0.85
6 3 9 10.96 0.8
6 4 9 8.78 0.74
6 5 9 2.65 0.44
6 6 9 12.78 0.88
6 7 9 6.87 0.55
6 8 9 29.43 1.16
6 9 9 5.7 0.52
6 10 9 41.23 1.37
6 11 9 6.42 0.6
6 12 9 35.65 1.28
6 13 9 13.65 0.93
6 0 10 4.83 0.51
6 1 10 42.55 1.36
6 2 10 44.83 1.42
6 3 10 1.58 0.45
6 4 10 6.88 0.55
6 5 10 50.53 1.48
6 6 10 8.38 0.65
6 7 10 22.09 1.09
6 8 10 1.54 0.42
6 9 10 4.44 0.49
6 0 11 7.28 0.62
6 1 11 28.99 1.36
6 2 11 4.2 0.59
7 2 0 69.94 1.27
7 3 0 13.38 0.61
7 4 0 3.73 0.5
7 5 0 51.46 1.13
7 6 0 20.66 0.78
7 7 0 2.37 0.35
7 8 0 33.93 0.97
7 9 0 42.03 1.09
7 10 0 95.93 1.71
7 11 0 32.03 1.03
7 12 0 23.77 0.93
7 14 0 17.05 0.87
7 15 0 14.81 0.87
7 16 0 2.43 0.43
7 17 0 11.25 0.84
7 18 0 1.2 0.41
7 19 0 3.03 0.46
7 20 0 24.31 1.09
7 21 0 17.46 1
7 22 0 1.4 0.43
7 0 1 214.23 2.64
7 1 1 55.2 1.12
7 2 1 15.56 0.67
7 3 1 40.59 0.97
7 4 1 68.45 1.28
7 5 1 71.33 1.33
7 6 1 38.99 1
7 7 1 22.34 0.81
7 8 1 1.12 0.34
7 9 1 98 1.71
7 10 1 18.63 0.83
7 11 1 17.78 0.84
7 13 1 36.15 1.13
7 14 1 17.67 0.94
7 15 1 10.49 0.77
7 16 1 16.95 0.94
7 17 1 35.15 1.23
7 18 1 41.86 1.35
7 19 1 25.73 1.14
7 20 1 10.93 0.88
7 21 1 24.64 1.13
7 22 1 32.84 1.25
7 0 2 11.23 0.62
7 1 2 2 0.47
7 2 2 37.9 0.96
7 3 2 28.43 0.85
7 4 2 12.34 0.65
7 5 2 49.4 1.12
7 6 2 203.91 2.63
7 7 2 6.92 0.49
7 8 2 17.08 0.79
7 9 2 23.02 0.91
7 10 2 139.03 2.17
7 11 2 10.41 0.65
7 12 2 56.97 1.39
7 13 2 5.15 0.51
7 14 2 5.63 0.49
7 15 2 19.54 0.93
7 16 2 14.82 0.91
7 17 2 6.01 0.58
7 18 2 10.97 0.85
7 19 2 1.62 0.42
7 20 2 1.84 0.44
7 21 2 0.95 0.4
7 0 3 3.67 0.52
7 1 3 115.35 1.8
7 2 3 29.46 0.9
7 3 3 17.52 0.76
7 4 3 23.97 0.84
7 5 3 100.32 1.69
7 6 3 43.27 1.1
7 7 3 11.73 0.69
7 8 3 36.57 1.06
7 9 3 5.55 0.5
7 10 3 5.85 0.5
7 11 3 5.81 0.58
7 12 3 14.53 0.82
7 13 3 20.85 0.96
7 14 3 41.56 1.29
7 15 3 15.95 0.91
7 16 3 23.99 1.11
7 17 3 31.69 1.22
7 18 3 7.72 0.63
7 19 3 20.63 1.06
7 20 3 12.35 0.9
7 21 3 8.65 0.73
7 0 4 2.55 0.37
7 1 4 64.72 1.34
7 2 4 11.66 0.7
7 3 4 22.83 0.87
7 4 4 55.66 1.26
7 5 4 50.65 1.24
7 6 4 47.4 1.2
7 7 4 4.41 0.43
7 8 4 8.93 0.63
7 9 4 16.11 0.83
7 10 4 11.52 0.76
7 11 4 13.66 0.83
7 12 4 26.58 1.05
7 13 4 38.42 1.27
7 14 4 11.52 0.85
7 15 4 37.29 1.28
7 16 4 34.6 1.23
7 17 4 22.61 1.05
7 18 4 15.71 0.96
7 19 4 25.01 1.16
7 20 4 1.89 0.43
7 0 5 2.93 0.39
7 1 5 21.51 0.87
7 2 5 21.17 0.85
7 3 5 7.07 0.6
7 4 5 30.65 1.02
7 5 5 31.83 1.04
7 6 5 26.61 0.98
7 7 5 43.83 1.23
7 8 5 61.09 1.46
7 9 5 4.71 0.46
7 10 5 43.12 1.27
7 11 5 11.73 0.83
7 12 5 27.46 1.12
7 13 5 4.47 0.48
7 14 5 51.89 1.46
7 15 5 3.07 0.46
7 16 5 11.87 0.81
7 17 5 3.93 0.48
7 18 5 5.53 0.52
7 19 5 5.35 0.51
7 0 6 14.03 0.8
7 1 6 59.81 1.42
7 2 6 75.19 1.6
7 3 6 56.21 1.4
7 4 6 53.44 1.35
7 5 6 6.33 0.53
7 6 6 11.82 0.81
7 7 6 32.8 1.15
7 8 6 27.67 1.08
7 9 6 8.68 0.7
7 10 6 7.29 0.67
7 11 6 24.59 1.05
7 12 6 6.51 0.59
7 13 6 13.07 0.89
7 14 6 10.53 0.76
7 15 6 17.02 1
7 16 6 18.43 1.02
7 17 6 14.43 0.96
7 18 6 6.86 0.61
7 0 7 29.81 1.11
7 1 7 1.19 0.37
7 2 7 70.51 1.62
7 3 7 7.98 0.68
7 4 7 3.05 0.43
7 5 7 4.69 0.47
7 6 7 3.18 0.44
7 7 7 21.7 1.01
7 8 7 34.6 1.2
7 9 7 16.72 0.98
7 10 7 36.04 1.27
7 11 7 12.56 0.8
7 12 7 20.01 1.07
7 13 7 7.44 0.62
7 14 7 28.3 1.21
7 15 7 6.7 0.54
7 0 8 1.16 0.4
7 1 8 31.41 1.19
7 2 8 69.36 1.65
7 3 8 17.75 0.96
7 4 8 6.18 0.58
7 5 8 10.22 0.82
7 6 8 4.38 0.48
7 7 8 8.44 0.72
7 8 8 3.81 0.52
7 9 8 22.88 1.09
7 10 8 2.05 0.44
7 11 8 26.9 1.15
7 12 8 16.74 0.98
7 13 8 20.51 1.03
7 14 8 2.37 0.43
7 0 9 4.54 0.5
7 1 9 4.34 0.49
7 2 9 10.16 0.78
7 3 9 7.01 0.58
7 4 9 18.79 1.02
7 5 9 10.44 0.68
7 6 9 10.07 0.72
7 7 9 3.72 0.48
7 8 9 56.16 1.56
7 10 9 30.94 1.2
7 11 9 6.44 0.53
7 1 10 30.43 1.21
7 2 10 3.84 0.47
7 3 10 64.56 1.65
7 4 10 7.28 0.55
7 6 10 9.49 0.86
8 0 0 2.3 0.36
8 1 0 1.67 0.34
8 2 0 48.29 1.13
8 4 0 2.32 0.36
8 5 0 10.36 0.67
8 6 0 128.31 2.03
8 7 0 17.57 0.83
8 8 0 5.59 0.5
8 9 0 62.67 1.44
8 10 0 17.41 0.86
8 11 0 22.27 0.94
8 12 0 9.96 0.65
8 13 0 57.11 1.46
8 14 0 1.25 0.39
8 15 0 1.75 0.41
8 16 0 35.41 1.23
8 17 0 16.63 0.95
8 19 0 9.07 0.66
8 0 1 30.79 0.96
8 1 1 30.4 0.94
8 2 1 94.15 1.64
8 3 1 1.21 0.34
8 4 1 31.9 0.98
8 5 1 65.26 1.38
8 6 1 2.49 0.39
8 7 1 21.35 0.87
8 8 1 4.99 0.48
8 9 1 59.68 1.43
8 10 1 4.24 0.43
8 11 1 3.88 0.44
8 12 1 20.74 0.96
8 13 1 25.66 1.04
8 14 1 4.44 0.48
8 15 1 18.14 0.96
8 16 1 8.53 0.74
8 17 1 17.97 1.01
8 18 1 3.84 0.48
8 19 1 39.67 1.33
8 20 1 36.62 1.27
8 1 2 3.06 0.38
8 2 2 31.57 0.98
8 3 2 11.15 0.7
8 4 2 126.55 2.02
8 5 2 3.01 0.4
8 6 2 48.83 1.23
8 7 2 12.21 0.79
8 8 2 178.4 2.57
8 9 2 1.92 0.37
8 10 2 22.63 0.96
8 11 2 4.11 0.45
8 12 2 27.12 1.06
8 13 2 2.68 0.43
8 14 2 26.6 1.09
8 15 2 3.62 0.46
8 16 2 20.77 1.03
8 17 2 5.27 0.52
8 18 2 2.86 0.46
8 19 2 2.95 0.46
8 20 2 10.19 0.75
8 0 3 81.03 1.57
8 1 3 1.86 0.37
8 2 3 14.39 0.77
8 3 3 34.19 1.03
8 4 3 41.13 1.15
8 5 3 22.49 0.92
8 6 3 35.05 1.08
8 7 3 34.2 1.09
8 8 3 20.8 0.9
8 9 3 58.42 1.44
8 10 3 69.41 1.59
8 11 3 10.74 0.8
8 12 3 61.74 1.55
8 13 3 36.69 1.23
8 14 3 15.59 0.91
8 16 3 12.01 0.88
8 17 3 3.17 0.47
8 18 3 5.84 0.52
8 19 3 1.81 0.43
8 0 4 5.39 0.48
8 1 4 13.78 0.75
8 2 4 16 0.81
8 3 4 44.91 1.21
8 4 4 23.27 0.94
8 5 4 11.82 0.73
8 6 4 6.76 0.51
8 7 4 40.26 1.21
8 8 4 63.87 1.52
8 9 4 24.04 1
8 10 4 30.13 1.12
8 11 4 53.21 1.44
8 12 4 15.34 0.9
8 13 4 24.16 1.07
8 14 4 24.47 1.11
8 15 4 38.06 1.3
8 16 4 8.23 0.58
8 17 4 7 0.61
8 1 5 22.92 0.93
8 2 5 17.83 0.87
8 3 5 14.56 0.83
8 4 5 16.74 0.86
8 5 5 33.23 1.14
8 6 5 45.61 1.3
8 7 5 8.14 0.68
8 8 5 36.23 1.22
8 9 5 13.2 0.87
8 10 5 48.56 1.41
8 11 5 1.08 0.39
8 12 5 52.74 1.51
8 13 5 1.2 0.41
8 14 5 5.37 0.52
8 15 5 13.77 0.92
8 16 5 10.02 0.86
8 17 5 5.3 0.51
8 0 6 83.85 1.77
8 1 6 1.85 0.4
8 2 6 8.24 0.68
8 3 6 12.06 0.83
8 4 6 36.2 1.2
8 5 6 21.95 1
8 6 6 16.09 0.92
8 7 6 27.76 1.15
8 8 6 12.74 0.91
8 9 6 5.17 0.5
8 11 6 28.96 1.19
8 13 6 9.61 0.72
8 14 6 3.23 0.47
8 15 6 14.5 0.96
8 16 6 18.37 1.01
8 0 7 53.7 1.5
8 1 7 4.91 0.49
8 2 7 1.28 0.4
8 3 7 11.11 0.75
8 4 7 58.8 1.54
8 5 7 0.99 0.4
8 6 7 3.05 0.45
8 7 7 35.16 1.26
8 8 7 29.83 1.19
8 9 7 10.15 0.77
8 11 7 27.79 1.2
8 12 7 32.12 1.21
8 13 7 8.5 0.64
8 14 7 12.92 0.91
8 0 8 46.56 1.42
8 1 8 43.98 1.39
8 2 8 9.8 0.75
8 3 8 34.61 1.28
8 4 8 11.52 0.8
8 5 8 13.87 0.95
8 6 8 8.73 0.62
8 7 8 13.11 0.92
8 8 8 3.04 0.46
8 9 8 3.84 0.48
8 10 8 4.37 0.49
8 11 8 22.01 1.07
8 0 9 6.13 0.53
8 1 9 5.7 0.53
8 2 9 19.57 1.06
8 3 9 16.81 0.99
8 4 9 17.57 1.02
8 6 9 43.35 1.34
8 7 9 22.75 1.08
8 8 9 7.37 0.63
9 2 0 23.63 0.93
9 4 0 174.43 2.57
9 6 0 6.56 0.53
9 7 0 7.09 0.63
9 8 0 124.02 2.16
9 9 0 4.31 0.46
9 10 0 15.48 0.89
9 11 0 24.64 1.05
9 12 0 5.44 0.5
9 13 0 6.66 0.54
9 14 0 41.5 1.35
9 15 0 36.83 1.28
9 18 0 4.58 0.49
9 0 1 7.31 0.53
9 1 1 11.7 0.74
9 2 1 26.08 0.97
9 3 1 12.78 0.78
9 4 1 5.77 0.51
9 5 1 6.86 0.6
9 6 1 19.33 0.9
9 7 1 38.74 1.22
9 8 1 14.07 0.82
9 9 1 38.19 1.19
9 10 1 4.25 0.47
9 11 1 34.07 1.2
9 12 1 3.22 0.45
9 13 1 58.7 1.56
9 14 1 13.42 0.92
9 15 1 4.14 0.49
9 16 1 10.09 0.83
9 17 1 21.57 1.06
9 18 1 1.37 0.41
9 0 2 110.44 1.96
9 1 2 1.79 0.36
9 2 2 4.5 0.43
9 3 2 2.76 0.4
9 4 2 90.82 1.78
9 5 2 32.14 1.08
9 6 2 9.86 0.77
9 7 2 11.01 0.81
9 8 2 6.2 0.5
9 9 2 62.91 1.54
9 10 2 9.91 0.76
9 11 2 15.64 0.91
9 12 2 19.13 1
9 13 2 34.83 1.26
9 14 2 10.45 0.78
9 15 2 10.73 0.83
9 16 2 18.06 1.01
9 17 2 3.62 0.47
9 18 2 12.87 0.88
9 0 3 19.85 0.89
9 1 3 20.28 0.92
9 2 3 72.52 1.58
9 4 3 7.66 0.57
9 5 3 21.31 0.97
9 6 3 27.44 1.07
9 7 3 16.26 0.9
9 8 3 84.87 1.81
9 9 3 9.84 0.81
9 10 3 49 1.41
9 11 3 15.44 0.93
9 12 3 43.79 1.36
9 13 3 3.88 0.48
9 14 3 30.18 1.22
9 15 3 3.53 0.47
9 16 3 2.12 0.43
9 17 3 4.82 0.5
9 0 4 65.62 1.56
9 1 4 1.56 0.39
9 2 4 3.4 0.43
9 3 4 15.06 0.85
9 4 4 41.85 1.26
9 5 4 18.96 0.94
9 6 4 28.73 1.08
9 7 4 13.04 0.87
9 8 4 34.57 1.21
9 9 4 20.24 0.98
9 10 4 48.36 1.44
9 12 4 35.21 1.25
9 13 4 1.29 0.42
9 14 4 4.41 0.5
9 15 4 5.25 0.52
9 16 4 4.67 0.5
9 0 5 68.28 1.65
9 1 5 12.06 0.84
9 2 5 43.02 1.31
9 3 5 39.66 1.27
9 4 5 13.06 0.87
9 5 5 1.13 0.39
9 6 5 17.58 0.97
9 7 5 36.17 1.24
9 8 5 20.34 1
9 9 5 1.59 0.42
9 10 5 2.87 0.46
9 11 5 20.48 1.04
9 12 5 11.51 0.86
9 13 5 7.68 0.64
9 14 5 2.76 0.46
9 15 5 9.32 0.75
9 0 6 0.87 0.39
9 1 6 2.82 0.45
9 2 6 15.81 0.94
9 3 6 29.88 1.16
9 4 6 9.05 0.73
9 5 6 10.68 0.84
9 6 6 9.96 0.81
9 7 6 15.78 0.96
9 8 6 3.15 0.47
9 9 6 23.45 1.09
9 10 6 5.15 0.57
9 11 6 20.81 1.05
9 12 6 9.07 0.73
9 13 6 7.73 0.56
9 0 7 18.07 1.01
9 1 7 5.97 0.59
9 2 7 20.42 1.06
9 3 7 5.43 0.52
9 4 7 19.36 1.05
9 5 7 19.83 1.05
9 6 7 62.33 1.63
9 7 7 1.33 0.41
9 8 7 20.81 1.02
9 9 7 11.35 0.91
9 10 7 13.23 0.91
9 11 7 1.39 0.42
9 0 8 4.33 0.49
9 1 8 2.31 0.44
9 2 8 2.91 0.46
9 3 8 13.45 0.93
9 4 8 23.27 1.12
9 5 8 6.86 0.61
9 6 8 18.66 0.99
9 7 8 28.95 1.19
9 8 8 5 0.5
10 0 0 269.5 3.53
10 2 0 10.15 0.78
10 3 0 1.72 0.4
10 4 0 117.77 2.13
10 5 0 10.37 0.8
10 6 0 24.21 1.04
10 7 0 1.31 0.4
10 8 0 3.04 0.45
10 9 0 18.3 0.98
10 10 0 3.66 0.47
10 11 0 2.42 0.44
10 12 0 1.9 0.43
10 14 0 7.37 0.7
10 15 0 1.58 0.42
10 1 1 40.47 1.25
10 2 1 13.06 0.79
10 3 1 18.89 0.93
10 4 1 12.95 0.87
10 5 1 5.74 0.55
10 6 1 40.98 1.28
10 7 1 11.7 0.77
10 8 1 2.15 0.43
10 9 1 9.95 0.83
10 10 1 10.92 0.84
10 11 1 48.05 1.44
10 12 1 8.85 0.76
10 13 1 9.22 0.67
10 14 1 8.75 0.75
10 15 1 16.77 0.98
10 16 1 2.33 0.44
10 0 2 51.15 1.41
10 1 2 3.63 0.45
10 2 2 50.12 1.42
10 3 2 14.25 0.86
10 4 2 18.61 0.93
10 5 2 5.29 0.5
10 6 2 2.67 0.44
10 7 2 36.59 1.23
10 8 2 7.32 0.69
10 9 2 2.67 0.45
10 10 2 32.29 1.24
10 11 2 44.11 1.41
10 12 2 2.31 0.45
10 13 2 0.95 0.4
10 14 2 34.4 1.26
10 15 2 33.04 1.24
10 0 3 7.5 0.69
10 2 3 14.98 0.88
10 3 3 5.05 0.49
10 4 3 15.45 0.9
10 5 3 8.17 0.62
10 6 3 57.14 1.51
10 7 3 2.4 0.43
10 9 3 10.73 0.85
10 10 3 22.82 1.11
10 11 3 1.8 0.43
10 12 3 21.75 1.05
10 13 3 27.16 1.17
10 14 3 2.5 0.45
10 15 3 2.46 0.44
10 0 4 3.17 0.45
10 1 4 8.7 0.71
10 2 4 14.64 0.88
10 3 4 17.77 0.99
10 4 4 15.45 0.92
10 5 4 32.39 1.22
10 6 4 3.88 0.47
10 7 4 38.8 1.34
10 8 4 21.95 1.07
10 9 4 15.55 0.95
10 10 4 22.71 1.1
10 11 4 20.98 1.06
10 12 4 1.53 0.42
10 13 4 0.94 0.4
10 14 4 19.66 1.02
10 0 5 17.87 0.98
10 1 5 32.36 1.21
10 2 5 30.1 1.22
10 3 5 1.27 0.41
10 4 5 23.02 1.07
10 5 5 56.77 1.58
10 6 5 19.71 1.04
10 7 5 2.18 0.45
10 8 5 12.48 0.89
10 9 5 41.25 1.38
10 10 5 13.05 0.93
10 11 5 2.15 0.44
10 12 5 9.28 0.76
10 1 6 9.25 0.63
10 2 6 11.63 0.91
10 4 6 1.97 0.43
10 5 6 3.93 0.49
10 6 6 3.15 0.46
10 7 6 13.01 0.83
10 8 6 6.24 0.53
10 9 6 6.63 0.6
10 10 6 15.54 0.94
10 0 7 3.38 0.47
10 1 7 5.78 0.52
10 2 7 85.05 1.91
10 3 7 3.66 0.47
10 4 7 9.21 0.76
10 5 7 4.61 0.49
10 6 7 36.84 1.28
10 7 7 11.67 0.9
11 2 0 183.71 2.87
11 3 0 10.41 0.77
11 6 0 19.74 1.02
11 7 0 58.62 1.57
11 8 0 0.89 0.41
11 9 0 1.71 0.42
11 10 0 10.4 0.79
11 11 0 55.67 1.53
11 12 0 4.47 0.49
11 13 0 9.71 0.78
11 1 1 30.5 1.19
11 2 1 1.58 0.42
11 3 1 8.61 0.73
11 4 1 8.09 0.63
11 5 1 26.23 1.13
11 6 1 1.64 0.43
11 7 1 28.55 1.15
11 8 1 15.11 0.95
11 9 1 2.11 0.44
11 10 1 7.99 0.64
11 11 1 5.22 0.51
11 12 1 0.86 0.4
11 13 1 13.51 0.8
11 0 2 7.55 0.69
11 1 2 10.13 0.83
11 2 2 14.58 0.96
11 3 2 20.98 1.07
11 4 2 12.96 0.88
11 5 2 1.49 0.42
11 6 2 1.94 0.43
11 7 2 19.92 1.04
11 8 2 9.43 0.75
11 9 2 2.28 0.45
11 10 2 3.21 0.47
11 11 2 21.76 1.06
11 12 2 6 0.58
11 0 3 15.98 0.96
11 1 3 19.5 1
11 2 3 8.74 0.73
11 4 3 27.78 1.17
11 5 3 19.28 1
11 6 3 18.3 1.01
11 7 3 12.63 0.91
11 8 3 15.42 0.99
11 9 3 3.15 0.46
11 10 3 3.72 0.47
11 11 3 16.36 1
11 0 4 7.02 0.61
11 1 4 14.6 0.94
11 2 4 27.82 1.16
11 3 4 35.56 1.28
11 4 4 7.47 0.57
11 5 4 3.27 0.46
11 6 4 16.55 0.94
11 7 4 5.1 0.52
11 8 4 1.42 0.41
11 9 4 10.96 0.79
11 10 4 3.39 0.46
11 0 5 9.02 0.66
11 1 5 14.56 0.97
11 2 5 35.17 1.28
11 3 5 22.77 1.05
11 4 5 2.43 0.44
11 5 5 3.09 0.46
11 6 5 48.35 1.48
11 7 5 12.23 0.87
11 0 6 18.27 1.03
11 1 6 4.8 0.5
11 2 6 0.92 0.43
11 3 6 27.9 1.15
11 4 6 7 0.6
12 0 0 8.97 0.67
12 1 0 13.9 0.94
12 2 0 5.37 0.57
12 3 0 24.79 1.12
12 4 0 2.33 0.44
12 5 0 17.59 0.98
12 6 0 20.44 1.03
12 7 0 8.05 0.57
12 9 0 35.87 1.28
12 0 1 12.35 0.88
12 1 1 5.12 0.51
12 2 1 3.81 0.48
12 3 1 22.42 1.1
12 4 1 8.85 0.69
12 5 1 34.48 1.28
12 7 1 22.75 1.1
12 8 1 10.07 0.85
12 0 2 0.99 0.4
12 1 2 5.13 0.51
12 2 2 47.45 1.48
12 3 2 1.52 0.42
12 4 2 8.65 0.75
12 5 2 7.74 0.62
12 6 2 15.1 0.97
12 7 2 4.89 0.5
12 8 2 5.31 0.57
12 1 3 18.01 0.97
12 3 3 20.75 1.05
12 4 3 1.85 0.42
12 5 3 7.03 0.69
12 6 3 0.89 0.4
12 0 4 14.18 0.92
12 1 4 44.01 1.39
12 2 4 9.06 0.83
12 3 4 17.12 0.99
loop_
_geom_angle_atom_site_label_1
_geom_angle_atom_site_label_2
_geom_angle_atom_site_label_3
_geom_angle
_geom_angle_site_symmetry_1
_geom_angle_site_symmetry_3
_geom_angle_publ_flag
H1b N1 H1a 109.1(5) . . ?
H1c N1 H1a 110.7(6) . . ?
H1c N1 H1b 110.3(6) . . ?
C1 N1 H1a 110.4(5) . . ?
C1 N1 H1b 108.3(4) . . ?
C1 N1 H1c 108.0(4) . . ?
H1 C1 N1 107.6(3) . . ?
C2 C1 N1 109.76(3) . . ?
C2 C1 H1 111.5(3) . . ?
C3 C1 N1 110.04(2) . . ?
C3 C1 H1 106.8(4) . . ?
C3 C1 C2 111.02(2) . . ?
H2a C2 C1 110.5(3) . . ?
H2b C2 C1 111.3(4) . . ?
H2b C2 H2a 107.5(5) . . ?
H2c C2 C1 110.7(3) . . ?
H2c C2 H2a 109.0(5) . . ?
H2c C2 H2b 107.8(5) . . ?
O1 C3 C1 118.30(3) . . ?
O2 C3 C1 115.88(3) . . ?
O2 C3 O1 125.82(3) . . ?
loop_
_geom_bond_atom_site_label_1
_geom_bond_atom_site_label_2
_geom_bond_distance
_geom_bond_site_symmetry_2
_geom_bond_publ_flag
N1 H1a 1.022(7) . ?
N1 H1b 1.018(7) . ?
N1 H1c 1.044(8) . ?
N1 C1 1.4895(4) . ?
C1 H1 1.094(5) . ?
C1 C2 1.5269(4) . ?
C1 C3 1.5351(5) . ?
C2 H2a 1.093(7) . ?
C2 H2b 1.096(7) . ?
C2 H2c 1.079(6) . ?
C3 O1 1.2471(4) . ?
C3 O2 1.2662(4) . ?
loop_
_geom_torsion_atom_site_label_1
_geom_torsion_atom_site_label_2
_geom_torsion_atom_site_label_3
_geom_torsion_atom_site_label_4
_geom_torsion
_geom_torsion_site_symmetry_1
_geom_torsion_site_symmetry_2
_geom_torsion_site_symmetry_3
_geom_torsion_site_symmetry_4
_geom_torsion_publ_flag
N1 C1 C3 O1 -18.15(3) . . . . ?
N1 C1 C3 O2 162.19(2) . . . . ?
