#------------------------------------------------------------------------------
#$Date: 2020-09-22 02:06:39 +0300 (Tue, 22 Sep 2020) $
#$Revision: 256584 $
#$URL: file:///home/coder/svn-repositories/cod/cif/1/55/91/1559131.cif $
#------------------------------------------------------------------------------
#
# This file is available in the Crystallography Open Database (COD),
# http://www.crystallography.net/
#
# All data on this site have been placed in the public domain by the
# contributors.
#
data_1559131
loop_
_publ_author_name
'Zhang, Jing-Fang'
'Zhong, Wan-Chao'
'Li, Yan-Cheng'
'Song, Yun-Qing'
'Xia, Gui-Yang'
'Tian, Gui-Hua'
'Ge, Guang-Bo'
'Lin, Sheng'
_publ_section_title
;
 Bioactivity-Guided Discovery of Human Carboxylesterase Inhibitors from
 the Roots of Paeonia lactiflora
;
_journal_name_full               'Journal of Natural Products'
_journal_paper_doi               10.1021/acs.jnatprod.0c00464
_journal_year                    2020
_chemical_absolute_configuration rmad
_chemical_formula_moiety         'C15 H22 O3'
_chemical_formula_sum            'C15 H22 O3'
_chemical_formula_weight         250.32
_space_group_crystal_system      triclinic
_space_group_IT_number           1
_space_group_name_Hall           'P 1'
_space_group_name_H-M_alt        'P 1'
_atom_sites_solution_hydrogens   mixed
_atom_sites_solution_primary     dual
_audit_creation_date             2019-03-13
_audit_creation_method
;
Olex2 1.2
(compiled 2018.05.29 svn.r3508 for OlexSys, GUI svn.r5506)
;
_cell_angle_alpha                74.596(6)
_cell_angle_beta                 86.938(9)
_cell_angle_gamma                68.597(9)
_cell_formula_units_Z            2
_cell_length_a                   8.6358(13)
_cell_length_b                   9.3834(15)
_cell_length_c                   9.8633(15)
_cell_measurement_reflns_used    9785
_cell_measurement_temperature    170(2)
_cell_measurement_theta_max      55.099
_cell_measurement_theta_min      4.05
_cell_volume                     716.6(2)
_computing_cell_refinement       'SAINT v8.37A (Bruker, 2015)'
_computing_data_reduction        'SAINT v8.37A (Bruker, 2015)'
_computing_molecular_graphics    'Olex2 (Dolomanov et al., 2009)'
_computing_publication_material  'Olex2 (Dolomanov et al., 2009)'
_computing_structure_refinement  'ShelXL (Sheldrick, 2015)'
_computing_structure_solution    'ShelXT (Sheldrick, 2015)'
_diffrn_ambient_temperature      170.02
_diffrn_measured_fraction_theta_full 0.996
_diffrn_measured_fraction_theta_max 0.991
_diffrn_measurement_device_type  'Bruker D8 Venture'
_diffrn_measurement_method       '\f and \w scans'
_diffrn_radiation_type           GaK\a
_diffrn_radiation_wavelength     1.34139
_diffrn_reflns_av_R_equivalents  0.0529
_diffrn_reflns_av_unetI/netI     0.0548
_diffrn_reflns_Laue_measured_fraction_full 0.996
_diffrn_reflns_Laue_measured_fraction_max 0.991
_diffrn_reflns_limit_h_max       10
_diffrn_reflns_limit_h_min       -10
_diffrn_reflns_limit_k_max       11
_diffrn_reflns_limit_k_min       -11
_diffrn_reflns_limit_l_max       11
_diffrn_reflns_limit_l_min       -12
_diffrn_reflns_number            16803
_diffrn_reflns_point_group_measured_fraction_full 0.953
_diffrn_reflns_point_group_measured_fraction_max 0.942
_diffrn_reflns_theta_full        53.594
_diffrn_reflns_theta_max         55.232
_diffrn_reflns_theta_min         4.049
_diffrn_standards_number         0
_exptl_absorpt_coefficient_mu    0.408
_exptl_absorpt_correction_T_max  0.7508
_exptl_absorpt_correction_T_min  0.5594
_exptl_absorpt_correction_type   multi-scan
_exptl_absorpt_process_details
'SADABS-2016/2 (Bruker,2016/2) was used for absorption correction. wR2(int) was 0.1553 before and 0.1013 after correction. The Ratio of minimum to maximum transmission is 0.7451. The \l/2 correction factor is Not present.'
_exptl_crystal_colour            colourless
_exptl_crystal_density_diffrn    1.160
_exptl_crystal_description       prism
_exptl_crystal_F_000             272
_exptl_crystal_size_max          0.12
_exptl_crystal_size_mid          0.03
_exptl_crystal_size_min          0.02
_refine_diff_density_max         0.444
_refine_diff_density_min         -0.296
_refine_diff_density_rms         0.081
_refine_ls_abs_structure_details
;
 Flack x determined using 1939 quotients [(I+)-(I-)]/[(I+)+(I-)]
 (Parsons, Flack and Wagner, Acta Cryst. B69 (2013) 249-259).
;
_refine_ls_abs_structure_Flack   0.00(19)
_refine_ls_extinction_method     none
_refine_ls_goodness_of_fit_ref   1.053
_refine_ls_hydrogen_treatment    mixed
_refine_ls_matrix_type           fullcycle
_refine_ls_number_parameters     339
_refine_ls_number_reflns         5215
_refine_ls_number_restraints     7
_refine_ls_restrained_S_all      1.053
_refine_ls_R_factor_all          0.0724
_refine_ls_R_factor_gt           0.0666
_refine_ls_shift/su_max          0.028
_refine_ls_shift/su_mean         0.001
_refine_ls_structure_factor_coef Fsqd
_refine_ls_weighting_details
'w=1/[\s^2^(Fo^2^)+(0.1286P)^2^+0.1323P] where P=(Fo^2^+2Fc^2^)/3'
_refine_ls_weighting_scheme      calc
_refine_ls_wR_factor_gt          0.1808
_refine_ls_wR_factor_ref         0.1881
_reflns_Friedel_coverage         0.901
_reflns_Friedel_fraction_full    0.910
_reflns_Friedel_fraction_max     0.893
_reflns_number_gt                4760
_reflns_number_total             5215
_reflns_threshold_expression     'I > 2\s(I)'
_cod_data_source_file            np0c00464_si_002.cif
_cod_data_source_block           mj19144
_cod_database_code               1559131
_shelx_shelxl_version_number     2016/6
_shelx_space_group_comment
;
The symmetry employed for this shelxl refinement is uniquely defined
by the following loop, which should always be used as a source of
symmetry information in preference to the above space-group names.
They are only intended as comments.
;
_shelx_estimated_absorpt_t_max   0.992
_shelx_estimated_absorpt_t_min   0.953
_olex2_refinement_description
;
1. Fixed Uiso
 At 1.2 times of:
  All C(H) groups, All C(H,H) groups
 At 1.5 times of:
  All C(H,H,H) groups, All O(H) groups
2. Restrained distances
 O2-H2
 0.85 with sigma of 0.02
 C15-H2
 2 with sigma of 0.02
 O2A-H2AA
 0.85 with sigma of 0.02
 O3-H3
 0.85 with sigma of 0.02
3.a Ternary CH refined with riding coordinates:
 C1(H1), C4(H4), C5(H5), C10(H10), C1A(H1A), C4A(H4A), C5A(H5A), C10A(H10A)
3.b Secondary CH2 refined with riding coordinates:
 C2(H2A,H2B), C3(H3A,H3B), C8(H8A,H8B), C9(H9A,H9B), C14(H14A,H14B), C2A(H2AB,
 H2AC), C3A(H3AB,H3AC), C8A(H8AA,H8AB), C9A(H9AA,H9AB), C14A(H14C,H14D)
3.c Aromatic/amide H refined with riding coordinates:
 C6(H6), C6A(H6A)
3.d Tetrahedral OH refined with riding coordinates:
 O3A(H3AA)
3.e X=CH2 refined with riding coordinates:
 C13(H13A,H13B), C13A(H13C,H13D)
3.f Idealised Me refined as rotating group:
 C11(H11A,H11B,H11C), C11A(H11D,H11E,H11F)
;
_shelx_res_file
;
TITL mj19144_a.res in P1
    mj19144.res
    created by SHELXL-2016/6 at 16:09:10 on 13-Mar-2019
REM Old TITL mj19144 in P-1
REM SHELXT solution in P1
REM R1 0.137, Rweak 0.025, Alpha 0.000, Orientation as input
REM Flack x = 0.343 ( 0.117 ) from Parsons' quotients
REM Formula found by SHELXT: C29 O7
CELL 1.34139 8.6358 9.3834 9.8633 74.596 86.938 68.597
ZERR 2 0.0013 0.0015 0.0015 0.006 0.009 0.009
LATT -1
SFAC C H O
DISP C 0.0148 0.007 57.7477
DISP H -0 0 0.6481
DISP O 0.0412 0.025 193.9543
UNIT 30 44 6
EQIV $1 +X,+Y,1+Z
DFIX 0.85 O2 H2
DFIX 2 C15 H2
DFIX 0.85 O2A H2Aa
DFIX 0.85 O3 H3

L.S. 4
PLAN  20
SIZE 0.02 0.03 0.12
TEMP -103.13
HTAB O2A O3
HTAB O3A O2
HTAB O3 O1_$1
BOND $H
list 4
bloc 1
fmap 2
acta
REM <olex2.extras>
REM <HklSrc "%.\\mj19144.hkl">
REM </olex2.extras>

WGHT    0.128600    0.132300
FVAR       1.23919
O1    3    1.607892   -0.771462    0.163356    11.00000    0.10579    0.06556 =
         0.03061   -0.01336   -0.00173   -0.03438
O2    3    1.536991   -0.626476    0.316544    11.00000    0.09380    0.04690 =
         0.03583   -0.00731   -0.00015   -0.00955
H2    2    1.471539   -0.593560    0.378722    11.00000    2.00000
O3    3    1.625243   -0.610950    0.894606    11.00000    0.08427    0.03866 =
         0.03379   -0.00552   -0.00512   -0.01224
H3    2    1.617962   -0.641996    0.980186    11.00000    0.03094
C1    1    1.905067   -1.323952    0.743867    11.00000    0.05076    0.04182 =
         0.05176   -0.00668    0.00688   -0.01702
AFIX  13
H1    2    1.810240   -1.357807    0.780642    11.00000   -1.20000
AFIX   0
C2    1    1.972662   -1.280160    0.860702    11.00000    0.04937    0.04289 =
         0.04479    0.00046    0.00085   -0.01003
AFIX  23
H2A   2    2.010918   -1.373823    0.943160    11.00000   -1.20000
H2B   2    2.069963   -1.250979    0.827276    11.00000   -1.20000
AFIX   0
C3    1    1.842394   -1.142473    0.905691    11.00000    0.05149    0.04761 =
         0.03923   -0.00473   -0.00321   -0.01433
AFIX  23
H3A   2    1.892209   -1.116780    0.979782    11.00000   -1.20000
H3B   2    1.748616   -1.174147    0.945879    11.00000   -1.20000
AFIX   0
C4    1    1.777007   -0.995473    0.781109    11.00000    0.03711    0.04329 =
         0.03626   -0.00775    0.00180   -0.01757
AFIX  13
H4    2    1.874357   -0.966079    0.743904    11.00000   -1.20000
AFIX   0
C5    1    1.706600   -1.036736    0.662717    11.00000    0.03417    0.04372 =
         0.03963   -0.01157    0.00561   -0.01995
AFIX  13
H5    2    1.611683   -1.070036    0.700330    11.00000   -1.20000
AFIX   0
C6    1    1.640479   -0.896201    0.536121    11.00000    0.03621    0.04310 =
         0.03656   -0.00971   -0.00047   -0.01567
AFIX  43
H6    2    1.589932   -0.793891    0.551879    11.00000   -1.20000
AFIX   0
C7    1    1.648515   -0.906541    0.403535    11.00000    0.03529    0.04823 =
         0.03707   -0.00997   -0.00031   -0.01937
C8    1    1.721816   -1.062126    0.365463    11.00000    0.04407    0.05688 =
         0.04485   -0.02112   -0.00080   -0.02242
AFIX  23
H8A   2    1.824980   -1.066390    0.315015    11.00000   -1.20000
H8B   2    1.642084   -1.068360    0.300824    11.00000   -1.20000
AFIX   0
C9    1    1.762102   -1.204779    0.494422    11.00000    0.04640    0.04872 =
         0.05352   -0.02124    0.00614   -0.02271
AFIX  23
H9A   2    1.841376   -1.299933    0.469352    11.00000   -1.20000
H9B   2    1.658901   -1.225027    0.523535    11.00000   -1.20000
AFIX   0
C10   1    1.838412   -1.177244    0.618724    11.00000    0.04070    0.04075 =
         0.04302   -0.01186    0.00512   -0.01785
AFIX  13
H10   2    1.934126   -1.144307    0.583083    11.00000   -1.20000
AFIX   0
C11   1    2.039808   -1.463351    0.703575    11.00000    0.07286    0.04335 =
         0.06687   -0.00858   -0.00294   -0.00726
AFIX 137
H11A  2    2.129033   -1.429319    0.658583    11.00000   -1.50000
H11B  2    1.991279   -1.499581    0.637926    11.00000   -1.50000
H11C  2    2.085456   -1.550483    0.788395    11.00000   -1.50000
AFIX   0
C12   1    1.654345   -0.855156    0.828349    11.00000    0.04714    0.04477 =
         0.02730   -0.00636   -0.00403   -0.01373
C13   1    1.501676   -0.842951    0.861936    11.00000    0.04839    0.06354 =
         0.04562   -0.02245    0.00451   -0.01783
AFIX  93
H13A  2    1.431911   -0.755351    0.894754    11.00000   -1.20000
H13B  2    1.460994   -0.921723    0.853417    11.00000   -1.20000
AFIX   0
C14   1    1.728738   -0.736332    0.838555    11.00000    0.05738    0.04187 =
         0.04082   -0.00837   -0.00535   -0.01525
AFIX  23
H14A  2    1.833098   -0.793140    0.898018    11.00000   -1.20000
H14B  2    1.758626   -0.689641    0.743246    11.00000   -1.20000
AFIX   0
C15   1    1.594887   -0.763058    0.283412    11.00000    0.04807    0.05405 =
         0.03558   -0.00918   -0.00571   -0.02151

O1A   3    1.404553   -0.217097    0.836852    11.00000    0.06451    0.05680 =
         0.03484   -0.00711   -0.00683   -0.02034
O2A   3    1.442664   -0.372719    0.693959    11.00000    0.07259    0.04528 =
         0.03809   -0.00695   -0.01018   -0.01324
H2AA  2    1.471143   -0.434558    0.773572    11.00000    0.07090
O3A   3    1.519760   -0.377692    0.107400    11.00000    0.06649    0.04299 =
         0.03930   -0.00924   -0.00316   -0.01141
AFIX  83
H3AA  2    1.550851   -0.457882    0.176822    11.00000   -1.50000
AFIX   0
C1A   1    1.004482    0.297657    0.258257    11.00000    0.04146    0.04336 =
         0.04158   -0.00250   -0.00097   -0.01476
AFIX  13
H1A   2    0.901444    0.271625    0.264522    11.00000   -1.20000
AFIX   0
C2A   1    1.075298    0.286043    0.114078    11.00000    0.05736    0.04771 =
         0.03876    0.00078   -0.00165   -0.01653
AFIX  23
H2AB  2    0.990276    0.360773    0.039475    11.00000   -1.20000
H2AC  2    1.173133    0.318623    0.102893    11.00000   -1.20000
AFIX   0
C3A   1    1.126781    0.120588    0.094937    11.00000    0.05208    0.05065 =
         0.03074   -0.00371   -0.00146   -0.01705
AFIX  23
H3AB  2    1.178966    0.118709    0.003265    11.00000   -1.20000
H3AC  2    1.026258    0.093968    0.092556    11.00000   -1.20000
AFIX   0
C4A   1    1.249789   -0.006257    0.212795    11.00000    0.03967    0.04355 =
         0.03354   -0.00933    0.00154   -0.01752
AFIX  13
H4A   2    1.352613    0.019547    0.210777    11.00000   -1.20000
AFIX   0
C5A   1    1.169729    0.006519    0.355442    11.00000    0.03117    0.04353 =
         0.03638   -0.00488   -0.00352   -0.01778
AFIX  13
H5A   2    1.060632   -0.006863    0.350606    11.00000   -1.20000
AFIX   0
C6A   1    1.269727   -0.122893    0.479301    11.00000    0.03810    0.03994 =
         0.03831   -0.00752    0.00007   -0.01757
AFIX  43
H6A   2    1.324820   -0.226410    0.467177    11.00000   -1.20000
AFIX   0
C7A   1    1.285056   -0.100274    0.604193    11.00000    0.03585    0.04615 =
         0.03718   -0.00549   -0.00215   -0.02043
C8A   1    1.205754    0.058478    0.635199    11.00000    0.04755    0.05096 =
         0.03918   -0.01273   -0.00352   -0.02240
AFIX  23
H8AA  2    1.292320    0.103431    0.639099    11.00000   -1.20000
H8AB  2    1.156689    0.044278    0.728590    11.00000   -1.20000
AFIX   0
C9A   1    1.070970    0.174088    0.524759    11.00000    0.03887    0.04279 =
         0.04275   -0.01095    0.00064   -0.01501
AFIX  23
H9AA  2    1.040205    0.282555    0.536259    11.00000   -1.20000
H9AB  2    0.970642    0.145371    0.538511    11.00000   -1.20000
AFIX   0
C10A  1    1.130191    0.172150    0.375023    11.00000    0.03128    0.04298 =
         0.03974   -0.00728    0.00135   -0.01838
AFIX  13
H10A  2    1.235642    0.194297    0.365842    11.00000   -1.20000
AFIX   0
C11A  1    0.954792    0.466138    0.273341    11.00000    0.07020    0.04241 =
         0.06165   -0.00566   -0.00040   -0.01220
AFIX 137
H11D  2    0.892814    0.475007    0.358797    11.00000   -1.50000
H11E  2    0.884550    0.541523    0.191138    11.00000   -1.50000
H11F  2    1.055099    0.490085    0.279775    11.00000   -1.50000
AFIX   0
C12A  1    1.298780   -0.169280    0.186941    11.00000    0.05066    0.04630 =
         0.03041   -0.00629   -0.00488   -0.01691
C13A  1    1.193841   -0.240761    0.186112    11.00000    0.05146    0.05901 =
         0.07000   -0.02855    0.00434   -0.02576
AFIX  93
H13C  2    1.230570   -0.340305    0.164311    11.00000   -1.20000
H13D  2    1.081065   -0.193016    0.207312    11.00000   -1.20000
AFIX   0
C14A  1    1.478623   -0.238177    0.154417    11.00000    0.04993    0.04459 =
         0.04285   -0.01072    0.00011   -0.01438
AFIX  23
H14C  2    1.505990   -0.157044    0.080987    11.00000   -1.20000
H14D  2    1.548603   -0.263229    0.240103    11.00000   -1.20000
AFIX   0
C15A  1    1.384278   -0.236285    0.722281    11.00000    0.04075    0.04838 =
         0.03377   -0.00804    0.00046   -0.02069
HKLF 4




REM  mj19144_a.res in P1
REM R1 =  0.0666 for    4760 Fo > 4sig(Fo)  and  0.0724 for all    5215 data
REM    339 parameters refined using      7 restraints

END

WGHT      0.1286      0.1323

REM Highest difference peak  0.444,  deepest hole -0.296,  1-sigma level  0.081
Q1    1   1.2981 -0.3864  0.1108  11.00000  0.05    0.44
Q2    1   1.4096 -0.6241  0.3216  11.00000  0.05    0.33
Q3    1   1.3156 -0.2422  0.8511  11.00000  0.05    0.32
Q4    1   1.3990 -0.4031  0.1185  11.00000  0.05    0.31
Q5    1   1.8224 -1.0186  0.3423  11.00000  0.05    0.30
Q6    1   1.7242 -0.7575  0.1610  11.00000  0.05    0.30
Q7    1   1.7459 -0.8348  0.8252  11.00000  0.05    0.28
Q8    1   1.9417 -1.4153  0.7043  11.00000  0.05    0.27
Q9    1   1.6403 -0.3815  0.7174  11.00000  0.05    0.27
Q10   1   1.1725  0.2782  0.1420  11.00000  0.05    0.27
Q11   1   1.7006 -0.2252  0.1748  11.00000  0.05    0.27
Q12   1   1.7424 -1.0129  0.2419  11.00000  0.05    0.27
Q13   1   1.2155  0.2553  0.1552  11.00000  0.05    0.27
Q14   1   1.3390 -0.6090  0.3002  11.00000  0.05    0.27
Q15   1   1.8124 -1.3388  0.7489  11.00000  0.05    0.27
Q16   1   1.2756  0.2549  0.1729  11.00000  0.05    0.27
Q17   1   1.5594 -0.3655  0.6963  11.00000  0.05    0.27
Q18   1   2.2066 -1.2412  0.8392  11.00000  0.05    0.26
Q19   1   1.5957 -0.2490  0.8516  11.00000  0.05    0.26
Q20   1   0.8472  0.2542  0.1427  11.00000  0.05    0.26
;
_shelx_res_checksum              37893
_shelx_hkl_file
;
  -1   0   0  279.67   23.10
  -1   0   0  330.47   23.10
   1   0   0  286.17   23.10
   1   0   0  299.17   23.10
   2   0   0  887.81   73.59
   2   0   0  924.51   73.49
   2   0   0  962.40   73.49
   2   0   0  983.30   73.59
   2   0   0 1001.30   73.49
  -3   0   0   12.00    1.20
  -3   0   0    9.50    1.00
   3   0   0   11.10    0.90
   3   0   0   10.90    0.90
   3   0   0    8.90    1.20
   3   0   0   10.70    1.10
   3   0   0   10.60    0.90
   3   0   0    9.70    1.40
  -4   0   0   13.60    1.30
  -4   0   0   16.30    1.60
  -4   0   0   12.60    1.40
   4   0   0   15.10    1.60
   4   0   0   14.80    2.00
   4   0   0   15.30    1.30
   4   0   0   16.20    1.30
   4   0   0   13.30    1.90
   4   0   0   15.80    1.30
   4   0   0   14.90    1.60
  -5   0   0   79.89    6.20
  -5   0   0   73.79    6.00
  -5   0   0   68.09    5.70
   5   0   0   73.59    5.70
   5   0   0   68.29    6.40
   5   0   0   73.59    5.80
   5   0   0   73.19    5.80
  -6   0   0   25.80    2.30
  -6   0   0   23.40    2.40
  -6   0   0   28.40    2.90
   6   0   0   20.90    3.30
   6   0   0   23.00    2.20
   6   0   0   23.60    2.10
   6   0   0   25.30    2.10
  -7   0   0    0.90    1.20
  -7   0   0    1.60    0.90
  -7   0   0    0.00    1.00
   7   0   0    0.00    0.60
   7   0   0    0.70    0.40
   7   0   0    0.40    0.50
   7   0   0    1.40    1.80
  -8   0   0   21.30    3.30
  -8   0   0   24.70    2.70
  -8   0   0   19.80    2.30
   8   0   0   25.70    4.00
   8   0   0   21.50    2.00
  -9   0   0   43.10    3.80
   9   0   0   37.00    4.90
   9   0   0   41.10    3.60
  10   1  -1    7.50    1.20
 -10  -1   1    9.30    1.60
 -10  -1   1    8.10    1.50
   9   1  -1   29.50    4.00
   9   1  -1   36.10    2.80
  -9  -1   1   25.20    3.70
  -9  -1   1   26.20    2.90
  -9  -1   1   33.60    3.30
   8   1  -1    1.80    1.70
   8   1  -1    3.60    0.80
   8   1  -1    3.60    0.80
  -8  -1   1    4.20    1.90
  -8  -1   1    5.00    1.10
   7   1  -1  131.89    9.80
   7   1  -1  105.99    9.80
   7   1  -1  117.29   10.80
   7   1  -1  124.09    9.80
  -7  -1   1  135.09   10.60
  -7  -1   1  115.79    9.90
  -7  -1   1  124.09   10.10
  -7  -1   1  137.99    9.90
   6   1  -1   55.19    4.40
   6   1  -1   57.79    4.30
   6   1  -1   51.99    4.60
   6   1  -1   49.90    5.10
   6   1  -1   49.90    4.30
   6   1  -1   50.89    4.60
  -6  -1   1   55.19    4.40
  -6  -1   1   52.09    4.60
  -6  -1   1   53.69    4.50
  -6  -1   1   62.19    5.70
   5   1  -1  358.06   28.40
   5   1  -1  356.36   28.70
   5   1  -1  359.16   28.90
   5   1  -1  389.26   28.40
   5   1  -1  360.36   28.70
   5   1  -1  356.86   28.40
   5   1  -1  377.36   28.60
  -5  -1   1  367.56   28.40
  -5  -1   1  400.46   28.60
  -5  -1   1  343.27   28.60
   4   1  -1  913.01   68.69
   4   1  -1  838.02   68.39
   4   1  -1  903.91   68.49
   4   1  -1  926.41   68.59
   4   1  -1  869.51   68.59
   4   1  -1  888.31   68.39
  -4  -1   1  792.92   68.49
  -4  -1   1  981.80   68.49
  -4  -1   1  859.81   68.39
   3   1  -1   63.99    5.30
   3   1  -1   70.69    5.20
   3   1  -1   68.49    5.40
   3   1  -1   64.99    5.40
   3   1  -1   69.79    5.20
   3   1  -1   60.69    5.20
   3   1  -1   73.59    5.40
  -3  -1   1   62.09    5.30
  -3  -1   1   66.79    5.40
  -3  -1   1   60.49    5.30
  -3  -1   1   75.89    5.30
  -3  -1   1   64.59    5.30
  -1  -1   1 2582.84  199.28
   0   1  -1   57.79    4.50
  -1   1  -1  227.98   17.30
  -1   1  -1  208.18   17.30
   1  -1   1  253.67   17.90
   1  -1   1  188.68   17.50
   1  -1   1  246.58   17.40
   1  -1   1  232.88   17.30
   1  -1   1  213.18   17.60
  -2   1  -1  959.40   80.39
   2  -1   1 1018.90   80.19
   2  -1   1 1130.19   80.89
   2  -1   1 1162.88   80.29
   2  -1   1  926.21   80.49
  -3   1  -1  124.79   10.20
  -3   1  -1  126.89   10.10
   3  -1   1  139.89   10.90
   3  -1   1  113.79   10.40
   3  -1   1  139.59   10.00
   3  -1   1  125.49   10.00
   3  -1   1  128.99   10.00
  -4   1  -1   97.69    8.50
  -4   1  -1  120.79    8.50
  -4   1  -1  108.59    8.50
   4  -1   1   90.89    8.80
   4  -1   1  102.59    9.20
   4  -1   1  101.59    8.20
   4  -1   1  106.69    8.20
   4  -1   1  112.39    8.30
  -5   1  -1   41.90    3.40
  -5   1  -1   39.60    3.80
  -5   1  -1   46.00    3.80
   5  -1   1   43.30    3.40
   5  -1   1   38.30    4.40
   5  -1   1   43.50    4.50
   5  -1   1   40.90    3.60
  -6   1  -1   24.40    2.70
  -6   1  -1   22.20    2.20
   6  -1   1   27.50    2.10
   6  -1   1   25.10    3.60
   6  -1   1   23.70    2.10
   6  -1   1   28.30    2.30
  -7   1  -1   29.20    2.90
  -7   1  -1   22.10    2.50
   7  -1   1   27.20    2.40
   7  -1   1   31.00    4.30
   7  -1   1   30.50    2.60
  -8   1  -1    1.60    1.30
  -8   1  -1    1.60    1.30
   8  -1   1    0.80    0.50
   8  -1   1    1.40    1.10
   8  -1   1    1.70    2.00
  -9   1  -1   11.50    1.60
  -9   1  -1   11.60    2.00
   9  -1   1   12.00    1.60
   9  -1   1   16.50    3.20
  10   2  -2   25.70    2.30
 -10  -2   2   18.20    3.30
 -10  -2   2   23.70    2.60
 -10  -2   2   28.50    2.80
   9   2  -2   16.00    1.70
   9   2  -2   15.60    3.00
  -9  -2   2   15.70    2.00
  -9  -2   2   14.30    3.20
   8   2  -2   27.20    2.40
   8   2  -2   25.70    2.90
   8   2  -2   21.80    3.50
  -8  -2   2   28.80    2.70
  -8  -2   2   25.40    3.10
  -8  -2   2   29.90    3.90
   7   2  -2   13.40    1.40
   7   2  -2   13.20    2.50
   7   2  -2   12.30    1.80
   7   2  -2   11.50    1.40
  -7  -2   2   16.60    1.80
  -7  -2   2   17.60    2.90
  -7  -2   2   12.60    2.20
   6   2  -2  202.08   16.60
   6   2  -2  213.48   16.90
   6   2  -2  192.88   16.60
   6   2  -2  197.98   16.30
   6   2  -2  205.68   16.70
   6   2  -2  203.68   16.30
   6   2  -2  228.58   16.30
  -6  -2   2  200.68   16.60
  -6  -2   2  236.98   16.40
   5   2  -2  144.39   11.50
   5   2  -2  142.99   11.50
   5   2  -2  147.49   11.50
   5   2  -2  146.89   11.70
   5   2  -2  158.38   11.50
   5   2  -2  148.39   11.70
   5   2  -2  142.19   11.80
  -5  -2   2  136.09   11.70
  -5  -2   2  155.78   11.50
   4   2  -2  569.54   45.60
   4   2  -2  624.34   45.40
   4   2  -2  591.04   45.50
   4   2  -2  577.54   45.60
   4   2  -2  603.04   45.40
   4   2  -2  555.74   45.40
   4   2  -2  599.24   45.40
  -4  -2   2  562.44   45.60
  -4  -2   2  566.24   45.60
  -4  -2   2  621.04   45.40
   3   2  -2  125.89   10.90
   3   2  -2  138.29   10.90
   3   2  -2  151.88   10.80
   3   2  -2  134.39   10.90
   3   2  -2  142.09   10.90
   3   2  -2  150.48   11.00
   3   2  -2  130.89   10.80
   3   2  -2  145.19   10.80
   3   2  -2  145.09   10.90
  -3  -2   2  133.99   11.00
  -3  -2   2  130.09   10.90
   2   2  -2  205.18   15.00
   2   2  -2  163.28   14.80
   2   2  -2  208.18   14.90
   2   2  -2  191.38   14.90
   2   2  -2  186.18   14.80
   2   2  -2  181.58   14.90
   2   2  -2  184.78   14.80
   2   2  -2  182.18   14.80
  -2  -2   2  193.38   14.90
  -2  -2   2  183.38   15.70
  -2  -2   2  190.58   15.10
  -2  -2   2  224.88   15.00
  -2  -2   2  192.98   15.00
   1   2  -2  706.33   60.39
   1   2  -2  712.23   60.39
   1   2  -2  747.23   60.39
   1   2  -2  835.02   60.49
  -1  -2   2  814.22   60.69
  -1  -2   2  882.31   60.59
   0  -2   2  330.07   25.90
   0  -2   2  343.47   26.30
   0  -2   2  321.47   26.00
  -1   2  -2  826.72   60.49
  -1   2  -2  713.33   60.49
   1  -2   2  852.91   61.39
   1  -2   2  763.32   60.89
   1  -2   2  762.52   60.59
  -2   2  -2 1089.89   88.79
   2  -2   2 1193.78   89.39
   2  -2   2 1031.70   88.79
   2  -2   2 1276.57   89.99
   2  -2   2 1165.98   88.79
  -3   2  -2   16.10    2.10
  -3   2  -2   17.90    1.70
   3  -2   2   19.20    1.50
   3  -2   2   20.70    3.30
   3  -2   2   19.00    1.50
   3  -2   2   19.10    2.80
   3  -2   2   16.60    1.70
  -4   2  -2    2.70    1.30
  -4   2  -2    4.00    0.90
   4  -2   2    3.60    1.90
   4  -2   2    3.60    0.50
   4  -2   2    3.00    0.40
   4  -2   2    4.70    2.30
   4  -2   2    2.10    0.70
  -5   2  -2   22.80    2.50
  -5   2  -2   24.00    2.20
   5  -2   2   21.40    1.80
   5  -2   2   21.70    3.70
   5  -2   2   20.60    1.80
   5  -2   2   20.20    5.50
   5  -2   2   18.60    2.10
  -6   2  -2    3.70    1.00
  -6   2  -2    1.30    1.50
   6  -2   2    0.70    1.90
   6  -2   2    2.70    2.10
   6  -2   2    3.00    0.90
  -7   2  -2   35.90    3.10
  -7   2  -2   30.20    2.80
   7  -2   2   34.30    2.70
   7  -2   2   26.30    2.90
  -8   2  -2    5.80    2.10
   8  -2   2    7.60    2.90
  10   3  -3   23.90    2.00
 -10  -3   3   23.90    2.60
 -10  -3   3   16.10    3.20
 -10  -3   3   20.40    2.40
   9   3  -3   28.60    2.90
   9   3  -3   29.40    2.40
   9   3  -3   22.60    3.50
  -9  -3   3   26.20    4.00
  -9  -3   3   27.90    2.80
   8   3  -3   82.99    6.80
   8   3  -3   66.79    8.00
   8   3  -3   85.99    7.30
  -8  -3   3   87.69    8.10
  -8  -3   3   93.49    7.00
   7   3  -3   86.89    7.50
   7   3  -3   88.19    8.30
   7   3  -3  101.59    7.60
   7   3  -3   84.09    8.00
   7   3  -3   99.69    7.90
  -7  -3   3  106.89    8.80
  -7  -3   3  100.39    8.20
   6   3  -3    8.10    1.00
   6   3  -3    8.30    1.60
   6   3  -3    7.80    1.50
   6   3  -3    7.80    1.00
   6   3  -3    8.40    1.10
   6   3  -3    8.10    1.40
  -6  -3   3    8.20    1.80
  -6  -3   3   12.20    1.60
   5   3  -3   21.20    1.90
   5   3  -3   18.30    2.00
   5   3  -3   19.60    2.10
   5   3  -3   19.00    1.80
   5   3  -3   18.60    2.20
   5   3  -3   19.50    1.70
  -5  -3   3   20.10    2.90
  -5  -3   3   22.90    3.20
  -5  -3   3   22.40    2.00
   4   3  -3  127.29   10.00
   4   3  -3  120.89   10.20
   4   3  -3  120.89   10.00
   4   3  -3  116.19   10.10
   4   3  -3  119.79   10.20
   4   3  -3  133.09   10.00
  -4  -3   3  142.29   10.10
  -4  -3   3  130.89   10.40
  -4  -3   3  135.89   10.60
  -4  -3   3  133.39   10.50
   3   3  -3  296.87   23.80
   3   3  -3  290.47   23.90
   3   3  -3  282.07   23.90
   3   3  -3  304.37   23.90
   3   3  -3  300.27   24.00
   3   3  -3  307.67   23.70
  -3  -3   3  335.57   23.80
  -3  -3   3  347.97   24.60
  -3  -3   3  296.37   24.10
   2   3  -3  396.76   33.90
   2   3  -3  422.56   34.10
   2   3  -3  411.66   34.10
   2   3  -3  449.06   34.00
   2   3  -3  415.66   33.90
   2   3  -3  436.96   33.90
  -2  -3   3  456.45   34.00
  -2  -3   3  462.65   34.00
  -2  -3   3  486.45   34.90
  -2  -3   3  450.75   34.20
   1   3  -3  633.14   51.99
   1   3  -3  632.94   51.99
   1   3  -3  604.64   52.09
   1   3  -3  662.23   52.09
   1   3  -3  598.34   51.99
  -1  -3   3  748.93   52.59
  -1  -3   3  754.62   53.09
  -1  -3   3  711.93   52.29
  -1  -3   3  716.33   52.29
   0   3  -3  739.03   50.99
   0   3  -3  614.44   50.89
   0   3  -3  605.14   50.79
   0   3  -3  676.23   50.89
  -1   3  -3   11.50    1.10
  -1   3  -3   10.90    1.10
  -1   3  -3   12.80    1.20
   1  -3   3    8.50    1.70
   1  -3   3   11.30    2.60
   1  -3   3   11.90    2.30
  -2   3  -3   49.20    4.60
  -2   3  -3   56.99    4.40
   2  -3   3   58.79    5.60
   2  -3   3   58.79    6.30
  -3   3  -3   24.10    1.90
  -3   3  -3   21.70    2.90
  -3   3  -3   22.70    2.10
  -3   3  -3   16.40    1.80
   3  -3   3   20.00    4.20
   3  -3   3   17.40    3.30
  -4   3  -3    6.80    1.00
  -4   3  -3    6.10    1.20
  -4   3  -3    5.70    1.10
  -4   3  -3    9.20    2.20
   4  -3   3    3.50    2.80
   4  -3   3    7.10    1.40
   4  -3   3    5.70    2.30
  -5   3  -3   20.20    1.90
  -5   3  -3   21.40    2.60
  -5   3  -3   17.90    2.20
   5  -3   3   18.00    4.30
   5  -3   3   22.30    4.00
  -6   3  -3    7.90    1.20
  -6   3  -3   10.50    1.50
   6  -3   3   14.60    3.70
   6  -3   3    5.90    2.80
   6  -3   3    4.10    1.30
   7  -3   3   -0.50    1.20
   7  -3   3   -0.80    2.40
   9   4  -4    3.30    1.80
   9   4  -4    9.10    1.10
  -9  -4   4   10.10    2.10
  -9  -4   4    9.00    1.60
  -9  -4   4    7.40    2.40
   8   4  -4   81.89    6.30
   8   4  -4   64.99    6.90
   8   4  -4   82.09    6.80
  -8  -4   4   85.59    6.60
  -8  -4   4   74.39    7.10
  -8  -4   4   81.39    7.90
   7   4  -4    9.10    1.10
   7   4  -4   12.50    1.20
   7   4  -4    7.80    1.90
   7   4  -4   11.20    2.00
   7   4  -4   11.90    1.40
   7   4  -4   12.70    1.90
  -7  -4   4   15.50    3.40
  -7  -4   4    9.70    2.30
   6   4  -4   25.40    2.20
   6   4  -4   22.10    1.90
   6   4  -4   21.10    2.50
   6   4  -4   21.30    2.50
   6   4  -4   17.10    2.50
   6   4  -4   22.70    2.00
  -6  -4   4   28.50    2.40
   5   4  -4   81.29    7.70
   5   4  -4  108.09    7.70
   5   4  -4   90.19    7.90
   5   4  -4   93.79    7.60
   5   4  -4   91.89    7.80
   5   4  -4  100.09    7.60
  -5  -4   4  100.39    8.30
  -5  -4   4   97.99    8.50
  -5  -4   4   98.29    7.70
   4   4  -4  116.59    8.70
   4   4  -4  117.59    9.00
   4   4  -4  107.69    9.10
   4   4  -4  114.69    8.80
   4   4  -4  107.29    8.70
   4   4  -4  101.69    9.00
   4   4  -4  106.29    9.10
  -4  -4   4  118.59    9.70
  -4  -4   4  118.19    9.40
  -4  -4   4  110.79    8.80
  -4  -4   4  104.29    9.80
   3   4  -4   12.70    1.60
   3   4  -4   14.50    1.60
   3   4  -4   15.70    1.30
   3   4  -4   13.70    1.80
   3   4  -4   12.60    1.50
  -3  -4   4   11.80    2.40
  -3  -4   4   12.50    2.80
  -3  -4   4   12.70    2.20
  -3  -4   4   12.60    1.60
   2   4  -4  129.29   10.60
   2   4  -4  121.89   10.90
   2   4  -4  138.89   10.60
   2   4  -4  145.89   10.90
   2   4  -4  142.69   10.80
  -2  -4   4  150.68   12.20
  -2  -4   4  116.69   11.20
  -2  -4   4  142.09   11.20
   1   4  -4  201.88   17.40
   1   4  -4  213.98   17.40
  -1  -4   4  234.98   19.00
  -1  -4   4  232.18   17.90
  -1  -4   4  242.88   18.30
   0   4  -4   24.50    2.20
   0   4  -4   21.70    2.00
   0   4  -4   21.60    2.00
  -1   4  -4   56.89    4.50
  -1   4  -4   51.59    4.30
   1  -4   4   55.39    5.70
   1  -4   4   52.79    4.80
   1  -4   4   50.09    6.50
  -2   4  -4   93.79    7.10
  -2   4  -4   82.79    6.90
  -2   4  -4   89.49    7.00
   2  -4   4   86.19    8.40
   2  -4   4   82.59    9.50
  -3   4  -4   37.30    3.20
  -3   4  -4   37.50    3.20
  -3   4  -4   40.10    3.30
   3  -4   4   33.40    6.00
   3  -4   4   36.30    5.10
  -4   4  -4    8.40    1.30
  -4   4  -4    6.80    1.10
  -4   4  -4    9.00    1.10
   4  -4   4   -0.40    6.40
  -5   4  -4    3.30    0.80
  -5   4  -4    3.80    0.90
   5  -4   4    1.80    2.50
   5  -4   4    0.90    2.70
  -6   4  -4   11.60    1.30
  -6   4  -4   13.50    1.40
   6  -4   4    7.00    3.40
   8   5  -5   10.30    1.80
   8   5  -5    9.10    1.00
  -8  -5   5   11.00    2.40
  -8  -5   5    8.90    2.60
  -8  -5   5   12.50    3.00
   7   5  -5    3.40    0.60
   7   5  -5    3.10    1.20
   7   5  -5    3.50    0.90
  -7  -5   5    6.00    1.40
  -7  -5   5    2.70    2.20
  -7  -5   5    1.80    2.10
  -7  -5   5    5.80    1.30
   6   5  -5   10.90    1.70
   6   5  -5    8.70    1.50
   6   5  -5    6.90    1.60
   6   5  -5    9.10    1.20
   6   5  -5    8.00    1.10
  -6  -5   5    6.60    2.30
  -6  -5   5    8.80    2.40
  -6  -5   5    4.20    1.50
   5   5  -5   52.69    4.10
   5   5  -5   50.89    4.60
   5   5  -5   55.29    4.50
   5   5  -5   41.40    4.40
   5   5  -5   58.79    4.20
   5   5  -5   48.60    4.60
  -5  -5   5   55.99    5.30
  -5  -5   5   39.50    5.30
   4   5  -5   32.10    2.50
   4   5  -5   26.80    2.30
   4   5  -5   24.80    2.90
   4   5  -5   26.10    2.70
   4   5  -5   29.40    2.90
   4   5  -5   31.80    2.80
  -4  -5   5   21.70    4.00
  -4  -5   5   28.90    3.70
  -4  -5   5   20.60    3.60
   3   5  -5   49.00    4.40
   3   5  -5   53.59    4.40
   3   5  -5   47.50    4.00
   3   5  -5   52.89    4.10
   3   5  -5   48.80    4.50
  -3  -5   5   43.60    6.00
  -3  -5   5   49.50    5.20
   2   5  -5   56.59    4.60
   2   5  -5   60.69    4.90
   2   5  -5   53.59    4.60
   2   5  -5   57.09    4.90
   2   5  -5   60.69    5.10
  -2  -5   5   44.00    6.40
  -2  -5   5   60.29    5.60
   1   5  -5  161.08   12.20
   1   5  -5  162.08   12.30
   1   5  -5  142.79   11.80
   1   5  -5  154.38   11.90
   1   5  -5  161.88   12.10
  -1  -5   5  128.39   13.90
  -1  -5   5  144.09   12.60
   0   5  -5   23.50    2.40
   0   5  -5   20.40    2.00
   0   5  -5   23.20    2.40
   0   5  -5   22.40    2.10
   0  -5   5   25.40    3.10
   0  -5   5   31.10    5.10
  -1   5  -5  108.19    8.50
  -1   5  -5  108.89    8.80
  -1   5  -5  114.59    8.70
   1  -5   5  105.69   10.00
   1  -5   5   91.09   11.40
  -2   5  -5    4.20    1.20
  -2   5  -5    3.30    0.70
   2  -5   5    4.00    3.00
   2  -5   5    2.00    3.00
  -3   5  -5    5.00    1.20
  -3   5  -5    4.80    0.80
   3  -5   5    1.90    3.10
   3  -5   5    3.40    3.00
  -4   5  -5   15.90    1.60
  -4   5  -5   16.80    1.80
   4  -5   5    9.60    3.90
   4  -5   5    8.80    3.40
  -5   5  -5    8.30    1.20
  -5   5  -5   10.10    1.40
   5  -5   5    5.50    2.70
   7   6  -6   15.70    2.00
   7   6  -6   18.20    1.70
  -7  -6   6   12.10    2.80
   6   6  -6    8.10    1.40
   6   6  -6    8.80    2.30
   6   6  -6   10.50    1.30
  -6  -6   6   10.90    2.90
   5   6  -6   11.80    2.00
   5   6  -6   10.80    1.90
   5   6  -6   17.90    1.60
   5   6  -6   15.50    2.00
  -5  -6   6   14.00    3.10
   4   6  -6   22.30    2.70
   4   6  -6   20.30    2.60
   4   6  -6   26.20    2.50
   4   6  -6   23.50    2.50
   4   6  -6   24.40    2.20
  -4  -6   6   25.00    3.80
  -4  -6   6   18.20    3.90
   3   6  -6   24.00    2.80
   3   6  -6   28.10    2.70
   3   6  -6   27.30    2.30
   3   6  -6   25.80    2.90
   3   6  -6   26.10    2.80
  -3  -6   6   21.20    3.70
  -3  -6   6   17.80    4.10
   2   6  -6   84.89    6.70
   2   6  -6   83.49    6.80
   2   6  -6   80.09    6.30
   2   6  -6   78.89    6.90
  -2  -6   6   61.79    7.20
   1   6  -6   57.89    4.80
   1   6  -6   57.49    4.80
   1   6  -6   54.29    4.40
  -1  -6   6   41.00    5.10
   0   6  -6    1.70    1.30
   0   6  -6    4.00    1.30
   0   6  -6    4.00    1.30
   0   6  -6    2.70    0.60
   0  -6   6    2.90    3.00
  -1   6  -6    2.70    0.60
  -1   6  -6    3.10    1.20
  -1   6  -6    2.80    1.20
  -1   6  -6    1.40    1.20
   1  -6   6    0.70    2.40
  -2   6  -6   12.20    1.90
  -2   6  -6   10.50    2.30
  -2   6  -6    8.00    1.80
   2  -6   6    7.30    3.50
   4   7  -7   14.40    2.00
   4   7  -7   11.50    2.60
  -4  -7   7   13.80    2.60
   3   7  -7   10.20    1.90
   3   7  -7   12.90    1.80
   3   7  -7   13.00    1.30
   3   7  -7   13.60    1.70
   2   7  -7   19.30    2.20
   2   7  -7   21.90    2.40
   2   7  -7   19.60    2.40
   2   7  -7   19.40    2.40
   1   7  -7    2.40    1.10
  -1  -7   7    1.30    2.30
  -1   6  -7    8.30    1.80
  -1   6  -7   12.20    1.70
  -1   6  -7   11.70    1.60
   0  -6   7   24.70    4.90
   0   6  -7   31.50    3.10
   0   6  -7   31.70    3.00
   0   6  -7   30.50    3.30
   1   6  -7    7.40    1.70
   1   6  -7    9.00    1.50
   1   6  -7    6.90    1.50
  -2  -6   7   10.60    2.40
   2   6  -7   12.60    2.00
   2   6  -7   12.40    2.10
   2   6  -7   14.10    2.00
   2   6  -7   13.10    1.40
   2   6  -7   15.10    2.00
  -3  -6   7    4.20    2.70
  -3  -6   7    4.40    2.20
   3   6  -7    7.40    1.40
   3   6  -7    6.40    1.00
   3   6  -7    6.50    1.30
   3   6  -7    6.20    1.40
   3   6  -7    7.20    1.60
  -4  -6   7    0.10    1.90
   4   6  -7   -0.50    0.90
   4   6  -7   -1.00    1.20
   4   6  -7    1.20    0.60
   4   6  -7   -0.90    0.90
   4   6  -7   -0.70    1.00
  -5  -6   7    1.40    2.20
   5   6  -7    5.10    1.20
   5   6  -7    2.90    0.60
   5   6  -7    3.20    1.50
   5   6  -7    1.90    1.10
  -6  -6   7    4.90    2.10
  -6  -6   7    0.30    2.80
   6   6  -7    1.70    0.60
   6   6  -7    2.20    1.00
   4  -5   6   -0.20    2.40
   4  -5   6    3.20    2.70
  -4   5  -6    0.80    1.00
  -4   5  -6    0.10    0.70
   3  -5   6   -1.40    2.50
   3  -5   6    2.30    2.80
  -3   5  -6    3.00    1.10
  -3   5  -6    4.00    1.10
  -3   5  -6    3.70    1.20
   2  -5   6   -1.70    2.50
   2  -5   6    0.30    2.50
  -2   5  -6   -0.50    0.80
  -2   5  -6    0.20    0.50
  -2   5  -6    0.90    1.10
  -2   5  -6    0.30    0.90
   1  -5   6   41.60    5.50
   1  -5   6   35.00    6.50
  -1   5  -6   48.00    4.10
  -1   5  -6   46.80    3.70
  -1   5  -6   47.00    4.10
   0   5  -6   74.59    6.10
   0   5  -6   79.89    6.80
  -1  -5   6    7.20    3.40
  -1  -5   6   12.70    2.80
   1   5  -6   10.50    1.60
   1   5  -6    9.60    1.70
   1   5  -6    9.10    1.10
   1   5  -6   12.80    2.10
  -2  -5   6   16.10    3.90
  -2  -5   6   23.40    3.60
   2   5  -6   20.10    2.30
   2   5  -6   20.50    1.90
   2   5  -6   19.60    2.50
   2   5  -6   22.60    2.30
  -3  -5   6   12.30    2.80
  -3  -5   6    8.30    3.10
   3   5  -6   13.30    2.10
   3   5  -6   13.90    1.90
   3   5  -6   15.30    1.90
   3   5  -6   13.20    2.00
   3   5  -6   14.00    1.40
  -4  -5   6    9.00    2.50
  -4  -5   6    8.40    3.00
   4   5  -6   13.70    2.10
   4   5  -6   14.30    1.40
   4   5  -6   14.60    1.90
   4   5  -6   16.40    2.10
   4   5  -6    8.30    2.60
  -5  -5   6   15.40    3.10
  -5  -5   6   10.60    3.00
   5   5  -6   18.70    2.10
   5   5  -6   19.40    1.70
   5   5  -6   14.50    2.20
   5   5  -6   16.90    2.20
  -6  -5   6    5.00    2.40
  -6  -5   6    8.10    2.30
   6   5  -6    6.60    1.60
   6   5  -6    9.00    1.20
   6   5  -6    5.40    1.40
  -7  -5   6    3.10    2.10
  -7  -5   6    6.10    2.20
   7   5  -6    4.30    1.20
  -8  -5   6   18.80    3.20
   8   5  -6   24.50    2.50
   6  -4   5    9.20    3.30
  -6   4  -5   13.00    1.80
   5  -4   5   10.80    3.20
   5  -4   5    5.60    3.30
  -5   4  -5   12.30    1.40
   4  -4   5    1.30    3.00
   4  -4   5    3.40    2.80
  -4   4  -5    4.90    1.00
  -4   4  -5    3.70    0.70
   3  -4   5  115.19   13.10
   3  -4   5  124.89   11.70
  -3   4  -5  131.29   10.10
  -3   4  -5  138.09   10.30
   2  -4   5    0.60    2.70
   2  -4   5    2.30    2.90
   1  -4   5   36.30    4.70
   1  -4   5   30.30    5.40
  -1   4  -5   34.80    2.80
  -1   4  -5   37.60    3.10
  -1   4  -5   31.00    2.80
   0   4  -5  164.48   12.50
   0   4  -5  165.78   12.50
   0   4  -5  145.59   12.30
   0   4  -5  154.48   12.30
  -1  -4   5   35.60    4.30
  -1  -4   5   42.50    5.50
   1   4  -5   40.40    3.60
   1   4  -5   36.60    3.30
   1   4  -5   42.60    3.80
   1   4  -5   39.70    3.30
   1   4  -5   42.40    3.60
  -2  -4   5    1.30    1.60
  -2  -4   5    2.70    1.70
  -2  -4   5    0.40    1.90
   2   4  -5    1.10    0.50
   2   4  -5    1.20    0.60
   2   4  -5   -0.10    0.80
   2   4  -5    0.40    0.70
   2   4  -5    1.00    0.90
  -3  -4   5   86.99    7.70
  -3  -4   5   92.79    8.80
   3   4  -5   79.99    6.80
   3   4  -5   88.49    7.30
   3   4  -5   84.99    7.20
   3   4  -5   87.89    6.90
   3   4  -5   89.09    7.10
  -4  -4   5   18.20    2.10
  -4  -4   5   11.60    1.90
  -4  -4   5   14.80    3.00
  -4  -4   5   12.60    3.10
  -4  -4   5   19.00    3.00
   4   4  -5   14.90    2.10
   4   4  -5   18.00    1.90
   4   4  -5   16.20    2.10
   4   4  -5   19.20    1.60
   4   4  -5   16.60    1.90
  -5  -4   5    9.70    1.60
  -5  -4   5    8.70    2.20
  -5  -4   5    8.60    1.80
  -5  -4   5    6.70    2.40
   5   4  -5   11.50    1.80
   5   4  -5   11.30    1.30
   5   4  -5   11.20    1.60
   5   4  -5    8.30    1.50
   5   4  -5   10.80    1.10
   5   4  -5   10.90    0.90
   5   4  -5   10.80    1.70
  -6  -4   5   39.40    3.80
   6   4  -5   43.90    3.50
   6   4  -5   47.60    3.70
   6   4  -5   48.40    4.00
   6   4  -5   39.70    3.40
   6   4  -5   39.50    4.10
   6   4  -5   39.30    4.10
  -7  -4   5    7.30    2.20
  -7  -4   5   12.30    1.80
  -7  -4   5   14.80    2.00
  -7  -4   5    6.60    2.50
   7   4  -5    7.70    1.30
   7   4  -5   11.20    1.40
   7   4  -5   13.40    1.90
   7   4  -5    7.50    1.80
   7   4  -5    9.90    1.10
  -8  -4   5   11.40    1.80
  -8  -4   5    5.90    2.10
  -8  -4   5   11.90    1.80
  -8  -4   5    4.50    2.30
   8   4  -5    6.30    1.40
   8   4  -5    7.60    1.80
   8   4  -5    7.70    1.00
  -9  -4   5    4.00    2.00
  -9  -4   5    7.70    2.30
  -9  -4   5    6.20    1.40
   9   4  -5    4.70    1.10
   7  -3   4    6.50    3.10
   6  -3   4    8.90    3.30
  -6   3  -4   11.40    1.30
  -6   3  -4   11.00    1.30
   5  -3   4   57.59    8.30
  -5   3  -4   78.59    6.00
  -5   3  -4   76.69    6.00
   4  -3   4   76.79    8.00
   4  -3   4   71.99    9.10
  -4   3  -4   88.89    6.50
  -4   3  -4   67.09    7.10
  -4   3  -4   92.79    6.60
   3  -3   4    1.60    2.50
   3  -3   4    4.90    2.80
  -3   3  -4    3.50    1.90
  -3   3  -4    6.20    0.90
  -3   3  -4    4.50    0.80
  -3   3  -4    5.00    0.90
   2  -3   4   41.80    5.70
   2  -3   4   41.60    4.80
  -2   3  -4   42.90    3.40
  -2   3  -4   42.80    3.50
  -2   3  -4   39.50    3.50
   1  -3   4    9.30    1.70
   1  -3   4    8.30    2.60
   1  -3   4    6.90    2.20
  -1   3  -4    7.40    0.90
  -1   3  -4    6.40    0.80
  -1   3  -4    9.00    1.00
   0   3  -4   45.60    4.00
   0   3  -4   49.20    4.00
   0   3  -4   55.59    4.10
  -1  -3   4   93.59    8.30
  -1  -3   4   89.59    7.40
  -1  -3   4  101.09    7.80
   1   3  -4   82.39    6.90
   1   3  -4   86.39    7.10
   1   3  -4   85.79    7.10
   1   3  -4   83.89    6.90
  -2  -3   4  315.37   24.60
  -2  -3   4  301.77   24.70
  -2  -3   4  333.87   25.40
   2   3  -4  322.57   24.10
   2   3  -4  300.37   24.40
   2   3  -4  309.57   24.20
   2   3  -4  290.87   24.20
   2   3  -4  320.77   24.50
   2   3  -4  317.47   24.40
  -3  -3   4  215.88   16.60
  -3  -3   4  198.78   16.20
  -3  -3   4  217.28   15.60
  -3  -3   4  196.68   16.00
   3   3  -4  198.48   15.60
   3   3  -4  200.78   15.70
   3   3  -4  197.48   15.90
   3   3  -4  200.28   15.50
   3   3  -4  188.88   15.60
   3   3  -4  188.78   15.80
  -4  -3   4    8.60    2.10
  -4  -3   4    5.60    1.70
  -4  -3   4    9.20    1.30
   4   3  -4    8.10    1.40
   4   3  -4    6.60    0.80
   4   3  -4    6.00    1.10
   4   3  -4    6.80    0.70
   4   3  -4    7.30    1.40
   4   3  -4    7.70    0.90
  -5  -3   4    1.90    1.80
  -5  -3   4    2.40    0.90
  -5  -3   4    1.60    1.50
   5   3  -4    2.90    0.50
   5   3  -4    1.50    1.00
   5   3  -4    3.30    0.70
   5   3  -4    1.50    0.70
   5   3  -4    2.80    1.00
   5   3  -4    1.70    0.40
  -6  -3   4  132.59   10.30
  -6  -3   4  139.59   10.80
   6   3  -4  141.49   10.30
   6   3  -4  120.69   10.20
   6   3  -4  113.99   10.60
   6   3  -4  132.89   10.50
   6   3  -4  127.19   10.20
  -7  -3   4   98.09    8.50
  -7  -3   4  107.99    9.30
  -7  -3   4  102.49    8.00
   7   3  -4  107.09    8.30
   7   3  -4   89.59    8.30
   7   3  -4  103.49    7.90
   7   3  -4   85.89    7.80
   7   3  -4   97.09    8.70
  -8  -3   4   45.50    3.80
  -8  -3   4   48.60    4.40
  -8  -3   4   46.70    4.00
  -8  -3   4   37.90    4.90
   8   3  -4   34.70    4.30
   8   3  -4   32.10    3.40
   8   3  -4   40.10    3.90
   8   3  -4   40.00    3.40
  -9  -3   4   11.20    2.00
  -9  -3   4   10.60    2.70
  -9  -3   4   14.10    2.30
   9   3  -4   16.10    1.50
   9   3  -4   12.40    2.60
   9   3  -4   10.50    1.70
   8  -2   3   -0.10    2.30
   8  -2   3   -0.30    0.90
   7  -2   3    3.40    1.20
   7  -2   3    9.00    3.20
  -7   2  -3    7.90    1.40
  -7   2  -3    6.70    1.00
  -7   2  -3    5.90    1.20
   6  -2   3   32.40    5.00
  -6   2  -3   40.30    3.50
  -6   2  -3   35.80    4.20
  -6   2  -3   39.50    3.20
   5  -2   3    0.80    0.40
   5  -2   3    1.80    2.10
   5  -2   3    1.00    0.30
   5  -2   3    1.40    0.80
   5  -2   3    2.10    2.10
  -5   2  -3    2.40    1.40
  -5   2  -3    1.70    1.10
   4  -2   3   35.70    2.90
   4  -2   3   38.90    4.40
   4  -2   3   39.00    3.20
   4  -2   3   30.00    6.60
   4  -2   3   33.10    2.90
  -4   2  -3   33.30    3.60
  -4   2  -3   42.80    3.30
   3  -2   3    5.80    0.60
   3  -2   3    5.30    1.90
   3  -2   3    6.90    2.40
   3  -2   3    6.40    0.60
   3  -2   3    5.40    0.90
  -3   2  -3    9.00    1.40
  -3   2  -3    7.50    1.90
   2  -2   3  286.67   23.50
   2  -2   3  325.77   24.30
  -2   2  -3  303.27   23.60
   1  -2   3 1095.49   79.29
   1  -2   3 1061.39   80.09
   1  -2   3 1007.40   79.59
  -1   2  -3 1112.09   79.09
  -1   2  -3  904.61   78.99
  -1   2  -3  968.60   79.09
  -1   2  -3 1020.00   78.99
   0  -2   3 9441.86  717.93
   0  -2   3 9999.00  717.73
   0  -2   3 8465.35  718.83
  -1  -2   3 1348.77   95.09
  -1  -2   3 1235.58   94.29
  -1  -2   3 1370.96   94.79
  -1  -2   3 1358.46   94.59
   1   2  -3 1069.19   94.29
   1   2  -3 1107.39   94.29
   1   2  -3 1072.09   94.29
  -2  -2   3  358.06   26.30
  -2  -2   3  330.37   26.10
  -2  -2   3  367.36   26.70
   2   2  -3  351.86   26.30
   2   2  -3  320.67   26.10
   2   2  -3  303.77   26.10
   2   2  -3  327.27   26.00
   2   2  -3  337.87   26.20
  -3  -2   3   18.80    2.10
  -3  -2   3   15.10    1.50
  -3  -2   3   12.90    2.70
  -3  -2   3   13.90    1.90
   3   2  -3   14.90    1.80
   3   2  -3   14.40    1.50
   3   2  -3   15.10    1.60
   3   2  -3   14.60    1.20
   3   2  -3   13.60    1.30
   3   2  -3   15.00    1.30
   3   2  -3   15.20    1.50
  -4  -2   3  179.98   12.90
  -4  -2   3  157.48   13.10
   4   2  -3  159.88   12.80
   4   2  -3  165.48   13.10
   4   2  -3  167.88   12.80
   4   2  -3  159.58   13.00
   4   2  -3  154.78   12.80
   4   2  -3  172.28   13.30
  -5  -2   3   47.70    3.70
  -5  -2   3   41.00    4.00
  -5  -2   3   52.09    4.50
   5   2  -3   41.70    3.50
   5   2  -3   42.40    3.50
   5   2  -3   42.10    3.60
   5   2  -3   43.20    3.90
   5   2  -3   39.30    3.90
   5   2  -3   41.60    3.80
  -6  -2   3  204.28   16.70
  -6  -2   3  248.68   17.30
   6   2  -3  195.38   16.70
   6   2  -3  197.88   16.30
   6   2  -3  214.38   17.00
   6   2  -3  208.68   16.60
   6   2  -3  212.48   16.40
   6   2  -3  189.78   16.70
   6   2  -3  212.78   16.30
  -7  -2   3   30.50    3.80
  -7  -2   3   25.00    3.00
   7   2  -3   29.30    2.80
   7   2  -3   22.60    2.20
   7   2  -3   22.00    3.50
   7   2  -3   23.80    2.80
   7   2  -3   26.20    3.30
   7   2  -3   25.70    2.30
  -8  -2   3   14.80    2.60
  -8  -2   3   15.80    3.40
  -8  -2   3   18.40    2.20
   8   2  -3   19.60    1.80
   8   2  -3   14.20    1.60
   8   2  -3   20.60    2.60
  -9  -2   3   30.00    4.40
  -9  -2   3   34.40    3.40
   9   2  -3   42.40    3.10
   9   2  -3   33.00    4.10
 -10  -2   3    1.30    1.30
   9  -1   2    4.80    2.50
  -9   1  -2    2.70    0.80
  -9   1  -2    0.90    1.10
   8  -1   2    0.90    1.00
   8  -1   2    1.00    2.30
  -8   1  -2    0.40    1.00
  -8   1  -2    1.80    1.20
   7  -1   2   11.70    2.80
   7  -1   2   10.50    1.40
   7  -1   2    9.90    1.00
  -7   1  -2   10.70    1.80
  -7   1  -2    8.80    1.40
   6  -1   2   14.70    1.60
   6  -1   2   14.80    1.30
   6  -1   2   21.10    3.40
   6  -1   2   10.80    2.60
   6  -1   2   16.90    1.40
  -6   1  -2   13.10    2.20
  -6   1  -2   12.50    2.00
   5  -1   2   94.59    7.40
   5  -1   2  103.29    7.50
   5  -1   2   94.69    8.50
   5  -1   2   88.89    8.80
   5  -1   2   95.99    7.40
  -5   1  -2   84.69    7.80
   4  -1   2  489.55   35.20
   4  -1   2  416.66   35.80
   4  -1   2  455.85   35.20
   4  -1   2  472.35   36.50
   4  -1   2  463.35   35.20
  -4   1  -2  428.76   35.50
  -4   1  -2  454.55   35.30
   3  -1   2 1395.06  111.29
   3  -1   2 1588.24  111.29
   3  -1   2 1617.94  112.49
   3  -1   2 1441.36  111.29
   3  -1   2 1325.87  111.79
  -3   1  -2 1285.77  111.49
   2  -1   2  503.85   39.10
   2  -1   2  550.24   39.20
   2  -1   2  550.64   40.00
   2  -1   2  497.55   39.60
   2  -1   2  484.35   39.20
  -2   1  -2  457.55   39.20
   1  -1   2 3037.80  215.38
   1  -1   2 2770.92  214.98
   1  -1   2 3031.50  214.88
  -1   1  -2 2553.34  214.68
  -1   1  -2 2526.55  214.68
   0  -1   2  301.97   22.30
   0  -1   2  270.47   22.30
   0  -1   2  282.97   22.60
   0   1  -2  287.17   22.10
  -1  -1   2  646.64   48.90
  -1  -1   2  682.03   49.10
  -1  -1   2  653.43   48.90
   1   1  -2  697.63   48.80
   1   1  -2  595.04   48.80
   1   1  -2  636.04   48.80
   1   1  -2  576.34   48.70
   1   1  -2  550.74   48.70
   1   1  -2  646.34   48.80
  -2  -1   2  941.81   72.79
  -2  -1   2  953.40   72.89
  -2  -1   2  971.70   72.69
   2   1  -2  866.41   72.69
   2   1  -2 1025.20   72.79
   2   1  -2  947.91   72.69
   2   1  -2  899.01   72.79
   2   1  -2  825.22   72.69
   2   1  -2  927.61   72.79
   2   1  -2 1058.99   72.79
  -3  -1   2  138.39   11.00
  -3  -1   2  130.69   11.10
  -3  -1   2  160.38   11.10
   3   1  -2  123.59   10.90
   3   1  -2  135.59   11.10
   3   1  -2  138.99   11.10
   3   1  -2  154.28   11.20
   3   1  -2  133.09   11.00
   3   1  -2  146.99   10.90
   3   1  -2  139.29   11.00
   3   1  -2  148.49   10.90
  -4  -1   2  134.59    9.80
  -4  -1   2  121.79    9.60
  -4  -1   2  142.49   10.10
   4   1  -2  109.89    9.60
   4   1  -2  121.09    9.90
   4   1  -2  120.79    9.80
   4   1  -2  123.79    9.60
   4   1  -2  125.19    9.60
   4   1  -2  120.69    9.90
   4   1  -2  114.19    9.60
  -5  -1   2    8.30    1.40
  -5  -1   2   11.00    1.90
  -5  -1   2    7.30    1.10
  -5  -1   2    7.90    1.10
   5   1  -2    7.80    0.90
   5   1  -2    8.20    1.30
   5   1  -2    8.00    0.80
   5   1  -2    8.70    1.60
   5   1  -2    7.60    0.90
   5   1  -2    7.50    1.10
  -6  -1   2  139.59   10.60
  -6  -1   2  137.19   10.60
  -6  -1   2  152.98   10.50
   6   1  -2  117.89   10.70
   6   1  -2  121.99   10.40
   6   1  -2  130.39   10.70
   6   1  -2  122.29   10.80
   6   1  -2  132.29   10.40
  -7  -1   2   62.49    4.80
  -7  -1   2   65.69    5.80
  -7  -1   2   60.49    5.00
  -7  -1   2   55.59    4.90
   7   1  -2   52.59    5.10
   7   1  -2   58.79    4.70
   7   1  -2   54.49    5.80
   7   1  -2   58.69    5.10
   7   1  -2   48.60    4.70
  -8  -1   2   47.10    5.20
  -8  -1   2   42.40    4.60
   8   1  -2   43.60    5.00
   8   1  -2   35.80    3.50
  -9  -1   2   12.00    2.10
  -9  -1   2   17.50    2.50
  -9  -1   2   11.10    2.50
   9   1  -2   19.00    1.70
   9   1  -2   19.40    3.50
 -10  -1   2    0.80    1.30
   9   0   1    0.10    1.80
   9   0   1    0.30    0.90
  -9   0  -1    0.60    1.00
  -9   0  -1    0.40    1.10
   8   0   1    8.70    1.10
   8   0   1    9.30    3.00
   8   0   1   11.80    1.40
  -8   0  -1   10.50    1.50
  -8   0  -1    8.60    2.80
   7   0   1   10.00    1.10
   7   0   1    6.90    2.10
   7   0   1   10.80    1.20
   7   0   1    8.90    1.00
  -7   0  -1    9.40    1.60
  -7   0  -1    8.00    1.80
  -7   0  -1    9.70    1.20
   6   0   1   44.10    4.70
   6   0   1   48.00    3.70
   6   0   1   46.20    3.60
   6   0   1   43.20    3.60
  -6   0  -1   40.00    3.80
  -6   0  -1   41.50    3.60
  -6   0  -1   46.50    4.10
   5   0   1  158.98   11.80
   5   0   1  163.38   11.90
   5   0   1  158.48   11.90
   5   0   1  129.19   12.40
   5   0   1  145.89   12.50
  -5   0  -1  154.78   12.10
   4   0   1  203.08   16.00
   4   0   1  213.68   15.90
   4   0   1  208.08   16.70
   4   0   1  212.48   15.90
   4   0   1  182.78   16.30
  -4   0  -1  211.28   16.10
   3   0   1  399.06   30.40
   3   0   1  371.76   30.40
   3   0   1  442.46   31.00
   3   0   1  355.96   30.60
   3   0   1  388.06   30.40
  -3   0  -1  400.66   30.50
   2   0   1  208.28   14.40
   2   0   1  192.18   13.90
   2   0   1  176.48   13.90
   2   0   1  156.88   14.10
   2   0   1  166.68   13.90
  -2   0  -1  175.08   14.00
   0   0   1  111.69    8.50
   0   0  -1  108.79    8.50
  -1   0   1  245.88   18.80
   1   0  -1  224.58   18.80
   1   0  -1  257.57   18.80
   2   0  -1 4244.58  327.47
  -3   0   1 1258.77  111.49
   3   0  -1 1537.85  111.59
   3   0  -1 1471.15  111.69
   3   0  -1 1528.95  111.69
   3   0  -1 1449.95  111.59
   3   0  -1 1420.46  111.69
  -4   0   1  165.18   11.70
  -4   0   1  153.68   11.50
  -4   0   1  138.29   11.30
   4   0  -1  143.19   11.50
   4   0  -1  137.09   11.60
   4   0  -1  150.38   11.30
   4   0  -1  137.29   11.70
   4   0  -1  139.79   11.30
   4   0  -1  148.79   11.30
   4   0  -1  141.59   11.60
  -5   0   1   73.29    5.60
  -5   0   1   63.09    5.30
  -5   0   1   64.19    5.10
   5   0  -1   62.59    5.00
   5   0  -1   64.99    5.00
   5   0  -1   60.69    5.70
   5   0  -1   56.99    5.40
   5   0  -1   60.59    5.00
   5   0  -1   62.39    5.30
  -6   0   1    8.10    1.10
  -6   0   1    6.50    1.90
  -6   0   1    8.30    1.50
   6   0  -1    6.00    0.80
   6   0  -1    4.70    1.30
   6   0  -1    7.50    2.00
   6   0  -1    4.80    0.80
  -7   0   1   10.30    1.50
  -7   0   1   10.20    1.50
  -7   0   1   10.70    2.40
   7   0  -1    8.30    1.20
   7   0  -1   18.10    3.60
   7   0  -1   12.90    1.30
  -8   0   1   10.00    1.80
  -8   0   1   13.80    2.20
   8   0  -1   13.30    1.50
   8   0  -1   15.50    3.60
   8   0  -1    9.00    1.20
  -9   0   1    7.10    1.60
  -9   0   1    4.70    1.50
   9   0  -1    3.20    2.10
   9   0  -1    4.10    1.00
  10   1   0   14.20    1.70
 -10  -1   0   14.60    1.90
 -10  -1   0   15.60    2.10
   9   1   0   21.40    1.90
   9   1   0   13.70    2.80
  -9  -1   0   16.90    2.70
  -9  -1   0   16.70    2.00
   8   1   0   36.90    3.00
   8   1   0   35.40    2.80
   8   1   0   34.00    4.20
   8   1   0   29.70    2.80
  -8  -1   0   32.60    3.80
  -8  -1   0   33.40    3.00
   7   1   0   41.30    3.30
   7   1   0   36.70    4.30
   7   1   0   42.00    3.40
   7   1   0   37.80    3.30
  -7  -1   0   42.40    4.10
  -7  -1   0   37.20    3.40
  -7  -1   0   40.10    3.40
   6   1   0   41.60    3.70
   6   1   0   48.30    3.70
   6   1   0   45.30    3.70
   6   1   0   44.70    4.60
  -6  -1   0   46.10    3.80
  -6  -1   0   46.10    3.70
   5   1   0   68.29    5.10
   5   1   0   64.69    5.30
   5   1   0   64.49    5.10
   5   1   0   61.89    5.60
   5   1   0   66.69    5.20
  -5  -1   0   59.39    5.10
  -5  -1   0   68.59    5.30
   4   1   0  472.85   37.60
   4   1   0  438.16   37.60
   4   1   0  542.15   37.50
   4   1   0  487.15   37.80
   4   1   0  508.95   37.50
   4   1   0  497.95   37.70
  -4  -1   0  557.74   37.60
  -4  -1   0  433.46   37.60
  -4  -1   0  433.36   37.50
   3   1   0  357.66   26.50
   3   1   0  357.86   26.50
   3   1   0  373.56   26.40
   3   1   0  326.87   26.40
   3   1   0  370.46   26.40
   3   1   0  333.87   26.40
   3   1   0  326.87   26.50
   3   1   0  323.37   26.40
  -3  -1   0  300.77   26.40
  -1  -1   0  509.45   37.50
  -1  -1   0  461.25   37.50
   0  -1   0 2954.50  227.88
  -1   1   0  429.96   34.30
  -1   1   0  489.35   34.30
   1  -1   0  408.86   34.30
   1  -1   0  432.06   34.30
   1  -1   0  457.25   34.20
  -2   1   0  105.19    7.40
  -2   1   0   96.09    7.50
   2  -1   0  101.69    7.30
   2  -1   0   82.39    7.60
   2  -1   0   82.39    7.50
   2  -1   0   85.29    7.30
   2  -1   0   95.59    7.30
   2  -1   0  102.39    7.80
  -3   1   0  172.28   12.40
  -3   1   0  170.08   12.50
  -3   1   0  163.48   12.50
   3  -1   0  166.88   12.30
   3  -1   0  149.39   12.80
   3  -1   0  153.68   12.30
   3  -1   0  173.58   12.90
   3  -1   0  131.09   12.50
   3  -1   0  143.39   12.60
  -4   1   0   75.99    6.50
  -4   1   0   85.79    6.50
  -4   1   0   77.09    6.20
   4  -1   0   82.09    6.20
   4  -1   0   83.89    6.30
   4  -1   0   76.19    6.70
   4  -1   0   74.29    6.90
   4  -1   0   84.19    6.30
   4  -1   0   75.39    6.90
  -5   1   0   15.90    1.90
  -5   1   0   16.80    1.60
  -5   1   0   17.90    2.10
   5  -1   0   17.70    1.60
   5  -1   0   16.90    1.50
   5  -1   0   16.40    1.60
   5  -1   0   16.00    2.80
  -6   1   0   12.00    1.60
  -6   1   0   17.50    3.50
   6  -1   0   17.30    1.50
   6  -1   0   13.30    3.00
   6  -1   0   12.80    1.40
  -7   1   0   20.00    2.40
  -7   1   0   14.10    2.00
  -7   1   0   13.20    2.40
  -7   1   0   15.80    2.10
   7  -1   0   20.60    1.90
   7  -1   0   20.00    1.70
   7  -1   0   20.60    3.50
  -8   1   0    1.80    1.40
  -8   1   0    0.90    1.30
   8  -1   0    1.40    1.00
   8  -1   0    2.30    2.40
   8  -1   0    0.80    0.50
  -9   1   0    6.70    1.50
  -9   1   0    7.60    1.50
   9  -1   0    9.20    2.60
  10   2  -1   50.29    4.00
 -10  -2   1   49.30    4.40
 -10  -2   1   43.20    4.10
   9   2  -1   27.00    3.70
   9   2  -1   31.10    2.60
   9   2  -1   23.10    2.50
  -9  -2   1   30.50    3.80
  -9  -2   1   28.10    2.70
   8   2  -1   20.10    3.10
   8   2  -1   22.00    2.00
   8   2  -1   16.80    1.90
  -8  -2   1   21.50    2.20
  -8  -2   1   23.60    3.30
  -8  -2   1   25.70    2.70
   7   2  -1   10.90    1.70
   7   2  -1   12.40    1.20
   7   2  -1   10.80    1.30
   7   2  -1   12.30    2.30
   7   2  -1   12.90    1.30
  -7  -2   1   12.80    2.00
  -7  -2   1   15.10    2.60
  -7  -2   1   12.70    1.50
   6   2  -1    4.50    0.70
   6   2  -1    5.50    1.50
   6   2  -1    7.80    1.30
   6   2  -1    5.00    0.70
   6   2  -1    4.90    0.80
  -6  -2   1    6.90    1.20
   5   2  -1  186.68   14.30
   5   2  -1  181.08   14.10
   5   2  -1  180.48   14.30
   5   2  -1  188.28   14.10
   5   2  -1  186.78   14.30
   5   2  -1  180.58   14.50
   5   2  -1  177.78   14.10
   5   2  -1  169.98   14.20
   5   2  -1  194.88   14.10
  -5  -2   1  177.88   14.10
  -5  -2   1  168.38   14.30
   4   2  -1 3241.38  233.68
   4   2  -1 3092.69  233.98
   4   2  -1 3114.39  233.78
  -4  -2   1 2898.81  233.78
  -4  -2   1 2792.12  233.68
   3   2  -1  128.49    9.20
   3   2  -1  111.59    9.20
   3   2  -1  112.69    9.10
   3   2  -1  114.69    9.20
   3   2  -1  122.79    9.10
   3   2  -1  112.79    9.20
   3   2  -1  124.09    9.10
   3   2  -1  121.19    9.20
   3   2  -1  119.19    9.20
  -3  -2   1  114.89    9.20
  -3  -2   1  110.39    9.30
  -3  -2   1  116.69    9.30
   2   2  -1 1493.95  105.09
   2   2  -1 1365.96  104.89
   2   2  -1 1206.68  104.99
   2   2  -1 1328.17  104.99
   2   2  -1 1356.46  104.99
   2   2  -1 1539.05  104.99
   2   2  -1 1306.07  104.99
  -2  -2   1 1303.97  104.99
  -2  -2   1 1426.06  105.19
  -2  -2   1 1277.97  105.09
   1   2  -1  241.58   19.30
   1   2  -1  263.97   19.30
   1   2  -1  283.27   19.20
   1   2  -1  230.18   19.30
  -1  -2   1  277.47   19.50
  -1  -2   1  215.98   19.30
  -1  -2   1  233.08   19.40
   0   2  -1 1930.21  153.28
   0   2  -1 1821.62  153.28
   0   2  -1 1983.80  153.28
   0  -2   1 2216.08  153.48
  -1   2  -1   65.29    5.00
  -1   2  -1   62.59    5.00
   1  -2   1   72.19    5.80
   1  -2   1   62.09    4.90
   1  -2   1   65.79    5.30
   1  -2   1   61.79    5.40
   1  -2   1   55.29    5.20
  -2   2  -1   -0.20    0.40
  -2   2  -1    0.30    1.00
  -2   2  -1    1.00    0.70
   2  -2   1    0.30    0.20
   2  -2   1    0.70    0.70
   2  -2   1    0.60    1.20
   2  -2   1    0.20    0.50
   2  -2   1    0.30    1.10
   2  -2   1    0.30    0.10
  -3   2  -1  202.08   16.60
  -3   2  -1  219.68   16.30
   3  -2   1  229.48   17.40
   3  -2   1  215.78   16.20
   3  -2   1  189.88   16.80
   3  -2   1  210.28   16.30
   3  -2   1  196.88   16.20
  -4   2  -1   25.70    2.40
  -4   2  -1   25.60    2.70
  -4   2  -1   23.50    2.60
  -4   2  -1   25.40    2.20
   4  -2   1   22.60    3.20
   4  -2   1   24.80    2.20
   4  -2   1   28.70    3.70
   4  -2   1   24.60    2.10
   4  -2   1   26.60    2.10
  -5   2  -1   11.00    1.80
  -5   2  -1   16.00    1.90
   5  -2   1    7.50    2.50
   5  -2   1    7.50    2.20
   5  -2   1   12.50    1.10
   5  -2   1   10.90    1.30
  -6   2  -1   17.40    2.10
  -6   2  -1   19.20    2.40
   6  -2   1   16.30    4.00
   6  -2   1   20.90    1.70
   6  -2   1   19.00    2.00
   6  -2   1   27.20    3.90
  -7   2  -1   43.70    3.90
   7  -2   1   46.80    3.60
   7  -2   1   41.80    3.90
  -8   2  -1    8.40    1.50
  -8   2  -1    7.40    1.30
   8  -2   1    7.40    1.40
   8  -2   1    7.50    2.60
  10   3  -2    2.60    0.70
 -10  -3   2    3.90    1.40
 -10  -3   2    3.90    1.50
 -10  -3   2    1.60    1.60
   9   3  -2    6.70    1.00
   9   3  -2    1.30    2.30
  -9  -3   2    5.00    2.10
   8   3  -2   61.59    5.00
   8   3  -2   49.20    4.60
   8   3  -2   51.69    5.40
   8   3  -2   60.39    4.60
  -8  -3   2   58.39    5.30
   7   3  -2  106.69    9.10
   7   3  -2  110.79    8.50
   7   3  -2  108.69    8.70
   7   3  -2  105.49    8.40
  -7  -3   2   99.99    8.90
   6   3  -2  291.67   22.00
   6   3  -2  270.57   21.80
   6   3  -2  292.47   21.80
   6   3  -2  277.77   21.80
   6   3  -2  273.17   22.30
   6   3  -2  266.37   21.80
   6   3  -2  268.07   22.10
  -6  -3   2  296.77   21.90
  -6  -3   2  286.07   22.20
   5   3  -2   22.00    2.00
   5   3  -2   20.00    2.20
   5   3  -2   22.50    2.10
   5   3  -2   23.00    1.80
   5   3  -2   19.30    2.10
   5   3  -2   21.60    1.80
   5   3  -2   20.40    1.90
  -5  -3   2   20.70    2.50
  -5  -3   2   26.50    2.80
  -5  -3   2   20.20    2.30
  -5  -3   2   25.00    2.10
   4   3  -2  205.08   14.80
   4   3  -2  184.98   14.90
   4   3  -2  176.48   15.00
   4   3  -2  182.68   15.00
   4   3  -2  189.98   14.90
   4   3  -2  200.48   14.80
   4   3  -2  187.78   15.00
  -4  -3   2  192.48   15.20
  -4  -3   2  187.08   15.20
  -4  -3   2  203.28   14.90
   3   3  -2  279.87   22.10
   3   3  -2  296.17   22.00
   3   3  -2  276.27   22.00
   3   3  -2  279.27   22.00
   3   3  -2  282.57   22.10
   3   3  -2  266.97   22.10
  -3  -3   2  316.97   22.60
  -3  -3   2  277.07   22.30
  -3  -3   2  288.17   22.10
  -3  -3   2  277.07   22.20
   2   3  -2  642.74   51.69
   2   3  -2  653.93   51.69
   2   3  -2  595.64   51.69
   2   3  -2  629.04   51.79
   2   3  -2  678.53   51.59
  -2  -3   2  636.74   51.99
  -2  -3   2  662.03   51.69
  -2  -3   2  723.53   52.39
  -2  -3   2  695.03   51.89
  -2  -3   2  770.52   51.79
   1   3  -2 1032.60   88.99
   1   3  -2 1156.78   89.19
  -1  -3   2 1218.38   89.79
  -1  -3   2 1236.98   89.59
  -1  -3   2 1115.39   89.19
  -1  -3   2 1161.88   89.39
   0  -3   2 2351.86  180.38
   0  -3   2 2414.26  180.58
   0  -3   2 2110.89  179.98
   0  -3   2 2439.96  179.88
  -1   3  -2  121.89   10.00
  -1   3  -2  120.39   10.00
  -1   3  -2  138.79   10.00
   1  -3   2  137.39   11.30
   1  -3   2  125.89   10.70
   1  -3   2  142.99   10.60
   1  -3   2  115.59   10.20
  -2   3  -2   33.40    3.30
  -2   3  -2   31.20    2.90
  -2   3  -2   33.90    3.20
   2  -3   2   37.90    3.90
   2  -3   2   35.20    2.70
   2  -3   2   40.40    4.60
  -3   3  -2   49.10    4.40
  -3   3  -2   50.39    4.80
  -3   3  -2   52.99    4.20
   3  -3   2   58.19    5.40
   3  -3   2   53.69    6.10
   3  -3   2   53.19    4.10
  -4   3  -2    7.80    1.80
  -4   3  -2    8.30    1.40
  -4   3  -2    5.30    1.20
  -4   3  -2    3.90    1.10
  -4   3  -2    4.40    1.20
   4  -3   2    3.90    1.90
   4  -3   2    6.70    1.20
   4  -3   2    4.90    0.60
   4  -3   2    8.30    3.10
  -5   3  -2   49.00    4.60
  -5   3  -2   61.79    4.60
  -5   3  -2   57.69    4.80
  -5   3  -2   61.09    5.30
   5  -3   2   53.69    4.40
   5  -3   2   55.89    6.90
  -6   3  -2    5.50    1.50
  -6   3  -2    5.80    1.30
   6  -3   2    2.90    2.30
   6  -3   2    3.50    2.90
   6  -3   2    2.00    1.10
  -7   3  -2   31.10    3.20
  -7   3  -2   40.30    3.20
  -7   3  -2   36.60    3.40
   7  -3   2   43.20    5.50
  -8   3  -2   11.10    1.30
   8  -3   2   10.30    3.00
  10   4  -3   28.10    2.40
 -10  -4   3   21.50    3.70
 -10  -4   3   28.00    2.90
 -10  -4   3   29.70    2.80
   9   4  -3   40.50    3.60
   9   4  -3   43.10    4.00
  -9  -4   3   41.50    5.10
  -9  -4   3   40.20    4.40
  -9  -4   3   50.79    4.00
   8   4  -3   17.60    1.60
   8   4  -3   17.20    2.10
   8   4  -3   13.10    1.40
  -8  -4   3   17.10    2.10
  -8  -4   3   16.50    3.30
  -8  -4   3   12.20    2.30
   7   4  -3   23.50    2.10
   7   4  -3   19.90    1.90
   7   4  -3   18.60    3.00
   7   4  -3   21.10    2.40
   7   4  -3   22.50    2.00
  -7  -4   3   24.80    3.60
  -7  -4   3   24.60    3.20
   6   4  -3    9.40    1.10
   6   4  -3   11.10    1.60
   6   4  -3   10.90    1.50
   6   4  -3    9.70    1.20
   6   4  -3    9.10    1.60
   6   4  -3    8.00    1.00
  -6  -4   3   10.00    2.00
  -6  -4   3   14.00    1.60
   5   4  -3   61.59    5.80
   5   4  -3   63.29    5.80
   5   4  -3   70.29    5.60
   5   4  -3   60.79    5.70
   5   4  -3   71.69    5.40
   5   4  -3   68.89    5.70
  -5  -4   3   82.69    6.50
  -5  -4   3   68.09    6.10
  -5  -4   3   73.49    6.10
   4   4  -3   41.90    3.70
   4   4  -3   46.50    3.60
   4   4  -3   43.30    4.00
   4   4  -3   41.60    3.90
   4   4  -3   45.20    3.90
   4   4  -3   38.60    3.80
   4   4  -3   44.40    3.70
   4   4  -3   44.00    3.80
  -4  -4   3   51.89    4.50
  -4  -4   3   54.89    4.50
  -4  -4   3   48.90    4.50
  -4  -4   3   42.90    4.60
  -4  -4   3   50.59    3.80
   3   4  -3  556.84   47.10
   3   4  -3  552.24   46.90
   3   4  -3  573.94   47.00
   3   4  -3  589.04   47.00
   3   4  -3  615.64   46.80
   3   4  -3  581.94   46.90
   3   4  -3  591.84   47.10
  -3  -4   3  663.73   47.00
  -3  -4   3  646.24   48.00
  -3  -4   3  629.54   47.50
  -3  -4   3  685.73   47.40
  -3  -4   3  596.34   47.30
   2   4  -3  625.14   51.49
   2   4  -3  606.44   51.39
   2   4  -3  611.44   51.39
   2   4  -3  631.14   51.39
  -2  -4   3  682.93   51.69
  -2  -4   3  718.63   52.59
  -2  -4   3  737.93   51.99
  -2  -4   3  707.73   51.99
   1   4  -3   82.89    7.00
   1   4  -3   73.19    7.00
   1   4  -3   89.79    7.20
  -1  -4   3   99.59    7.90
  -1  -4   3   94.89    7.50
  -1  -4   3   97.49    8.50
  -1  -4   3   99.49    7.90
   0   4  -3   48.20    3.70
   0   4  -3   40.10    3.50
   0   4  -3   44.30    3.60
   0   4  -3   46.30    3.60
  -1   4  -3   44.70    3.60
  -1   4  -3   41.50    3.60
  -1   4  -3   49.30    3.70
  -1   4  -3   45.90    3.70
   1  -4   3   45.50    4.90
   1  -4   3   48.80    5.80
   1  -4   3   38.70    3.90
  -2   4  -3   29.10    2.50
  -2   4  -3   29.10    2.50
  -2   4  -3   23.90    3.10
  -2   4  -3   26.90    2.30
  -2   4  -3   32.70    2.60
   2  -4   3   26.50    4.00
   2  -4   3   27.80    4.80
  -3   4  -3    1.00    0.80
  -3   4  -3    1.10    0.90
  -3   4  -3    1.80    0.60
  -3   4  -3    1.00    1.60
   3  -4   3    0.90    2.10
   3  -4   3    1.40    2.50
  -4   4  -3   32.60    2.60
  -4   4  -3   28.00    2.40
  -4   4  -3   28.10    2.70
  -4   4  -3   26.80    3.30
   4  -4   3   25.90    4.40
   4  -4   3   24.50    5.30
  -5   4  -3    0.10    0.90
  -5   4  -3    0.40    0.80
   5  -4   3   -0.70    2.50
   5  -4   3    0.60    2.30
  -6   4  -3   10.90    1.30
  -6   4  -3   12.00    1.70
  -6   4  -3    9.00    1.30
   6  -4   3    5.10    2.70
   6  -4   3    6.00    3.10
   9   5  -4   17.10    1.50
   9   5  -4   12.00    1.90
  -9  -5   4   14.60    3.40
  -9  -5   4   18.80    2.20
  -9  -5   4   16.00    2.70
  -9  -5   4   14.90    2.00
   8   5  -4    0.10    1.00
   8   5  -4    1.30    0.60
  -8  -5   4    0.70    1.10
  -8  -5   4   -0.50    1.60
  -8  -5   4    0.40    2.10
   7   5  -4   45.30    3.80
   7   5  -4   42.10    3.70
   7   5  -4   43.80    4.10
  -7  -5   4   43.60    5.20
  -7  -5   4   50.09    4.00
  -7  -5   4   39.10    4.70
   6   5  -4    4.30    1.10
   6   5  -4    4.90    0.80
   6   5  -4    5.50    1.40
   6   5  -4    4.90    1.30
   6   5  -4    4.70    0.80
  -6  -5   4    0.40    1.90
  -6  -5   4    4.30    1.80
  -6  -5   4    5.30    1.20
  -6  -5   4    6.60    2.30
   5   5  -4  113.89    8.40
   5   5  -4  100.49    8.40
   5   5  -4  105.89    8.10
   5   5  -4  112.49    8.20
   5   5  -4   90.89    8.50
   5   5  -4   91.59    8.40
  -5  -5   4  103.89    9.10
  -5  -5   4  108.79    8.90
  -5  -5   4   90.49    8.20
   4   5  -4  212.38   15.90
   4   5  -4  216.88   16.30
   4   5  -4  217.78   16.00
   4   5  -4  202.98   16.20
   4   5  -4  200.88   16.30
   4   5  -4  226.78   16.20
  -4  -5   4  186.08   17.40
  -4  -5   4  172.38   16.00
  -4  -5   4  187.98   16.70
  -4  -5   4  222.38   16.70
   3   5  -4  242.08   18.80
   3   5  -4  242.68   18.90
   3   5  -4  226.88   18.80
   3   5  -4  239.28   18.60
   3   5  -4  249.28   18.60
  -3  -5   4  222.38   20.00
  -3  -5   4  246.08   19.20
   2   5  -4   72.49    5.80
   2   5  -4   70.79    5.90
   2   5  -4   68.29    5.60
   2   5  -4   65.09    5.60
   2   5  -4   73.69    5.80
  -2  -5   4   66.79    7.50
  -2  -5   4   68.89    6.40
   1   5  -4   36.90    3.30
   1   5  -4   33.50    3.00
   1   5  -4   36.80    3.00
   1   5  -4   36.20    3.20
  -1  -5   4   40.30    4.60
  -1  -5   4   36.50    5.20
  -1  -5   4   31.80    4.00
   0   5  -4   83.79    6.40
   0   5  -4   75.99    6.20
   0   5  -4   74.29    6.20
  -1   5  -4   32.30    2.90
  -1   5  -4   36.80    3.10
  -1   5  -4   36.90    2.90
   1  -5   4   26.10    5.30
   1  -5   4   34.30    4.70
  -2   5  -4   10.30    1.30
  -2   5  -4    5.20    2.50
  -2   5  -4   12.80    1.60
  -2   5  -4   11.00    1.30
   2  -5   4    9.80    3.70
   2  -5   4    8.80    3.10
  -3   5  -4    0.00    0.90
   3  -5   4   -0.30    2.80
   3  -5   4    1.00    2.70
  -4   5  -4    0.70    0.90
  -4   5  -4    1.90    0.70
   4  -5   4    2.10    2.90
   4  -5   4    2.30    2.80
  -5   5  -4    1.90    1.30
  -5   5  -4    2.20    0.60
   5  -5   4    0.30    2.10
   5  -5   4    2.60    2.70
   8   6  -5    2.30    1.00
  -8  -6   5   -0.20    1.90
  -8  -6   5    2.60    1.90
   7   6  -5   16.50    1.60
   7   6  -5   13.80    1.40
   7   6  -5   12.70    1.90
  -7  -6   5   11.30    2.50
  -7  -6   5   13.90    3.10
   6   6  -5   56.39    4.90
   6   6  -5   57.19    4.50
   6   6  -5   43.90    5.10
   6   6  -5   62.49    4.60
  -6  -6   5   49.60    5.80
  -6  -6   5   59.79    5.80
   5   6  -5   65.69    6.40
   5   6  -5   83.29    6.40
   5   6  -5   72.79    6.50
  -5  -6   5   85.19    7.30
   4   6  -5   18.60    2.80
   4   6  -5   10.90    1.90
   4   6  -5   14.10    1.50
   4   6  -5   13.80    1.30
   4   6  -5   11.60    1.70
   4   6  -5   10.80    1.80
  -4  -6   5    7.90    3.20
  -4  -6   5   16.50    4.50
   3   6  -5   57.39    4.90
   3   6  -5   54.89    4.90
   3   6  -5   58.29    5.10
   3   6  -5   60.69    4.60
  -3  -6   5   43.70    6.50
  -3  -6   5   55.99    5.70
   2   6  -5    7.60    1.10
   2   6  -5    8.60    1.50
   2   6  -5    8.10    1.10
   2   6  -5    7.80    1.50
   2   6  -5   12.10    2.00
  -2  -6   5    4.70    2.20
  -2  -6   5    4.60    3.00
   1   6  -5   88.99    7.40
   1   6  -5   80.79    6.80
   1   6  -5   97.09    7.30
   1   6  -5   98.69    7.20
   1   6  -5   86.99    6.90
  -1  -6   5   72.69    7.60
  -1  -6   5   69.39    9.20
   0   6  -5   12.10    1.80
   0   6  -5   12.00    1.80
   0   6  -5    9.20    2.00
   0  -6   5    9.50    3.70
   0  -6   5   15.90    4.10
  -1   6  -5   17.90    2.00
  -1   6  -5   13.40    1.50
  -1   6  -5   13.80    2.00
   1  -6   5   14.30    3.70
   1  -6   5   10.40    4.00
  -2   6  -5    5.10    0.80
  -2   6  -5    7.20    1.50
  -2   6  -5    6.30    1.30
   2  -6   5    3.10    2.90
   2  -6   5    2.60    3.10
  -3   6  -5   14.90    1.90
  -3   6  -5    9.20    1.20
  -3   6  -5    9.70    1.60
   3  -6   5   11.10    3.30
   3  -6   5    7.00    3.40
   6   7  -6   11.60    1.30
   6   7  -6    9.80    1.60
  -6  -7   6   10.40    2.80
   5   7  -6   14.20    2.00
   5   7  -6   17.60    2.30
   5   7  -6   14.50    2.50
  -5  -7   6   19.60    3.10
   4   7  -6   31.80    3.70
   4   7  -6   40.70    3.50
   4   7  -6   40.80    3.20
   4   7  -6   35.00    3.60
   4   7  -6   35.70    3.60
  -4  -7   6   35.30    4.50
   3   7  -6   26.60    2.70
   3   7  -6   25.90    2.80
   3   7  -6   21.40    2.70
   3   7  -6   24.50    2.20
   3   7  -6   28.20    2.60
  -3  -7   6   16.30    3.10
   2   7  -6    4.70    1.40
   2   7  -6    4.30    1.30
   2   7  -6    4.20    0.80
   2   7  -6    4.60    1.30
  -2  -7   6   -0.40    2.40
  -2  -7   6    0.60    1.70
   1   7  -6    7.80    1.60
   1   7  -6    7.10    1.50
   1   7  -6    7.10    1.50
   1   7  -6    6.50    1.40
  -1  -7   6    3.70    2.80
   0   7  -6   11.70    1.30
   0   7  -6   11.70    2.50
   0   7  -6    9.20    2.20
  -1   7  -6   -1.10    0.90
  -1   7  -6    1.30    1.00
   1  -7   6   -0.80    1.60
   1   6  -8   19.50    2.10
   1   6  -8   20.30    2.50
   1   6  -8   19.10    2.30
  -2  -6   8    2.60    2.00
   2   6  -8    5.00    1.30
   2   6  -8    4.60    1.20
   2   6  -8    2.80    1.10
  -3  -6   8    8.80    2.20
   3   6  -8    7.00    1.50
   3   6  -8   10.00    1.60
   3   6  -8   10.80    1.50
  -4  -6   8    5.90    2.10
   4   6  -8    4.80    1.40
   4   6  -8    8.60    1.50
   4   6  -8    9.90    2.70
   3  -5   7    0.70    2.30
  -3   5  -7    2.90    1.00
  -3   5  -7    1.90    0.90
  -2   5  -7    9.50    2.00
  -2   5  -7   10.20    1.60
  -2   5  -7   10.20    1.60
   1  -5   7    0.70    2.20
  -1   5  -7    1.00    0.90
  -1   5  -7    1.20    1.10
  -1   5  -7    0.50    1.20
   0  -5   7   18.30    4.40
   0   5  -7   17.40    2.20
   0   5  -7   17.70    2.20
   0   5  -7   17.80    2.50
  -1  -5   7    5.50    2.20
  -1  -5   7    5.60    3.00
   1   5  -7   15.20    3.20
   1   5  -7   13.40    1.70
   1   5  -7    9.30    1.10
   1   5  -7   11.20    1.80
  -2  -5   7    4.60    2.80
  -2  -5   7    7.30    2.60
   2   5  -7    6.90    1.50
   2   5  -7    6.60    0.90
   2   5  -7    7.20    1.60
   2   5  -7    7.70    1.40
   2   5  -7    5.80    1.60
  -3  -5   7    4.10    2.20
  -3  -5   7   -0.80    1.90
   3   5  -7    3.30    1.20
   3   5  -7    2.80    1.40
   3   5  -7    3.80    1.20
   3   5  -7    3.40    1.10
   3   5  -7    2.80    0.70
  -4  -5   7   22.50    3.80
   4   5  -7   24.30    3.00
   4   5  -7   29.30    2.80
   4   5  -7   24.80    2.80
   4   5  -7   28.70    3.00
   4   5  -7   27.40    2.40
  -5  -5   7    0.40    2.10
  -5  -5   7    0.50    1.80
   5   5  -7    3.50    1.40
   5   5  -7    3.70    1.40
   5   5  -7    3.90    1.20
   5   5  -7    2.50    0.70
  -6  -5   7   34.40    4.10
   6   5  -7   28.90    3.10
   6   5  -7   33.30    2.70
   6   5  -7   23.60    3.20
  -7  -5   7   13.70    2.90
   7   5  -7   18.00    2.00
   5  -4   6    1.10    2.40
   5  -4   6   -1.00    2.30
  -5   4  -6    0.40    0.70
  -5   4  -6    4.00    1.10
   4  -4   6   11.10    3.40
   4  -4   6   10.50    3.90
  -4   4  -6   12.70    1.50
  -4   4  -6   10.50    1.80
  -4   4  -6   10.20    1.60
   3  -4   6    6.60    3.10
   3  -4   6    4.90    3.40
  -3   4  -6    7.90    1.40
  -3   4  -6    9.90    2.30
  -3   4  -6    8.00    1.40
   2  -4   6    9.20    4.70
  -2   4  -6   18.50    1.70
  -2   4  -6   22.70    2.30
  -2   4  -6   18.20    2.80
  -2   4  -6   22.80    2.60
   1  -4   6   29.80    4.40
   1  -4   6   22.40    5.10
  -1   4  -6   32.40    3.00
  -1   4  -6   29.90    2.60
  -1   4  -6   30.50    3.30
  -1   4  -6   33.30    3.00
   0  -4   6    6.60    2.00
   0  -4   6    3.50    2.80
   0   4  -6    4.30    1.20
   0   4  -6    4.70    1.40
   0   4  -6    4.00    1.10
   0   4  -6    4.10    0.70
  -1  -4   6   31.80    5.20
  -1  -4   6   30.60    4.10
   1   4  -6   37.20    3.30
   1   4  -6   38.90    3.50
   1   4  -6   32.00    2.90
   1   4  -6   34.90    3.30
  -2  -4   6    0.30    1.90
  -2  -4   6    2.40    2.20
  -2  -4   6    0.20    1.50
   2   4  -6    0.70    0.80
   2   4  -6    3.20    1.10
   2   4  -6    0.80    0.50
   2   4  -6    1.40    1.10
  -3  -4   6    6.00    2.10
  -3  -4   6    9.50    2.60
   3   4  -6    9.40    1.80
   3   4  -6    6.70    1.50
   3   4  -6    7.70    1.40
   3   4  -6   10.00    1.60
   3   4  -6    7.60    1.10
  -4  -4   6   53.29    5.30
  -4  -4   6   40.40    6.20
   4   4  -6   49.80    4.80
   4   4  -6   50.79    4.60
   4   4  -6   56.99    4.60
   4   4  -6   54.79    4.90
   4   4  -6   56.69    4.30
  -5  -4   6   -1.40    1.90
  -5  -4   6    1.50    1.90
   5   4  -6    1.70    0.70
   5   4  -6    0.60    1.10
   5   4  -6    1.60    1.10
   5   4  -6    2.40    1.20
   5   4  -6    1.50    1.00
  -6  -4   6   98.99    8.00
   6   4  -6   86.09    7.50
   6   4  -6   76.39    7.40
  -7  -4   6    9.30    2.40
  -7  -4   6    9.50    2.10
  -7  -4   6   14.20    2.00
  -7  -4   6   11.30    2.90
   7   4  -6   16.90    2.00
   7   4  -6   14.20    2.30
  -8  -4   6   -2.10    1.70
  -8  -4   6    2.40    2.80
  -8  -4   6    3.40    1.80
   8   4  -6    2.40    1.30
   8   4  -6    1.10    1.40
   6  -3   5   -0.10    2.00
   6  -3   5    3.00    2.50
   5  -3   5   47.00    6.00
  -5   3  -5   47.40    4.10
  -5   3  -5   53.99    4.20
   4  -3   5    0.90    2.20
   4  -3   5    3.10    2.90
  -4   3  -5    4.60    0.70
  -4   3  -5    3.60    0.90
   3  -3   5   75.59    7.20
   3  -3   5   60.99    8.10
  -3   3  -5   60.99    6.30
  -3   3  -5   75.89    5.70
  -3   3  -5   71.59    5.60
   2  -3   5   47.30    6.60
   2  -3   5   50.39    5.60
  -2   3  -5   48.20    4.10
  -2   3  -5   56.29    4.20
  -2   3  -5   52.49    4.30
   1  -3   5  149.69   12.50
   1  -3   5  142.69   13.40
   1  -3   5  137.69   11.80
  -1   3  -5  153.48   11.50
  -1   3  -5  143.49   11.40
   0   3  -5   36.00    3.80
   0   3  -5   43.80    3.60
   0   3  -5   32.70    3.00
   0   3  -5   37.70    3.00
   0   3  -5   39.30    3.30
  -1  -3   5  119.59   10.00
  -1  -3   5  128.69   11.10
   1   3  -5  110.29    9.30
   1   3  -5  116.99    9.30
   1   3  -5  125.79    9.70
   1   3  -5  118.39    9.60
  -2  -3   5    4.20    1.90
  -2  -3   5    5.80    2.40
   2   3  -5    5.20    1.60
   2   3  -5    5.80    0.80
   2   3  -5    7.30    1.50
   2   3  -5    7.30    1.40
  -3  -3   5   74.39    6.60
  -3  -3   5   82.29    6.50
  -3  -3   5   73.49    7.20
   3   3  -5   78.49    6.10
   3   3  -5   75.99    5.80
   3   3  -5   73.89    6.20
   3   3  -5   71.29    6.30
   3   3  -5   65.79    5.80
   3   3  -5   73.59    5.90
  -4  -3   5   14.50    1.90
  -4  -3   5   17.50    2.70
  -4  -3   5   17.40    2.10
  -4  -3   5   14.30    2.90
   4   3  -5   14.80    2.10
   4   3  -5   19.80    2.20
   4   3  -5   15.40    1.40
   4   3  -5   15.20    1.90
   4   3  -5   15.50    1.40
   4   3  -5   18.30    1.60
   4   3  -5   16.30    1.80
  -5  -3   5    4.10    1.40
  -5  -3   5   -0.60    1.50
  -5  -3   5    1.30    1.80
  -5  -3   5    3.10    1.30
   5   3  -5    2.60    0.50
   5   3  -5    2.80    0.60
   5   3  -5    2.90    1.00
   5   3  -5    2.30    1.10
   5   3  -5    2.70    0.50
   5   3  -5    4.60    1.10
   5   3  -5    3.00    1.10
  -6  -3   5   64.89    5.80
  -6  -3   5   81.29    7.00
   6   3  -5   70.39    5.50
   6   3  -5   64.69    6.10
   6   3  -5   77.19    5.70
   6   3  -5   56.89    6.00
   6   3  -5   64.09    5.50
   6   3  -5   77.19    6.00
  -7  -3   5   48.20    4.80
  -7  -3   5   49.99    5.40
   7   3  -5   34.10    4.30
   7   3  -5   43.30    4.30
   7   3  -5   42.90    5.40
   7   3  -5   37.90    3.60
   7   3  -5   47.10    3.80
   7   3  -5   54.09    4.30
  -8  -3   5   31.60    3.90
  -8  -3   5   41.50    3.60
  -8  -3   5   26.20    4.60
  -8  -3   5   35.30    3.40
   8   3  -5   36.20    2.90
   8   3  -5   29.90    3.80
   8   3  -5   36.30    3.50
  -9  -3   5    1.50    1.40
  -9  -3   5    3.20    2.00
  -9  -3   5    6.50    1.50
   9   3  -5    5.30    0.80
   9   3  -5    4.60    1.20
   9   3  -5    5.80    2.30
   7  -2   4   18.40    2.20
   6  -2   4   51.39    5.60
   6  -2   4   36.50    6.80
  -6   2  -4   43.30    3.80
   5  -2   4   27.40    2.30
   5  -2   4   27.30    5.00
   5  -2   4   33.20    4.40
  -5   2  -4   25.60    3.10
  -5   2  -4   31.60    2.70
   4  -2   4   72.79    8.20
   4  -2   4   75.39    7.10
   4  -2   4   72.09    5.60
  -4   2  -4   65.09    6.30
   3  -2   4  115.29   10.00
   3  -2   4  110.89   12.30
   3  -2   4  129.09   11.00
  -3   2  -4  140.79   10.10
  -3   2  -4  138.39   10.00
   2  -2   4   44.60    5.20
   2  -2   4   42.60    4.40
   2  -2   4   38.40    3.20
  -2   2  -4   38.80    3.30
  -2   2  -4   43.30    3.30
  -2   2  -4   42.60    3.30
   1  -2   4   96.59    7.10
   1  -2   4   73.59    6.60
   1  -2   4   90.69    7.50
   1  -2   4   96.89    8.20
  -1   2  -4   76.19    6.50
  -1   2  -4   78.39    6.60
  -1   2  -4   88.19    6.70
   0   2  -4   37.70    2.80
   0   2  -4   36.90    3.00
   0   2  -4   35.50    2.90
   0   2  -4   31.90    2.80
   0   2  -4   36.40    3.00
  -1  -2   4  224.88   16.60
  -1  -2   4  197.18   16.60
  -1  -2   4  192.08   16.80
  -1  -2   4  240.48   17.40
   1   2  -4  226.08   16.40
   1   2  -4  193.68   16.20
   1   2  -4  203.48   16.20
   1   2  -4  209.98   16.40
   1   2  -4  202.98   16.30
  -2  -2   4    3.40    1.40
  -2  -2   4    2.40    1.50
  -2  -2   4    3.50    0.80
  -2  -2   4    3.20    0.80
  -2  -2   4    3.00    1.10
   2   2  -4    3.00    0.80
   2   2  -4    4.60    0.60
   2   2  -4    2.50    0.40
   2   2  -4    3.70    0.70
   2   2  -4    3.30    0.40
   2   2  -4    1.90    0.60
  -3  -2   4  105.79    8.90
  -3  -2   4  112.09    8.80
  -3  -2   4  116.99    8.30
  -3  -2   4  103.89    8.60
   3   2  -4   96.19    8.10
   3   2  -4  102.49    8.40
   3   2  -4   96.49    8.40
   3   2  -4  102.39    8.20
   3   2  -4  106.79    8.30
   3   2  -4   99.99    8.40
   3   2  -4  103.99    8.10
  -4  -2   4   31.80    3.50
  -4  -2   4   31.00    2.60
  -4  -2   4   29.20    3.10
   4   2  -4   27.10    2.30
   4   2  -4   26.10    2.80
   4   2  -4   26.80    2.70
   4   2  -4   28.60    2.40
   4   2  -4   30.30    2.30
   4   2  -4   27.40    2.60
   4   2  -4   25.20    2.60
  -5  -2   4  262.37   19.10
  -5  -2   4  261.67   19.80
   5   2  -4  237.78   19.20
   5   2  -4  248.88   19.00
   5   2  -4  231.38   19.40
   5   2  -4  238.08   19.00
   5   2  -4  238.48   19.40
   5   2  -4  232.38   19.00
  -6  -2   4  310.67   23.00
  -6  -2   4  309.37   22.10
  -6  -2   4  274.47   22.40
   6   2  -4  288.47   22.00
   6   2  -4  267.77   22.40
   6   2  -4  263.77   22.40
   6   2  -4  258.77   22.00
   6   2  -4  285.47   22.30
  -7  -2   4   10.00    1.50
  -7  -2   4    5.90    1.80
  -7  -2   4    6.60    2.20
   7   2  -4    6.40    0.90
   7   2  -4   10.70    2.60
   7   2  -4    7.60    1.60
   7   2  -4    8.80    1.00
   7   2  -4    9.50    2.00
   7   2  -4    9.80    1.60
  -8  -2   4   87.49    7.40
  -8  -2   4   86.59    7.70
  -8  -2   4   77.29    8.40
   8   2  -4  104.39    7.20
   8   2  -4   91.39    8.20
   8   2  -4   81.49    7.30
   8   2  -4   93.59    7.60
  -9  -2   4   16.60    2.50
  -9  -2   4   21.50    2.70
   9   2  -4   19.90    4.60
   9   2  -4   20.80    2.20
   8  -1   3    9.30    2.80
   8  -1   3    9.90    1.50
  -8   1  -3   12.40    1.90
   7  -1   3   24.40    2.40
   7  -1   3   23.70    2.00
   6  -1   3   59.49    5.20
   6  -1   3   73.19    6.60
   6  -1   3   68.59    5.00
   6  -1   3   55.09    5.00
   5  -1   3   27.80    2.20
   5  -1   3   30.00    3.70
   5  -1   3   25.70    2.20
   5  -1   3   26.70    2.30
   5  -1   3   24.60    4.70
  -5   1  -3   23.60    2.70
   4  -1   3  257.37   20.80
   4  -1   3  246.38   19.90
   4  -1   3  246.88   19.20
   4  -1   3  260.17   19.10
   4  -1   3  234.48   19.10
  -4   1  -3  233.78   19.50
   3  -1   3  674.93   54.29
   3  -1   3  752.42   55.69
   3  -1   3  682.93   54.29
   3  -1   3  713.63   54.29
   3  -1   3  691.83   54.89
   2  -1   3 2666.23  193.48
   2  -1   3 2298.47  193.48
   2  -1   3 2673.03  193.98
  -2   1  -3 2289.17  193.48
  -2   1  -3 2614.64  193.58
   1  -1   3 2843.92  258.97
   1  -1   3 3716.83  259.77
   1  -1   3 3782.22  259.07
   1  -1   3 3366.36  259.17
   1  -1   3 3812.02  258.77
  -1   1  -3 2910.51  258.77
  -1   1  -3 3249.18  258.77
  -1   1  -3 3167.18  258.77
   0  -1   3  895.51   71.89
   0  -1   3  928.41   71.89
   0  -1   3  923.21   72.29
   0  -1   3  994.40   71.79
   0  -1   3  846.42   71.69
   0   1  -3  978.70   71.69
  -1  -1   3   13.70    1.60
  -1  -1   3   13.80    2.10
   1   1  -3   12.10    1.20
   1   1  -3   10.00    1.00
   1   1  -3   12.90    1.30
   1   1  -3   12.40    1.20
   1   1  -3   13.90    1.30
   1   1  -3   11.20    1.00
  -2  -1   3  153.58   11.60
  -2  -1   3  155.98   11.90
  -2  -1   3  166.58   11.50
   2   1  -3  145.49   11.60
   2   1  -3  153.98   11.60
   2   1  -3  131.39   11.50
   2   1  -3  148.49   11.60
   2   1  -3  135.59   11.50
   2   1  -3  135.09   11.40
   2   1  -3  144.29   11.50
  -3  -1   3  115.99    9.40
  -3  -1   3  132.59    9.20
  -3  -1   3  135.89    9.70
   3   1  -3  114.59    9.40
   3   1  -3  115.79    9.30
   3   1  -3  102.59    9.30
   3   1  -3  117.99    9.40
   3   1  -3  127.99    9.20
   3   1  -3  105.09    9.20
   3   1  -3  111.39    9.20
  -4  -1   3  336.57   24.50
  -4  -1   3  295.87   24.50
  -4  -1   3  344.97   24.30
   4   1  -3  313.07   24.80
   4   1  -3  312.57   24.30
   4   1  -3  304.57   24.60
   4   1  -3  287.77   24.30
   4   1  -3  317.87   24.40
   4   1  -3  305.07   24.30
  -5  -1   3   52.19    4.20
  -5  -1   3   56.39    4.10
  -5  -1   3   46.20    4.30
  -5  -1   3   54.59    4.80
   5   1  -3   46.20    4.40
   5   1  -3   45.50    3.90
   5   1  -3   44.20    3.90
   5   1  -3   48.30    4.40
   5   1  -3   44.40    4.20
  -6  -1   3   17.80    1.80
  -6  -1   3   20.50    1.90
   6   1  -3   16.80    1.50
   6   1  -3   17.60    2.60
   6   1  -3   14.30    2.20
   6   1  -3   14.60    2.20
   6   1  -3   14.50    1.60
   6   1  -3   17.00    2.10
  -7  -1   3   74.69    7.00
  -7  -1   3   75.49    5.90
  -7  -1   3   77.59    6.20
   7   1  -3   75.49    5.80
   7   1  -3   61.79    6.70
   7   1  -3   73.79    6.20
   7   1  -3   65.09    6.20
   7   1  -3   62.69    6.30
  -8  -1   3   65.39    5.90
  -8  -1   3   77.09    6.20
  -8  -1   3   59.79    6.80
   8   1  -3   78.89    5.80
   8   1  -3   69.29    7.00
  -9  -1   3    2.70    2.00
  -9  -1   3    4.70    1.60
  -9  -1   3    5.10    1.70
   9   1  -3    3.00    2.10
   9   1  -3    2.00    0.70
   9   0   2   11.00    2.60
   9   0   2    9.10    1.40
  -9   0  -2   11.30    1.70
  -9   0  -2    7.40    1.40
   8   0   2   20.50    2.10
   8   0   2   22.70    3.60
   8   0   2   20.90    1.90
  -8   0  -2   22.10    2.50
   7   0   2   22.50    2.00
   7   0   2   25.50    3.60
   7   0   2   21.00    2.10
   7   0   2   26.10    2.20
  -7   0  -2   24.20    2.10
  -7   0  -2   22.20    2.60
   6   0   2   45.90    3.70
   6   0   2   52.79    3.80
   6   0   2   49.80    4.90
   6   0   2   43.90    3.70
  -6   0  -2   39.20    4.00
   5   0   2  208.28   15.90
   5   0   2  218.48   16.00
   5   0   2  185.98   16.60
   5   0   2  198.28   17.00
   5   0   2  213.78   15.90
  -5   0  -2  201.98   16.20
   4   0   2  482.65   36.90
   4   0   2  472.35   36.90
   4   0   2  431.86   37.30
   4   0   2  524.15   38.50
   4   0   2  494.35   36.90
  -4   0  -2  457.75   37.10
   3   0   2   57.49    4.50
   3   0   2   65.59    5.60
   3   0   2   50.69    4.90
   3   0   2   58.19    4.50
   3   0   2   59.19    4.50
  -3   0  -2   53.19    4.70
   2   0   2  302.37   25.70
   2   0   2  321.77   25.50
   2   0   2  314.67   25.50
   2   0   2  339.47   25.50
   2   0   2  371.76   26.30
   1   0   2  764.22   64.69
   1   0   2  887.41   64.49
  -1   0  -2  897.11   64.49
  -1   0  -2  795.82   64.49
   0   0   2 5698.93  443.26
   0   0   2 5794.72  443.76
  -1   0   2 2240.78  160.18
   1   0  -2 2007.50  160.18
   1   0  -2 2300.17  160.18
   1   0  -2 1875.31  160.08
   1   0  -2 1952.80  160.08
  -2   0   2  425.86   30.30
  -2   0   2  399.06   30.20
   2   0  -2  361.06   30.40
   2   0  -2  438.86   30.20
   2   0  -2  327.97   30.20
   2   0  -2  404.36   30.40
   2   0  -2  374.26   30.40
   2   0  -2  439.76   30.40
   2   0  -2  349.47   30.30
  -3   0   2  108.89    9.60
  -3   0   2  138.79    9.70
   3   0  -2  113.79    9.50
   3   0  -2  120.59    9.50
   3   0  -2  118.39    9.80
   3   0  -2  127.79    9.70
   3   0  -2  117.79    9.80
   3   0  -2  133.19    9.50
   3   0  -2  123.69    9.70
  -4   0   2   33.30    3.10
  -4   0   2   35.00    2.90
  -4   0   2   33.60    2.60
   4   0  -2   31.70    2.60
   4   0  -2   30.60    2.60
   4   0  -2   31.30    3.10
   4   0  -2   28.80    3.10
   4   0  -2   29.50    2.80
   4   0  -2   30.40    3.00
  -5   0   2  146.19   10.70
  -5   0   2  137.29   10.30
   5   0  -2  124.29   10.20
   5   0  -2  126.59   10.70
   5   0  -2  125.69   10.30
   5   0  -2  120.89   10.50
   5   0  -2  125.49   10.10
   5   0  -2  124.29   10.50
  -6   0   2   30.30    2.70
  -6   0   2   29.70    2.80
   6   0  -2   31.20    2.60
   6   0  -2   32.10    3.00
   6   0  -2   28.80    3.20
   6   0  -2   26.10    2.50
   6   0  -2   31.90    3.70
  -7   0   2    0.60    1.60
  -7   0   2    0.90    1.00
  -7   0   2   -0.10    1.00
   7   0  -2   -0.70    1.80
   7   0  -2    0.90    1.10
   7   0  -2    0.30    0.60
   7   0  -2    0.80    0.70
  -8   0   2   17.70    2.20
  -8   0   2   15.40    3.00
   8   0  -2   22.10    3.70
   8   0  -2   16.90    1.70
  -9   0   2    7.10    2.90
  -9   0   2    7.30    1.70
  -9   0   2    4.50    1.60
   9   0  -2    5.30    1.00
   9   0  -2    5.90    2.40
 -10  -1  -1    8.40    1.60
 -10  -1  -1    9.50    1.40
   9   1   1    4.30    1.90
   9   1   1    6.90    1.10
  -9  -1  -1    5.90    1.20
  -9  -1  -1    5.40    1.60
   8   1   1    9.60    2.50
   8   1   1    6.20    0.90
   8   1   1    7.70    0.90
   8   1   1    9.80    1.70
  -8  -1  -1    7.60    1.70
  -8  -1  -1    7.70    1.20
   7   1   1  215.18   16.80
   7   1   1  195.38   16.80
   7   1   1  201.98   17.70
   7   1   1  234.48   16.90
  -7  -1  -1  235.48   17.50
  -7  -1  -1  212.88   16.80
   6   1   1  204.18   14.50
   6   1   1  175.48   13.70
   6   1   1  177.98   13.70
   6   1   1  176.38   13.70
  -6  -1  -1  162.28   13.80
  -6  -1  -1  160.58   13.70
   5   1   1  292.57   23.70
   5   1   1  310.17   23.20
   5   1   1  331.27   23.20
   5   1   1  260.47   23.60
   5   1   1  322.17   23.20
  -5  -1  -1  276.67   23.40
  -5  -1  -1  261.87   23.20
  -5  -1  -1  341.07   23.30
   4   1   1  437.26   34.10
   4   1   1  411.16   33.60
   4   1   1  462.35   33.60
   4   1   1  453.25   33.60
   4   1   1  411.66   33.90
  -4  -1  -1  491.05   33.70
  -4  -1  -1  372.86   33.60
   3   1   1 1153.48   82.19
   3   1   1  980.60   81.69
   3   1   1  987.70   81.89
   3   1   1  991.80   81.69
  -3  -1  -1 1043.70   81.79
  -3  -1  -1 1193.98   81.79
   1   1   1  321.87   24.90
  -1   1   1    5.50    1.00
  -1   1   1    6.80    0.90
  -1   1   1    6.70    0.60
  -1   1   1    6.70    0.90
   1  -1  -1    6.60    0.90
   1  -1  -1    4.10    0.60
   1  -1  -1    5.10    0.90
   1  -1  -1    7.00    0.90
   1  -1  -1    4.20    0.70
   1  -1  -1    4.60    0.80
  -2   1   1  280.47   19.10
  -2   1   1  279.07   19.30
   2  -1  -1  234.28   19.20
   2  -1  -1  244.38   19.30
   2  -1  -1  218.08   19.20
   2  -1  -1  231.38   19.30
   2  -1  -1  241.88   19.10
   2  -1  -1  243.88   19.30
   2  -1  -1  267.67   19.10
   2  -1  -1  229.68   19.30
  -3   1   1  100.29    7.30
  -3   1   1  101.89    7.20
  -3   1   1   95.19    7.00
  -3   1   1   95.89    7.30
   3  -1  -1   82.69    7.30
   3  -1  -1   85.49    7.30
   3  -1  -1   86.39    7.00
   3  -1  -1   80.69    7.40
   3  -1  -1   80.09    7.20
   3  -1  -1   84.29    7.00
   3  -1  -1   94.49    7.00
  -4   1   1  248.48   19.50
  -4   1   1  262.57   19.20
  -4   1   1  255.37   19.50
   4  -1  -1  238.28   19.60
   4  -1  -1  229.98   19.70
   4  -1  -1  258.67   19.20
   4  -1  -1  245.68   19.20
   4  -1  -1  236.68   19.40
   4  -1  -1  250.77   19.20
  -5   1   1    8.00    1.30
  -5   1   1    7.90    1.20
  -5   1   1    8.80    1.80
   5  -1  -1    8.80    1.00
   5  -1  -1    8.70    0.90
   5  -1  -1    7.60    1.80
   5  -1  -1    6.40    1.50
  -6   1   1   57.79    5.90
  -6   1   1   61.49    5.30
  -6   1   1   55.19    5.00
   6  -1  -1   56.59    4.90
   6  -1  -1   64.09    6.20
   6  -1  -1   67.89    4.90
  -7   1   1    2.00    1.40
  -7   1   1    3.60    1.40
  -7   1   1    2.90    1.20
  -7   1   1    1.60    1.20
   7  -1  -1    2.50    2.30
   7  -1  -1    1.90    0.70
   7  -1  -1    1.70    0.60
  -8   1   1   11.20    1.90
  -8   1   1   13.00    2.20
   8  -1  -1   12.30    2.90
   8  -1  -1   12.30    1.60
   8  -1  -1   10.40    1.30
  -9   1   1   17.50    2.40
   9  -1  -1   26.60    3.80
   9  -1  -1   16.50    2.40
  10   2   0   23.30    2.10
 -10  -2   0   21.00    2.60
 -10  -2   0   19.60    2.20
   9   2   0   54.89    6.40
   9   2   0   74.89    5.50
  -9  -2   0   64.99    5.50
  -9  -2   0   68.29    6.40
   8   2   0   66.29    5.10
   8   2   0   63.29    5.20
   8   2   0   54.79    5.10
   8   2   0   57.99    6.00
  -8  -2   0   69.99    6.20
  -8  -2   0   67.89    5.20
   7   2   0  141.69   11.00
   7   2   0  149.29   11.00
   7   2   0  136.49   11.70
   7   2   0  130.09   11.00
  -7  -2   0  136.39   11.40
  -7  -2   0  145.39   11.10
   6   2   0  102.09    8.20
   6   2   0   95.99    8.70
   6   2   0  110.99    8.20
   6   2   0  110.39    8.30
   6   2   0  101.49    8.40
  -6  -2   0  102.09    8.20
   5   2   0   66.89    5.10
   5   2   0   63.99    5.30
   5   2   0   68.59    5.10
   5   2   0   63.29    5.10
   5   2   0   62.99    5.10
   5   2   0   65.49    5.70
  -5  -2   0   59.09    5.30
  -5  -2   0   60.09    5.20
  -5  -2   0   70.49    5.10
   4   2   0 1271.97   93.09
   4   2   0 1273.77   93.09
   4   2   0 1202.28   93.29
   4   2   0 1269.67   93.09
  -4  -2   0 1136.69   93.19
  -4  -2   0 1167.28   93.19
  -4  -2   0 1115.69   93.09
   3   2   0  524.75   37.90
   3   2   0  470.25   37.90
   3   2   0  479.05   37.90
   3   2   0  557.24   37.90
   3   2   0  469.35   37.90
   3   2   0  451.15   37.90
   3   2   0  511.45   37.90
   3   2   0  484.95   37.90
   3   2   0  561.74   37.90
  -3  -2   0  465.25   38.00
  -3  -2   0  417.16   37.90
   1   2   0   35.80    2.40
   1   2   0   31.10    2.50
   1   2   0   28.00    2.40
  -1  -2   0   31.10    2.40
  -1  -2   0   26.10    2.60
   0   2   0 1472.95  115.39
   0   2   0 1410.46  115.39
   0  -2   0 1574.64  115.59
   0  -2   0 1525.75  115.59
  -1   2   0  480.45   35.00
  -1   2   0  444.96   35.20
  -1   2   0  450.95   35.00
   1  -2   0  486.65   35.20
   1  -2   0  424.26   35.20
   1  -2   0  498.75   35.00
   1  -2   0  412.96   35.20
   1  -2   0  390.36   35.00
   1  -2   0  516.35   35.00
   1  -2   0  421.96   35.20
  -2   2   0  238.48   16.30
  -2   2   0  230.98   16.30
  -2   2   0  196.78   16.50
   2  -2   0  213.18   16.30
   2  -2   0  184.68   16.50
   2  -2   0  194.98   16.70
   2  -2   0  227.38   17.00
   2  -2   0  213.58   16.40
   2  -2   0  189.78   16.60
   2  -2   0  206.98   16.30
  -3   2   0   46.50    4.40
  -3   2   0   47.70    4.60
  -3   2   0   52.59    4.50
   3  -2   0   58.99    5.30
   3  -2   0   50.79    4.90
   3  -2   0   51.49    4.10
   3  -2   0   59.09    4.20
   3  -2   0   51.99    4.70
   3  -2   0   56.99    4.20
   3  -2   0   53.29    4.50
  -4   2   0   30.20    2.80
  -4   2   0   30.40    2.50
  -4   2   0   23.70    2.70
  -4   2   0   26.10    2.80
   4  -2   0   26.20    3.30
   4  -2   0   32.80    2.40
   4  -2   0   22.00    4.40
   4  -2   0   30.50    2.40
  -5   2   0    8.70    1.90
  -5   2   0    4.50    1.30
   5  -2   0    4.00    0.80
   5  -2   0    4.90    1.60
   5  -2   0    5.40    0.70
   5  -2   0    6.80    2.00
  -6   2   0   11.20    2.00
  -6   2   0    9.30    1.60
   6  -2   0    7.90    2.30
   6  -2   0    7.20    1.00
   6  -2   0    9.90    1.30
  -7   2   0   44.80    4.90
   7  -2   0   44.50    4.20
   7  -2   0   49.00    4.00
   7  -2   0   63.39    6.60
  -8   2   0    0.20    1.30
  -8   2   0    2.80    1.50
   8  -2   0   -0.60    2.00
   8  -2   0    0.80    1.00
  10   3  -1   23.60    2.50
 -10  -3   1   24.30    3.40
   9   3  -1   20.10    2.00
  -9  -3   1   21.70    2.20
  -9  -3   1   21.10    3.50
   8   3  -1    2.40    1.40
   8   3  -1    0.60    0.50
   8   3  -1    1.40    0.50
   8   3  -1    1.50    1.00
   8   3  -1    1.90    0.70
  -8  -3   1    2.40    1.20
  -8  -3   1    1.50    1.60
  -8  -3   1    2.10    1.10
   7   3  -1   96.69    7.90
   7   3  -1   98.29    8.10
   7   3  -1  104.99    7.80
   7   3  -1   88.69    7.80
  -7  -3   1  113.39    8.00
  -7  -3   1   93.99    8.30
   6   3  -1  460.25   35.10
   6   3  -1  458.85   34.60
   6   3  -1  452.55   34.80
   6   3  -1  476.65   34.60
   6   3  -1  444.86   34.70
   6   3  -1  402.26   34.80
   6   3  -1  452.25   34.70
  -6  -3   1  437.96   34.90
  -6  -3   1  478.75   34.70
  -6  -3   1  403.46   34.70
   5   3  -1   31.70    2.70
   5   3  -1   33.20    2.60
   5   3  -1   32.00    2.80
   5   3  -1   35.60    2.60
   5   3  -1   32.10    2.70
   5   3  -1   34.70    2.90
  -5  -3   1   31.50    3.00
  -5  -3   1   32.50    2.80
  -5  -3   1   28.30    2.90
   4   3  -1  740.23   58.39
   4   3  -1  741.63   58.29
   4   3  -1  727.03   58.29
   4   3  -1  813.92   58.29
   4   3  -1  800.52   58.29
   4   3  -1  828.82   58.49
   4   3  -1  695.43   58.39
   4   3  -1  787.42   58.39
   4   3  -1  724.03   58.39
  -4  -3   1  741.03   58.39
  -4  -3   1  730.73   58.49
  -4  -3   1  726.33   58.59
   3   3  -1  203.58   15.50
   3   3  -1  200.18   15.60
   3   3  -1  215.28   15.50
   3   3  -1  202.08   15.60
   3   3  -1  201.28   15.60
   3   3  -1  178.98   15.60
   3   3  -1  199.28   15.50
   3   3  -1  201.28   15.50
   3   3  -1  190.18   15.50
  -3  -3   1  204.48   15.80
  -3  -3   1  200.38   15.70
   2   3  -1   47.90    3.80
   2   3  -1   53.09    3.70
   2   3  -1   47.80    3.70
   2   3  -1   48.80    3.90
   2   3  -1   49.30    3.80
   2   3  -1   43.50    3.80
   2   3  -1   47.30    3.80
  -2  -3   1   46.20    3.70
  -2  -3   1   48.30    4.00
  -2  -3   1   50.39    4.20
  -2  -3   1   42.90    4.00
  -2  -3   1   47.30    3.80
   1   3  -1  172.68   13.90
   1   3  -1  162.58   13.80
   1   3  -1  184.48   13.90
   1   3  -1  175.28   13.90
  -1  -3   1  167.98   13.90
  -1  -3   1  186.98   14.00
  -1  -3   1  162.48   14.10
  -1  -3   1  191.08   14.20
  -1  -3   1  207.68   14.30
   0   3  -1    1.20    0.50
   0   3  -1    1.40    0.50
   0   3  -1    2.20    0.40
   0  -3   1    3.60    0.80
   0  -3   1    2.00    1.00
   0  -3   1    1.80    0.90
   0  -3   1    1.70    1.50
   0  -3   1    1.10    0.50
  -1   3  -1  285.47   24.50
   1  -3   1  323.77   25.00
   1  -3   1  295.87   24.40
   1  -3   1  299.67   24.80
   1  -3   1  334.57   24.90
   1  -3   1  363.86   25.60
  -2   3  -1   76.29    6.70
  -2   3  -1   85.89    6.60
  -2   3  -1   80.99    7.00
   2  -3   1   84.89    6.50
   2  -3   1   93.49    8.00
   2  -3   1   83.29    7.00
   2  -3   1   83.79    7.30
  -3   3  -1    4.40    1.60
  -3   3  -1    4.50    1.10
  -3   3  -1    7.80    1.60
  -3   3  -1    3.60    0.90
   3  -3   1    3.10    1.60
   3  -3   1    3.90    2.20
   3  -3   1    2.90    0.90
   3  -3   1    4.60    0.50
  -4   3  -1   23.60    2.30
  -4   3  -1   23.00    2.10
  -4   3  -1   22.10    2.70
   4  -3   1   21.50    1.80
   4  -3   1   16.40    2.00
   4  -3   1   18.90    3.80
   4  -3   1   16.90    3.30
  -5   3  -1  112.29    9.80
  -5   3  -1  138.49   10.30
  -5   3  -1  136.39   10.40
  -5   3  -1  112.19    9.90
   5  -3   1  132.09    9.70
   5  -3   1  112.19   11.40
  -6   3  -1   73.59    6.90
  -6   3  -1   87.69    7.00
  -6   3  -1   83.99    6.80
   6  -3   1   89.19    6.60
  -7   3  -1   18.40    1.80
  -7   3  -1   13.90    1.90
  -7   3  -1   13.10    2.10
   7  -3   1   11.60    2.00
  -8   3  -1    4.80    1.20
   8  -3   1    5.10    2.40
   8  -3   1    4.80    1.50
  10   4  -2    8.70    1.30
 -10  -4   2   12.60    1.70
 -10  -4   2   14.50    3.00
   9   4  -2   21.20    2.20
  -9  -4   2   27.70    2.60
  -9  -4   2   24.30    3.90
  -9  -4   2   25.10    3.00
   8   4  -2   46.60    5.00
   8   4  -2   53.69    4.40
   8   4  -2   42.50    3.90
   8   4  -2   51.09    4.30
  -8  -4   2   48.40    4.80
   7   4  -2   18.30    1.70
   7   4  -2   15.60    2.20
   7   4  -2   18.40    2.10
   7   4  -2   15.40    1.60
   7   4  -2   16.40    1.80
  -7  -4   2   23.20    2.90
  -7  -4   2   21.90    3.20
   6   4  -2  181.88   14.60
   6   4  -2  187.68   14.00
   6   4  -2  173.28   14.00
   6   4  -2  167.18   14.20
   6   4  -2  170.58   14.10
   6   4  -2  168.58   14.10
  -6  -4   2  164.08   14.40
  -6  -4   2  200.08   14.20
  -6  -4   2  206.48   14.60
   5   4  -2   33.20    3.20
   5   4  -2   30.40    3.10
   5   4  -2   38.90    2.90
   5   4  -2   38.90    2.90
   5   4  -2   36.00    3.00
   5   4  -2   35.80    3.10
   5   4  -2   32.30    3.20
  -5  -4   2   31.90    3.40
  -5  -4   2   41.10    3.20
   4   4  -2   96.49    7.90
   4   4  -2   99.09    8.00
   4   4  -2   94.99    7.90
   4   4  -2  101.49    7.90
   4   4  -2  107.79    7.80
   4   4  -2  100.59    8.10
   4   4  -2   99.39    8.00
  -4  -4   2  104.49    8.00
  -4  -4   2   97.09    8.40
  -4  -4   2   96.39    8.30
  -4  -4   2  109.39    8.70
   3   4  -2  136.79   11.90
   3   4  -2  148.89   12.00
   3   4  -2  147.99   12.00
   3   4  -2  151.08   11.90
   3   4  -2  145.79   11.90
   3   4  -2  147.29   12.00
   3   4  -2  161.68   11.80
  -3  -4   2  161.48   11.90
  -3  -4   2  143.39   12.30
  -3  -4   2  172.28   12.80
  -3  -4   2  161.38   12.20
   2   4  -2  294.37   24.00
   2   4  -2  297.97   23.90
   2   4  -2  284.57   24.00
   2   4  -2  279.17   24.00
   2   4  -2  321.17   24.00
  -2  -4   2  328.17   24.20
  -2  -4   2  345.77   25.00
  -2  -4   2  322.87   24.00
   1   4  -2   97.69    7.70
   1   4  -2   81.99    7.60
   1   4  -2   88.39    7.70
   1   4  -2   93.79    7.70
  -1  -4   2  105.79    8.30
  -1  -4   2  110.99    8.40
  -1  -4   2  110.69    9.00
  -1  -4   2  106.49    8.00
  -1  -4   2   94.09    7.70
  -1   4  -2    3.50    0.70
  -1   4  -2    6.00    0.70
  -1   4  -2    5.90    0.90
  -1   4  -2    4.80    0.80
   1  -4   2    4.00    1.00
   1  -4   2    2.80    1.70
   1  -4   2    4.20    1.80
   1  -4   2    5.20    2.40
  -2   4  -2   10.60    2.30
  -2   4  -2    9.90    1.40
  -2   4  -2   10.50    1.20
  -2   4  -2    9.20    1.10
   2  -4   2   11.60    3.30
   2  -4   2    8.20    2.60
  -3   4  -2   68.99    5.90
  -3   4  -2   71.29    6.50
  -3   4  -2   77.59    6.00
   3  -4   2   77.59    8.30
   3  -4   2   75.09    7.30
  -4   4  -2   16.80    2.30
  -4   4  -2   22.30    1.90
  -4   4  -2   18.50    2.50
  -4   4  -2   16.50    1.90
   4  -4   2   16.40    3.50
   4  -4   2   16.90    4.20
  -5   4  -2  115.49    9.60
  -5   4  -2  107.29    9.40
  -5   4  -2  131.99    9.50
   5  -4   2  126.19   12.40
  -6   4  -2    1.60    0.90
  -6   4  -2    4.20    1.00
   6  -4   2   -1.50    2.60
   6  -4   2    3.80    2.90
   6  -4   2    0.60    1.60
  -7   4  -2    0.60    0.70
   7  -4   2    0.10    2.60
   9   5  -3   -0.10    2.20
   9   5  -3    1.90    0.60
  -9  -5   3    4.00    2.20
  -9  -5   3    3.70    1.10
  -9  -5   3    1.40    1.50
   8   5  -3    1.20    0.60
   8   5  -3    1.00    1.00
   8   5  -3    1.00    0.70
   8   5  -3    1.90    0.50
  -8  -5   3    0.90    1.70
  -8  -5   3    3.40    1.20
  -8  -5   3    0.50    1.70
  -8  -5   3    1.20    2.80
   7   5  -3   78.59    6.90
   7   5  -3   90.29    7.10
   7   5  -3   90.59    7.40
   7   5  -3   91.19    7.10
   7   5  -3   74.59    7.50
  -7  -5   3  101.59    8.40
  -7  -5   3   91.89    7.90
   6   5  -3   14.10    2.00
   6   5  -3   16.40    1.50
   6   5  -3   19.00    2.00
   6   5  -3   19.10    1.80
   6   5  -3   19.20    1.70
  -6  -5   3   12.10    2.70
   5   5  -3  207.48   19.20
   5   5  -3  219.48   19.20
   5   5  -3  238.38   18.90
   5   5  -3  256.17   19.10
   5   5  -3  238.38   19.20
   5   5  -3  241.08   19.00
  -5  -5   3  253.67   19.60
  -5  -5   3  244.28   20.10
  -5  -5   3  258.67   19.70
  -5  -5   3  283.57   19.10
   4   5  -3  226.68   17.70
   4   5  -3  218.38   17.90
   4   5  -3  216.18   17.60
   4   5  -3  201.08   17.80
   4   5  -3  227.08   17.80
   4   5  -3  228.78   17.70
  -4  -5   3  249.08   17.70
  -4  -5   3  246.08   18.40
  -4  -5   3  218.28   18.80
  -4  -5   3  232.88   18.20
   3   5  -3   49.20    4.40
   3   5  -3   45.80    4.10
   3   5  -3   50.59    4.10
   3   5  -3   51.29    4.20
   3   5  -3   48.20    4.30
   3   5  -3   51.39    4.30
  -3  -5   3   50.79    5.70
  -3  -5   3   51.79    5.10
  -3  -5   3   54.79    4.80
  -3  -5   3   53.39    4.90
   2   5  -3   78.69    6.20
   2   5  -3   70.79    6.00
   2   5  -3   76.29    6.10
   2   5  -3   75.09    6.80
  -2  -5   3   82.79    6.70
  -2  -5   3   77.99    7.70
  -2  -5   3   63.49    6.60
  -2  -5   3   92.29    7.20
   1   5  -3    9.70    1.10
   1   5  -3   12.00    1.50
   1   5  -3   10.60    1.20
  -1  -5   3   14.40    2.30
  -1  -5   3   11.00    2.90
  -1  -5   3   14.30    2.80
  -1  -5   3   15.30    2.80
   0   5  -3   21.10    2.00
   0   5  -3   15.80    1.60
   0   5  -3   21.80    1.80
   0   5  -3   19.70    1.80
  -1   5  -3    0.10    0.60
  -1   5  -3   -0.20    0.60
  -1   5  -3   -0.50    1.60
  -1   5  -3    0.60    0.80
  -1   5  -3    0.70    0.50
   1  -5   3    0.10    2.00
   1  -5   3   -1.10    2.10
  -2   5  -3   44.20    3.50
  -2   5  -3   47.80    3.60
  -2   5  -3   37.00    3.40
   2  -5   3   36.40    6.20
   2  -5   3   42.80    5.30
  -3   5  -3   21.20    2.10
  -3   5  -3   26.60    2.30
  -3   5  -3   26.60    2.40
  -3   5  -3   26.10    2.40
   3  -5   3   22.50    4.40
   3  -5   3   19.00    4.80
  -4   5  -3   19.80    1.90
  -4   5  -3   18.40    2.00
  -4   5  -3   18.90    2.10
   4  -5   3   15.60    3.80
  -5   5  -3   18.60    1.80
  -5   5  -3   18.80    1.90
  -5   5  -3   16.80    1.90
   5  -5   3    9.40    3.80
  -6   5  -3    0.70    0.70
  -6   5  -3    0.70    0.70
   6  -5   3   -2.70    2.10
   9   6  -4    3.30    1.20
   9   6  -4    5.10    0.70
  -9  -6   4    4.20    1.40
  -9  -6   4    3.10    1.80
  -9  -6   4    7.60    1.40
  -9  -6   4    2.70    1.90
   8   6  -4    5.80    0.80
   8   6  -4    5.40    1.30
   8   6  -4    5.00    1.00
  -8  -6   4    3.10    1.20
  -8  -6   4    3.40    2.30
  -8  -6   4    5.50    2.00
   7   6  -4   59.09    4.90
   7   6  -4   66.69    5.00
   7   6  -4   60.09    5.30
  -7  -6   4   67.79    6.10
  -7  -6   4   54.39    6.30
  -7  -6   4   55.99    5.10
   6   6  -4  104.59    7.80
   6   6  -4  106.79    7.50
   6   6  -4   78.89    7.70
  -6  -6   4   99.99    8.40
  -6  -6   4   76.59    7.50
   5   6  -4  123.99   10.90
   5   6  -4  126.99   10.90
   5   6  -4  125.49   10.90
   5   6  -4  158.08   10.70
   5   6  -4  145.79   10.60
   5   6  -4  149.49   10.90
  -5  -6   4  121.59   11.50
  -5  -6   4  122.29   12.60
   4   6  -4   21.70    2.50
   4   6  -4   24.40    2.10
   4   6  -4   24.80    2.50
   4   6  -4   24.90    2.30
   4   6  -4   23.10    2.50
   4   6  -4   27.70    2.20
  -4  -6   4   17.30    3.10
  -4  -6   4   33.80    3.70
  -4  -6   4   17.00    3.90
   3   6  -4    0.70    0.80
   3   6  -4    0.90    0.60
   3   6  -4    0.40    0.70
   3   6  -4    0.50    0.80
   3   6  -4    1.80    1.10
  -3  -6   4    1.40    1.60
  -3  -6   4    0.10    1.80
  -3  -6   4   -0.70    1.90
   2   6  -4   25.60    2.40
   2   6  -4   30.00    2.70
   2   6  -4   28.60    2.70
   2   6  -4   26.50    2.80
  -2  -6   4   23.90    3.50
  -2  -6   4   21.90    4.50
   1   6  -4   28.60    2.70
   1   6  -4   28.70    2.70
   1   6  -4   27.70    2.40
  -1  -6   4   23.20    3.40
  -1  -6   4   27.30    4.20
  -1  -6   4   20.00    4.60
   0   6  -4    1.50    1.00
   0   6  -4    1.90    0.70
   0   6  -4    1.90    1.90
   0   6  -4    1.80    0.70
   0   6  -4    1.40    0.90
   0  -6   4    0.90    2.40
   0  -6   4    4.60    1.60
   0  -6   4    1.10    2.50
  -1   6  -4    3.00    0.80
  -1   6  -4    3.10    1.20
  -1   6  -4    3.70    0.70
   1  -6   4    1.80    2.70
   1  -6   4    2.20    2.90
  -2   6  -4    0.70    0.60
  -2   6  -4    1.90    1.10
  -2   6  -4    0.80    0.70
   2  -6   4   -0.50    2.50
   2  -6   4   -2.00    2.60
  -3   6  -4   10.80    1.30
  -3   6  -4   12.30    1.70
   3  -6   4   12.50    3.60
   3  -6   4    6.40    3.70
  -4   6  -4   94.49    7.20
  -4   6  -4   78.79    6.90
   7   7  -5   29.00    2.60
   7   7  -5   22.10    2.40
  -7  -7   5   28.30    4.20
   6   7  -5   15.40    1.50
   6   7  -5   13.10    1.80
   6   7  -5   10.60    1.40
  -6  -7   5   16.50    2.90
   5   7  -5   11.30    2.00
   5   7  -5   16.90    2.00
   5   7  -5   17.70    1.70
   5   7  -5   12.50    2.00
   5   7  -5   18.20    1.50
  -5  -7   5   15.90    3.00
   4   7  -5   28.50    2.80
   4   7  -5   28.00    2.40
   4   7  -5   22.00    2.90
   4   7  -5   31.70    2.60
   4   7  -5   33.90    2.90
   4   7  -5   23.80    2.80
  -4  -7   5   23.40    3.80
   3   7  -5   72.29    6.10
   3   7  -5   62.39    6.90
   3   7  -5   68.19    5.60
   3   7  -5   77.29    5.80
   3   7  -5   74.09    6.00
  -3  -7   5   62.29    6.70
   2   7  -5   26.70    3.50
   2   7  -5   33.00    2.90
   2   7  -5   36.40    3.20
   2   7  -5   34.50    3.30
   1   7  -5   36.20    3.30
   1   7  -5   31.90    3.40
   1   7  -5   32.80    3.30
   1   7  -5   30.50    2.80
   0   7  -5    3.40    0.70
   0   7  -5    5.40    1.30
   0   7  -5    3.00    1.20
   0   7  -5    2.70    1.40
   0  -7   5    0.90    2.60
  -1   7  -5    8.90    1.30
  -1   7  -5    8.50    1.80
  -1   7  -5    8.00    1.70
  -1   7  -5    8.40    1.60
   1  -7   5    6.10    3.00
  -2   7  -5   17.40    1.80
  -2   7  -5   21.00    2.30
  -2   7  -5   18.80    2.50
  -2   7  -5   21.80    2.30
   2  -7   5   16.00    3.50
   4   8  -6    7.20    1.00
   4   8  -6    8.90    2.20
  -4  -8   6    5.80    2.10
   3   8  -6   24.20    2.00
   3   8  -6   17.20    2.30
   3   8  -6   20.60    2.40
   3   8  -6   22.30    2.30
   2   8  -6    6.40    1.40
  -2  -8   6    0.20    2.10
   1  -5   8    0.90    1.90
  -1   5  -8    1.20    0.90
  -1   5  -8    2.10    1.30
  -1   5  -8    2.00    1.00
   0  -5   8    0.30    2.00
   0   5  -8   -0.40    1.20
   0   5  -8    0.50    1.00
   0   5  -8    0.90    0.90
   1   5  -8   12.50    2.00
   1   5  -8   16.30    2.20
   1   5  -8   14.20    2.50
   1   5  -8   11.60    1.80
  -2  -5   8    6.40    2.40
  -2  -5   8    3.40    2.40
   2   5  -8    7.90    1.60
   2   5  -8    5.30    1.50
   2   5  -8    5.70    1.40
   2   5  -8    6.80    1.50
  -3  -5   8    3.90    2.10
  -3  -5   8    4.00    3.40
   3   5  -8    5.90    1.40
   3   5  -8    7.60    1.80
   3   5  -8    7.50    1.30
   3   5  -8    7.70    1.40
  -4  -5   8    3.60    2.10
   4   5  -8    6.10    0.80
   4   5  -8    8.00    1.60
   4   5  -8    6.10    1.70
   4   5  -8    7.40    1.80
   4   5  -8    8.00    1.50
  -5  -5   8    3.10    2.50
  -5  -5   8    6.50    2.20
   5   5  -8   12.70    1.70
   5   5  -8    6.80    1.80
   5   5  -8    9.30    1.60
   4  -4   7    0.60    2.50
   4  -4   7   -0.70    2.00
  -4   4  -7    3.40    1.00
   3  -4   7   11.50    3.30
   3  -4   7    6.60    3.60
  -3   4  -7   12.20    2.00
  -3   4  -7   10.80    1.60
  -3   4  -7    9.90    1.50
   2  -4   7    1.60    2.70
   2  -4   7   -1.10    2.50
  -2   4  -7    1.10    1.00
  -2   4  -7    2.30    1.30
  -2   4  -7    2.10    1.00
   1  -4   7    2.60    3.00
  -1   4  -7    9.30    2.00
  -1   4  -7    8.80    1.50
  -1   4  -7    7.40    1.50
   0  -4   7    0.80    3.30
   0   4  -7    3.60    0.60
   0   4  -7    3.80    1.50
   0   4  -7    4.50    1.60
  -1  -4   7    3.30    2.60
  -1  -4   7    3.90    2.20
   1   4  -7    4.10    1.20
   1   4  -7    5.40    1.30
   1   4  -7    4.10    1.40
   1   4  -7    4.90    0.70
  -2  -4   7   15.70    3.90
  -2  -4   7   17.60    3.20
   2   4  -7   22.50    2.00
   2   4  -7   23.00    2.70
   2   4  -7   24.40    2.40
   2   4  -7   21.40    2.50
   2   4  -7   24.00    2.80
  -3  -4   7   53.19    6.40
   3   4  -7   45.00    4.30
   3   4  -7   43.00    4.40
   3   4  -7   50.49    4.30
   3   4  -7   47.80    3.80
   3   4  -7   41.70    4.40
  -4  -4   7   58.09    6.10
   4   4  -7   58.89    5.60
   4   4  -7   60.99    5.30
   4   4  -7   62.79    5.60
  -5  -4   7   32.20    4.30
   5   4  -7   36.40    4.30
   5   4  -7   23.80    3.80
   5   4  -7   35.70    3.30
   5   4  -7   34.60    2.80
   5   4  -7   28.90    3.40
  -6  -4   7   25.50    3.60
  -6  -4   7   14.70    3.40
   6   4  -7   17.40    2.60
   6   4  -7   21.20    2.50
  -7  -4   7   38.10    6.60
   7   4  -7   47.90    4.30
   6  -3   6   28.10    4.20
   5  -3   6    2.10    2.30
   5  -3   6    2.20    2.70
  -5   3  -6    0.70    0.90
  -5   3  -6    1.70    0.60
  -5   3  -6    3.00    1.10
   4  -3   6   12.00    4.20
   4  -3   6   14.50    3.40
  -4   3  -6   15.20    2.20
  -4   3  -6   17.20    1.70
  -4   3  -6   17.80    1.90
   3  -3   6   11.10    3.00
   3  -3   6   12.80    4.00
  -3   3  -6   13.10    1.70
  -3   3  -6   13.90    1.60
   2  -3   6   13.00    3.80
   2  -3   6   13.70    3.30
  -2   3  -6   15.20    1.80
  -2   3  -6   15.30    1.70
  -2   3  -6   17.90    2.20
  -2   3  -6   13.40    1.30
   1  -3   6    6.60    3.00
   1  -3   6    7.70    2.60
  -1   3  -6   11.10    1.70
  -1   3  -6   11.10    1.40
  -1   3  -6    9.20    1.00
  -1   3  -6    8.50    1.40
   0  -3   6   12.60    2.30
   0  -3   6   10.40    3.10
   0   3  -6    9.80    1.50
   0   3  -6    7.70    1.00
   0   3  -6   10.50    1.50
   0   3  -6   11.40    1.90
  -1  -3   6   51.89    6.30
  -1  -3   6   50.39    5.20
   1   3  -6   51.39    4.50
   1   3  -6   51.89    4.60
   1   3  -6   57.89    4.80
   1   3  -6   50.19    4.20
  -2  -3   6  134.19   12.20
  -2  -3   6  133.49   13.00
  -2  -3   6  165.68   11.50
   2   3  -6  144.79   11.80
   2   3  -6  149.79   11.70
   2   3  -6  146.99   12.00
  -3  -3   6  134.69   11.80
  -3  -3   6  126.79   12.40
   3   3  -6  137.29   11.10
   3   3  -6  146.39   11.60
   3   3  -6  144.19   11.10
   3   3  -6  140.49   11.50
   3   3  -6  151.48   11.70
   3   3  -6  152.98   11.40
  -4  -3   6  160.18   13.90
   4   3  -6  180.08   13.50
   4   3  -6  154.18   13.50
   4   3  -6  181.38   13.30
   4   3  -6  166.58   13.20
   4   3  -6  174.78   13.80
   4   3  -6  165.68   13.70
  -5  -3   6   14.50    2.40
  -5  -3   6   15.20    3.60
  -5  -3   6   21.50    3.20
   5   3  -6   17.30    2.20
   5   3  -6   18.40    2.50
   5   3  -6   22.60    1.90
   5   3  -6   24.40    2.30
   5   3  -6   19.40    2.50
   5   3  -6   16.60    1.60
  -7  -3   6   61.89    5.70
   7   3  -6   47.70    5.20
   7   3  -6   63.09    5.20
  -8  -3   6    6.80    2.40
  -8  -3   6   10.60    1.80
  -8  -3   6    5.60    2.60
  -8  -3   6    9.80    2.10
   8   3  -6   12.90    1.90
   7  -2   5    7.70    3.00
   7  -2   5    3.40    2.60
   6  -2   5    8.10    2.80
   6  -2   5    4.10    2.70
   5  -2   5   53.39    7.70
   5  -2   5   73.69    7.00
  -5   2  -5   68.39    5.30
   4  -2   5   21.80    4.80
   4  -2   5   26.50    4.00
  -4   2  -5   27.40    2.30
  -4   2  -5   26.90    2.30
   3  -2   5   17.10    1.60
   3  -2   5   21.70    3.40
   3  -2   5   19.10    4.30
  -3   2  -5   17.70    1.60
  -3   2  -5   20.50    1.80
   2  -2   5   24.60    3.50
   2  -2   5   22.90    1.90
   2  -2   5   22.70    4.20
  -2   2  -5   23.80    2.00
  -2   2  -5   25.40    2.10
   1  -2   5  359.46   28.70
   1  -2   5  343.97   27.80
   1  -2   5  326.37   27.00
   1  -2   5  364.46   27.40
  -1   2  -5  365.56   27.20
  -1   2  -5  333.17   27.00
  -1   2  -5  351.36   27.10
   0  -2   5    1.40    1.70
   0  -2   5    1.70    1.00
   0  -2   5    0.30    1.30
   0  -2   5    2.20    1.70
   0  -2   5    0.80    1.30
   0   2  -5    0.20    0.60
   0   2  -5    1.20    0.60
   0   2  -5    1.40    0.90
   0   2  -5    1.30    0.30
  -1  -2   5   88.09    7.50
  -1  -2   5   99.69    8.50
   1   2  -5   82.09    6.90
   1   2  -5   83.49    6.90
   1   2  -5   89.99    7.20
   1   2  -5   91.39    7.10
  -2  -2   5  127.39   10.00
  -2  -2   5  108.39    9.20
  -2  -2   5   91.99    9.50
   2   2  -5  114.39    9.10
   2   2  -5  112.49    9.00
   2   2  -5  111.39    8.70
   2   2  -5  109.39    8.70
   2   2  -5  117.99    8.90
  -3  -2   5   54.69    5.00
  -3  -2   5   69.09    5.00
  -3  -2   5   65.89    5.40
  -3  -2   5   53.39    5.80
  -3  -2   5   63.19    5.80
   3   2  -5   60.39    5.20
   3   2  -5   54.79    4.70
   3   2  -5   59.69    5.10
   3   2  -5   59.79    5.00
   3   2  -5   60.79    5.20
   3   2  -5   62.69    4.80
   3   2  -5   61.79    4.80
  -4  -2   5   61.69    5.40
  -4  -2   5   66.59    5.50
  -4  -2   5   55.69    6.20
  -4  -2   5   69.39    5.90
   4   2  -5   65.09    5.20
   4   2  -5   61.29    5.50
   4   2  -5   67.89    5.80
   4   2  -5   74.79    5.40
   4   2  -5   71.89    5.80
   4   2  -5   62.59    5.20
   4   2  -5   69.79    5.50
  -5  -2   5   59.79    4.90
  -5  -2   5   47.20    5.60
  -5  -2   5   49.60    4.70
  -5  -2   5   58.39    5.30
   5   2  -5   57.29    5.10
   5   2  -5   53.49    5.00
   5   2  -5   56.19    4.40
   5   2  -5   59.49    4.90
   5   2  -5   54.19    4.50
   5   2  -5   60.79    4.60
  -6  -2   5   26.60    2.90
  -6  -2   5   31.40    4.20
   6   2  -5   26.90    2.50
   6   2  -5   31.10    3.30
   6   2  -5   26.00    3.20
   6   2  -5   33.60    3.10
   6   2  -5   31.20    2.50
  -7  -2   5   18.70    3.00
  -7  -2   5   19.40    3.70
  -7  -2   5   18.60    3.30
   7   2  -5   10.10    2.10
   7   2  -5   11.50    1.40
   7   2  -5   16.10    1.50
   7   2  -5   15.50    2.40
   7   2  -5   21.30    4.20
   7   2  -5   16.10    2.40
  -8  -2   5    5.70    1.40
  -8  -2   5    3.80    1.60
  -8  -2   5    4.10    2.40
   8   2  -5    5.50    1.60
   8   2  -5    1.30    1.90
   8   2  -5    6.10    0.90
  -9  -2   5   15.40    2.30
  -9  -2   5   12.00    2.10
   9   2  -5   11.50    1.40
   8  -1   4    7.10    1.60
   7  -1   4   40.50    3.50
   7  -1   4   38.30    4.90
   6  -1   4   19.30    4.10
   6  -1   4   32.90    4.10
   6  -1   4   20.50    2.40
   6  -1   4   29.00    2.20
  -6   1  -4   27.80    2.50
   5  -1   4   13.60    3.10
   5  -1   4   12.40    3.30
   5  -1   4   14.70    1.20
   5  -1   4   11.00    1.50
  -5   1  -4   12.20    1.60
  -5   1  -4   11.30    2.00
  -5   1  -4   13.90    2.10
   4  -1   4  100.69    7.10
   4  -1   4   77.79    7.20
   4  -1   4  100.19    8.30
   4  -1   4   89.79   10.70
  -4   1  -4   88.49    7.60
  -4   1  -4   97.59    7.30
  -4   1  -4   81.09    7.20
   3  -1   4  118.89   10.70
   3  -1   4  136.69   11.50
   3  -1   4  139.09   10.70
   3  -1   4  152.98   12.50
  -3   1  -4  139.49   10.70
  -3   1  -4  141.49   10.90
   2  -1   4  152.88   12.90
   2  -1   4  141.89   12.10
   2  -1   4  145.29   11.50
  -2   1  -4  170.18   11.60
  -2   1  -4  131.79   11.50
  -2   1  -4  146.29   11.50
   1  -1   4   86.49    6.60
   1  -1   4   78.99    6.80
   1  -1   4   83.89    7.50
   1  -1   4   80.79    6.20
  -1   1  -4   68.69    6.20
   0  -1   4  278.77   25.90
   0  -1   4  304.67   25.50
   0  -1   4  367.66   26.60
   0  -1   4  349.77   26.00
   0   1  -4  356.36   25.90
   0   1  -4  327.07   25.70
  -1  -1   4   91.49    6.90
  -1  -1   4   89.59    7.40
  -1  -1   4   85.59    6.80
  -1  -1   4   76.59    7.00
   1   1  -4   82.69    6.70
   1   1  -4   80.09    6.50
   1   1  -4   72.49    6.40
   1   1  -4   79.79    6.60
  -2  -1   4  381.56   29.00
  -2  -1   4  406.66   28.40
  -2  -1   4  350.06   28.80
  -2  -1   4  377.76   28.60
   2   1  -4  336.17   28.50
   2   1  -4  384.36   28.30
   2   1  -4  355.96   28.60
   2   1  -4  366.76   28.60
   2   1  -4  362.86   28.40
   2   1  -4  337.47   28.30
  -3  -1   4  113.09   10.20
  -3  -1   4  140.29    9.80
  -3  -1   4  122.29   10.10
  -3  -1   4  122.29   10.00
   3   1  -4  129.89    9.90
   3   1  -4  124.49   10.00
   3   1  -4  122.59    9.70
   3   1  -4  118.19    9.90
   3   1  -4  109.39    9.70
   3   1  -4  135.79    9.70
   3   1  -4  128.79   10.00
  -4  -1   4  536.25   41.40
  -4  -1   4  511.05   41.00
  -4  -1   4  572.94   40.80
   4   1  -4  514.65   41.10
   4   1  -4  535.05   41.00
   4   1  -4  516.25   40.70
   4   1  -4  522.05   41.10
   4   1  -4  549.25   40.80
   4   1  -4  543.45   40.80
   4   1  -4  467.65   40.90
  -5  -1   4    6.60    1.60
  -5  -1   4    8.20    2.20
  -5  -1   4    8.30    1.50
   5   1  -4    6.80    0.80
   5   1  -4    8.60    1.30
   5   1  -4    6.20    1.30
   5   1  -4    7.00    0.90
   5   1  -4    8.40    1.70
  -6  -1   4  117.59   10.50
  -6  -1   4  121.59    9.60
  -6  -1   4  133.99   10.00
   6   1  -4  108.99    9.50
   6   1  -4  120.09    9.40
   6   1  -4  130.79    9.90
   6   1  -4  119.19   10.10
   6   1  -4  111.09   10.00
   6   1  -4  119.69   10.30
  -7  -1   4   53.69    5.80
  -7  -1   4   55.59    4.70
  -7  -1   4   63.59    5.10
   7   1  -4   57.99    5.60
   7   1  -4   60.49    5.00
   7   1  -4   45.40    4.40
   7   1  -4   60.79    4.50
   7   1  -4   49.00    5.10
   7   1  -4   44.40    5.00
  -8  -1   4   52.79    6.20
  -8  -1   4   57.09    5.10
   8   1  -4   67.69    5.40
   8   1  -4   56.49    6.00
  -9  -1   4    8.30    1.80
  -9  -1   4   14.00    2.30
  -9  -1   4    7.00    3.00
   9   1  -4    7.80    3.10
   9   1  -4   10.80    1.40
   9   0   3   27.00    4.40
   9   0   3   28.10    2.60
   8   0   3   78.89    6.70
   8   0   3   81.79    6.60
   8   0   3   84.49    6.60
   8   0   3   82.99    7.80
  -8   0  -3   84.59    6.80
   7   0   3   50.09    4.10
   7   0   3   50.59    5.40
   7   0   3   51.29    3.90
   7   0   3   43.30    3.90
   6   0   3   23.90    1.90
   6   0   3   22.70    3.60
   6   0   3   22.20    1.90
   6   0   3   25.50    2.10
   6   0   3   20.60    3.30
  -6   0  -3   18.50    2.30
   5   0   3  296.27   22.90
   5   0   3  281.77   23.70
   5   0   3  304.07   23.00
   5   0   3  333.27   23.00
   5   0   3  288.37   24.40
  -5   0  -3  269.67   23.20
   4   0   3  126.29   10.50
   4   0   3  116.39    9.00
   4   0   3  108.29    9.60
   4   0   3  126.99    9.00
   4   0   3  120.39    9.00
  -4   0  -3  108.29    9.40
  -4   0  -3   98.69    9.20
   3   0   3 1545.65  107.89
   3   0   3 1341.67  106.69
   3   0   3 1292.47  107.09
   3   0   3 1417.36  106.69
  -3   0  -3 1318.87  106.89
   2   0   3    1.70    0.90
   2   0   3    1.60    0.30
   2   0   3    1.30    1.20
   2   0   3    1.40    0.30
  -2   0  -3    2.00    0.90
  -2   0  -3    1.70    0.80
   1   0   3   61.69    5.60
   1   0   3   54.69    5.10
   1   0   3   64.19    5.00
   1   0   3   64.29    5.10
   1   0   3   64.39    4.70
   1   0   3   57.79    4.90
  -1   0  -3   64.79    5.00
  -1   0  -3   52.69    4.70
   0   0  -3  809.22   68.39
   0   0  -3  966.80   68.39
   0   0  -3  914.61   68.49
   0   0  -3  825.62   68.39
   0   0  -3  913.11   68.49
  -1   0   3  491.95   36.40
  -1   0   3  442.06   36.00
  -1   0   3  499.45   36.10
   1   0  -3  424.56   36.00
   1   0  -3  483.75   36.10
   1   0  -3  435.26   35.90
   1   0  -3  448.76   36.10
   1   0  -3  492.75   36.00
  -2   0   3   80.99    6.80
  -2   0   3   86.59    7.00
  -2   0   3   94.89    6.90
  -2   0   3   92.79    6.80
   2   0  -3   82.39    6.90
   2   0  -3   79.59    6.70
   2   0  -3   78.89    6.80
   2   0  -3   72.99    6.80
   2   0  -3   86.99    6.80
   2   0  -3   94.29    6.60
  -3   0   3  362.26   29.90
  -3   0   3  436.56   30.00
   3   0  -3  412.76   30.30
   3   0  -3  351.06   29.90
   3   0  -3  350.46   29.80
   3   0  -3  430.96   29.80
   3   0  -3  334.37   29.90
   3   0  -3  381.06   29.80
   3   0  -3  389.46   29.90
   3   0  -3  405.56   30.10
  -4   0   3   88.29    7.60
  -4   0   3   96.49    7.30
  -4   0   3   98.69    7.10
   4   0  -3   93.19    7.10
   4   0  -3   84.29    7.00
   4   0  -3   87.79    7.30
   4   0  -3   84.09    7.40
   4   0  -3   84.59    7.40
  -5   0   3   48.90    4.20
  -5   0   3   45.40    4.30
  -5   0   3   50.69    4.80
  -5   0   3   52.79    4.20
   5   0  -3   48.70    4.50
   5   0  -3   51.19    4.30
   5   0  -3   49.00    4.70
   5   0  -3   46.00    4.50
   5   0  -3   47.60    4.00
   5   0  -3   47.80    3.90
  -6   0   3  148.69   11.70
  -6   0   3  133.99   11.50
  -6   0   3  160.38   12.40
  -6   0   3  152.48   11.60
   6   0  -3  124.19   11.40
   6   0  -3  146.29   11.80
   6   0  -3  146.39   12.00
   6   0  -3  155.78   11.40
   6   0  -3  140.89   12.20
  -7   0   3   72.89    7.50
  -7   0   3   75.59    6.70
  -7   0   3   92.59    6.90
   7   0  -3   72.39    6.60
   7   0  -3   78.39    7.20
   7   0  -3   91.89    7.90
   7   0  -3   97.49    7.20
  -8   0   3   19.90    2.60
  -8   0   3   15.00    2.30
   8   0  -3   18.60    1.90
   8   0  -3   18.40    3.50
  -9   0   3    2.30    1.80
  -9   0   3    4.90    1.70
  -9   0   3    4.80    1.70
   9   0  -3   12.30    3.40
   9   0  -3    7.70    1.10
   9   1   2    4.80    2.20
   9   1   2    1.00    0.70
  -9  -1  -2    1.10    0.90
   8   1   2   10.40    1.30
   8   1   2    6.80    2.20
   8   1   2   10.80    1.10
   8   1   2    8.40    1.00
  -8  -1  -2   11.80    2.00
  -8  -1  -2    9.80    1.50
   7   1   2    6.50    1.00
   7   1   2    6.10    0.80
   7   1   2    5.40    0.80
  -7  -1  -2    6.90    0.90
   6   1   2  138.39   10.50
   6   1   2  141.79   10.50
   6   1   2  138.49   10.50
   6   1   2  143.59   11.30
  -6  -1  -2  120.69   10.60
  -6  -1  -2  121.89   10.60
   5   1   2  336.27   26.10
   5   1   2  353.36   26.10
   5   1   2  320.57   26.50
   5   1   2  336.87   26.90
   5   1   2  355.56   26.10
  -5  -1  -2  357.56   26.20
  -5  -1  -2  295.07   26.10
   4   1   2  426.16   31.70
   4   1   2  426.76   31.60
   4   1   2  423.46   32.50
   4   1   2  391.06   31.70
   4   1   2  358.96   32.00
  -4  -1  -2  428.56   31.80
   3   1   2   27.30    2.70
   3   1   2   34.20    3.30
   3   1   2   33.60    2.40
   3   1   2   27.20    2.40
   3   1   2   31.20    2.40
  -3  -1  -2   29.00    2.60
   2   1   2  570.94   48.60
   2   1   2  628.54   48.80
   2   1   2  718.53   48.60
   2   1   2  601.24   48.60
   1   1   2 2934.71  217.18
  -1  -1  -2 2686.13  216.78
   0  -1  -2 1964.30  159.38
   0  -1  -2 2160.88  159.38
   0  -1  -2 2072.19  159.48
  -1   1   2  208.28   15.20
  -1   1   2  204.78   16.00
   1  -1  -2  179.08   15.20
   1  -1  -2  178.38   15.20
   1  -1  -2  204.78   15.20
  -2   1   2  238.98   18.10
  -2   1   2  254.37   18.00
  -2   1   2  224.98   17.90
   2  -1  -2  250.37   17.80
   2  -1  -2  186.38   18.00
   2  -1  -2  199.38   17.80
   2  -1  -2  253.87   18.00
  -3   1   2  567.84   39.60
  -3   1   2  560.94   39.50
   3  -1  -2  490.15   39.60
   3  -1  -2  476.15   39.50
   3  -1  -2  447.66   39.40
   3  -1  -2  500.55   39.20
   3  -1  -2  491.75   39.40
   3  -1  -2  551.64   39.30
   3  -1  -2  482.65   39.50
  -4   1   2  110.09    7.90
  -4   1   2  105.19    8.10
  -4   1   2  105.19    8.30
   4  -1  -2   95.19    8.30
   4  -1  -2   99.09    8.10
   4  -1  -2   95.99    8.40
   4  -1  -2   96.59    8.30
   4  -1  -2   85.09    8.00
   4  -1  -2  103.19    7.90
   4  -1  -2  104.19    7.90
  -5   1   2   47.40    4.00
  -5   1   2   44.90    4.60
  -5   1   2   48.20    4.20
   5  -1  -2   45.50    4.40
   5  -1  -2   47.60    4.20
   5  -1  -2   50.49    3.90
   5  -1  -2   49.70    4.50
   5  -1  -2   46.80    3.90
   5  -1  -2   45.70    4.70
  -6   1   2   46.40    4.20
  -6   1   2   39.80    4.70
  -6   1   2   53.89    4.40
   6  -1  -2   53.69    5.30
   6  -1  -2   43.00    3.90
   6  -1  -2   51.69    3.90
   6  -1  -2   45.60    4.70
  -7   1   2   12.90    2.80
  -7   1   2   16.30    2.20
  -7   1   2   19.40    2.50
  -7   1   2   12.80    2.10
   7  -1  -2   18.60    1.80
   7  -1  -2   21.60    3.70
   7  -1  -2   16.60    1.60
  -8   1   2   22.00    2.80
  -8   1   2   30.80    3.00
   8  -1  -2   27.30    2.50
   8  -1  -2   30.10    4.40
   8  -1  -2   22.20    2.30
  -9   1   2    1.90    1.50
   9  -1  -2    1.40    1.70
   9  -1  -2    1.60    0.90
  10   2   1   11.60    1.40
 -10  -2  -1   10.80    1.90
 -10  -2  -1    9.20    1.40
 -10  -2  -1    9.00    1.90
   9   2   1   30.90    3.10
   9   2   1   34.50    3.00
   9   2   1   41.20    3.20
  -9  -2  -1   36.70    4.00
  -9  -2  -1   38.50    3.20
   8   2   1   55.99    4.30
   8   2   1   44.40    4.20
   8   2   1   51.09    4.20
   8   2   1   45.80    5.00
  -8  -2  -1   57.29    5.20
  -8  -2  -1   52.99    4.30
   7   2   1  152.18   11.30
   7   2   1  153.28   11.40
   7   2   1  138.89   11.30
  -7  -2  -1  141.99   11.40
  -7  -2  -1  135.39   11.60
   6   2   1  105.09    8.30
   6   2   1  101.99    7.80
   6   2   1   94.39    7.70
  -6  -2  -1   93.39    7.80
   5   2   1  212.98   17.60
   5   2   1  227.28   17.40
   5   2   1  247.78   17.30
   5   2   1  226.18   17.40
   5   2   1  242.68   17.30
  -5  -2  -1  198.28   17.30
  -5  -2  -1  206.18   17.40
   4   2   1  899.71   68.69
   4   2   1  912.41   68.69
   4   2   1  903.71   68.69
   4   2   1  851.51   68.89
  -4  -2  -1  879.61   68.79
   3   2   1   36.10    2.90
   3   2   1   36.30    3.00
   3   2   1   35.30    2.90
   3   2   1   34.50    2.90
   3   2   1   38.80    2.90
  -3  -2  -1   37.10    3.10
   1   2   1   22.70    1.90
   1   2   1   21.40    1.80
   1   2   1   25.00    1.90
   1   2   1   21.70    1.80
  -1  -2  -1   19.50    1.90
  -1  -2  -1   25.20    1.80
  -1  -2  -1   19.80    2.00
   0   2   1   89.29    7.00
   0   2   1  101.09    7.00
   0   2   1   90.39    7.10
   0   2   1   96.29    7.00
   0  -2  -1   77.69    7.10
   0  -2  -1   85.09    7.10
   0  -2  -1   87.79    7.10
   0  -2  -1   88.59    7.10
  -1   2   1   96.09    6.90
   1  -2  -1   81.19    6.90
   1  -2  -1   84.79    6.90
   1  -2  -1   89.79    6.80
   1  -2  -1   82.59    6.70
   1  -2  -1   85.69    7.00
   1  -2  -1   80.19    6.90
   1  -2  -1   87.99    6.90
  -2   2   1  539.35   41.20
  -2   2   1  563.84   41.20
   2  -2  -1  549.74   41.10
   2  -2  -1  555.94   41.00
   2  -2  -1  507.25   41.30
   2  -2  -1  516.35   41.30
   2  -2  -1  501.05   41.20
   2  -2  -1  510.15   41.30
  -3   2   1   25.60    2.40
  -3   2   1   26.00    2.50
  -3   2   1   23.00    2.50
  -3   2   1   29.20    2.20
  -3   2   1   25.90    2.40
   3  -2  -1   25.20    2.90
   3  -2  -1   22.30    2.70
   3  -2  -1   26.40    2.10
   3  -2  -1   23.40    2.70
   3  -2  -1   21.90    2.40
   3  -2  -1   26.70    2.10
  -4   2   1   61.19    5.20
  -4   2   1   62.19    5.10
  -4   2   1   64.59    4.90
  -4   2   1   57.19    5.50
   4  -2  -1   55.29    5.50
   4  -2  -1   58.49    5.50
   4  -2  -1   62.79    4.90
   4  -2  -1   60.59    5.70
   4  -2  -1   66.99    4.90
   4  -2  -1   59.99    5.20
  -5   2   1  188.78   16.00
  -5   2   1  201.78   16.30
  -5   2   1  176.48   16.30
  -5   2   1  215.48   16.20
   5  -2  -1  212.68   16.60
   5  -2  -1  204.48   16.00
   5  -2  -1  217.68   16.00
   5  -2  -1  223.28   17.10
   6  -2  -1    2.70    2.30
  -7   2   1  127.09    9.80
   7  -2  -1  112.09    9.00
   7  -2  -1   91.59   11.90
  -8   2   1    2.50    1.40
  -8   2   1    2.90    1.50
   8  -2  -1    2.90    2.20
   8  -2  -1    2.40    1.20
  -9   2   1   19.60    2.00
  10   3   0   21.60    2.20
 -10  -3   0   19.80    2.60
 -10  -3   0   18.00    3.00
   9   3   0  114.39   10.30
   9   3   0  126.19   10.40
  -9  -3   0  141.39   11.40
  -9  -3   0  143.39   10.50
   8   3   0   36.50    3.00
   8   3   0   29.30    2.90
   8   3   0   31.80    3.60
   8   3   0   35.90    2.90
  -8  -3   0   34.80    3.60
  -8  -3   0   38.80    4.20
  -8  -3   0   38.40    3.20
   7   3   0   76.49    6.50
   7   3   0   85.19    6.50
   7   3   0   76.09    7.00
   7   3   0   85.39    6.60
  -7  -3   0   79.49    6.90
  -7  -3   0   88.19    6.70
   6   3   0  359.06   26.80
   6   3   0  355.66   26.80
   6   3   0  329.17   27.10
   6   3   0  368.46   27.00
   6   3   0  353.16   26.80
   6   3   0  327.27   26.80
  -6  -3   0  306.97   26.90
  -6  -3   0  362.66   27.10
   5   3   0   95.99    7.00
   5   3   0   94.59    7.20
   5   3   0   80.39    7.20
   5   3   0   88.69    7.10
   5   3   0   97.19    7.00
   5   3   0   88.19    7.10
  -5  -3   0   90.49    7.30
  -5  -3   0   82.49    7.20
  -5  -3   0   87.09    7.10
   4   3   0 1974.90  146.89
  -4  -3   0 1854.21  146.89
  -4  -3   0 1912.51  146.99
  -4  -3   0 1869.71  147.09
   3   3   0   70.29    5.20
   3   3   0   65.99    5.20
   3   3   0   64.39    5.20
   3   3   0   76.59    5.20
   3   3   0   69.09    5.20
   3   3   0   65.79    5.20
   3   3   0   66.69    5.30
  -3  -3   0   64.39    5.40
  -3  -3   0   65.39    5.50
  -3  -3   0   59.49    5.30
  -3  -3   0   58.09    5.30
   2   3   0   49.70    4.00
   2   3   0   50.79    4.00
   2   3   0   55.19    4.10
   2   3   0   49.90    4.00
   2   3   0   51.29    4.00
   2   3   0   48.20    4.00
  -2  -3   0   55.69    4.30
  -2  -3   0   48.70    4.20
  -2  -3   0   43.30    4.10
  -2  -3   0   57.59    4.20
   1   3   0  262.57   20.30
   1   3   0  303.57   20.40
   1   3   0  258.87   20.30
   1   3   0  253.87   20.20
  -1  -3   0  235.48   20.30
  -1  -3   0  263.67   20.50
  -1  -3   0  281.97   20.20
  -1  -3   0  284.47   20.50
  -1  -3   0  234.58   20.40
  -1  -3   0  238.98   20.30
   0   3   0  159.78   13.30
   0   3   0  144.59   13.30
   0  -3   0  195.08   13.40
   0  -3   0  178.48   13.70
   0  -3   0  153.08   13.50
   0  -3   0  184.38   13.60
   0  -3   0  186.38   13.40
  -1   3   0    1.40    0.50
  -1   3   0    1.20    1.00
  -1   3   0    3.70    0.70
  -1   3   0    1.30    0.50
   1  -3   0    1.80    1.10
   1  -3   0    1.10    0.70
   1  -3   0    1.70    0.90
   1  -3   0    2.00    0.30
   1  -3   0    1.30    0.90
  -2   3   0    9.30    1.40
  -2   3   0    8.50    1.40
  -2   3   0    7.40    1.00
   2  -3   0    7.10    1.30
   2  -3   0    7.30    0.70
   2  -3   0    7.00    1.40
   2  -3   0    9.20    2.10
   2  -3   0    5.50    1.50
  -3   3   0   47.90    4.20
  -3   3   0   50.69    4.00
  -3   3   0   44.70    3.80
   3  -3   0   46.40    5.10
   3  -3   0   37.40    3.80
   3  -3   0   44.00    4.30
   3  -3   0   52.29    3.70
   3  -3   0   46.00    4.60
  -4   3   0    5.00    1.70
  -4   3   0    3.60    1.30
  -4   3   0    3.10    1.30
   4  -3   0    2.50    1.80
   4  -3   0    2.10    1.40
   4  -3   0    1.50    1.40
   4  -3   0    3.70    0.50
   4  -3   0    1.20    0.70
  -5   3   0  127.69   11.10
  -5   3   0  134.59   11.20
  -5   3   0  149.39   11.60
   5  -3   0  162.88   12.50
   5  -3   0  158.28   11.00
   5  -3   0  117.89   12.20
  -6   3   0   18.60    2.60
  -6   3   0   15.30    2.10
   6  -3   0   18.40    3.90
   6  -3   0   15.50    1.50
   6  -3   0   14.40    1.90
  -7   3   0   69.89    6.10
  -7   3   0   72.29    5.90
   7  -3   0   71.59    5.70
  -8   3   0    4.50    1.40
  -8   3   0    3.00    1.20
  -8   3   0    4.00    1.10
   8  -3   0    2.50    1.40
   8  -3   0    4.60    2.90
  10   4  -1    1.40    0.90
 -10  -4   1    1.80    1.90
 -10  -4   1    2.20    1.50
   9   4  -1    6.70    1.00
   9   4  -1    5.90    0.90
  -9  -4   1    5.60    1.50
  -9  -4   1    9.10    1.60
  -9  -4   1    6.70    2.20
   8   4  -1   17.00    1.80
   8   4  -1   19.20    2.20
   8   4  -1   20.20    1.80
   8   4  -1   21.10    2.00
  -8  -4   1   22.00    2.80
  -8  -4   1   25.90    3.50
  -8  -4   1   23.50    2.20
   7   4  -1  100.09    7.90
   7   4  -1   98.19    7.80
   7   4  -1  100.79    7.90
   7   4  -1   88.59    8.20
   7   4  -1  103.09    8.10
   7   4  -1  105.99    7.80
  -7  -4   1   96.49    8.40
   6   4  -1  345.97   26.60
   6   4  -1  336.47   26.60
   6   4  -1  358.26   26.60
   6   4  -1  339.07   26.70
   6   4  -1  352.36   26.60
   6   4  -1  313.67   26.90
  -6  -4   1  345.37   27.00
  -6  -4   1  318.77   26.90
  -6  -4   1  372.36   26.70
   5   4  -1   62.59    5.10
   5   4  -1   64.69    5.00
   5   4  -1   67.19    5.00
   5   4  -1   60.99    5.10
   5   4  -1   59.19    5.10
   5   4  -1   57.09    5.10
  -5  -4   1   66.39    5.20
  -5  -4   1   63.29    5.40
  -5  -4   1   70.09    5.70
  -5  -4   1   58.59    5.40
   4   4  -1   36.40    3.10
   4   4  -1   38.50    2.90
   4   4  -1   35.60    3.00
   4   4  -1   35.00    3.00
   4   4  -1   32.10    3.00
   4   4  -1   41.00    2.90
   4   4  -1   35.20    3.20
   4   4  -1   37.40    3.10
   4   4  -1   36.10    3.00
   4   4  -1   34.50    3.00
  -4  -4   1   34.80    3.10
  -4  -4   1   35.30    3.30
   3   4  -1  130.09   10.30
   3   4  -1  148.19   10.10
   3   4  -1  123.09   10.30
   3   4  -1  121.59   10.20
   3   4  -1  126.39   10.30
   3   4  -1  131.59   10.20
   3   4  -1  125.79   10.30
   3   4  -1  133.49   10.10
  -3  -4   1  138.09   10.60
  -3  -4   1  130.39   10.30
  -3  -4   1  129.49   10.40
   2   4  -1   99.19    8.10
   2   4  -1   98.59    8.00
   2   4  -1   98.99    8.00
   2   4  -1   92.39    8.10
  -2  -4   1  116.49    8.40
  -2  -4   1  101.39    8.20
  -2  -4   1  114.79    8.50
  -2  -4   1  101.19    8.10
   1   4  -1  185.18   14.70
   1   4  -1  196.68   14.80
   1   4  -1  176.38   14.70
   1   4  -1  179.48   14.70
  -1  -4   1  176.28   14.80
  -1  -4   1  188.88   14.80
  -1  -4   1  179.08   14.70
  -1  -4   1  181.88   15.00
  -1  -4   1  214.08   15.20
  -1  -4   1  207.58   15.20
  -1  -4   1  200.48   14.90
   0   4  -1   57.59    4.30
   0   4  -1   51.09    4.20
   0   4  -1   50.59    4.30
   0   4  -1   48.70    4.20
   0  -4   1   54.99    4.20
  -1   4  -1   20.90    1.80
  -1   4  -1   24.40    1.90
  -1   4  -1   16.40    2.30
  -1   4  -1   18.30    1.90
   1  -4   1   18.20    2.40
   1  -4   1   21.80    3.50
   1  -4   1   20.40    2.90
   1  -4   1   19.50    2.60
  -2   4  -1   11.40    1.30
  -2   4  -1   12.60    1.60
  -2   4  -1   14.00    1.40
  -2   4  -1   13.80    2.30
   2  -4   1   11.40    2.40
   2  -4   1   10.50    1.00
   2  -4   1   12.40    3.00
   2  -4   1   12.50    2.30
  -3   4  -1  639.64   46.70
  -3   4  -1  631.74   46.10
  -3   4  -1  546.55   46.10
   3  -4   1  548.05   45.90
   3  -4   1  589.14   48.00
   3  -4   1  616.64   47.00
  -4   4  -1  105.19    8.80
  -4   4  -1  107.49    8.30
  -4   4  -1  112.79    8.70
   4  -4   1   95.89    8.10
   4  -4   1   97.59   10.30
  -5   4  -1  286.17   19.60
  -5   4  -1  266.57   19.70
  -5   4  -1  223.98   19.60
   5  -4   1  223.08   21.50
  -6   4  -1   12.40    1.60
  -6   4  -1    9.90    1.60
  -6   4  -1   11.50    2.60
   6  -4   1   12.10    3.80
  -7   4  -1   13.10    1.60
  -7   4  -1   16.40    2.40
   7  -4   1   19.90    4.20
  10   5  -2   19.80    2.00
 -10  -5   2   22.90    3.70
 -10  -5   2   26.70    2.40
 -10  -5   2   22.00    3.60
   9   5  -2   23.40    2.20
   9   5  -2   20.70    2.60
  -9  -5   2   28.10    3.90
  -9  -5   2   24.20    3.00
   8   5  -2   43.50    3.80
   8   5  -2   42.50    3.70
   8   5  -2   37.20    3.50
  -8  -5   2   50.69    4.00
  -8  -5   2   43.90    4.60
  -8  -5   2   47.50    5.10
   7   5  -2    1.10    0.90
   7   5  -2    0.80    0.30
   7   5  -2    0.60    0.60
   7   5  -2    1.00    0.60
  -7  -5   2    0.60    2.20
  -7  -5   2    0.40    1.80
  -7  -5   2    0.50    0.90
  -7  -5   2    0.60    1.40
   6   5  -2    8.80    1.30
   6   5  -2    7.40    1.10
   6   5  -2    5.60    0.80
   6   5  -2    7.80    1.00
   6   5  -2    6.80    1.20
  -6  -5   2    8.00    2.40
  -6  -5   2    7.80    1.90
  -6  -5   2    8.90    1.80
   5   5  -2    2.40    0.90
   5   5  -2    3.20    0.50
   5   5  -2    6.70    1.10
   5   5  -2    5.30    1.00
   5   5  -2    6.00    0.90
   5   5  -2    5.30    1.00
   5   5  -2    4.60    1.00
  -5  -5   2    4.40    1.60
  -5  -5   2    3.70    1.50
  -5  -5   2    5.40    1.20
  -5  -5   2    5.10    1.60
  -5  -5   2    2.50    1.40
  -5  -5   2    3.40    2.10
   4   5  -2    2.50    0.80
   4   5  -2    2.00    0.80
   4   5  -2    1.50    0.70
   4   5  -2    2.30    0.80
   4   5  -2    2.40    0.80
   4   5  -2    1.50    0.30
   4   5  -2    3.30    0.70
  -4  -5   2    2.50    1.40
  -4  -5   2    1.00    1.80
  -4  -5   2    2.50    1.40
  -4  -5   2    1.60    0.90
  -4  -5   2    2.30    1.80
   3   5  -2   41.10    3.90
   3   5  -2   47.30    3.90
   3   5  -2   44.50    3.90
   3   5  -2   42.60    3.90
   3   5  -2   47.40    3.80
   3   5  -2   43.90    3.80
  -3  -5   2   51.79    4.50
  -3  -5   2   49.99    5.20
  -3  -5   2   51.49    3.90
  -3  -5   2   48.30    4.60
   2   5  -2   25.00    2.30
   2   5  -2   26.90    2.40
   2   5  -2   25.30    2.50
   2   5  -2   26.00    2.40
   2   5  -2   26.60    2.50
  -2  -5   2   23.50    2.60
  -2  -5   2   31.30    2.50
  -2  -5   2   36.30    3.60
  -2  -5   2   30.60    2.80
  -2  -5   2   33.30    2.90
  -2  -5   2   29.90    3.40
  -2  -5   2   31.50    4.00
  -2  -5   2   30.10    3.10
   1   5  -2   94.29    7.90
   1   5  -2   86.19    7.90
   1   5  -2  100.89    8.00
  -1  -5   2  108.69    8.80
  -1  -5   2  111.69    9.60
  -1  -5   2  105.19    8.40
  -1  -5   2  102.49    8.00
  -1  -5   2  104.79    8.80
   0   5  -2    8.10    1.20
   0   5  -2    7.30    0.90
   0   5  -2    8.20    1.00
   0   5  -2    7.70    1.10
   0  -5   2   12.50    2.40
   0  -5   2   10.30    2.50
   0  -5   2   10.50    2.90
  -1   5  -2  127.49   12.20
  -1   5  -2  141.79   11.60
  -1   5  -2  153.68   11.70
  -1   5  -2  159.08   11.70
  -1   5  -2  166.58   11.80
   1  -5   2  148.09   13.90
   1  -5   2  142.89   12.80
  -2   5  -2  243.78   18.00
  -2   5  -2  228.38   18.00
  -2   5  -2  236.48   18.00
  -2   5  -2  254.77   18.10
   2  -5   2  207.88   20.30
   2  -5   2  203.18   19.00
  -3   5  -2   16.10    1.60
  -3   5  -2   17.80    1.80
  -3   5  -2   15.80    1.90
   3  -5   2   11.00    3.10
   3  -5   2   11.60    3.90
  -4   5  -2   21.20    1.90
  -4   5  -2   19.20    2.20
  -4   5  -2   22.30    2.20
   4  -5   2   14.40    4.30
   4  -5   2   20.40    5.10
  -5   5  -2   11.90    1.70
  -5   5  -2   13.50    1.40
  -5   5  -2   13.40    1.70
   5  -5   2    8.10    3.50
  -6   5  -2    7.90    1.30
  -6   5  -2    9.20    1.50
   6  -5   2    5.20    3.40
   9   6  -3   12.30    1.40
  -9  -6   3   14.90    4.00
  -9  -6   3   11.40    2.70
  -9  -6   3   15.20    1.80
   8   6  -3    3.10    0.80
   8   6  -3    4.80    1.20
   8   6  -3    0.90    0.60
  -8  -6   3    1.70    1.80
  -8  -6   3    1.10    1.20
  -8  -6   3    1.10    2.00
   7   6  -3   37.70    3.90
   7   6  -3   44.50    3.70
   7   6  -3   39.30    3.60
  -7  -6   3   41.90    4.90
  -7  -6   3   50.39    3.90
  -7  -6   3   42.40    4.80
   6   6  -3    9.90    1.60
   6   6  -3   11.00    1.30
   6   6  -3    7.50    1.20
   6   6  -3   12.90    2.00
   5   6  -3    7.40    1.10
   5   6  -3    8.00    1.40
   5   6  -3    7.50    1.40
   5   6  -3    6.60    1.30
   5   6  -3    5.80    1.20
   5   6  -3    6.50    1.00
  -5  -6   3    4.90    2.20
  -5  -6   3    7.40    2.10
  -5  -6   3    5.10    1.90
  -5  -6   3    3.30    2.30
  -5  -6   3    8.80    1.50
   4   6  -3   34.10    3.40
   4   6  -3   36.70    3.30
   4   6  -3   37.20    3.30
   4   6  -3   32.20    3.30
   4   6  -3   37.80    3.10
  -4  -6   3   33.30    4.80
  -4  -6   3   33.60    3.20
  -4  -6   3   41.70    4.20
  -4  -6   3   37.80    4.00
  -4  -6   3   42.30    4.70
   3   6  -3   31.50    2.70
   3   6  -3   28.70    2.80
   3   6  -3   30.10    2.80
   3   6  -3   29.80    2.50
   3   6  -3   29.60    2.80
  -3  -6   3   23.30    3.10
  -3  -6   3   23.80    3.50
  -3  -6   3   26.60    4.50
  -3  -6   3   36.90    4.20
   2   6  -3    8.40    1.00
   2   6  -3    9.40    1.40
   2   6  -3    9.90    1.10
   2   6  -3    9.50    1.50
   2   6  -3    8.20    1.20
  -2  -6   3    6.70    3.00
  -2  -6   3   14.20    2.80
  -2  -6   3    9.60    2.20
   1   6  -3   30.60    2.80
   1   6  -3   38.90    3.20
   1   6  -3   33.20    3.00
   1   6  -3   37.30    3.20
   1   6  -3   38.00    3.00
  -1  -6   3   36.80    4.50
  -1  -6   3   29.60    5.20
  -1  -6   3   40.70    5.90
  -1  -6   3   29.20    3.70
   0   6  -3   18.60    2.90
   0   6  -3   26.80    2.60
   0   6  -3   24.10    2.20
   0   6  -3   23.40    2.20
   0  -6   3   29.40    4.20
   0  -6   3   23.70    2.90
   0  -6   3   22.60    4.90
  -1   6  -3   54.59    6.00
  -1   6  -3   69.99    5.40
  -1   6  -3   75.79    5.40
  -1   6  -3   60.69    5.20
   1  -6   3   64.99    8.20
   1  -6   3   68.79    7.20
  -2   6  -3   11.90    1.40
  -2   6  -3   14.90    1.80
  -2   6  -3   13.10    1.50
   2  -6   3    8.90    3.80
   2  -6   3    9.90    3.60
  -3   6  -3   13.00    1.60
  -3   6  -3   13.80    1.60
  -3   6  -3   15.30    1.90
   3  -6   3   11.50    3.70
  -4   6  -3   32.60    2.80
  -4   6  -3   33.20    3.00
  -4   6  -3   30.30    2.80
   4  -6   3   25.70    4.90
  -5   6  -3   13.20    1.60
  -5   6  -3   12.30    1.40
   5  -6   3   13.60    3.30
   8   7  -4    3.70    1.20
   8   7  -4    5.20    0.80
   8   7  -4    4.30    0.90
  -8  -7   4    5.30    2.10
  -8  -7   4    0.80    1.80
   7   7  -4   30.90    3.30
   7   7  -4   37.30    3.10
   7   7  -4   34.50    2.90
  -7  -7   4   32.80    4.30
   6   7  -4   18.30    1.80
   6   7  -4   16.00    2.00
   6   7  -4   14.90    1.50
  -6  -7   4   17.70    3.00
  -6  -7   4   12.50    3.00
   5   7  -4   27.00    2.30
   5   7  -4   24.70    2.70
   5   7  -4   29.60    2.40
   5   7  -4   25.00    2.60
   5   7  -4   21.60    3.20
  -5  -7   4   16.70    4.50
  -5  -7   4   27.50    3.80
   4   7  -4    5.50    1.00
   4   7  -4    4.80    1.30
   4   7  -4    4.90    1.20
   4   7  -4    5.90    1.20
   4   7  -4    6.30    1.00
  -4  -7   4    3.10    2.70
  -4  -7   4    3.90    2.70
   3   7  -4   49.60    4.00
   3   7  -4   39.60    3.90
   3   7  -4   40.70    3.60
   3   7  -4   42.10    3.90
  -3  -7   4   37.50    4.70
   2   7  -4    3.50    1.20
   2   7  -4    4.30    1.30
   2   7  -4    4.70    1.00
   2   7  -4    6.70    1.90
  -2  -7   4    3.10    3.30
  -2  -7   4    4.70    2.00
   1   7  -4    0.00    0.70
   1   7  -4   -0.20    0.90
   1   7  -4    0.10    0.90
   1   7  -4    0.90    0.70
   1   7  -4    0.70    1.00
  -1  -7   4    0.40    2.50
  -1  -7   4    2.00    1.80
   0   7  -4    1.60    1.00
   0   7  -4    1.10    0.60
   0   7  -4    1.00    0.70
   0   7  -4    0.30    1.00
   0  -7   4   -0.50    2.40
   0  -7   4    1.40    2.90
  -1   7  -4    1.80    1.10
  -1   7  -4   -0.20    0.90
  -1   7  -4    1.10    1.10
  -1   7  -4    1.40    0.70
   1  -7   4    2.50    2.90
   1  -7   4    0.70    2.60
  -2   7  -4   14.40    2.00
  -2   7  -4   13.10    1.50
  -2   7  -4   16.50    2.00
   2  -7   4   13.00    3.50
  -3   7  -4   27.60    2.50
  -3   7  -4   32.20    2.90
  -3   7  -4   28.60    2.90
   3  -7   4   22.60    4.20
   6   8  -5   16.30    2.00
   6   8  -5   19.70    1.90
  -6  -8   5   22.70    3.30
   5   8  -5   35.90    3.10
  -5  -8   5   36.40    5.60
   4   8  -5   24.20    2.30
   4   8  -5   17.00    2.30
   4   8  -5   15.60    2.30
   4   8  -5   17.50    2.60
   4   8  -5   26.00    2.10
   4   8  -5   23.10    1.90
  -4  -8   5   16.30    3.50
   3   8  -5   24.30    2.20
   3   8  -5   22.80    2.10
   3   8  -5   22.20    2.80
   3   8  -5   23.00    2.70
   3   8  -5   23.90    2.50
   2   8  -5    2.30    1.10
   2   8  -5    5.50    1.30
   2   8  -5    5.30    1.90
   2   8  -5    5.60    1.00
  -2  -8   5    1.10    2.70
  -2  -8   5   -1.90    2.50
   1   8  -5    2.90    1.80
   1   8  -5    7.00    1.90
   1   8  -5    4.10    0.80
   1   8  -5    3.10    1.50
   0   8  -5   18.90    2.30
   0   8  -5   18.30    1.80
   0   8  -5   22.30    2.30
   0  -8   5   13.50    4.10
   2   5  -9   13.90    1.70
   2   5  -9   12.80    1.90
   2   5  -9   11.60    2.00
   3   5  -9   15.80    2.00
   3   5  -9   10.50    1.90
   3  -4   8    6.10    2.90
  -3   4  -8   10.40    1.50
  -3   4  -8   11.40    1.50
   2  -4   8    0.70    2.80
  -2   4  -8    3.20    1.30
  -2   4  -8    2.00    1.00
   1  -4   8    5.80    3.10
  -1   4  -8   10.30    1.70
  -1   4  -8    9.90    1.90
  -1   4  -8    9.60    1.50
   0  -4   8    4.10    3.00
   0   4  -8    3.20    1.40
   0   4  -8    5.90    1.60
   0   4  -8    3.40    1.20
  -1  -4   8    5.30    2.10
  -1  -4   8    3.60    2.60
   1   4  -8    5.10    1.30
   1   4  -8    6.00    1.50
   1   4  -8    4.30    1.70
   1   4  -8    6.20    1.80
  -2  -4   8   16.20    3.10
   2   4  -8   15.30    2.00
   2   4  -8   14.50    2.40
   2   4  -8   16.00    2.40
   2   4  -8   15.90    2.10
  -3  -4   8    6.10    2.40
  -3  -4   8    3.30    2.40
   3   4  -8    7.80    1.90
   3   4  -8    7.70    1.00
   3   4  -8    5.90    1.40
   3   4  -8    6.10    1.40
   3   4  -8    5.80    1.60
  -4  -4   8   33.50    4.50
   4   4  -8   37.50    4.00
   4   4  -8   43.40    3.70
   4   4  -8   35.00    3.90
   4   4  -8   40.20    3.20
   4   4  -8   39.50    3.70
  -5  -4   8   54.19    5.70
   5   4  -8   49.99    5.20
   5   4  -8   65.59    5.00
   5   4  -8   52.59    5.20
  -6  -4   8    1.40    1.80
  -6  -4   8    2.20    1.90
   6   4  -8   -1.90    1.20
   6   4  -8   -0.90    1.60
   6   4  -8    1.50    1.60
   5  -3   7    1.50    2.40
   5  -3   7    2.10    2.20
   4  -3   7   13.60    3.40
   4  -3   7    8.80    3.80
  -4   3  -7   13.40    1.60
  -4   3  -7   12.60    2.00
  -4   3  -7   14.40    1.70
   3  -3   7    8.90    3.00
  -3   3  -7   10.70    1.60
  -3   3  -7   12.40    2.10
  -3   3  -7   13.00    1.60
   2  -3   7    8.80    4.20
  -2   3  -7   12.50    2.10
  -2   3  -7   15.00    1.80
   1  -3   7   13.00    3.80
  -1   3  -7   16.60    2.00
  -1   3  -7   17.30    2.30
  -1   3  -7   16.70    2.00
   0  -3   7    2.00    2.40
   0  -3   7    0.30    1.80
   0   3  -7    1.70    1.00
   0   3  -7    0.70    0.50
   0   3  -7    2.00    0.90
   0   3  -7    2.20    1.40
  -1  -3   7    8.80    2.30
  -1  -3   7   11.20    3.20
   1   3  -7   13.20    2.10
   1   3  -7    9.90    1.10
   1   3  -7   14.10    1.90
   1   3  -7   13.70    1.70
  -2  -3   7  291.27   24.40
  -2  -3   7  268.17   25.40
   2   3  -7  327.37   24.00
   2   3  -7  325.17   24.40
   2   3  -7  328.97   24.30
   2   3  -7  290.97   23.70
   2   3  -7  306.37   24.10
  -3  -3   7   74.49    6.90
  -3  -3   7   61.99    7.30
   3   3  -7   75.59    6.40
   3   3  -7   73.59    6.60
   3   3  -7   79.29    6.30
   3   3  -7   74.59    6.60
   3   3  -7   77.49    5.90
  -4  -3   7   73.19    7.40
   4   3  -7   86.19    6.40
   4   3  -7   75.99    6.80
   4   3  -7   83.39    6.80
   4   3  -7   79.29    7.00
   4   3  -7   79.59    7.10
  -5  -3   7   61.19    5.90
   5   3  -7   67.99    5.20
   5   3  -7   64.59    5.90
   5   3  -7   54.09    5.40
   5   3  -7   45.90    5.40
  -6  -3   7   45.10    5.10
   6   3  -7   55.29    4.50
   6   3  -7   41.20    4.60
   6   3  -7   49.99    4.70
  -7  -3   7   46.10    4.50
  -7  -3   7   33.50    5.10
   7   3  -7   36.00    4.50
   7   3  -7   47.80    4.30
  -8  -3   7   11.10    2.30
  -8  -3   7   13.60    2.30
  -8  -3   7    7.10    2.40
   8   3  -7   10.80    2.00
   6  -2   6    5.60    2.60
   6  -2   6    0.30    2.20
   5  -2   6    2.00    2.80
   5  -2   6    2.20    2.40
  -5   2  -6    2.00    1.00
   4  -2   6   17.40    3.70
   4  -2   6   11.60    3.70
  -4   2  -6   17.50    1.60
  -4   2  -6   17.00    2.10
   3  -2   6    0.90    2.40
   3  -2   6    1.20    2.10
  -3   2  -6    2.30    0.70
  -3   2  -6    1.80    0.80
  -3   2  -6    2.50    1.10
   2  -2   6    4.40    2.50
   2  -2   6    3.60    2.60
  -2   2  -6    3.80    0.90
  -2   2  -6    4.60    1.10
  -2   2  -6    4.00    1.30
  -2   2  -6    5.00    0.70
   1  -2   6   80.89    7.30
   1  -2   6   74.89    8.20
  -1   2  -6   85.69    6.70
  -1   2  -6   82.09    6.40
  -1   2  -6   68.39    6.10
  -1   2  -6   78.79    6.40
   0  -2   6    0.80    1.90
   0  -2   6    0.50    0.30
   0  -2   6    0.70    1.70
   0  -2   6    0.70    1.50
   0   2  -6   -0.50    0.90
   0   2  -6    0.80    0.70
   0   2  -6    1.50    0.90
   0   2  -6    0.60    0.30
   0   2  -6    0.00    0.20
  -1  -2   6  123.19   10.90
  -1  -2   6  148.09   10.10
  -1  -2   6  134.59   11.90
   1   2  -6  116.99   10.10
   1   2  -6  134.29   10.70
   1   2  -6  131.49   10.50
   1   2  -6  124.89   10.20
  -2  -2   6   80.69    8.00
  -2  -2   6   92.19    8.80
   2   2  -6  101.99    7.90
   2   2  -6  102.49    7.60
   2   2  -6   92.19    7.40
   2   2  -6   99.99    7.90
   2   2  -6   89.29    7.70
   2   2  -6   89.69    7.30
  -3  -2   6   17.70    3.70
  -3  -2   6   23.00    3.20
  -3  -2   6   25.80    2.60
  -3  -2   6   19.40    3.20
   3   2  -6   26.00    2.70
   3   2  -6   23.60    2.50
   3   2  -6   25.10    2.70
   3   2  -6   23.20    2.30
   3   2  -6   22.30    1.90
   3   2  -6   25.80    2.10
  -4  -2   6    1.90    1.60
  -4  -2   6    2.00    1.10
  -4  -2   6    1.30    2.00
   4   2  -6    1.80    0.40
   4   2  -6    2.60    1.20
   4   2  -6    2.60    0.80
   4   2  -6    3.10    0.60
   4   2  -6    2.80    1.10
   4   2  -6    2.60    1.20
  -5  -2   6   67.69    7.50
  -5  -2   6   69.49    6.40
  -5  -2   6   81.59    7.00
   5   2  -6   69.09    7.00
   5   2  -6   85.19    6.80
   5   2  -6   70.09    6.30
   5   2  -6   84.89    6.80
   5   2  -6   86.99    6.50
   5   2  -6   75.79    6.10
  -6  -2   6   26.50    4.50
  -6  -2   6   35.70    3.40
   6   2  -6   35.60    3.30
   6   2  -6   31.20    3.50
   6   2  -6   27.80    2.70
   6   2  -6   35.50    3.60
  -7  -2   6   32.30    4.70
  -7  -2   6   36.90    3.90
  -7  -2   6   38.20    3.50
  -7  -2   6   30.60    3.30
   7   2  -6   26.30    2.70
   7   2  -6   30.50    3.50
   7   2  -6   28.70    4.90
   7   2  -6   38.60    4.00
  -8  -2   6    4.60    1.60
  -8  -2   6   -0.90    1.90
  -8  -2   6   -1.00    1.90
  -8  -2   6    1.80    1.50
   8   2  -6    0.80    1.10
   8   2  -6    1.40    1.60
   8  -1   5    9.70    2.60
   8  -1   5    4.00    1.20
   7  -1   5    3.30    2.20
   7  -1   5    4.10    1.10
   6  -1   5    2.00    1.40
   6  -1   5    1.60    3.30
   5  -1   5   49.30    5.10
   5  -1   5   42.60    6.10
   5  -1   5   45.70    3.50
  -5   1  -5   35.60    4.10
   4  -1   5   15.50    3.90
   4  -1   5   22.80    1.70
   4  -1   5   18.00    3.30
  -4   1  -5   19.60    1.70
  -4   1  -5   16.80    2.60
   3  -1   5  101.79    9.50
   3  -1   5   95.59    7.30
  -3   1  -5   89.49    7.40
  -3   1  -5   91.69    7.50
   2  -1   5    9.40    0.90
   2  -1   5    6.20    1.90
   2  -1   5   10.00    2.80
  -2   1  -5   10.70    1.30
  -2   1  -5    9.70    0.90
  -2   1  -5   10.70    1.10
   1  -1   5  339.17   28.00
   1  -1   5  353.16   27.00
   1  -1   5  346.57   26.60
   1  -1   5  330.97   27.20
  -1   1  -5  318.27   26.70
  -1   1  -5  376.96   26.80
  -1   1  -5  332.77   26.70
  -1   1  -5  353.76   26.90
   0  -1   5  565.64   44.00
   0   1  -5  556.04   43.50
   0   1  -5  578.74   43.70
   0   1  -5  546.05   43.50
  -1  -1   5    0.70    1.10
  -1  -1   5    1.70    1.40
  -1  -1   5    1.00    1.50
  -1  -1   5    2.80    1.00
   1   1  -5    1.30    0.80
   1   1  -5    0.80    0.30
   1   1  -5    1.60    0.80
   1   1  -5    2.00    1.00
   1   1  -5    1.20    0.60
  -2  -1   5   18.10    2.20
  -2  -1   5   17.70    2.70
  -2  -1   5   15.70    2.80
  -2  -1   5   17.80    2.00
   2   1  -5   18.30    2.00
   2   1  -5   16.80    1.80
   2   1  -5   18.60    1.80
   2   1  -5   16.10    1.50
   2   1  -5   17.00    1.90
   2   1  -5   17.10    1.40
  -3  -1   5   55.29    4.60
  -3  -1   5   54.19    4.90
  -3  -1   5   62.89    4.70
  -3  -1   5   47.60    5.30
  -3  -1   5   49.30    5.00
   3   1  -5   58.19    4.60
   3   1  -5   53.79    4.70
   3   1  -5   55.39    4.40
   3   1  -5   54.19    4.40
   3   1  -5   55.99    4.80
   3   1  -5   56.59    4.80
  -4  -1   5  348.87   28.60
  -4  -1   5  311.67   29.20
  -4  -1   5  399.16   28.60
  -4  -1   5  409.36   29.00
   4   1  -5  366.86   29.00
   4   1  -5  395.76   29.00
   4   1  -5  369.06   28.70
   4   1  -5  393.96   28.60
   4   1  -5  344.87   28.50
   4   1  -5  363.36   28.50
   4   1  -5  347.07   28.70
  -5  -1   5   35.80    3.40
  -5  -1   5   28.90    4.30
  -5  -1   5   32.10    3.50
  -5  -1   5   27.40    3.10
   5   1  -5   33.60    3.40
   5   1  -5   29.80    2.70
   5   1  -5   35.30    3.50
   5   1  -5   37.30    3.20
   5   1  -5   36.40    2.70
  -6  -1   5   67.09    5.90
  -6  -1   5   59.19    5.50
  -6  -1   5   52.99    6.40
  -6  -1   5   72.89    5.60
   6   1  -5   59.29    5.20
   6   1  -5   64.99    6.00
   6   1  -5   67.99    5.20
   6   1  -5   63.49    5.90
   6   1  -5   73.39    5.70
  -7  -1   5   32.70    3.50
  -7  -1   5   28.90    4.70
   7   1  -5   29.20    3.30
   7   1  -5   26.10    3.20
   7   1  -5   28.20    3.20
  -8  -1   5   29.60    3.60
  -8  -1   5   39.70    3.80
   8   1  -5   38.40    3.80
   8   1  -5   37.40    3.10
   8   1  -5   38.70    4.40
  -9  -1   5    3.30    2.00
  -9  -1   5    4.50    1.50
  -9  -1   5    5.00    1.60
   9   1  -5    3.30    2.00
   9   1  -5    1.40    0.80
   9   0   4   19.40    2.00
   8   0   4   13.60    1.70
   8   0   4   15.30    1.40
   8   0   4   15.60    3.00
   7   0   4    1.00    1.60
   7   0   4    0.50    0.40
   7   0   4   -0.60    1.90
   7   0   4    1.30    1.20
   6   0   4   72.79    6.50
   6   0   4   86.69    6.50
   6   0   4   95.39    7.80
   6   0   4   82.89    6.60
   6   0   4   75.29    8.30
   5   0   4  205.38   17.70
   5   0   4  226.48   19.60
   5   0   4  230.78   18.60
   5   0   4  249.58   17.80
   5   0   4  252.87   17.80
  -5   0  -4  207.08   18.10
   4   0   4   33.70    4.50
   4   0   4   32.30    3.60
   4   0   4   36.70    2.60
   4   0   4   34.30    2.60
   4   0   4   29.50    2.60
  -4   0  -4   29.50    2.90
  -4   0  -4   26.20    3.00
   3   0   4   62.49    4.80
   3   0   4   56.69    5.50
   3   0   4   65.59    6.40
   2   0   4   71.29    6.20
   2   0   4   80.99    7.00
   2   0   4   74.29    5.60
  -2   0  -4   75.79    5.90
  -2   0  -4   59.69    5.60
   1   0   4  804.22   55.39
   1   0   4  773.32   56.39
   1   0   4  668.83   55.69
  -1   0  -4  697.53   55.29
  -1   0  -4  667.13   55.39
  -1   0  -4  794.12   55.59
  -1   0  -4  630.34   55.39
  -1   0  -4  701.93   55.49
   0   0  -4  977.90   75.99
   0   0  -4  947.81   76.09
   0   0  -4  961.50   75.99
   0   0  -4 1050.49   76.19
  -1   0   4   42.90    4.40
  -1   0   4   51.19    4.60
  -1   0   4   47.90    3.70
  -1   0   4   45.20    4.40
   1   0  -4   50.29    3.90
   1   0  -4   38.50    3.70
   1   0  -4   41.60    3.80
  -2   0   4 1002.50   79.99
  -2   0   4 1145.99   79.69
  -2   0   4 1017.40   79.99
  -2   0   4 1036.70   79.79
   2   0  -4 1031.60   79.79
   2   0  -4  933.81   79.49
   2   0  -4 1020.00   79.59
   2   0  -4 1055.49   79.79
  -3   0   4  327.87   24.40
  -3   0   4  359.56   24.40
  -3   0   4  359.96   24.60
  -3   0   4  305.47   24.50
  -3   0   4  291.57   24.80
   3   0  -4  318.17   24.50
   3   0  -4  309.57   24.30
   3   0  -4  306.57   24.30
   3   0  -4  287.67   24.50
   3   0  -4  270.27   24.30
   3   0  -4  329.77   24.70
   3   0  -4  303.47   24.70
  -4   0   4  110.69    8.50
  -4   0   4  118.89    8.60
  -4   0   4   93.59    8.90
  -4   0   4  113.19    8.40
  -4   0   4  104.09    8.60
   4   0  -4  102.49    8.30
   4   0  -4   93.69    8.50
   4   0  -4  108.49    8.80
   4   0  -4  106.49    8.80
   4   0  -4  109.89    8.30
   4   0  -4  115.89    8.60
   4   0  -4   95.59    8.40
  -5   0   4   10.20    1.40
  -5   0   4    7.40    2.10
  -5   0   4    9.70    1.50
  -5   0   4    8.20    1.60
  -5   0   4   13.70    1.90
   5   0  -4    9.90    1.80
   5   0  -4    8.20    1.40
   5   0  -4    8.30    1.00
   5   0  -4    9.50    1.80
   5   0  -4    9.10    1.00
  -6   0   4  134.89    9.50
  -6   0   4   99.79   10.00
  -6   0   4  109.69    9.30
  -6   0   4  120.99    9.50
  -6   0   4  124.09    9.50
   6   0  -4  110.89   10.00
   6   0  -4   99.89    9.10
   6   0  -4  114.49    9.80
   6   0  -4  110.69    9.80
   6   0  -4  124.59    9.10
   6   0  -4  117.89    9.50
  -7   0   4   44.40    4.20
  -7   0   4   41.50    5.30
   7   0  -4   39.90    3.90
   7   0  -4   54.89    5.30
   7   0  -4   51.39    4.80
   7   0  -4   46.80    4.60
   7   0  -4   55.19    4.60
  -8   0   4   15.30    2.50
  -8   0   4   17.90    2.60
  -8   0   4   13.80    3.30
   8   0  -4   19.70    3.50
   8   0  -4   19.30    1.80
  -9   0   4    4.70    1.80
  -9   0   4    2.60    1.80
  -9   0   4    3.20    1.50
   9   0  -4    2.70    0.80
   9   0  -4    2.90    2.00
   9   1   3   33.60    2.80
   9   1   3   31.50    2.60
  -9  -1  -3   27.70    3.70
   8   1   3    5.90    0.80
   8   1   3    6.30    0.80
   8   1   3    5.30    0.90
   8   1   3    5.60    2.00
  -8  -1  -3    6.90    1.80
  -8  -1  -3    5.20    1.80
   7   1   3   54.99    4.80
   7   1   3   39.80    4.50
   7   1   3   42.30    3.60
  -7  -1  -3   39.30    4.20
   6   1   3  184.68   14.00
   6   1   3  173.18   16.00
   6   1   3  172.98   14.00
   6   1   3  198.38   14.10
  -6  -1  -3  168.68   14.20
  -6  -1  -3  178.68   14.50
   5   1   3  405.46   31.20
   5   1   3  384.86   32.30
   5   1   3  407.86   31.20
   5   1   3  364.36   31.70
  -5  -1  -3  454.15   31.60
  -5  -1  -3  397.06   31.30
   4   1   3   81.69    7.40
   4   1   3   93.99    8.20
   4   1   3   90.19    6.90
   4   1   3   91.69    6.90
   4   1   3   87.69    6.90
  -4  -1  -3   86.49    7.10
   3   1   3   80.89    6.70
   3   1   3   84.29    7.90
   3   1   3   88.59    6.80
  -3  -1  -3   92.49    7.10
   2   1   3   12.90    1.40
   2   1   3   12.60    1.20
   2   1   3   14.10    1.60
   2   1   3   16.00    1.20
   2   1   3   17.60    2.50
  -2  -1  -3   17.30    1.80
   1   1   3  827.02   64.39
   1   1   3  934.81   64.09
   1   1   3  852.81   64.29
   1   1   3  852.01   64.69
  -1  -1  -3  768.02   64.19
  -1  -1  -3  777.62   64.09
  -1  -1  -3  872.41   64.29
  -1  -1  -3  756.92   64.09
   0   1   3   22.00    2.30
   0   1   3   17.50    1.60
   0   1   3   18.20    1.80
   0  -1  -3   14.80    1.60
   0  -1  -3   14.20    1.60
   0  -1  -3   16.90    1.60
  -1   1   3  344.37   25.50
  -1   1   3  299.47   25.80
  -1   1   3  338.47   25.50
  -1   1   3  375.76   25.90
   1  -1  -3  273.57   25.40
   1  -1  -3  308.07   25.50
   1  -1  -3  371.86   25.60
   1  -1  -3  338.57   25.40
   1  -1  -3  305.37   25.60
  -2   1   3   92.09    6.70
  -2   1   3   81.49    6.60
  -2   1   3   86.49    7.00
   2  -1  -3   80.59    6.60
   2  -1  -3   83.79    6.80
   2  -1  -3   72.79    6.60
   2  -1  -3   90.09    6.80
   2  -1  -3   76.59    6.60
   2  -1  -3   82.09    6.40
  -3   1   3   10.00    1.20
  -3   1   3    8.00    1.70
  -3   1   3    7.60    1.50
  -3   1   3    9.10    1.20
  -3   1   3    7.70    1.30
   3  -1  -3    7.60    1.10
   3  -1  -3    9.00    1.50
   3  -1  -3    7.80    0.80
   3  -1  -3    7.80    1.10
   3  -1  -3    7.50    1.40
   3  -1  -3    9.10    0.80
  -4   1   3  190.58   15.50
  -4   1   3  211.68   15.50
  -4   1   3  173.88   15.90
  -4   1   3  213.58   15.70
  -4   1   3  212.08   15.50
   4  -1  -3  174.28   15.60
   4  -1  -3  199.38   16.00
   4  -1  -3  211.28   15.70
   4  -1  -3  191.58   15.90
   4  -1  -3  191.08   15.40
   4  -1  -3  210.78   15.40
   4  -1  -3  195.48   15.80
  -5   1   3  380.76   28.40
  -5   1   3  350.06   28.20
   5  -1  -3  385.96   28.10
   5  -1  -3  374.66   28.40
   5  -1  -3  361.26   28.70
   5  -1  -3  341.47   28.10
   5  -1  -3  360.56   28.70
   5  -1  -3  343.17   28.80
  -6   1   3   91.69    7.40
  -6   1   3   77.19    8.00
   6  -1  -3   76.49    7.10
   6  -1  -3  101.69    7.10
   6  -1  -3   94.89    8.30
   6  -1  -3   92.19    7.90
   6  -1  -3   90.19    7.50
  -7   1   3    2.60    1.50
  -7   1   3    3.90    1.30
  -7   1   3    2.20    1.90
   7  -1  -3    4.20    0.80
   7  -1  -3    6.20    2.60
   7  -1  -3    3.50    1.50
   7  -1  -3    3.70    0.70
  -8   1   3   18.70    2.70
  -8   1   3   14.90    2.50
   8  -1  -3   22.50    3.90
   8  -1  -3   17.10    1.90
  -9   1   3    1.10    1.50
  -9   1   3    2.70    1.50
   9  -1  -3    2.40    2.20
   9  -1  -3    2.00    0.80
  10   2   2    1.00    0.70
 -10  -2  -2   -0.70    0.80
   9   2   2    3.90    0.90
   9   2   2    5.00    0.70
  -9  -2  -2    6.30    1.00
  -9  -2  -2    5.50    1.60
   8   2   2   22.90    2.00
   8   2   2   16.10    2.70
   8   2   2   18.60    1.80
   8   2   2   21.70    1.90
  -8  -2  -2   25.70    3.10
  -8  -2  -2   19.80    2.00
   7   2   2  126.49    9.70
   7   2   2  120.89    9.70
   7   2   2  133.99    9.80
   7   2   2  110.89   10.60
  -7  -2  -2  122.79    9.70
   6   2   2   15.70    1.60
  -6  -2  -2   19.00    1.70
   5   2   2   41.30    3.10
   5   2   2   30.30    4.90
   5   2   2   39.40    3.10
   5   2   2   40.20    3.10
   5   2   2   36.50    3.40
  -5  -2  -2   36.70    3.30
   4   2   2   97.29    9.10
   4   2   2  118.59    8.90
   4   2   2  113.79    9.60
   4   2   2  109.59    8.90
   4   2   2  131.39    8.90
  -4  -2  -2  113.09    9.10
   3   2   2   92.99    7.70
   3   2   2   95.99    7.70
   3   2   2  107.09    8.40
   3   2   2   91.99    7.70
   3   2   2  106.99    7.70
  -3  -2  -2  104.39    7.90
  -3  -2  -2   94.09    7.80
   2   2   2   27.10    1.90
   2   2   2   21.20    1.90
   2   2   2   24.60    2.60
   2   2   2   20.50    1.90
   2   2   2   25.10    1.90
   2   2   2   22.80    2.10
   2   2   2   24.80    1.80
  -2  -2  -2   20.40    2.00
  -2  -2  -2   21.20    1.90
   1   2   2  322.87   24.90
   1   2   2  311.27   24.40
   1   2   2  343.07   24.40
   1   2   2  313.87   24.40
  -1  -2  -2  343.17   24.50
  -1  -2  -2  277.67   24.40
  -1  -2  -2  297.77   24.40
   0   2   2  426.06   29.40
   0   2   2  353.46   29.30
   0   2   2  404.16   29.40
   0   2   2  387.56   29.30
   0  -2  -2  350.86   29.40
   0  -2  -2  339.97   29.40
   0  -2  -2  393.76   29.40
  -1   2   2   67.99    4.90
   1  -2  -2   60.09    4.90
   1  -2  -2   59.59    4.80
   1  -2  -2   54.19    4.90
   1  -2  -2   60.99    5.00
   1  -2  -2   60.09    4.90
   1  -2  -2   55.69    4.80
  -2   2   2  171.98   13.00
  -2   2   2  177.48   13.20
  -2   2   2  171.78   13.00
   2  -2  -2  159.18   13.10
   2  -2  -2  159.38   12.80
   2  -2  -2  151.98   12.80
   2  -2  -2  159.38   13.10
   2  -2  -2  154.68   13.10
   2  -2  -2  156.88   12.90
   2  -2  -2  198.48   12.80
   2  -2  -2  161.48   12.90
   2  -2  -2  149.88   13.00
  -3   2   2  602.44   48.30
  -3   2   2  682.93   48.00
  -3   2   2  642.54   48.20
  -3   2   2  683.73   48.10
   3  -2  -2  593.74   48.00
   3  -2  -2  595.14   48.40
   3  -2  -2  580.34   48.20
   3  -2  -2  659.43   48.60
   3  -2  -2  525.05   48.90
   3  -2  -2  593.64   48.40
   3  -2  -2  598.84   48.20
   3  -2  -2  682.03   48.00
  -4   2   2  136.89   12.60
  -4   2   2  152.38   12.20
  -4   2   2  154.88   12.40
  -4   2   2  165.78   12.30
   4  -2  -2  146.09   12.50
   4  -2  -2  169.18   12.10
   4  -2  -2  159.38   12.10
   4  -2  -2  155.98   12.80
   4  -2  -2  152.38   12.60
   4  -2  -2  159.78   12.70
  -5   2   2   54.59    5.10
  -5   2   2   43.70    4.80
  -5   2   2   54.89    4.40
   5  -2  -2   49.50    5.30
   5  -2  -2   48.40    4.00
   5  -2  -2   46.30    4.00
   5  -2  -2   47.80    5.10
  -6   2   2   74.59    7.40
  -6   2   2   86.99    7.10
   6  -2  -2   83.19    6.80
   6  -2  -2   92.29    7.70
   6  -2  -2   84.59    6.70
  -7   2   2   13.80    3.00
  -7   2   2   12.10    2.20
   7  -2  -2   10.30    1.60
   7  -2  -2   16.20    3.70
   7  -2  -2   11.70    1.30
  -8   2   2   -0.70    1.40
  -8   2   2    1.00    1.50
   8  -2  -2    0.90    0.90
   8  -2  -2    1.50    2.60
  10   3   1    6.30    1.40
 -10  -3  -1    3.40    1.50
   9   3   1   66.79    5.40
   9   3   1   54.29    5.30
   9   3   1   61.39    5.30
  -9  -3  -1   77.69    5.50
  -9  -3  -1   69.59    6.40
   8   3   1   36.70    3.20
   8   3   1   37.50    3.20
   8   3   1   40.50    3.30
  -8  -3  -1   42.80    3.40
  -8  -3  -1   35.70    3.70
   7   3   1    5.60    0.90
   7   3   1    3.40    1.20
   7   3   1    3.50    0.60
   7   3   1    4.70    0.70
  -7  -3  -1    4.70    1.00
  -7  -3  -1    6.50    1.40
   6   3   1  273.67   21.00
   6   3   1  279.37   21.00
   6   3   1  272.77   21.10
   6   3   1  303.67   21.00
   6   3   1  272.87   21.10
   6   3   1  237.78   21.50
  -6  -3  -1  242.78   21.20
  -6  -3  -1  273.07   21.30
  -6  -3  -1  275.57   21.10
   5   3   1   24.10    1.90
   5   3   1   22.80    2.00
   5   3   1   23.10    1.90
   5   3   1   23.10    1.90
   5   3   1   22.50    1.90
   5   3   1   20.50    2.00
  -5  -3  -1   20.90    2.00
  -5  -3  -1   21.40    2.10
   4   3   1  723.23   55.89
   4   3   1  742.93   55.89
   4   3   1  731.33   55.89
   4   3   1  701.43   55.89
   4   3   1  734.13   55.89
   4   3   1  780.12   55.79
  -4  -3  -1  630.04   55.89
  -4  -3  -1  738.43   55.99
   3   3   1  339.87   26.70
   3   3   1  359.56   26.80
   3   3   1  350.16   26.70
   3   3   1  359.66   26.70
   3   3   1  379.06   26.70
  -3  -3  -1  350.36   26.90
  -3  -3  -1  304.47   26.80
  -3  -3  -1  320.87   26.80
   2   3   1  315.07   25.60
   2   3   1  333.37   25.60
   2   3   1  338.77   25.70
   2   3   1  351.26   25.60
   2   3   1  337.57   25.60
  -2  -3  -1  335.07   25.80
  -2  -3  -1  305.07   25.70
   1   3   1  388.96   30.00
   1   3   1  394.16   30.00
   1   3   1  399.46   30.00
   1   3   1  419.16   29.90
   1   3   1  391.26   30.00
   1   3   1  372.46   30.00
   1   3   1  441.06   30.00
  -1  -3  -1  350.56   30.10
  -1  -3  -1  354.96   30.10
  -1  -3  -1  361.76   30.10
   0   3   1  447.26   36.60
   0   3   1  491.45   36.50
   0   3   1  474.35   36.50
   0   3   1  427.56   36.40
   0   3   1  405.86   36.50
   0  -3  -1  503.75   36.70
   0  -3  -1  510.75   36.70
   0  -3  -1  479.35   36.70
   0  -3  -1  465.95   36.70
   0  -3  -1  512.55   36.60
  -1   3   1  691.93   59.49
  -1   3   1  764.52   59.69
  -1   3   1  670.13   59.59
  -1   3   1  719.13   59.59
  -1   3   1  742.93   59.59
  -1   3   1  824.12   59.59
   1  -3  -1  866.91   59.59
   1  -3  -1  800.42   59.89
   1  -3  -1  786.82   59.89
   1  -3  -1  758.52   59.79
   1  -3  -1  857.01   59.79
  -2   3   1   11.00    1.70
  -2   3   1   16.00    1.80
  -2   3   1   14.40    1.60
   2  -3  -1   13.70    1.70
   2  -3  -1   14.90    1.70
   2  -3  -1   15.80    2.20
   2  -3  -1   15.90    2.10
   2  -3  -1   17.50    1.30
   2  -3  -1   14.70    1.90
  -3   3   1  296.37   22.30
  -3   3   1  264.57   22.20
  -3   3   1  274.67   22.50
   3  -3  -1  309.17   22.20
   3  -3  -1  285.17   22.80
   3  -3  -1  274.87   22.60
   3  -3  -1  298.87   23.30
   3  -3  -1  281.87   22.70
  -4   3   1   16.20    2.20
  -4   3   1   17.70    2.20
  -4   3   1   18.80    2.40
   4  -3  -1   20.50    2.80
   4  -3  -1   21.70    2.50
   4  -3  -1   20.60    1.70
   4  -3  -1   15.40    2.80
   4  -3  -1   16.60    2.00
   4  -3  -1   22.10    3.20
  -5   3   1  124.49   10.20
  -5   3   1  109.89    9.90
  -5   3   1  126.99   10.00
   5  -3  -1  100.39   12.10
   5  -3  -1  142.39   11.20
   5  -3  -1  137.29    9.80
  -6   3   1   14.10    2.30
  -6   3   1   15.90    2.30
   6  -3  -1   20.50    3.90
   6  -3  -1   17.70    1.90
   6  -3  -1   17.50    1.60
  -7   3   1   49.80    4.40
  -7   3   1   53.19    4.80
   7  -3  -1   54.59    4.10
   7  -3  -1   40.90    4.30
  -8   3   1    2.90    1.30
  -8   3   1    4.60    1.90
  -8   3   1    5.40    2.10
   8  -3  -1    4.40    1.80
   8  -3  -1    8.80    3.40
  10   4   0   44.30    3.40
 -10  -4   0   32.90    5.00
   9   4   0   41.30    3.30
   9   4   0   37.30    3.20
   9   4   0   32.70    3.20
  -9  -4   0   48.00    4.80
  -9  -4   0   40.70    3.90
  -9  -4   0   32.90    4.30
   8   4   0   74.39    5.80
   8   4   0   65.39    5.80
   8   4   0   74.09    5.90
  -8  -4   0   83.09    6.10
  -8  -4   0   65.59    6.30
   7   4   0   27.70    2.50
   7   4   0   30.20    2.50
   7   4   0   26.30    2.40
   7   4   0   29.00    2.40
   7   4   0   30.90    3.20
  -7  -4   0   26.90    3.10
  -7  -4   0   29.70    2.70
   6   4   0  442.46   34.10
   6   4   0  452.45   34.20
   6   4   0  426.66   34.10
   6   4   0  454.15   34.00
   6   4   0  436.56   34.00
  -6  -4   0  376.36   34.30
  -6  -4   0  470.35   34.20
  -6  -4   0  456.15   34.60
   5   4   0  128.99   10.40
   5   4   0  145.39   10.30
   5   4   0  125.59   10.30
   5   4   0  135.49   10.30
   5   4   0  126.79   10.30
  -5  -4   0  129.59   10.60
  -5  -4   0  131.49   10.40
   4   4   0   43.80    3.70
   4   4   0   44.00    3.70
   4   4   0   47.90    3.60
   4   4   0   46.60    3.80
   4   4   0   45.40    3.70
   4   4   0   44.60    3.70
   4   4   0   51.99    3.60
   4   4   0   46.10    3.70
  -4  -4   0   46.00    3.80
  -4  -4   0   41.00    3.80
  -4  -4   0   46.60    4.10
  -4  -4   0   47.40    4.00
   3   4   0  150.78   10.30
   3   4   0  135.29   10.40
   3   4   0  118.09   10.40
   3   4   0  133.59   10.40
   3   4   0  127.29   10.30
   3   4   0  136.79   10.30
   3   4   0  133.79   10.40
   3   4   0  135.39   10.30
  -3  -4   0  135.39   10.70
  -3  -4   0  130.99   10.50
  -3  -4   0  125.29   10.50
  -3  -4   0  126.39   10.40
   2   4   0   86.69    6.80
   2   4   0   86.39    6.80
   2   4   0   87.09    6.90
   2   4   0   90.69    6.80
  -2  -4   0   81.19    7.10
  -2  -4   0   82.09    6.90
  -2  -4   0   87.79    7.00
  -2  -4   0   93.99    7.20
  -2  -4   0   88.59    7.00
   1   4   0   78.39    6.40
   1   4   0   81.29    6.30
   1   4   0   83.19    6.30
  -1  -4   0   78.79    6.30
  -1  -4   0   70.69    6.40
  -1  -4   0   83.49    6.80
  -1  -4   0   84.39    6.50
  -1  -4   0   88.09    6.80
  -1  -4   0   81.09    6.50
   0   4   0   38.50    3.40
   0   4   0   38.20    3.40
   0   4   0   34.70    3.70
   0   4   0   39.60    3.30
   0  -4   0   45.40    3.30
   0  -4   0   49.50    4.10
   0  -4   0   45.90    3.50
   0  -4   0   43.50    3.90
  -1   4   0  509.75   42.40
  -1   4   0  489.45   42.60
  -1   4   0  616.94   42.40
  -1   4   0  554.14   42.40
   1  -4   0  558.54   42.40
   1  -4   0  537.35   42.90
   1  -4   0  570.64   42.80
   1  -4   0  555.54   42.30
   1  -4   0  537.75   42.80
  -2   4   0  104.29    9.40
  -2   4   0   99.69    9.10
  -2   4   0  121.19    9.10
   2  -4   0  118.19    9.50
   2  -4   0  124.19   10.70
   2  -4   0  119.49    9.90
   2  -4   0  118.99    9.70
   2  -4   0  122.19    9.00
  -3   4   0  203.88   16.90
  -3   4   0  191.68   16.60
  -3   4   0  196.48   16.60
   3  -4   0  221.18   17.70
   3  -4   0  222.38   17.10
   3  -4   0  218.58   18.20
   3  -4   0  228.58   16.40
  -4   4   0   63.69    6.40
  -4   4   0   81.99    6.90
  -4   4   0   79.29    6.50
  -4   4   0   79.19    6.40
   4  -4   0   85.89    6.20
   4  -4   0   86.79    7.80
   4  -4   0   71.99    8.10
  -5   4   0  258.47   20.80
  -5   4   0  274.07   20.70
  -5   4   0  293.47   21.30
   5  -4   0  277.27   20.60
   5  -4   0  221.18   22.10
  -6   4   0    8.80    1.50
  -6   4   0    5.60    1.60
  -6   4   0    9.60    1.70
   6  -4   0    4.40    1.40
   6  -4   0    8.20    3.00
  -7   4   0   11.20    1.80
  -7   4   0    8.90    1.50
  -7   4   0   10.60    1.50
   7  -4   0    5.20    1.80
   7  -4   0   10.70    3.20
  10   5  -1    1.50    0.60
 -10  -5   1    3.30    1.80
 -10  -5   1    2.50    1.00
   9   5  -1   10.00    1.30
  -9  -5   1   13.30    3.00
  -9  -5   1   12.30    1.70
  -9  -5   1    8.70    1.90
   8   5  -1   61.09    6.30
   8   5  -1   76.79    6.20
   8   5  -1   74.29    5.90
   8   5  -1   76.69    5.90
  -8  -5   1   85.99    6.90
  -8  -5   1   69.09    6.60
   7   5  -1    6.20    0.80
   7   5  -1    7.50    1.10
   7   5  -1    8.40    1.10
   7   5  -1    7.70    0.90
   7   5  -1   10.70    1.40
  -7  -5   1   10.70    2.50
  -7  -5   1    6.70    1.80
  -7  -5   1   11.40    2.80
  -7  -5   1    5.60    1.40
  -7  -5   1    9.20    1.50
   6   5  -1   73.99    5.80
   6   5  -1   72.39    6.00
   6   5  -1   72.49    5.80
   6   5  -1   71.19    6.00
  -6  -5   1   82.79    6.50
  -6  -5   1   72.29    6.40
  -6  -5   1   62.39    6.40
  -6  -5   1   86.29    6.10
   5   5  -1   82.59    6.50
   5   5  -1   81.99    6.50
   5   5  -1   85.99    6.60
   5   5  -1   81.39    6.40
   5   5  -1   74.19    6.50
   5   5  -1   82.89    6.40
   5   5  -1   78.39    6.60
  -5  -5   1   82.49    7.50
  -5  -5   1   78.19    6.90
  -5  -5   1   94.19    7.20
  -5  -5   1   75.89    7.00
   4   5  -1   52.79    4.10
   4   5  -1   54.49    4.30
   4   5  -1   53.59    4.20
   4   5  -1   48.40    4.30
   4   5  -1   52.79    4.10
   4   5  -1   51.19    4.30
   4   5  -1   49.00    4.20
  -4  -5   1   54.39    4.30
  -4  -5   1   50.79    4.70
  -4  -5   1   51.69    4.60
  -4  -5   1   54.49    4.90
   3   5  -1  140.59   10.90
   3   5  -1  143.59   10.90
   3   5  -1  134.89   11.00
   3   5  -1  142.99   10.90
   3   5  -1  138.69   10.70
   3   5  -1  134.59   10.80
  -3  -5   1  117.19   11.00
  -3  -5   1  143.59   11.20
  -3  -5   1  142.99   11.20
  -3  -5   1  148.09   10.90
   2   5  -1   98.59    8.60
   2   5  -1  108.49    8.60
   2   5  -1  107.99    8.70
  -2  -5   1  119.79    9.30
  -2  -5   1  120.29    8.90
  -2  -5   1  111.49    8.60
  -2  -5   1  103.99    9.00
   1   5  -1   30.20    2.80
   1   5  -1   36.30    2.90
   1   5  -1   31.30    2.80
   1   5  -1   33.10    2.80
  -1  -5   1   36.60    3.00
  -1  -5   1   41.00    4.70
  -1  -5   1   29.50    3.40
  -1  -5   1   34.50    3.80
  -1  -5   1   34.70    3.70
  -1  -5   1   36.50    3.30
   0   5  -1   43.00    3.90
   0   5  -1   42.90    3.80
   0   5  -1   50.49    4.00
   0   5  -1   43.50    4.30
   0   5  -1   47.70    3.90
   0  -5   1   56.09    4.60
   0  -5   1   52.29    3.90
  -1   5  -1  703.43   51.79
  -1   5  -1  697.83   51.79
   1  -5   1  647.54   52.39
   1  -5   1  673.73   52.39
   1  -5   1  654.63   53.59
   1  -5   1  637.44   52.59
  -2   5  -1    4.90    1.80
  -2   5  -1    3.90    1.10
  -2   5  -1    5.00    1.10
  -2   5  -1    3.30    1.20
   2  -5   1    0.90    2.20
   2  -5   1    2.60    1.90
   2  -5   1    3.60    2.60
  -3   5  -1 1164.98   85.99
  -3   5  -1  989.90   86.49
  -3   5  -1 1286.07   86.09
   3  -5   1 1026.30   88.19
   3  -5   1 1089.79   87.19
  -4   5  -1   21.50    2.10
  -4   5  -1   17.20    1.90
  -4   5  -1   19.90    2.20
   4  -5   1   15.00    3.50
   4  -5   1   11.10    3.80
  -5   5  -1   17.10    2.10
  -5   5  -1   16.50    1.90
  -5   5  -1   13.00    1.70
   5  -5   1   14.10    3.90
  -6   5  -1    9.90    1.50
  -6   5  -1    8.70    1.40
  -6   5  -1    9.50    1.50
   6  -5   1    3.80    2.80
   9   6  -2   22.60    2.20
  -9  -6   2   23.50    3.20
  -9  -6   2   27.50    2.60
  -9  -6   2   24.50    3.80
   8   6  -2   15.80    1.60
   8   6  -2   12.90    1.90
   8   6  -2   15.10    1.70
   8   6  -2   12.90    1.60
  -8  -6   2   14.80    2.60
  -8  -6   2   16.90    3.30
  -8  -6   2   19.30    2.10
   7   6  -2   20.90    2.30
   7   6  -2   18.40    1.80
   7   6  -2   20.30    2.00
  -7  -6   2   17.90    3.00
  -7  -6   2   23.30    3.40
  -7  -6   2   25.10    2.40
  -7  -6   2   24.10    3.40
   6   6  -2   79.19    6.90
   6   6  -2   72.09    6.50
   6   6  -2   84.99    6.80
   6   6  -2   80.29    6.70
  -6  -6   2  101.69    6.90
  -6  -6   2   86.19    7.50
   5   6  -2   19.00    1.90
   5   6  -2   20.10    2.10
   5   6  -2   17.40    2.00
   5   6  -2   18.10    2.00
  -5  -6   2   22.20    2.10
  -5  -6   2   19.60    3.00
  -5  -6   2   24.80    3.00
  -5  -6   2   21.30    3.10
  -5  -6   2   14.20    3.30
   4   6  -2    9.90    1.40
   4   6  -2   10.80    1.50
   4   6  -2   12.50    1.50
   4   6  -2   11.80    1.60
   4   6  -2   13.20    1.40
   4   6  -2    9.60    1.30
  -4  -6   2   13.70    1.60
  -4  -6   2   14.40    2.60
  -4  -6   2   10.70    2.40
  -4  -6   2   13.60    2.30
   3   6  -2   14.10    1.40
   3   6  -2   13.10    1.60
   3   6  -2   13.00    1.60
   3   6  -2   13.30    1.50
   3   6  -2   10.80    1.40
  -3  -6   2   12.80    2.50
  -3  -6   2   10.90    1.90
  -3  -6   2   11.20    2.90
  -3  -6   2   12.70    1.50
  -3  -6   2   15.10    2.10
  -3  -6   2   16.10    2.60
   2   6  -2    1.80    0.80
   2   6  -2    1.70    0.80
   2   6  -2    0.90    0.60
   2   6  -2    1.60    0.60
   2   6  -2    2.40    0.80
  -2  -6   2   -0.10    1.80
  -2  -6   2    1.10    1.70
  -2  -6   2    0.20    2.00
  -2  -6   2    1.70    1.80
  -2  -6   2    0.40    1.10
   1   6  -2  110.69    9.30
   1   6  -2  122.89    9.40
   1   6  -2  116.39    9.40
   1   6  -2  130.69    9.60
  -1  -6   2  129.19   10.50
  -1  -6   2  118.89    9.90
  -1  -6   2  115.69   11.40
  -1  -6   2  111.99    9.40
   0   6  -2  152.88   12.50
   0   6  -2  157.18   12.50
   0   6  -2  166.98   12.60
   0   6  -2  141.59   13.00
   0  -6   2  179.28   15.10
  -1   6  -2   57.59    6.10
  -1   6  -2   65.99    5.80
  -1   6  -2   80.19    5.60
  -1   6  -2   69.19    5.40
   1  -6   2   65.79    8.30
   1  -6   2   62.19    7.00
  -2   6  -2   12.20    1.50
  -2   6  -2    7.40    2.20
  -2   6  -2   13.30    1.50
  -2   6  -2   13.30    1.70
  -2   6  -2   11.70    1.20
   2  -6   2    7.40    3.10
   2  -6   2    6.40    3.40
  -3   6  -2   60.79    4.70
  -3   6  -2   52.89    4.40
  -3   6  -2   54.29    4.60
  -3   6  -2   49.80    4.30
   3  -6   2   42.30    6.40
  -4   6  -2   23.40    2.20
  -4   6  -2   25.30    2.40
  -4   6  -2   27.30    2.60
  -4   6  -2   25.70    2.40
   4  -6   2   17.60    4.60
   4  -6   2   24.10    4.60
  -5   6  -2   14.90    2.00
  -5   6  -2   11.50    1.90
   5  -6   2   10.70    4.60
   9   7  -3    3.50    0.70
  -9  -7   3    6.10    1.90
  -9  -7   3    1.80    1.80
  -9  -7   3    4.60    1.10
   8   7  -3   21.20    1.90
   8   7  -3   16.60    1.70
  -8  -7   3   19.60    3.20
  -8  -7   3   18.00    3.40
  -8  -7   3   15.30    2.20
   7   7  -3   16.10    1.80
   7   7  -3   13.10    1.90
   7   7  -3   15.40    1.60
  -7  -7   3   17.30    3.20
  -7  -7   3   16.40    3.20
  -7  -7   3   18.30    2.10
   6   7  -3   14.80    2.00
   6   7  -3   16.80    1.80
   6   7  -3   14.90    1.60
   5   7  -3   27.30    2.40
   5   7  -3   28.70    2.50
   5   7  -3   28.60    2.70
   5   7  -3   28.60    2.60
   5   7  -3   21.80    2.70
  -5  -7   3   20.50    3.40
  -5  -7   3   30.10    3.80
  -5  -7   3   28.10    4.00
   4   7  -3   10.20    1.40
   4   7  -3    8.00    1.40
   4   7  -3   11.40    1.20
   4   7  -3    9.40    1.60
   4   7  -3   14.10    1.60
  -4  -7   3   11.80    2.90
  -4  -7   3    6.90    2.30
  -4  -7   3    5.80    1.80
  -4  -7   3    8.60    3.20
   3   7  -3   45.90    3.60
   3   7  -3   43.30    3.70
   3   7  -3   42.90    3.90
   3   7  -3   42.30    3.90
   3   7  -3   38.40    3.50
   3   7  -3   43.70    3.80
  -3  -7   3   39.60    4.60
   2   7  -3   19.20    3.00
   2   7  -3   18.40    1.90
   2   7  -3   16.00    1.90
   2   7  -3   11.90    1.40
   2   7  -3   15.30    1.70
   2   7  -3   14.10    1.50
  -2  -7   3   12.50    3.90
  -2  -7   3   14.90    3.40
  -2  -7   3   14.30    2.60
   1   7  -3   42.50    3.50
   1   7  -3   45.00    3.80
   1   7  -3   36.80    3.40
   1   7  -3   46.10    3.50
   1   7  -3   43.10    5.40
   1   7  -3   42.80    3.80
  -1  -7   3   38.50    4.30
  -1  -7   3   41.50    5.10
  -1  -7   3   31.80    5.90
   0   7  -3   12.90    1.60
   0   7  -3   17.30    1.70
   0   7  -3   16.50    1.70
   0   7  -3   18.90    2.10
   0  -7   3   13.90    4.00
   0  -7   3   25.50    4.10
  -1   7  -3   43.10    3.50
  -1   7  -3   43.50    3.80
  -1   7  -3   38.20    3.40
   1  -7   3   35.50    5.40
  -2   7  -3   15.30    1.60
  -2   7  -3   14.30    1.60
  -2   7  -3   16.50    2.00
   2  -7   3   10.50    3.70
   2  -7   3    9.00    3.80
  -3   7  -3   30.40    2.70
  -3   7  -3   25.20    2.40
  -3   7  -3   28.00    2.70
   3  -7   3   16.90    4.10
   4  -7   3   13.30    3.70
   7   8  -4   15.80    1.40
   7   8  -4   17.30    1.60
   7   8  -4   12.50    1.70
  -7  -8   4    9.20    2.70
  -7  -8   4   10.10    2.60
   6   8  -4   15.20    2.00
   6   8  -4   16.10    1.90
   6   8  -4   18.50    1.80
  -6  -8   4   16.00    3.00
   5   8  -4   46.50    3.70
   5   8  -4   40.70    3.60
   5   8  -4   42.50    3.90
  -5  -8   4   42.40    4.90
   4   8  -4    2.00    1.10
   4   8  -4    2.60    0.70
   4   8  -4    3.10    0.90
   4   8  -4    3.60    1.20
   4   8  -4    2.60    0.80
   4   8  -4    3.30    1.20
   4   8  -4    2.40    1.00
  -4  -8   4    1.90    2.10
  -4  -8   4    0.50    2.30
   3   8  -4    5.30    1.30
   3   8  -4    4.90    1.30
   3   8  -4    4.60    1.30
   3   8  -4    4.80    1.00
   3   8  -4    5.30    0.80
  -3  -8   4    3.60    2.10
  -3  -8   4    2.90    2.80
   2   8  -4    6.10    1.40
   2   8  -4    5.90    1.10
   2   8  -4    6.50    1.40
   2   8  -4    7.40    1.20
  -2  -8   4    0.90    3.00
  -2  -8   4    4.40    2.00
   1   8  -4   10.40    1.80
   1   8  -4   12.40    1.30
   1   8  -4    7.10    1.70
   1   8  -4   12.80    1.50
   1   8  -4   11.40    1.80
   0   8  -4    2.30    1.20
   0   8  -4    0.50    1.00
   0   8  -4    0.10    1.10
   0   8  -4    0.50    0.60
   0  -8   4    0.00    2.30
  -1   8  -4    9.30    1.10
  -1   8  -4    7.80    1.60
  -1   8  -4    6.60    1.50
   1  -8   4    9.00    2.90
  -1   4  -9   67.79    5.70
  -1   4  -9   64.59    5.50
  -1   4  -9   65.69    6.00
   0  -4   9   13.30    3.70
   0   4  -9   19.70    3.00
   0   4  -9   25.30    3.30
   0   4  -9   21.40    2.10
   1   4  -9   35.70    3.90
   1   4  -9   38.90    3.50
   1   4  -9   36.20    3.80
   1   4  -9   38.00    3.70
  -2  -4   9    4.10    2.10
   2   4  -9    5.80    1.30
   2   4  -9    8.50    1.60
   2   4  -9    4.00    1.70
   2   4  -9    9.20    1.40
  -3  -4   9   15.20    2.90
   3   4  -9   18.00    2.10
   3   4  -9   13.20    2.10
   3   4  -9   12.60    2.90
   3   4  -9   12.90    2.20
  -4  -4   9   11.50    2.80
   4   4  -9   12.40    1.90
   4   4  -9   11.50    1.80
   4   4  -9    9.90    1.90
   4   4  -9   11.70    2.00
  -5  -4   9   14.40    2.60
   5   4  -9   19.40    2.10
   5   4  -9   13.70    2.20
   4  -3   8    1.10    2.40
  -4   3  -8    1.00    0.70
   3  -3   8    5.40    3.20
  -3   3  -8    6.20    1.40
  -3   3  -8   10.20    1.40
  -3   3  -8    9.40    1.40
   2  -3   8    3.80    3.10
  -2   3  -8    6.30    1.30
  -2   3  -8    6.10    1.20
  -2   3  -8    5.70    1.20
   1  -3   8    1.70    2.60
  -1   3  -8    6.60    1.40
  -1   3  -8    6.10    1.70
  -1   3  -8    4.40    1.20
   0  -3   8    8.00    3.20
   0   3  -8    6.80    2.00
   0   3  -8    8.20    1.90
   0   3  -8    7.80    1.40
   0   3  -8    7.00    1.50
  -1  -3   8    5.50    3.30
  -1  -3   8    3.20    3.40
   1   3  -8    8.10    1.70
   1   3  -8    6.90    1.70
   1   3  -8    5.90    1.60
   1   3  -8    8.70    2.10
  -2  -3   8   31.00    4.70
  -2  -3   8   30.40    5.00
   2   3  -8   42.90    3.80
   2   3  -8   49.70    4.60
   2   3  -8   41.20    4.10
   2   3  -8   39.90    4.00
  -3  -3   8   94.29   10.00
   3   3  -8  117.49   10.00
   3   3  -8  117.59    9.70
   3   3  -8  119.19   10.00
   3   3  -8  120.09    9.20
   3   3  -8  129.99    9.60
  -4  -3   8   37.10    5.00
   4   3  -8   43.40    4.30
   4   3  -8   50.99    4.70
   4   3  -8   48.40    4.70
   4   3  -8   52.69    4.30
  -5  -3   8   43.90    4.90
   5   3  -8   43.20    4.50
   5   3  -8   48.90    4.30
   5   3  -8   44.20    4.50
  -6  -3   8    5.10    2.50
  -6  -3   8    4.50    2.00
   6   3  -8    4.00    1.60
   6   3  -8    9.80    2.10
   6   3  -8    8.90    1.50
  -7  -3   8   23.10    3.20
   7   3  -8   29.40    2.80
   7   3  -8   23.20    3.10
   6  -2   7    9.70    2.50
   6  -2   7    1.40    2.00
   5  -2   7    2.80    2.90
   5  -2   7    4.10    2.40
  -5   2  -7    5.90    1.40
  -5   2  -7    7.20    1.00
   4  -2   7    3.50    3.10
   4  -2   7    3.00    2.30
  -4   2  -7    4.40    0.90
  -4   2  -7    2.80    1.20
  -4   2  -7    4.60    1.00
   3  -2   7   24.20    5.00
   3  -2   7   29.80    4.20
  -3   2  -7   29.50    2.70
  -3   2  -7   29.10    2.70
  -3   2  -7   26.80    3.00
   2  -2   7   10.50    3.50
   2  -2   7   15.70    3.30
  -2   2  -7   17.20    1.90
  -2   2  -7   16.40    1.90
  -2   2  -7   20.10    2.30
   1  -2   7   50.89    7.00
  -1   2  -7   61.79    5.20
  -1   2  -7   64.49    5.50
  -1   2  -7   62.69    5.10
   0   2  -7 1169.38   90.99
   0   2  -7 1204.58   91.29
   0   2  -7 1151.88   91.09
  -1  -2   7  559.14   41.10
  -1  -2   7  466.85   41.70
  -1  -2   7  510.95   42.90
   1   2  -7  577.14   41.40
   1   2  -7  478.05   41.10
   1   2  -7  580.54   41.80
   1   2  -7  546.35   41.50
  -2  -2   7  118.39   10.90
  -2  -2   7  116.09   11.60
  -2  -2   7  132.89   10.10
   2   2  -7  132.49   10.50
   2   2  -7  126.49   10.10
   2   2  -7  114.19   10.00
   2   2  -7  140.69   10.70
   2   2  -7  142.39   10.80
   2   2  -7  138.49   10.40
  -3  -2   7   48.20    5.10
   3   2  -7   54.79    4.50
   3   2  -7   52.69    4.10
   3   2  -7   49.40    4.50
   3   2  -7   55.09    4.90
   3   2  -7   50.49    4.80
   3   2  -7   43.40    4.00
  -4  -2   7   10.40    2.50
  -4  -2   7    6.80    2.70
   4   2  -7   12.30    1.80
   4   2  -7   11.50    2.20
   4   2  -7   13.30    1.20
   4   2  -7    7.70    1.00
   4   2  -7   10.90    1.70
   4   2  -7   13.00    2.30
  -5  -2   7   40.10    4.40
   5   2  -7   37.30    3.80
   5   2  -7   36.30    3.80
   5   2  -7   29.40    3.20
   5   2  -7   41.40    3.60
   5   2  -7   29.50    2.80
  -6  -2   7   26.50    3.10
  -6  -2   7   30.60    3.40
  -6  -2   7   31.20    4.70
   6   2  -7   35.50    2.80
  -7  -2   7    8.10    2.80
  -7  -2   7    8.20    2.00
  -7  -2   7    4.50    1.80
  -7  -2   7    5.80    1.70
   7   2  -7    7.80    2.10
   7   2  -7   10.90    2.00
   7   2  -7   12.30    1.70
   7   2  -7    8.50    1.70
  -8  -2   7    4.00    1.50
  -8  -2   7    1.50    2.20
   8   2  -7    6.90    1.50
   8   2  -7    6.00    1.80
   7  -1   6    1.20    2.40
   7  -1   6    0.80    2.00
   6  -1   6   19.00    4.60
   5  -1   6    8.60    0.90
   5  -1   6    7.30    2.50
   5  -1   6    6.50    3.20
  -5   1  -6   10.20    1.50
   4  -1   6   37.50    3.00
   4  -1   6   38.10    4.60
   4  -1   6   34.60    5.70
  -4   1  -6   42.70    3.70
  -4   1  -6   40.20    3.30
  -4   1  -6   37.00    3.10
  -4   1  -6   30.90    3.70
   3  -1   6    8.50    0.90
   3  -1   6    7.80    2.40
   3  -1   6    7.30    3.20
  -3   1  -6   10.60    1.20
  -3   1  -6   14.90    2.10
  -3   1  -6   10.30    1.60
   2  -1   6  121.09   10.30
   2  -1   6  118.39    9.30
   2  -1   6  112.59   11.20
  -2   1  -6  124.39    9.70
  -2   1  -6  114.79    9.40
  -2   1  -6  121.09    9.40
   1  -1   6  139.09   10.90
  -1   1  -6  130.39   11.30
  -1   1  -6  139.29   11.10
  -1   1  -6  146.69   11.10
  -1   1  -6  147.19   11.30
   0   1  -6   71.19    5.70
   0   1  -6   67.39    5.90
   0   1  -6   69.29    5.70
  -1  -1   6   89.19    7.90
  -1  -1   6   95.49    8.80
   1   1  -6   95.69    7.50
   1   1  -6   97.79    7.60
   1   1  -6   90.49    7.60
   1   1  -6   77.39    7.30
   1   1  -6  101.29    7.80
   1   1  -6  100.79    7.80
  -2  -1   6   10.00    2.60
  -2  -1   6   13.30    2.60
  -2  -1   6   10.00    1.80
   2   1  -6   14.40    1.70
   2   1  -6   13.90    1.20
   2   1  -6   15.50    1.90
   2   1  -6   13.00    1.20
   2   1  -6   14.90    1.60
   2   1  -6   18.20    2.60
  -3  -1   6   26.30    3.40
  -3  -1   6   27.60    3.10
  -3  -1   6   31.10    3.60
  -3  -1   6   36.50    3.70
   3   1  -6   37.50    3.10
   3   1  -6   39.80    3.50
   3   1  -6   39.10    3.50
   3   1  -6   34.40    3.20
   3   1  -6   36.70    2.80
   3   1  -6   32.60    2.80
  -4  -1   6   12.30    2.10
  -4  -1   6   17.60    2.70
  -4  -1   6   14.20    3.50
   4   1  -6   17.30    1.50
   4   1  -6   20.80    2.10
   4   1  -6   24.10    2.60
   4   1  -6   17.10    2.00
   4   1  -6   18.40    2.30
  -5  -1   6   51.29    4.90
  -5  -1   6   56.59    5.10
  -5  -1   6   52.59    6.10
   5   1  -6   60.99    4.90
   5   1  -6   63.09    4.60
  -6  -1   6    5.50    1.90
  -6  -1   6    4.90    2.60
  -6  -1   6    7.40    1.90
  -6  -1   6    4.30    1.60
   6   1  -6    6.30    1.60
   6   1  -6    4.30    0.70
   6   1  -6    6.40    0.90
   6   1  -6    5.90    1.20
   6   1  -6    6.00    1.90
  -7  -1   6    6.90    1.80
  -7  -1   6    3.80    1.70
  -7  -1   6    5.60    2.60
   7   1  -6    4.80    1.60
   7   1  -6    6.30    2.00
   7   1  -6    5.00    0.80
   7   1  -6    9.50    1.80
   7   1  -6   11.40    2.80
  -8  -1   6   -0.20    2.00
  -8  -1   6    0.50    1.60
  -8  -1   6    1.50    1.50
   8   1  -6    0.40    1.20
   8   1  -6    3.30    1.90
   8   0   5    4.70    1.30
   8   0   5    7.90    2.60
   8   0   5    6.00    0.70
   7   0   5   27.90    4.20
   7   0   5   25.80    2.50
   6   0   5    3.50    1.90
   6   0   5    4.10    0.60
   6   0   5    3.50    0.80
   6   0   5    1.90    2.20
  -6   0  -5    3.00    1.00
   5   0   5   17.30    1.40
   5   0   5   14.10    1.50
   5   0   5   18.90    3.10
   5   0   5   17.80    3.80
  -5   0  -5   11.50    2.20
  -5   0  -5   12.60    2.00
   4   0   5   47.50    3.40
   4   0   5   37.10    3.40
   4   0   5   48.60    5.80
  -4   0  -5   38.20    3.90
   3   0   5   27.70    4.10
   3   0   5   26.90    3.20
   3   0   5   28.90    2.20
  -3   0  -5   21.50    3.00
   2   0   5  337.87   24.90
   2   0   5  327.97   26.40
   2   0   5  303.97   25.50
  -2   0  -5  329.27   25.20
  -2   0  -5  333.37   25.20
  -2   0  -5  297.17   25.00
  -2   0  -5  324.47   25.00
   1   0   5   59.69    5.50
   1   0   5   66.89    4.80
   1   0   5   62.59    6.20
  -1   0  -5   57.29    5.30
  -1   0  -5   64.59    5.20
  -1   0  -5   56.79    4.90
   0   0   5  365.56   27.20
   0   0   5  361.26   27.90
   0   0  -5  340.37   27.30
   0   0  -5  338.07   27.30
  -1   0   5   87.99    7.70
  -1   0   5   89.49    7.10
  -1   0   5   74.79    6.90
   1   0  -5   91.59    7.00
   1   0  -5   81.49    6.90
   1   0  -5   85.39    6.90
   1   0  -5   92.79    7.10
  -2   0   5 1309.37   97.39
  -2   0   5 1234.98   97.19
  -2   0   5 1223.38   97.79
  -2   0   5 1192.98   97.19
   2   0  -5 1210.08   97.29
   2   0  -5 1259.77   97.19
   2   0  -5 1317.57   97.49
   2   0  -5 1295.97   97.49
   2   0  -5 1249.07   97.29
   2   0  -5 1289.97   97.39
  -3   0   5  213.28   15.80
  -3   0   5  202.18   16.00
  -3   0   5  190.08   15.80
   3   0  -5  191.58   15.90
   3   0  -5  214.18   16.10
   3   0  -5  205.08   15.90
   3   0  -5  195.18   15.70
   3   0  -5  204.28   16.10
  -4   0   5  234.28   18.50
  -4   0   5  208.48   18.20
  -4   0   5  266.47   18.30
  -4   0   5  251.97   18.50
   4   0  -5  246.28   18.70
   4   0  -5  215.38   18.30
   4   0  -5  257.67   18.40
   4   0  -5  207.38   18.10
   4   0  -5  229.78   18.10
   4   0  -5  243.28   18.70
   4   0  -5  207.68   18.40
  -5   0   5    5.80    2.10
  -5   0   5   12.60    2.00
  -5   0   5   10.90    1.80
  -5   0   5   10.20    1.70
  -5   0   5    6.00    2.20
   5   0  -5   10.60    2.20
   5   0  -5   11.00    2.10
   5   0  -5    8.90    1.00
   5   0  -5    9.10    1.70
  -6   0   5   16.90    3.50
  -6   0   5   12.50    2.40
  -6   0   5   22.90    2.70
   6   0  -5   18.70    2.60
   6   0  -5   19.90    2.90
   6   0  -5   18.40    2.70
   6   0  -5   13.70    1.80
   6   0  -5   18.50    2.40
   6   0  -5   21.20    1.70
  -7   0   5   17.00    3.70
  -7   0   5   22.60    2.80
  -7   0   5   18.90    2.60
   7   0  -5   23.30    2.90
   7   0  -5   16.80    1.90
   7   0  -5   23.10    3.40
   7   0  -5   21.10    3.60
   7   0  -5   23.60    2.70
  -8   0   5    7.10    2.60
  -8   0   5   12.80    2.20
  -8   0   5   11.00    2.00
   8   0  -5    8.90    1.30
   8   0  -5   13.80    2.80
  -9   0   5    0.80    1.50
  -9   0   5    2.60    1.50
  -9   0   5   -0.10    1.60
   9   0  -5    0.80    1.90
   9   0  -5    1.60    0.90
   9   1   4   13.90    1.70
   9   1   4   17.30    1.40
   8   1   4   12.20    2.70
   8   1   4   17.80    1.70
   8   1   4   15.20    1.40
   7   1   4   50.69    3.90
   7   1   4   47.40    5.00
   7   1   4   45.80    3.90
   6   1   4   16.10    2.50
   6   1   4   11.40    2.80
   6   1   4   15.40    1.40
   6   1   4   13.80    1.20
   6   1   4   14.00    1.30
  -6  -1  -4   13.20    2.10
  -6  -1  -4   10.50    1.40
  -6  -1  -4    7.40    2.80
   5   1   4   72.39    6.10
   5   1   4   62.89    5.40
   5   1   4   69.79    5.30
   5   1   4   73.49    7.10
  -5  -1  -4   57.29    5.60
  -5  -1  -4   66.79    5.60
   4   1   4  116.09    9.70
   4   1   4  110.89    8.10
   4   1   4  100.69    8.60
   4   1   4  100.09    8.00
   4   1   4  109.29    8.10
  -4  -1  -4   94.39    8.30
  -4  -1  -4  109.59    8.30
  -4  -1  -4   85.89    8.40
   3   1   4   31.70    2.50
   3   1   4   33.60    4.00
   3   1   4   34.10    2.50
   3   1   4   31.90    3.20
  -3  -1  -4   31.30    2.70
  -3  -1  -4   31.00    2.80
  -3  -1  -4   25.70    3.00
   2   1   4  252.67   20.20
   2   1   4  241.18   20.10
   2   1   4  280.07   20.20
   2   1   4  264.07   20.50
  -2  -1  -4  225.68   20.20
  -2  -1  -4  245.18   20.40
  -2  -1  -4  284.77   20.20
  -2  -1  -4  289.77   20.30
   1   1   4   57.29    5.30
   1   1   4   59.19    4.20
  -1  -1  -4   56.39    4.60
  -1  -1  -4   51.89    4.40
  -1  -1  -4   47.00    4.30
  -1  -1  -4   50.59    4.40
   0   1   4 2372.86  165.38
   0   1   4 2019.10  165.08
   0  -1  -4 2022.40  165.18
   0  -1  -4 2192.58  165.28
   0  -1  -4 2001.30  165.08
   0  -1  -4 2161.38  165.18
   0  -1  -4 2208.68  165.18
  -1   1   4  430.36   32.30
  -1   1   4  394.46   32.70
  -1   1   4  443.16   32.20
  -1   1   4  443.36   32.40
  -1   1   4  452.75   32.30
   1  -1  -4  387.86   32.20
   1  -1  -4  436.56   32.40
   1  -1  -4  382.76   32.20
   1  -1  -4  369.66   32.30
   1  -1  -4  420.06   32.40
  -2   1   4  455.05   31.60
  -2   1   4  439.36   31.70
  -2   1   4  444.06   31.70
   2  -1  -4  400.06   31.70
   2  -1  -4  368.96   31.60
   2  -1  -4  420.96   31.80
   2  -1  -4  355.46   31.60
   2  -1  -4  382.86   31.60
   2  -1  -4  393.06   31.80
  -3   1   4  269.47   18.90
  -3   1   4  219.98   19.20
  -3   1   4  260.97   18.80
  -3   1   4  234.28   18.70
  -3   1   4  242.08   18.90
   3  -1  -4  247.98   19.10
   3  -1  -4  236.08   18.60
   3  -1  -4  245.78   19.10
   3  -1  -4  242.58   18.90
   3  -1  -4  235.98   19.00
   3  -1  -4  238.78   18.70
   3  -1  -4  215.38   18.80
  -4   1   4   48.50    4.20
  -4   1   4   47.50    4.10
  -4   1   4   54.39    4.20
  -4   1   4   42.20    4.70
  -4   1   4   51.69    4.20
   4  -1  -4   42.60    4.10
   4  -1  -4   47.20    4.50
   4  -1  -4   50.19    4.50
   4  -1  -4   49.99    3.80
   4  -1  -4   53.49    4.20
   4  -1  -4   41.60    3.90
  -5   1   4  139.29   11.80
  -5   1   4  128.39   11.70
  -5   1   4  162.38   11.90
  -5   1   4  162.98   12.00
  -5   1   4  130.59   12.40
   5  -1  -4  156.58   12.00
   5  -1  -4  161.98   12.40
   5  -1  -4  156.28   12.50
   5  -1  -4  153.18   12.30
   5  -1  -4  137.99   11.60
  -6   1   4  114.69    9.60
  -6   1   4  118.59    9.60
   6  -1  -4  119.59    9.70
   6  -1  -4  124.99   10.40
   6  -1  -4  116.39    9.30
   6  -1  -4  111.99   10.00
   6  -1  -4  113.69   10.00
  -7   1   4   19.50    2.90
  -7   1   4   13.90    3.40
  -7   1   4   20.90    3.10
   7  -1  -4   21.10    2.90
   7  -1  -4   31.70    5.30
   7  -1  -4   21.50    2.60
   7  -1  -4   16.10    1.70
  -8   1   4   16.20    2.70
  -8   1   4   16.00    2.50
   8  -1  -4   22.70    3.70
   8  -1  -4   16.00    1.80
  -9   1   4   -0.80    1.30
  -9   1   4    1.70    1.30
   9  -1  -4    1.20    1.80
   9  -1  -4    1.40    0.80
   9   2   3   32.10    2.60
   9   2   3   24.50    2.40
  -9  -2  -3   32.10    2.50
  -9  -2  -3   27.00    3.10
   8   2   3   76.39    7.80
   8   2   3   93.99    7.20
   8   2   3   93.29    7.20
  -8  -2  -3   95.19    7.20
   7   2   3  353.46   23.90
   7   2   3  314.77   23.80
   7   2   3  281.67   24.30
   7   2   3  317.17   23.80
  -7  -2  -3  272.07   24.00
  -7  -2  -3  326.77   24.50
  -7  -2  -3  302.87   23.80
  -7  -2  -3  279.17   24.00
   6   2   3   60.09    4.70
   6   2   3   64.59    5.30
   6   2   3   58.19    4.70
   6   2   3   59.69    4.70
   6   2   3   50.99    5.60
   5   2   3   34.90    3.90
   5   2   3   33.50    3.30
   5   2   3   38.70    2.90
   5   2   3   35.90    2.90
   5   2   3   36.60    2.90
  -5  -2  -3   30.50    2.90
  -5  -2  -3   37.60    3.20
   4   2   3  241.78   20.90
   4   2   3  279.97   20.60
   4   2   3  274.87   20.60
   4   2   3  283.87   21.60
   4   2   3  251.37   20.60
   3   2   3  247.38   18.80
   3   2   3  235.38   17.90
   3   2   3  201.98   17.90
   3   2   3  240.68   17.90
   2   2   3   26.60    2.10
   2   2   3   21.40    1.90
   2   2   3   21.40    1.90
   2   2   3   25.70    2.80
   2   2   3   26.80    1.90
  -2  -2  -3   22.50    1.90
  -2  -2  -3   24.20    1.90
  -2  -2  -3   20.60    1.90
  -2  -2  -3   21.60    2.00
   1   2   3  363.46   27.10
   1   2   3  311.57   26.70
   1   2   3  391.36   27.00
   1   2   3  360.46   26.70
   1   2   3  334.37   26.70
   1   2   3  342.77   27.30
  -1  -2  -3  317.97   26.80
  -1  -2  -3  363.46   26.90
  -1  -2  -3  321.67   26.80
  -1  -2  -3  346.77   26.80
   0   2   3  248.58   18.70
   0   2   3  240.38   18.80
   0   2   3  268.17   18.70
   0   2   3  256.47   18.80
   0   2   3  236.88   18.70
   0  -2  -3  214.78   18.70
   0  -2  -3  242.08   18.90
   0  -2  -3  239.28   18.90
   0  -2  -3  253.77   18.90
   0  -2  -3  235.48   18.90
   0  -2  -3  222.28   18.80
  -1   2   3  199.38   14.00
  -1   2   3  181.88   13.70
   1  -2  -3  163.48   13.80
   1  -2  -3  199.28   13.80
   1  -2  -3  171.88   13.70
   1  -2  -3  161.18   13.60
   1  -2  -3  158.58   13.70
   1  -2  -3  156.48   13.70
  -2   2   3  506.65   33.90
  -2   2   3  453.75   34.30
   2  -2  -3  463.55   34.10
   2  -2  -3  411.86   34.00
   2  -2  -3  420.66   33.90
   2  -2  -3  434.26   34.20
   2  -2  -3  463.95   34.20
   2  -2  -3  432.06   34.00
   2  -2  -3  377.16   34.00
   2  -2  -3  415.16   34.10
  -3   2   3  604.44   41.80
  -3   2   3  494.35   42.10
  -3   2   3  519.85   41.80
  -3   2   3  565.04   42.00
   3  -2  -3  562.84   42.20
   3  -2  -3  486.15   41.70
   3  -2  -3  532.95   42.10
   3  -2  -3  545.65   41.70
   3  -2  -3  536.15   42.10
   3  -2  -3  547.45   41.90
  -4   2   3  291.57   21.80
  -4   2   3  239.98   22.00
   4  -2  -3  265.77   21.50
   4  -2  -3  293.07   21.80
   4  -2  -3  277.77   22.00
   4  -2  -3  294.57   21.50
   4  -2  -3  291.87   22.20
   4  -2  -3  259.47   21.80
   4  -2  -3  279.87   22.10
  -5   2   3  130.89    9.80
  -5   2   3  100.19    9.60
  -5   2   3  128.99    9.90
   5  -2  -3  125.89   10.20
   5  -2  -3  117.99    9.50
   5  -2  -3  118.29    9.50
   5  -2  -3  134.59   10.60
   5  -2  -3  128.99   10.30
   5  -2  -3  107.19    9.80
  -6   2   3   79.79    6.70
  -6   2   3   67.29    6.50
  -6   2   3   93.69    6.80
  -6   2   3   65.39    7.20
   6  -2  -3   79.49    6.40
   6  -2  -3   81.69    6.40
   6  -2  -3   90.09    7.30
  -7   2   3    0.20    3.00
  -7   2   3    4.80    1.70
  -7   2   3    3.50    1.80
   7  -2  -3    7.70    3.10
   7  -2  -3    4.40    0.80
   7  -2  -3    3.20    1.00
  -8   2   3   12.40    2.20
  -8   2   3   11.30    2.10
   8  -2  -3    9.50    1.60
   8  -2  -3   19.50    3.80
  10   3   2   18.20    1.60
 -10  -3  -2   17.60    1.80
 -10  -3  -2   17.60    2.50
   9   3   2   18.60    1.80
   9   3   2   16.80    1.60
   9   3   2   15.50    1.60
  -9  -3  -2   20.90    1.90
  -9  -3  -2   20.40    2.80
  -9  -3  -2   15.00    2.60
   8   3   2   82.19    6.60
   8   3   2   80.59    6.60
   8   3   2   87.99    6.70
  -8  -3  -2   84.79    6.70
  -8  -3  -2   78.29    7.00
  -8  -3  -2   81.39    7.10
   7   3   2   37.90    3.10
   7   3   2   40.00    3.20
   7   3   2   37.50    3.10
   7   3   2   37.30    3.60
  -7  -3  -2   38.90    3.30
  -7  -3  -2   35.00    3.60
   6   3   2   95.89    7.20
   6   3   2   98.29    7.10
   6   3   2   82.49    7.40
   6   3   2   95.99    7.10
  -6  -3  -2   84.59    7.30
  -6  -3  -2   83.09    7.20
   5   3   2   73.09    5.70
   5   3   2   70.79    5.60
   5   3   2   78.29    5.60
   5   3   2   74.89    5.60
  -5  -3  -2   68.99    5.90
  -5  -3  -2   60.89    5.70
   4   3   2   46.00    3.70
   4   3   2   45.20    3.60
   4   3   2   46.50    3.70
   4   3   2   53.09    3.60
   4   3   2   50.69    3.70
  -4  -3  -2   45.30    3.90
  -4  -3  -2   38.20    3.70
  -4  -3  -2   41.70    3.70
   3   3   2  312.57   24.10
   3   3   2  337.47   24.10
   3   3   2  299.67   24.10
   3   3   2  296.97   24.10
   3   3   2  315.87   24.10
  -3  -3  -2  322.77   24.40
  -3  -3  -2  296.17   24.20
   2   3   2  428.66   37.70
   2   3   2  469.75   37.70
   2   3   2  556.24   37.80
   2   3   2  525.65   37.70
   2   3   2  473.75   37.70
  -2  -3  -2  473.65   37.80
  -2  -3  -2  486.25   37.90
   1   3   2  161.48   13.20
   1   3   2  167.78   13.10
   1   3   2  174.68   13.10
   1   3   2  197.68   13.10
   1   3   2  174.98   13.20
   1   3   2  180.88   13.20
  -1  -3  -2  157.18   13.30
  -1  -3  -2  194.58   13.30
  -1  -3  -2  151.08   13.30
  -1  -3  -2  148.79   13.30
  -1  -3  -2  152.98   13.20
   0   3   2   62.49    5.00
   0   3   2   66.29    5.00
   0   3   2   66.59    5.10
   0   3   2   60.19    5.00
   0   3   2   58.09    5.10
   0  -3  -2   63.49    5.20
   0  -3  -2   62.79    5.20
   0  -3  -2   63.69    5.20
   0  -3  -2   61.59    5.20
   0  -3  -2   65.79    5.20
   0  -3  -2   60.39    5.10
  -1   3   2 1128.29   98.09
  -1   3   2 1231.98   98.29
  -1   3   2 1323.77   98.39
  -1   3   2 1167.18   98.09
  -1   3   2 1248.28   98.19
   1  -3  -2 1387.66   98.49
   1  -3  -2 1307.97   98.39
   1  -3  -2 1362.46   98.39
   1  -3  -2 1285.67   98.29
  -2   3   2 1209.68   96.09
  -2   3   2 1230.68   96.09
  -2   3   2 1289.17   96.29
   2  -3  -2 1171.18   96.09
   2  -3  -2 1285.77   96.49
   2  -3  -2 1227.28   96.39
   2  -3  -2 1279.67   96.19
   2  -3  -2 1248.98   96.39
   2  -3  -2 1255.47   96.49
  -3   3   2  566.14   46.20
  -3   3   2  565.04   46.20
  -3   3   2  601.84   46.40
   3  -3  -2  586.34   46.50
   3  -3  -2  649.83   46.10
   3  -3  -2  625.94   47.10
   3  -3  -2  595.64   46.60
   3  -3  -2  580.84   46.70
  -4   3   2  169.48   13.70
  -4   3   2  181.48   13.80
  -4   3   2  157.38   13.50
   4  -3  -2  150.48   14.40
   4  -3  -2  184.68   13.40
   4  -3  -2  179.48   14.30
   4  -3  -2  179.08   13.90
  -5   3   2   35.60    3.60
  -5   3   2   35.30    3.40
  -5   3   2   37.10    3.50
   5  -3  -2   33.50    3.50
   5  -3  -2   28.10    3.10
   5  -3  -2   41.40    4.80
   5  -3  -2   39.10    4.20
   5  -3  -2   37.50    3.00
  -6   3   2   13.10    3.20
  -6   3   2    6.80    1.80
  -6   3   2   10.30    1.90
   6  -3  -2    8.40    1.50
   6  -3  -2    9.70    3.10
   6  -3  -2    7.80    1.00
  -7   3   2    2.30    1.60
  -7   3   2    2.10    1.60
   7  -3  -2    3.30    1.20
   7  -3  -2    3.60    2.40
   7  -3  -2    1.60    0.60
  -8   3   2    2.00    1.50
  -8   3   2   -1.90    2.00
  -8   3   2    2.00    1.20
  -8   3   2    7.40    1.90
   8  -3  -2    5.20    2.10
  10   4   1    6.70    1.00
   9   4   1   44.30    3.50
   9   4   1   42.40    3.40
   9   4   1   36.50    3.40
  -9  -4  -1   40.40    4.10
  -9  -4  -1   39.90    4.00
   8   4   1   88.19    6.80
   8   4   1   79.49    6.60
   8   4   1   80.89    6.60
  -8  -4  -1   82.29    7.10
  -8  -4  -1   79.79    7.20
  -8  -4  -1   89.59    6.80
   7   4   1   16.60    1.60
   7   4   1   16.20    1.50
   7   4   1   17.20    1.50
  -7  -4  -1   14.00    1.70
  -7  -4  -1   16.50    1.90
  -7  -4  -1   15.10    2.30
   6   4   1   94.89    7.00
   6   4   1   90.69    7.00
   6   4   1   86.59    7.10
   6   4   1   82.99    7.10
   6   4   1   88.09    7.00
  -6  -4  -1   94.69    7.20
  -6  -4  -1   80.89    7.30
   5   4   1   12.70    1.30
   5   4   1   12.30    1.30
   5   4   1   14.40    1.20
   5   4   1   13.50    1.20
   5   4   1   13.40    1.20
   5   4   1   12.40    1.40
  -5  -4  -1   15.40    2.00
  -5  -4  -1   12.00    1.50
   4   4   1   73.79    5.40
   4   4   1   69.39    5.20
   4   4   1   65.49    5.30
   4   4   1   65.29    5.30
   4   4   1   62.79    5.30
   4   4   1   65.19    5.30
   4   4   1   75.09    5.20
  -4  -4  -1   60.79    5.40
  -4  -4  -1   60.19    5.40
  -4  -4  -1   69.69    5.70
   3   4   1   84.29    6.10
   3   4   1   73.49    6.10
   3   4   1   82.09    6.10
   3   4   1   80.29    6.20
   3   4   1   76.29    6.10
  -3  -4  -1   83.99    6.50
  -3  -4  -1   73.19    6.30
  -3  -4  -1   71.19    6.20
   2   4   1  238.28   19.10
   2   4   1  232.98   19.00
   2   4   1  248.68   19.00
   2   4   1  251.07   18.90
   2   4   1  247.58   19.00
   2   4   1  263.77   19.10
  -2  -4  -1  267.07   19.30
  -2  -4  -1  218.68   19.10
  -2  -4  -1  238.08   19.20
   1   4   1  476.05   37.50
   1   4   1  474.85   37.50
   1   4   1  479.95   37.40
   1   4   1  475.15   37.50
   1   4   1  460.25   37.60
   1   4   1  470.15   37.50
  -1  -4  -1  507.75   37.80
  -1  -4  -1  488.55   37.80
  -1  -4  -1  467.75   37.80
  -1  -4  -1  546.95   37.70
   0   4   1  260.57   21.00
   0   4   1  229.88   21.10
   0   4   1  242.38   20.90
   0   4   1  301.87   21.00
   0   4   1  263.67   21.00
   0  -4  -1  312.87   21.00
   0  -4  -1  286.57   21.00
   0  -4  -1  278.57   21.20
   0  -4  -1  253.17   21.30
   0  -4  -1  288.37   21.30
   0  -4  -1  232.78   21.10
   0  -4  -1  289.97   21.70
  -1   4   1   53.29    4.60
  -1   4   1   60.69    5.10
  -1   4   1   54.59    4.80
  -1   4   1   58.19    4.60
   1  -4  -1   58.29    5.10
   1  -4  -1   58.89    5.20
   1  -4  -1   53.09    5.00
   1  -4  -1   56.99    4.60
   1  -4  -1   56.29    5.00
  -2   4   1   38.30    3.30
  -2   4   1   33.80    3.40
  -2   4   1   36.20    3.60
   2  -4  -1   40.80    3.90
   2  -4  -1   42.80    3.10
   2  -4  -1   38.60    4.00
   2  -4  -1   45.60    4.90
   2  -4  -1   37.30    3.60
   2  -4  -1   40.00    4.10
  -3   4   1   30.80    3.50
  -3   4   1   34.40    3.40
  -3   4   1   39.50    3.70
   3  -4  -1   39.80    4.30
   3  -4  -1   42.60    3.10
   3  -4  -1   41.00    4.00
   3  -4  -1   39.30    4.80
   3  -4  -1   43.80    4.50
  -4   4   1    7.40    1.70
  -4   4   1    6.60    1.70
  -4   4   1    5.00    1.40
  -4   4   1    9.40    1.50
  -4   4   1    5.90    1.50
   4  -4  -1    7.10    2.20
   4  -4  -1    6.30    1.40
   4  -4  -1    8.10    0.90
   4  -4  -1    5.00    2.40
  -5   4   1   95.39    8.40
  -5   4   1  115.29    8.50
  -5   4   1  117.39    8.40
   5  -4  -1   92.39    8.40
   5  -4  -1   95.89    9.80
  -6   4   1   51.09    4.30
  -6   4   1   39.20    4.20
  -6   4   1   46.80    4.40
   6  -4  -1   54.79    4.00
  -7   4   1   17.10    2.20
  -7   4   1   16.20    1.90
  -7   4   1   12.40    1.90
   7  -4  -1   18.20    3.80
  10   5   0    3.50    1.20
 -10  -5   0    3.30    1.50
 -10  -5   0    4.60    1.50
 -10  -5   0    1.30    2.10
   9   5   0    1.80    0.70
   9   5   0    1.20    0.50
   9   5   0    1.60    0.40
  -9  -5   0    0.50    1.70
  -9  -5   0    2.90    1.30
  -9  -5   0   -0.20    2.00
  -9  -5   0    3.20    1.10
   8   5   0   15.50    1.50
   8   5   0   15.40    1.50
   8   5   0   16.20    1.70
  -8  -5   0   16.70    2.00
  -8  -5   0   14.50    2.50
  -8  -5   0   16.80    2.90
  -8  -5   0   19.40    3.20
   7   5   0   40.70    3.40
   7   5   0   42.60    3.50
   7   5   0   40.10    3.40
   7   5   0   40.60    3.90
   7   5   0   42.60    3.50
  -7  -5   0   39.30    4.20
  -7  -5   0   38.80    3.90
  -7  -5   0   45.30    3.70
  -7  -5   0   39.90    4.10
   6   5   0    2.20    0.40
   6   5   0    3.00    0.70
   6   5   0    2.40    0.70
   6   5   0    2.80    0.50
   6   5   0    3.10    0.80
  -6  -5   0    1.50    1.00
  -6  -5   0    2.30    2.20
  -6  -5   0    3.60    1.20
  -6  -5   0    3.40    1.00
   5   5   0   22.10    2.00
   5   5   0   19.50    1.70
   5   5   0   22.40    2.20
   5   5   0   20.90    1.70
   5   5   0   19.60    1.90
   5   5   0   20.10    1.80
   5   5   0   19.10    2.10
  -5  -5   0   21.40    3.00
  -5  -5   0   18.20    2.40
  -5  -5   0   20.50    2.10
  -5  -5   0   18.20    2.70
   4   5   0   72.39    5.60
   4   5   0   73.49    5.60
   4   5   0   72.49    5.70
   4   5   0   68.19    5.70
   4   5   0   67.39    5.70
   4   5   0   73.99    5.80
   4   5   0   68.09    5.70
   4   5   0   74.79    5.70
  -4  -5   0   72.09    6.00
  -4  -5   0   73.09    6.20
  -4  -5   0   74.59    5.80
  -4  -5   0   67.79    6.10
   3   5   0   13.40    1.00
   3   5   0   12.60    1.20
   3   5   0   12.60    1.20
   3   5   0   11.90    1.30
   3   5   0   10.80    1.30
   3   5   0   11.00    1.30
  -3  -5   0   10.60    2.20
  -3  -5   0   13.80    2.00
  -3  -5   0   13.30    1.80
  -3  -5   0   12.60    1.50
  -3  -5   0   13.70    1.70
   2   5   0  126.29   10.50
   2   5   0  133.99   10.60
   2   5   0  141.99   10.70
   2   5   0  139.89   10.60
  -2  -5   0  143.39   10.80
  -2  -5   0  142.39   11.10
  -2  -5   0  123.69   10.90
   1   5   0  335.87   26.40
   1   5   0  338.07   26.50
   1   5   0  359.46   26.50
   1   5   0  292.77   26.70
   1   5   0  303.87   26.50
  -1  -5   0  345.97   26.90
  -1  -5   0  360.76   27.00
  -1  -5   0  387.86   26.80
  -1  -5   0  358.96   26.90
  -1  -5   0  333.27   26.50
   0   5   0  159.88   13.30
   0   5   0  175.08   13.30
   0   5   0  157.08   13.60
   0   5   0  158.68   13.30
   0   5   0  178.88   13.20
   0  -5   0  197.58   13.30
   0  -5   0  169.88   13.10
   0  -5   0  160.68   13.20
  -1   5   0  465.95   33.10
  -1   5   0  381.56   33.40
  -1   5   0  454.45   33.20
   1  -5   0  398.56   33.00
   1  -5   0  433.76   33.70
   1  -5   0  433.56   34.80
   1  -5   0  427.76   33.60
   1  -5   0  410.16   33.10
   1  -5   0  440.36   33.90
  -2   5   0  100.69    7.80
  -2   5   0   92.19    7.80
  -2   5   0   80.59    8.80
   2  -5   0   84.79   10.80
   2  -5   0  104.99    9.00
   2  -5   0   96.29    7.50
   2  -5   0  100.39    8.30
   2  -5   0  112.09    8.70
  -3   5   0  381.76   31.10
  -3   5   0  397.16   31.20
  -3   5   0  377.86   31.60
  -3   5   0  436.26   31.20
   3  -5   0  426.86   32.30
   3  -5   0  376.46   31.00
   3  -5   0  449.86   32.00
   3  -5   0  364.36   33.10
  -4   5   0    7.30    1.50
  -4   5   0    9.10    1.50
  -4   5   0   10.20    2.20
  -4   5   0    6.70    1.60
   4  -5   0    5.30    2.80
   4  -5   0    5.00    2.80
  -5   5   0   31.70    2.90
  -5   5   0   30.50    3.00
  -5   5   0   24.40    2.80
   5  -5   0   36.40    5.20
  -6   5   0   14.70    1.70
  -6   5   0   10.30    1.90
  -6   5   0   17.20    1.80
   6  -5   0   15.30    3.90
  -7   5   0    0.20    0.80
  10   6  -1    0.90    0.50
 -10  -6   1    0.00    1.70
 -10  -6   1    3.90    1.60
 -10  -6   1    1.20    0.80
   9   6  -1    5.60    0.90
  -9  -6   1    5.60    1.30
  -9  -6   1    4.20    1.60
  -9  -6   1    6.00    2.10
   8   6  -1   31.50    3.00
   8   6  -1   37.10    3.30
   8   6  -1   36.30    3.20
  -8  -6   1   43.30    4.60
  -8  -6   1   33.30    4.20
  -8  -6   1   43.10    3.50
   7   6  -1   69.29    5.50
   7   6  -1   65.59    5.60
   7   6  -1   68.89    5.70
   7   6  -1   67.89    5.80
   7   6  -1   64.89    5.50
  -7  -6   1   66.89    6.40
  -7  -6   1   59.79    6.20
  -7  -6   1   81.79    5.90
  -7  -6   1   77.89    6.70
   6   6  -1    9.50    1.20
   6   6  -1    8.30    1.30
   6   6  -1    9.30    0.90
   6   6  -1    8.00    0.90
   6   6  -1    9.50    1.20
  -6  -6   1    9.30    2.00
  -6  -6   1   10.10    1.90
  -6  -6   1    6.80    2.50
  -6  -6   1    7.30    2.40
   5   6  -1   72.49    5.90
   5   6  -1   70.29    5.90
   5   6  -1   74.29    5.90
   5   6  -1   73.79    5.70
   5   6  -1   67.39    6.10
   5   6  -1   65.59    5.90
   5   6  -1   74.59    6.00
  -5  -6   1   68.29    7.10
  -5  -6   1   70.49    6.60
  -5  -6   1   82.39    6.00
  -5  -6   1   77.39    6.50
   4   6  -1   57.39    4.40
   4   6  -1   54.59    4.50
   4   6  -1   52.79    4.40
   4   6  -1   52.69    4.50
   4   6  -1   50.49    4.50
  -4  -6   1   54.39    6.00
  -4  -6   1   53.29    5.30
  -4  -6   1   57.19    5.00
  -4  -6   1   54.99    4.50
   3   6  -1   17.70    1.80
   3   6  -1   16.80    1.70
   3   6  -1   16.60    1.80
   3   6  -1   16.60    1.60
  -3  -6   1   20.90    3.00
  -3  -6   1   14.60    2.10
  -3  -6   1   12.00    2.30
  -3  -6   1   19.00    3.60
  -3  -6   1   18.60    1.80
  -3  -6   1   18.60    2.50
  -3  -6   1   17.90    2.60
   2   6  -1   61.99    4.60
   2   6  -1   53.99    4.60
   2   6  -1   55.49    4.70
   2   6  -1   48.50    4.50
  -2  -6   1   59.19    5.20
  -2  -6   1   54.99    5.60
  -2  -6   1   54.19    4.80
  -2  -6   1   65.49    6.80
  -2  -6   1   57.39    5.30
  -2  -6   1   61.69    4.90
  -2  -6   1   59.29    4.60
  -2  -6   1   49.90    5.30
   1   6  -1   53.69    5.50
   1   6  -1   63.79    5.10
   1   6  -1   67.09    5.30
   1   6  -1   65.09    5.10
   1   6  -1   58.49    5.10
  -1  -6   1   68.69    7.20
  -1  -6   1   61.69    5.60
  -1  -6   1   68.09    6.00
  -1  -6   1   65.29    6.10
  -1  -6   1   66.29    6.20
   0   6  -1   23.00    2.40
   0   6  -1   23.70    2.30
   0   6  -1   22.40    2.90
   0   6  -1   24.10    2.20
   0   6  -1   26.50    2.50
   0  -6   1   31.90    4.90
   0  -6   1   25.90    2.40
   0  -6   1   34.70    3.70
   0  -6   1   31.50    2.80
  -1   6  -1 1588.44  123.59
  -1   6  -1 1804.72  123.79
  -1   6  -1 1635.04  123.69
  -1   6  -1 1346.47  124.09
  -1   6  -1 1693.23  123.69
   1  -6   1 1813.82  124.69
   1  -6   1 1536.85  124.39
   1  -6   1 1505.35  124.59
   1  -6   1 1485.85  125.89
  -2   6  -1   65.49    5.00
  -2   6  -1   59.39    4.90
  -2   6  -1   61.49    4.80
  -2   6  -1   59.49    5.00
  -2   6  -1   51.69    5.60
   2  -6   1   50.79    6.50
  -3   6  -1    7.20    1.10
  -3   6  -1    3.90    1.00
   3  -6   1    0.70    2.80
   3  -6   1    1.40    2.60
  -4   6  -1   13.50    1.90
  -4   6  -1   17.00    1.70
  -4   6  -1   16.40    2.00
  -4   6  -1   19.70    2.10
   4  -6   1    9.60    3.70
   4  -6   1   12.00    3.50
  -5   6  -1    5.50    1.20
  -5   6  -1    6.00    1.30
  -5   6  -1    3.30    1.00
  -5   6  -1    4.90    1.10
   5  -6   1    3.90    3.00
   5  -6   1   -0.40    3.20
   9   7  -2   29.90    2.80
  -9  -7   2   35.80    4.10
  -9  -7   2   33.50    4.50
  -9  -7   2   33.10    3.10
   8   7  -2   15.90    2.20
   8   7  -2   14.10    1.70
   8   7  -2   15.00    1.80
  -8  -7   2   15.30    3.00
  -8  -7   2   16.90    3.20
  -8  -7   2   20.90    2.20
   7   7  -2   32.30    2.80
   7   7  -2   30.20    2.80
   7   7  -2   27.60    3.00
  -7  -7   2   29.00    4.00
  -7  -7   2   36.50    3.10
  -7  -7   2   35.10    4.20
  -7  -7   2   25.90    3.80
   6   7  -2   33.30    2.90
   6   7  -2   35.60    3.00
   6   7  -2   29.40    3.10
  -6  -7   2   37.70    4.20
   5   7  -2    0.40    0.90
   5   7  -2    0.90    0.80
   5   7  -2    2.40    0.90
   5   7  -2    2.50    1.00
   5   7  -2    2.00    0.70
   5   7  -2    0.90    0.60
  -5  -7   2    1.50    1.90
  -5  -7   2    4.10    2.10
  -5  -7   2    0.20    1.90
  -5  -7   2    0.70    2.10
  -5  -7   2    0.60    1.10
  -5  -7   2    2.40    1.70
   4   7  -2   23.50    2.30
   4   7  -2   24.90    2.30
   4   7  -2   21.60    2.30
   4   7  -2   21.00    2.10
   4   7  -2   23.40    2.10
   4   7  -2   23.40    2.30
  -4  -7   2   23.40    2.30
  -4  -7   2   25.80    3.70
  -4  -7   2   23.90    3.40
  -4  -7   2   15.40    3.90
  -4  -7   2   18.00    2.80
   3   7  -2   39.40    3.50
   3   7  -2   38.70    3.70
   3   7  -2   41.90    3.70
   3   7  -2   42.10    3.50
   3   7  -2   42.40    3.70
   3   7  -2   44.30    3.60
  -3  -7   2   40.60    4.50
  -3  -7   2   44.60    5.00
  -3  -7   2   44.50    3.90
  -3  -7   2   33.20    5.50
   2   7  -2   17.90    2.00
   2   7  -2   18.40    1.90
   2   7  -2   18.60    3.10
   2   7  -2   18.20    1.70
   2   7  -2   16.10    1.90
   2   7  -2   15.70    1.70
  -2  -7   2   20.50    3.50
  -2  -7   2   14.30    3.70
  -2  -7   2   17.70    2.70
   1   7  -2  123.39    9.30
   1   7  -2  120.49    9.30
   1   7  -2  111.39    9.20
   1   7  -2  103.89    9.80
   1   7  -2  135.59    9.50
  -1  -7   2  114.09   11.80
  -1  -7   2   96.69    9.60
  -1  -7   2  132.89   10.70
  -1  -7   2  115.09   10.40
   0   7  -2   26.20    2.40
   0   7  -2   23.50    3.00
   0   7  -2   28.40    2.50
   0   7  -2   25.90    2.50
   0   7  -2   28.80    2.80
   0  -7   2   37.40    4.50
   0  -7   2   37.60    4.40
   0  -7   2   23.10    5.20
  -1   7  -2   94.59    7.00
  -1   7  -2   88.39    7.00
  -1   7  -2   83.59    6.90
   1  -7   2   77.99    8.60
  -2   7  -2   21.20    2.30
  -2   7  -2   18.80    2.00
  -2   7  -2   18.70    1.80
  -2   7  -2   19.00    1.90
   2  -7   2   15.10    4.20
  -3   7  -2   23.10    2.30
  -3   7  -2   24.90    2.30
  -3   7  -2   27.00    2.60
   3  -7   2   15.90    3.90
  -4   7  -2   13.00    1.70
  -4   7  -2   10.30    1.40
   4  -7   2    8.80    3.10
   8   8  -3    8.00    1.00
   8   8  -3   10.00    1.20
  -8  -8   3   10.70    2.70
  -8  -8   3    5.30    2.20
   7   8  -3    2.40    0.70
   7   8  -3    1.80    1.20
   7   8  -3    5.20    0.90
  -7  -8   3    5.80    2.00
  -7  -8   3    2.30    2.00
   6   8  -3   -0.10    0.80
   6   8  -3    0.00    0.60
   6   8  -3   -0.20    0.60
  -6  -8   3    3.50    1.70
  -6  -8   3    0.30    2.00
   5   8  -3    9.10    1.20
   5   8  -3    8.60    1.30
   5   8  -3    8.70    1.60
   5   8  -3    8.90    1.50
  -5  -8   3    8.00    2.40
  -5  -8   3    4.00    3.00
   4   8  -3   21.40    2.30
   4   8  -3   22.50    2.10
   4   8  -3   21.60    2.20
   4   8  -3   21.90    2.30
  -4  -8   3   24.00    4.10
  -4  -8   3   17.10    3.10
   3   8  -3   52.89    4.60
   3   8  -3   61.89    4.60
   3   8  -3   54.69    4.80
   3   8  -3   60.69    4.90
   3   8  -3   50.59    4.80
  -3  -8   3   44.10    5.30
   2   8  -3   30.80    3.10
   2   8  -3   34.00    2.90
   2   8  -3   30.90    3.20
   2   8  -3   33.20    3.20
   2   8  -3   32.30    2.90
   2   8  -3   36.20    2.90
  -2  -8   3   21.80    5.60
   1   8  -3   10.00    1.70
   1   8  -3    9.50    1.50
   1   8  -3   10.30    1.30
  -1  -8   3    3.30    3.30
   0   8  -3    9.10    1.60
   0   8  -3    9.30    1.30
   0   8  -3    8.60    1.70
   0   8  -3    8.60    1.30
   0  -8   3    6.50    3.60
   0  -8   3   10.70    3.00
  -1   8  -3   13.00    1.50
  -1   8  -3   12.40    1.80
  -1   8  -3   11.00    1.40
  -1   8  -3   10.70    1.70
   1  -8   3    5.30    3.40
   1  -8   3    8.40    3.10
  -2   8  -3   36.50    3.20
  -2   8  -3   31.10    2.80
   2  -8   3   22.60    4.20
   5   9  -4    1.80    0.70
   5   9  -4    2.70    0.90
   5   9  -4    2.40    0.70
  -5  -9   4    1.50    1.90
   4   9  -4    0.80    0.90
   4   9  -4    1.50    0.60
   4   9  -4    2.00    0.60
  -4  -9   4    4.10    2.00
  -4  -9   4   -1.80    2.20
   3   9  -4    6.00    1.20
   3   9  -4    4.10    1.30
   3   9  -4    5.40    1.00
  -3  -9   4    9.20    2.90
  -3  -9   4    2.50    2.60
   2   9  -4   10.30    1.70
   2   9  -4   12.60    1.70
   2   9  -4   11.10    1.30
   1   9  -4   10.10    1.20
   1   9  -4   11.40    1.60
   1   9  -4    8.30    1.70
  -3   3  -9   42.50    4.20
  -3   3  -9   47.30    4.00
   2  -3   9    5.10    2.70
  -2   3  -9    9.70    2.20
  -2   3  -9   10.10    1.30
  -2   3  -9    7.40    2.20
  -1   3  -9   41.60    3.90
  -1   3  -9   39.70    4.10
  -1   3  -9   41.90    4.20
  -1   3  -9   40.70    3.60
   0  -3   9   10.90    3.10
   0   3  -9   13.00    1.60
   0   3  -9   11.40    2.20
   0   3  -9   10.90    1.90
   0   3  -9   11.70    2.20
  -1  -3   9    1.40    2.00
   1   3  -9    1.20    0.90
   1   3  -9    1.50    1.10
   1   3  -9    1.50    1.30
   1   3  -9    1.10    1.50
  -2  -3   9   18.90    3.40
   2   3  -9   23.80    2.60
   2   3  -9   22.30    2.40
   2   3  -9   22.10    2.90
   2   3  -9   18.30    2.80
   3   3  -9   62.79    5.90
   3   3  -9   67.79    5.60
   3   3  -9   64.39    5.70
   3   3  -9   60.79    5.90
  -4  -3   9    7.80    2.40
   4   3  -9   11.20    2.30
   4   3  -9   11.30    1.80
   4   3  -9    9.80    1.90
   4   3  -9    8.60    1.90
  -5  -3   9    1.70    1.80
  -5  -3   9    1.10    2.30
   5   3  -9    3.50    1.40
   5   3  -9    1.80    1.30
   5   3  -9    2.30    1.30
   5  -2   8    6.80    3.00
  -5   2  -8   11.00    1.30
  -5   2  -8    9.40    1.70
   4  -2   8   15.50    4.30
  -4   2  -8   17.20    1.80
  -4   2  -8   15.30    2.20
   3  -2   8   25.10    5.20
  -3   2  -8   33.60    3.10
  -3   2  -8   31.80    3.30
  -3   2  -8   34.30    3.00
   2  -2   8   10.90    3.60
  -2   2  -8   14.00    1.90
  -2   2  -8   14.90    2.10
   1  -2   8   20.50    4.40
  -1   2  -8   23.30    2.40
  -1   2  -8   24.30    2.60
  -1   2  -8   23.10    2.80
   0  -2   8    6.80    3.10
   0   2  -8    5.30    1.50
   0   2  -8    5.10    1.20
   0   2  -8    6.40    1.50
   0   2  -8    6.80    1.70
  -1  -2   8  149.19   15.00
   1   2  -8  193.28   15.10
   1   2  -8  188.68   14.60
   1   2  -8  189.18   14.80
   1   2  -8  197.38   15.00
  -2  -2   8  218.88   17.30
  -2  -2   8  180.98   18.80
   2   2  -8  239.08   18.10
   2   2  -8  228.08   17.90
   2   2  -8  235.78   17.70
   2   2  -8  239.08   18.20
  -3  -2   8  232.28   21.40
  -3  -2   8  231.18   20.70
   3   2  -8  299.27   21.20
   3   2  -8  281.67   21.50
   3   2  -8  274.17   21.30
   3   2  -8  287.87   21.50
  -4  -2   8   17.40    3.10
   4   2  -8   19.70    2.80
   4   2  -8   22.80    2.40
   4   2  -8   20.10    2.90
   4   2  -8   18.30    2.70
  -5  -2   8   12.10    2.70
   5   2  -8   14.90    2.10
   5   2  -8   14.80    2.50
   5   2  -8   15.70    2.80
  -6  -2   8    4.30    2.60
  -6  -2   8    6.50    1.90
  -6  -2   8   10.20    2.20
   6   2  -8    8.10    1.80
   6   2  -8   10.80    1.90
  -7  -2   8    5.20    2.50
  -7  -2   8    9.30    1.90
  -7  -2   8   10.00    2.10
   7   2  -8   11.60    2.20
   7   2  -8   10.40    1.90
   6  -1   7   -0.60    1.90
   6  -1   7   -0.50    2.10
   5  -1   7    9.50    2.80
   5  -1   7    7.50    3.30
   4  -1   7   17.10    3.20
   4  -1   7   18.00    4.80
  -4   1  -7   18.40    1.80
  -4   1  -7   17.90    2.10
  -4   1  -7   17.10    1.80
   3  -1   7   69.39    5.60
   3  -1   7   64.29    8.10
   3  -1   7   75.79    7.00
  -3   1  -7   72.89    5.90
  -3   1  -7   71.39    5.90
  -3   1  -7   76.39    6.20
   2  -1   7  764.72   57.39
   2  -1   7  667.03   58.49
   2  -1   7  742.43   56.39
  -2   1  -7  718.83   56.59
  -2   1  -7  753.32   56.59
   1  -1   7 1178.98   96.29
   1  -1   7 1239.58   94.29
  -1   1  -7 1195.38   94.59
  -1   1  -7 1286.47   94.59
  -1   1  -7 1252.57   94.79
  -1   1  -7 1178.28   94.49
   0  -1   7  747.43   51.79
   0   1  -7  727.43   52.09
   0   1  -7  609.34   52.09
   0   1  -7  633.14   51.99
   0   1  -7  633.64   52.29
   0   1  -7  665.83   52.29
  -1  -1   7   89.79    8.70
  -1  -1   7  107.79    8.10
  -1  -1   7   97.49    9.70
   1   1  -7   98.59    8.50
   1   1  -7  108.09    8.70
   1   1  -7  112.79    8.30
  -2  -1   7   40.40    5.10
  -2  -1   7   42.20    4.50
   2   1  -7   41.30    3.60
   2   1  -7   48.20    4.30
   2   1  -7   49.20    3.90
   2   1  -7   45.60    4.10
   2   1  -7   46.40    4.30
  -3  -1   7    9.40    2.10
  -3  -1   7    9.30    2.10
  -3  -1   7    7.70    2.70
   3   1  -7    9.60    1.00
   3   1  -7   10.40    1.70
   3   1  -7   12.90    2.10
   3   1  -7   14.10    1.60
   3   1  -7   15.80    2.60
  -4  -1   7   29.20    3.60
   4   1  -7   25.10    2.40
   4   1  -7   30.90    3.00
   4   1  -7   29.50    2.90
   4   1  -7   33.00    3.40
   4   1  -7   32.10    3.40
   4   1  -7   28.40    2.90
  -5  -1   7   11.70    3.00
  -5  -1   7   17.60    2.90
  -5  -1   7   10.00    1.90
  -5  -1   7    8.10    2.00
   5   1  -7   18.70    2.90
   5   1  -7   10.90    1.10
   5   1  -7   15.40    2.10
   5   1  -7   12.30    1.80
  -6  -1   7    1.20    1.70
  -6  -1   7    4.20    1.70
  -6  -1   7    1.80    2.30
  -6  -1   7    5.60    1.80
   6   1  -7    4.10    1.60
   6   1  -7    4.60    1.80
   6   1  -7    5.30    1.40
   6   1  -7    3.30    0.70
  -7  -1   7   13.10    2.10
  -7  -1   7   11.70    2.20
  -7  -1   7   11.30    3.10
  -7  -1   7   18.50    2.70
   7   1  -7   16.70    2.90
   7   1  -7   19.10    2.80
   7   1  -7   15.60    2.30
  -8  -1   7    1.20    2.00
  -8  -1   7    0.50    1.10
  -8  -1   7    2.00    1.40
   8   1  -7    0.80    1.50
   8   1  -7    2.70    1.30
   7   0   6    1.90    2.10
   7   0   6    3.90    2.10
   7   0   6    2.10    1.00
   7   0   6    3.90    0.50
   6   0   6   10.60    1.40
   6   0   6   14.90    3.10
   6   0   6   11.30    3.50
   5   0   6   12.10    3.40
   5   0   6   13.20    1.20
   5   0   6   13.30    2.60
  -5   0  -6   10.00    1.50
  -5   0  -6   11.30    2.40
   4   0   6  350.06   26.70
   4   0   6  336.47   28.90
   4   0   6  349.47   27.60
  -4   0  -6  338.57   27.00
  -4   0  -6  350.96   26.80
  -4   0  -6  340.77   27.00
   3   0   6  169.48   12.90
   3   0   6  164.48   13.70
   3   0   6  163.58   15.00
  -3   0  -6  148.49   13.00
  -3   0  -6  170.58   13.00
  -3   0  -6  173.48   13.20
  -3   0  -6  170.68   13.20
   2   0   6   62.59    6.00
   2   0   6   66.99    5.20
  -2   0  -6   65.39    5.30
  -2   0  -6   69.69    5.60
  -2   0  -6   60.69    5.30
  -2   0  -6   67.49    5.50
   1   0   6  366.26   26.50
   1   0   6  368.56   28.10
  -1   0  -6  359.96   26.80
  -1   0  -6  317.57   26.80
  -1   0  -6  310.37   26.60
  -1   0  -6  330.77   26.60
   0   0  -6  278.77   20.90
   0   0  -6  246.58   20.80
   0   0  -6  285.57   21.00
   0   0  -6  251.37   20.70
  -1   0   6  101.49    8.20
  -1   0   6   96.39    8.90
   1   0  -6  104.59    8.20
   1   0  -6   93.19    8.00
   1   0  -6   98.19    8.10
   1   0  -6   96.59    8.00
   1   0  -6  100.59    7.90
  -2   0   6   17.80    2.60
  -2   0   6   15.20    1.90
  -2   0   6   12.70    2.80
  -2   0   6   18.50    2.40
   2   0  -6   20.40    2.00
   2   0  -6   22.50    1.90
   2   0  -6   18.00    2.20
   2   0  -6   21.50    2.30
   2   0  -6   19.40    2.30
  -3   0   6   26.20    2.90
  -3   0   6   24.80    3.20
   3   0  -6   32.90    3.20
   3   0  -6   27.30    2.40
   3   0  -6   31.10    2.90
   3   0  -6   35.70    2.90
   3   0  -6   33.10    3.20
  -4   0   6    6.90    2.40
  -4   0   6    7.10    1.70
  -4   0   6    5.80    1.70
   4   0  -6    9.90    1.50
   4   0  -6    7.70    0.90
   4   0  -6    8.30    1.40
   4   0  -6    9.40    1.70
   4   0  -6   11.90    1.60
   4   0  -6   11.70    2.10
  -5   0   6    3.10    2.10
  -5   0   6    5.20    1.60
  -5   0   6    2.40    1.50
  -5   0   6    6.00    1.60
   5   0  -6    3.90    1.10
   5   0  -6    6.00    0.70
   5   0  -6    4.80    1.50
   5   0  -6    3.90    0.70
   5   0  -6    5.60    1.70
   5   0  -6    4.50    1.10
  -6   0   6    2.10    1.60
  -6   0   6    2.30    1.70
  -6   0   6    0.90    2.00
  -6   0   6    3.80    1.60
   6   0  -6    2.70    1.20
   6   0  -6    2.60    1.60
   6   0  -6    5.50    1.90
   6   0  -6    2.10    0.60
   6   0  -6    0.80    0.50
   6   0  -6    1.40    1.40
  -7   0   6    8.20    2.00
  -7   0   6    7.90    2.00
  -7   0   6    5.50    2.60
   7   0  -6    6.90    1.70
   7   0  -6    6.40    1.00
   7   0  -6    5.90    2.10
   7   0  -6    8.30    2.30
   7   0  -6    9.10    1.90
  -8   0   6   14.30    2.40
  -8   0   6    9.00    2.00
   8   0  -6   13.30    2.70
   9   1   5    1.90    0.40
   9   1   5    2.10    0.70
   8   1   5   46.10    3.40
   8   1   5   41.80    5.90
   8   1   5   36.50    3.50
   7   1   5   37.90    4.50
   7   1   5   46.30    3.60
   6   1   5   93.89    7.80
   6   1   5   89.19    6.90
   6   1   5   76.19    8.70
   6   1   5   86.49    6.90
   5   1   5    5.10    0.80
   5   1   5    4.70    2.30
   5   1   5    3.90    1.80
   5   1   5    5.20    0.70
  -5  -1  -5    5.50    0.90
  -5  -1  -5    2.70    1.50
  -5  -1  -5    6.20    1.40
   4   1   5  111.99    9.30
   4   1   5  125.09    9.30
   4   1   5  116.09    9.90
   4   1   5  124.49   11.10
  -4  -1  -5  116.29    9.40
   3   1   5   57.79    4.20
   3   1   5   55.89    4.90
   3   1   5   46.20    4.20
   3   1   5   60.49    5.90
  -3  -1  -5   44.60    4.70
  -3  -1  -5   54.69    4.20
  -3  -1  -5   55.59    4.40
   2   1   5  174.98   13.50
   2   1   5  151.88   12.50
   2   1   5  143.99   12.10
   2   1   5  171.28   12.00
  -2  -1  -5  152.18   12.20
  -2  -1  -5  156.48   12.50
  -2  -1  -5  140.59   12.10
  -2  -1  -5  149.29   12.00
   1   1   5  112.39    8.90
   1   1   5  103.49    7.60
  -1  -1  -5   96.79    7.80
  -1  -1  -5   98.59    7.90
  -1  -1  -5   96.49    7.60
  -1  -1  -5   88.39    7.70
  -1  -1  -5   87.29    7.60
   0   1   5  859.41   65.59
   0   1   5  929.31   66.19
   0  -1  -5  845.72   65.49
   0  -1  -5  878.01   65.79
   0  -1  -5  854.51   65.69
   0  -1  -5  792.72   65.49
   0  -1  -5  776.92   65.59
  -1   1   5  432.06   37.30
  -1   1   5  535.35   38.20
   1  -1  -5  502.25   37.40
   1  -1  -5  437.86   37.10
   1  -1  -5  476.45   37.40
   1  -1  -5  455.95   37.30
   1  -1  -5  475.85   37.20
   1  -1  -5  529.45   37.50
  -2   1   5  198.88   14.30
  -2   1   5  203.18   14.20
  -2   1   5  157.18   14.50
   2  -1  -5  184.28   14.40
   2  -1  -5  171.08   14.20
   2  -1  -5  167.08   14.30
   2  -1  -5  178.28   14.10
  -3   1   5   13.30    1.90
  -3   1   5   17.40    2.10
  -3   1   5   14.20    2.20
  -3   1   5   19.30    1.80
  -3   1   5   10.70    2.70
   3  -1  -5   17.40    2.20
   3  -1  -5   18.80    2.20
   3  -1  -5   14.40    2.10
   3  -1  -5   18.20    1.70
   3  -1  -5   13.80    1.40
   3  -1  -5   17.60    1.80
   3  -1  -5   15.60    1.70
  -4   1   5   51.29    4.20
  -4   1   5   44.20    4.20
   4  -1  -5   40.90    3.60
   4  -1  -5   40.60    3.70
   4  -1  -5   51.99    4.10
   4  -1  -5   46.50    4.00
  -5   1   5   64.79    5.40
  -5   1   5   57.29    5.50
   5  -1  -5   65.79    6.00
   5  -1  -5   67.89    5.20
   5  -1  -5   70.79    5.90
   5  -1  -5   52.89    5.30
   5  -1  -5   57.19    5.10
   5  -1  -5   75.09    6.20
  -6   1   5   15.40    2.70
  -6   1   5   16.20    3.20
  -6   1   5   13.40    2.30
   6  -1  -5   19.70    2.80
   6  -1  -5   21.90    2.80
   6  -1  -5   14.50    1.60
   6  -1  -5   15.80    1.60
  -7   1   5   15.90    2.70
  -7   1   5   11.10    3.00
  -7   1   5   15.80    2.50
   7  -1  -5   14.60    1.60
   7  -1  -5   12.10    1.50
  -8   1   5    0.30    1.60
  -8   1   5    1.50    1.70
  -8   1   5   -1.00    1.60
   8  -1  -5   -3.00    2.10
   8  -1  -5    0.00    1.30
   8  -1  -5    0.70    1.90
   9   2   4   17.00    1.50
   9   2   4   16.20    1.70
   8   2   4   62.09    4.60
   8   2   4   49.30    4.50
   7   2   4   51.89    5.10
   7   2   4   52.79    4.40
   7   2   4   58.89    4.40
   6   2   4   15.10    1.40
   6   2   4   12.50    2.10
   6   2   4   13.70    1.30
   6   2   4   13.90    1.30
   6   2   4   12.10    2.60
  -6  -2  -4   12.50    1.60
  -6  -2  -4   13.30    2.20
  -6  -2  -4   13.40    2.40
   5   2   4   21.20    1.80
   5   2   4   20.30    2.40
   5   2   4   23.10    1.80
   5   2   4   20.50    3.30
   5   2   4   21.20    1.80
  -5  -2  -4   20.20    2.70
  -5  -2  -4   18.60    2.60
   4   2   4  156.78   12.70
   4   2   4  139.19   11.30
   4   2   4  152.18   11.40
   4   2   4  139.19   11.70
  -4  -2  -4  139.39   11.80
  -4  -2  -4  148.49   11.60
   3   2   4   66.19    4.90
   3   2   4   57.49    5.10
   3   2   4   68.19    6.10
   3   2   4   55.59    4.80
  -3  -2  -4   61.49    4.90
  -3  -2  -4   60.29    4.90
  -3  -2  -4   69.39    5.10
  -3  -2  -4   56.29    4.90
  -3  -2  -4   60.59    5.30
   2   2   4 1366.36  115.59
   2   2   4 1328.07  115.49
  -2  -2  -4 1540.65  115.89
  -2  -2  -4 1408.86  115.59
  -2  -2  -4 1521.65  115.69
  -2  -2  -4 1605.94  115.59
  -2  -2  -4 1688.03  115.69
  -2  -2  -4 1521.05  115.69
   1   2   4   79.89    7.30
   1   2   4   86.39    7.40
  -1  -2  -4   76.29    6.60
  -1  -2  -4   86.49    6.70
  -1  -2  -4   79.79    6.70
  -1  -2  -4   82.99    6.70
  -1  -2  -4   93.79    6.90
   0   2   4   24.20    2.30
   0   2   4   28.20    3.20
   0   2   4   23.00    1.90
   0   2   4   23.20    2.10
   0   2   4   21.00    2.00
   0   2   4   28.40    2.90
   0   2   4   23.70    1.90
   0  -2  -4   21.40    2.10
   0  -2  -4   22.80    2.20
   0  -2  -4   21.30    2.20
   0  -2  -4   19.60    1.90
   0  -2  -4   21.00    2.10
  -1   2   4  197.78   14.10
  -1   2   4  150.78   14.40
  -1   2   4  193.98   14.10
   1  -2  -4  168.68   14.10
   1  -2  -4  187.38   14.20
   1  -2  -4  169.68   14.00
   1  -2  -4  182.68   14.20
   1  -2  -4  153.68   14.10
   1  -2  -4  203.98   14.00
  -2   2   4   55.79    5.70
  -2   2   4   73.59    5.30
  -2   2   4   72.09    5.30
   2  -2  -4   58.49    5.20
   2  -2  -4   65.29    5.20
   2  -2  -4   59.49    5.20
   2  -2  -4   54.69    5.30
   2  -2  -4   67.69    5.50
   2  -2  -4   61.69    5.10
  -3   2   4  120.69    9.90
  -3   2   4  115.79    9.80
  -3   2   4  103.89   10.30
   3  -2  -4  144.49   10.30
   3  -2  -4  139.49    9.90
   3  -2  -4  116.99   10.00
   3  -2  -4  130.09    9.70
   3  -2  -4  126.09   10.00
   3  -2  -4  105.09    9.60
   3  -2  -4  138.89   10.20
  -4   2   4  115.29    9.40
  -4   2   4  132.59    9.60
   4  -2  -4  128.99   10.00
   4  -2  -4  100.69    9.20
   4  -2  -4   99.49    9.10
   4  -2  -4  131.39    9.60
   4  -2  -4  110.39    9.50
   4  -2  -4  124.19    9.90
  -5   2   4   15.50    1.90
  -5   2   4   14.90    2.50
  -5   2   4   15.10    2.10
  -5   2   4   12.10    2.70
   5  -2  -4   13.20    1.50
   5  -2  -4   14.10    2.00
   5  -2  -4   17.60    2.90
   5  -2  -4   16.30    2.40
   5  -2  -4   14.20    1.50
   5  -2  -4   17.60    2.70
   5  -2  -4   18.00    2.20
  -6   2   4    8.00    2.50
  -6   2   4   11.10    2.00
  -6   2   4   16.20    1.90
  -6   2   4   12.80    2.20
   6  -2  -4   12.50    1.50
   6  -2  -4   18.20    2.70
   6  -2  -4   20.20    3.20
   6  -2  -4   11.70    1.30
  -7   2   4   15.30    2.70
  -7   2   4   18.50    2.60
   7  -2  -4   23.70    3.00
   7  -2  -4   14.80    1.80
  -8   2   4    4.60    1.60
  -8   2   4    2.00    1.60
   8  -2  -4    8.90    2.70
   8  -2  -4    2.20    1.00
  10   3   3    5.30    0.90
 -10  -3  -3    2.40    1.40
   9   3   3   83.59    7.50
   9   3   3  100.39    7.60
  -9  -3  -3   97.09    8.40
  -9  -3  -3   97.29    7.50
   8   3   3   50.49    4.30
   8   3   3   53.09    4.30
   8   3   3   58.09    4.40
  -8  -3  -3   53.09    4.40
  -8  -3  -3   48.90    4.70
   7   3   3   12.20    1.30
   7   3   3   11.60    1.30
   7   3   3   12.90    1.20
  -7  -3  -3   11.00    1.50
  -7  -3  -3   17.60    2.70
  -7  -3  -3   12.70    2.00
   6   3   3   24.40    1.90
   6   3   3   24.30    2.00
   6   3   3   17.00    2.40
   6   3   3   24.60    1.90
  -6  -3  -3   20.00    2.30
  -6  -3  -3   19.70    2.10
  -6  -3  -3   21.70    2.80
   5   3   3   17.50    1.50
   5   3   3   18.20    2.50
   5   3   3   17.20    1.50
  -5  -3  -3   19.30    2.40
  -5  -3  -3   14.40    1.50
  -5  -3  -3   16.70    1.80
  -5  -3  -3   15.20    1.70
   4   3   3  140.69   11.20
   4   3   3  126.59   10.20
   4   3   3  130.49   10.20
   4   3   3  140.89   10.20
   4   3   3  133.69   10.20
   4   3   3  123.29   10.20
  -4  -3  -3  123.19   10.40
  -4  -3  -3  133.49   10.30
  -4  -3  -3  128.19   10.50
   3   3   3  335.67   25.10
   3   3   3  308.67   25.10
   3   3   3  355.36   26.00
   3   3   3  296.17   25.10
   3   3   3  343.97   25.20
   3   3   3  309.17   25.10
  -3  -3  -3  313.77   25.20
  -3  -3  -3  320.27   25.20
  -3  -3  -3  335.27   25.30
   2   3   3  608.94   42.10
   2   3   3  517.25   42.10
   2   3   3  533.75   42.10
   2   3   3  585.74   42.90
  -2  -3  -3  548.15   42.20
  -2  -3  -3  554.04   42.10
  -2  -3  -3  520.65   42.20
  -2  -3  -3  515.55   42.30
  -2  -3  -3  519.75   42.20
   1   3   3  304.37   21.90
   1   3   3  290.77   21.90
   1   3   3  325.87   22.10
   1   3   3  280.37   21.90
   1   3   3  301.17   22.00
  -1  -3  -3  296.27   22.20
  -1  -3  -3  272.37   22.10
  -1  -3  -3  267.27   22.10
  -1  -3  -3  264.67   22.00
  -1  -3  -3  273.87   22.10
  -1  -3  -3  263.27   22.10
  -1  -3  -3  256.17   22.00
   0   3   3 1054.59   79.89
   0   3   3 1045.00   79.79
   0   3   3 1030.70   79.79
   0   3   3 1169.48   80.09
   0   3   3 1089.49   79.99
   0  -3  -3  914.41   79.99
   0  -3  -3  993.70   79.99
   0  -3  -3  992.50   79.99
   0  -3  -3 1063.69   80.09
   0  -3  -3  987.30   79.99
  -1   3   3 1046.20   86.09
  -1   3   3 1023.50   85.79
  -1   3   3 1194.48   85.89
   1  -3  -3 1130.19   85.89
   1  -3  -3 1061.59   85.89
   1  -3  -3 1174.48   86.09
   1  -3  -3 1145.99   85.99
   1  -3  -3 1094.39   85.99
   1  -3  -3 1124.49   85.99
  -2   3   3  157.98   13.30
  -2   3   3  186.78   13.40
  -2   3   3  163.98   13.20
   2  -3  -3  147.29   13.20
   2  -3  -3  180.98   13.60
   2  -3  -3  184.78   13.40
   2  -3  -3  170.48   13.50
   2  -3  -3  161.78   13.20
   2  -3  -3  175.18   13.60
   2  -3  -3  159.78   13.20
  -3   3   3  278.17   20.60
  -3   3   3  245.18   20.30
  -3   3   3  216.58   20.40
   3  -3  -3  272.27   20.80
   3  -3  -3  262.87   20.20
   3  -3  -3  285.37   20.90
   3  -3  -3  263.27   20.60
   3  -3  -3  266.77   20.80
  -4   3   3  199.48   17.40
  -4   3   3  201.68   17.30
   4  -3  -3  244.18   17.70
   4  -3  -3  239.18   17.20
  -5   3   3   44.90    4.60
  -5   3   3   46.60    4.90
  -5   3   3   58.69    4.80
   5  -3  -3   59.39    4.90
   5  -3  -3   55.49    4.30
  -6   3   3   21.20    2.70
  -6   3   3   22.00    3.00
   6  -3  -3   31.50    4.40
   6  -3  -3   22.50    2.00
   6  -3  -3   16.50    2.20
   6  -3  -3   30.90    3.60
  -7   3   3   20.40    2.30
  -7   3   3   12.40    2.70
   7  -3  -3   17.30    1.80
   7  -3  -3   16.90    2.00
  -8   3   3   12.40    2.10
  -8   3   3    7.70    1.60
  -8   3   3   10.70    1.80
  -8   3   3    7.90    1.40
   8  -3  -3    5.00    1.30
   8  -3  -3   16.30    3.50
  10   4   2    6.50    1.00
 -10  -4  -2    7.60    1.40
 -10  -4  -2    9.40    2.00
   9   4   2    6.00    0.90
   9   4   2    5.30    0.70
   9   4   2    3.70    0.60
  -9  -4  -2    6.70    1.50
  -9  -4  -2    5.60    1.90
   8   4   2   53.09    4.00
   8   4   2   49.00    3.90
   8   4   2   48.00    3.90
  -8  -4  -2   51.59    4.20
  -8  -4  -2   42.10    4.50
  -8  -4  -2   39.70    4.60
   7   4   2   72.59    5.60
   7   4   2   68.79    5.50
   7   4   2   73.39    5.50
  -7  -4  -2   68.29    6.00
  -7  -4  -2   63.39    6.10
  -7  -4  -2   65.49    5.80
  -7  -4  -2   71.29    5.80
   6   4   2    9.10    1.00
   6   4   2    9.00    0.90
   6   4   2    8.60    1.10
   6   4   2    8.60    0.90
  -6  -4  -2    7.30    1.40
  -6  -4  -2    8.50    1.30
   5   4   2  156.78   12.20
   5   4   2  171.48   12.10
   5   4   2  152.98   12.20
   5   4   2  156.48   12.10
   5   4   2  159.58   12.10
  -5  -4  -2  141.29   12.20
  -5  -4  -2  147.39   12.40
   4   4   2  149.39   10.90
   4   4   2  158.88   10.90
   4   4   2  141.79   11.00
   4   4   2  135.49   11.00
   4   4   2  138.49   10.90
  -4  -4  -2  129.79   11.10
  -4  -4  -2  142.69   11.30
  -4  -4  -2  126.09   11.10
   3   4   2  442.36   34.10
   3   4   2  428.56   34.10
   3   4   2  468.45   34.20
   3   4   2  443.86   34.10
   3   4   2  478.65   34.10
  -3  -4  -2  419.96   34.30
  -3  -4  -2  374.76   34.20
  -3  -4  -2  471.25   34.40
   2   4   2  547.35   39.80
   2   4   2  505.35   39.70
   2   4   2  499.95   39.70
   2   4   2  551.04   39.80
   2   4   2  524.45   39.70
   2   4   2  435.36   39.70
  -2  -4  -2  502.25   39.90
  -2  -4  -2  515.05   40.00
  -2  -4  -2  478.25   39.90
  -2  -4  -2  579.34   39.90
   1   4   2  543.95   43.20
   1   4   2  514.55   43.10
   1   4   2  574.54   43.20
   1   4   2  532.85   43.10
   1   4   2  635.04   43.10
  -1  -4  -2  540.55   43.40
  -1  -4  -2  545.25   43.40
  -1  -4  -2  622.94   43.40
  -1  -4  -2  510.05   43.30
   0   4   2 3483.75  241.28
   0   4   2 2821.02  241.28
   0   4   2 3029.60  241.28
   0   4   2 2858.31  241.38
   0  -4  -2 3274.17  241.58
   0  -4  -2 3360.86  241.78
   0  -4  -2 3064.49  241.48
  -1   4   2 1363.26  118.29
  -1   4   2 1540.65  118.59
  -1   4   2 1559.54  118.39
   1  -4  -2 1520.35  118.59
   1  -4  -2 1535.15  118.79
   1  -4  -2 1566.24  118.69
   1  -4  -2 1648.64  118.79
  -2   4   2  205.98   18.70
  -2   4   2  240.38   18.90
  -2   4   2  229.78   18.70
   2  -4  -2  256.37   19.30
   2  -4  -2  237.28   18.70
   2  -4  -2  251.17   19.20
   2  -4  -2  244.28   19.10
   2  -4  -2  256.67   18.90
  -3   4   2  121.99   10.10
   3  -4  -2  117.89   11.00
   3  -4  -2  131.09    9.70
   3  -4  -2  116.19   11.50
   3  -4  -2  127.19   10.40
  -4   4   2   20.10    2.40
  -4   4   2   23.80    2.60
  -4   4   2   17.70    2.80
  -4   4   2   21.30    2.60
   4  -4  -2   19.50    3.30
   4  -4  -2   28.20    3.50
   4  -4  -2   28.20    3.80
  -5   4   2    0.70    1.30
  -5   4   2    3.50    1.70
  -5   4   2    4.60    1.50
  -5   4   2    2.50    1.40
   5  -4  -2    1.70    2.30
   5  -4  -2    4.40    1.20
   5  -4  -2    1.60    1.40
   5  -4  -2    1.20    0.50
  -6   4   2    0.30    1.40
  -6   4   2    0.10    1.30
  -6   4   2    0.60    1.50
  -6   4   2    1.30    1.20
   6  -4  -2    2.10    0.50
   6  -4  -2    2.30    1.30
   6  -4  -2    2.30    2.50
  -7   4   2   17.90    2.20
  -7   4   2   19.50    2.40
  -7   4   2   21.40    2.20
   7  -4  -2   13.90    2.20
  10   5   1    9.20    1.30
  10   5   1   12.20    1.30
 -10  -5  -1    7.60    1.90
 -10  -5  -1   13.10    3.40
   9   5   1   16.40    1.70
   9   5   1   15.00    1.50
   9   5   1   14.80    1.40
  -9  -5  -1   20.10    3.30
  -9  -5  -1   16.10    2.50
  -9  -5  -1   12.20    2.50
   8   5   1    9.40    1.20
   8   5   1    7.40    1.00
   8   5   1    8.70    1.00
  -8  -5  -1   10.00    2.00
  -8  -5  -1   10.50    1.60
  -8  -5  -1   14.10    2.90
   7   5   1   27.10    2.30
   7   5   1   28.80    2.50
   7   5   1   28.40    2.30
   7   5   1   26.90    2.40
  -7  -5  -1   25.10    2.80
  -7  -5  -1   29.60    3.20
  -7  -5  -1   30.40    2.80
  -7  -5  -1   20.70    3.30
   6   5   1   24.60    2.00
   6   5   1   23.70    2.10
   6   5   1   21.80    2.10
   6   5   1   22.30    2.00
   6   5   1   23.90    2.10
  -6  -5  -1   20.30    2.60
  -6  -5  -1   25.50    2.50
  -6  -5  -1   26.20    2.70
  -6  -5  -1   20.60    3.00
   5   5   1   38.60    3.30
   5   5   1   40.30    3.20
   5   5   1   42.30    3.50
   5   5   1   38.30    3.30
   5   5   1   39.20    3.40
   5   5   1   39.20    3.20
   5   5   1   40.00    3.30
  -5  -5  -1   44.00    3.90
  -5  -5  -1   41.50    3.90
  -5  -5  -1   40.20    3.50
  -5  -5  -1   37.00    4.00
  -5  -5  -1   39.70    3.40
   4   5   1   28.90    2.50
   4   5   1   29.20    2.30
   4   5   1   28.90    2.20
   4   5   1   29.10    2.30
   4   5   1   26.30    2.40
  -4  -5  -1   25.40    3.00
  -4  -5  -1   29.10    2.90
  -4  -5  -1   24.90    2.50
  -4  -5  -1   24.50    2.60
  -4  -5  -1   29.10    3.00
   3   5   1  134.49   11.20
   3   5   1  149.39   11.20
   3   5   1  147.29   11.10
   3   5   1  140.89   11.10
   3   5   1  146.89   11.10
   3   5   1  148.79   11.10
   3   5   1  121.99   11.20
  -3  -5  -1  145.79   11.50
  -3  -5  -1  151.68   11.60
  -3  -5  -1  139.59   11.40
  -3  -5  -1  133.89   11.20
  -3  -5  -1  149.99   11.40
   2   5   1  506.55   37.50
   2   5   1  505.95   37.50
   2   5   1  479.65   37.40
   2   5   1  447.66   37.50
   2   5   1  505.65   37.40
   2   5   1  477.35   37.60
  -2  -5  -1  436.86   37.60
  -2  -5  -1  533.95   37.90
  -2  -5  -1  426.26   37.50
  -2  -5  -1  506.55   37.60
  -2  -5  -1  502.25   37.80
   1   5   1  135.89   10.50
   1   5   1  137.89   10.50
   1   5   1  134.09   10.50
   1   5   1  155.48   10.60
   1   5   1  133.99   10.50
  -1  -5  -1  125.29   10.70
  -1  -5  -1  119.49   10.60
  -1  -5  -1  130.49   10.90
  -1  -5  -1  133.89   10.90
  -1  -5  -1  132.19   10.60
  -1  -5  -1  136.49   10.90
   0   5   1   14.70    1.70
   0   5   1   14.60    1.90
   0   5   1   14.80    1.30
   0   5   1   13.90    1.70
   0   5   1   15.70    1.50
   0  -5  -1   17.50    1.70
   0  -5  -1   19.90    1.80
   0  -5  -1   19.60    1.80
   0  -5  -1   16.90    2.30
   0  -5  -1   17.40    2.50
   0  -5  -1   19.20    1.90
   0  -5  -1   17.20    2.30
  -1   5   1   59.59    5.00
  -1   5   1   61.79    4.90
  -1   5   1   56.19    5.20
  -1   5   1   68.09    5.00
   1  -5  -1   59.29    5.00
   1  -5  -1   54.19    5.50
   1  -5  -1   59.59    5.70
   1  -5  -1   61.69    4.80
   1  -5  -1   61.79    5.60
  -2   5   1    2.60    1.10
  -2   5   1    2.80    1.80
  -2   5   1    0.20    1.10
  -2   5   1    2.30    1.40
  -2   5   1    3.30    1.00
   2  -5  -1    1.90    0.40
   2  -5  -1    1.60    1.40
   2  -5  -1    1.70    2.00
   2  -5  -1    0.50    1.50
  -3   5   1  131.99   10.30
  -3   5   1  136.19   10.20
  -3   5   1  126.69   10.60
  -3   5   1  121.59   10.10
   3  -5  -1  127.79   10.00
   3  -5  -1  121.29   11.80
   3  -5  -1  141.49   11.40
   3  -5  -1  117.69   10.30
  -4   5   1   78.89    7.00
  -4   5   1   84.29    7.10
  -4   5   1   93.09    7.60
  -4   5   1   88.19    7.00
   4  -5  -1   73.89    8.50
   4  -5  -1   96.29    7.90
   4  -5  -1   95.49    8.60
   4  -5  -1   85.19    6.80
  -5   5   1   98.89    8.70
  -5   5   1  106.09    8.70
  -5   5   1  110.89    8.80
   5  -5  -1  115.59   10.40
  -6   5   1    9.30    1.50
  -6   5   1   10.40    1.70
   6  -5  -1   14.90    3.80
  -7   5   1   -0.90    1.00
  -7   5   1    0.50    0.90
   7  -5  -1    2.00    2.40
  10   6   0   -0.10    0.50
 -10  -6   0    1.50    1.70
 -10  -6   0    1.40    1.40
 -10  -6   0    1.50    1.10
   9   6   0    2.70    0.80
   9   6   0    2.60    0.50
  -9  -6   0    3.50    1.20
  -9  -6   0    4.90    2.30
  -9  -6   0    2.10    1.60
   8   6   0    3.20    0.80
   8   6   0    2.10    0.50
   8   6   0    2.40    0.80
   8   6   0    1.70    0.40
  -8  -6   0    1.90    1.20
  -8  -6   0    1.40    1.90
  -8  -6   0   -0.20    1.90
  -8  -6   0    2.30    1.70
   7   6   0    5.10    1.00
   7   6   0    4.50    0.70
   7   6   0    5.60    0.80
   7   6   0    5.30    0.90
   7   6   0    5.50    0.70
  -7  -6   0    5.20    1.70
  -7  -6   0    7.50    1.80
  -7  -6   0    6.50    2.30
  -7  -6   0    6.90    1.30
   6   6   0   16.50    1.40
   6   6   0   16.20    1.70
   6   6   0   15.50    1.40
   6   6   0   15.90    1.70
   6   6   0   16.70    1.70
  -6  -6   0   12.30    2.70
  -6  -6   0   18.90    2.50
  -6  -6   0   14.80    2.50
  -6  -6   0   21.50    2.10
   5   6   0   63.69    4.90
   5   6   0   62.79    5.20
   5   6   0   59.19    5.10
   5   6   0   61.49    5.10
   5   6   0   61.49    5.10
   5   6   0   61.39    5.10
  -5  -6   0   65.49    5.30
  -5  -6   0   63.29    5.80
  -5  -6   0   65.49    5.70
   4   6   0   55.99    4.50
   4   6   0   46.10    4.60
   4   6   0   56.79    4.50
   4   6   0   58.89    4.30
   4   6   0   45.50    4.50
   4   6   0   58.69    4.60
  -4  -6   0   60.99    4.70
  -4  -6   0   59.59    5.00
  -4  -6   0   56.39    5.30
   3   6   0   82.79    6.90
   3   6   0   89.19    7.00
   3   6   0   83.39    7.00
   3   6   0   89.09    6.80
   3   6   0   74.29    7.10
   3   6   0   85.99    6.90
   3   6   0   78.39    7.00
  -3  -6   0   99.99    7.80
  -3  -6   0   92.69    7.50
  -3  -6   0   92.49    7.10
  -3  -6   0   90.19    7.30
  -3  -6   0   94.29    7.30
   2   6   0   94.99    7.60
   2   6   0   95.99    7.70
   2   6   0   94.79    7.60
   2   6   0   91.69    7.60
   2   6   0   83.99    7.80
  -2  -6   0   98.59    7.70
  -2  -6   0  105.69    8.50
  -2  -6   0  101.19    8.30
  -2  -6   0  109.99    9.00
  -2  -6   0  103.99    7.90
  -2  -6   0   87.69    7.90
   1   6   0  172.78   13.80
   1   6   0  182.68   13.80
   1   6   0  186.08   13.90
   1   6   0  169.98   13.80
   1   6   0  151.18   14.10
  -1  -6   0  172.58   14.50
  -1  -6   0  183.08   14.10
  -1  -6   0  189.98   14.50
  -1  -6   0  182.68   14.50
   0   6   0   90.29    8.00
   0   6   0   96.39    8.10
   0   6   0  100.19    8.10
   0   6   0   90.19    8.00
   0  -6   0   98.79    8.10
   0  -6   0  116.29    9.10
   0  -6   0  115.89   10.30
   0  -6   0  118.29    9.00
  -1   6   0  191.28   14.60
  -1   6   0  208.58   14.60
  -1   6   0  202.78   14.50
  -1   6   0  195.08   14.50
  -1   6   0  156.38   14.90
   1  -6   0  173.98   15.20
   1  -6   0  173.98   16.40
   1  -6   0  169.38   15.40
   1  -6   0  186.48   15.40
  -2   6   0   10.10    1.60
  -2   6   0   10.60    1.40
  -2   6   0   14.20    1.90
  -2   6   0    9.70    2.10
   2  -6   0    9.70    2.30
   2  -6   0    5.40    2.00
   2  -6   0    8.30    3.60
   2  -6   0    6.40    2.70
  -3   6   0  317.17   22.90
  -3   6   0  295.77   23.80
  -3   6   0  294.37   22.90
  -3   6   0  308.67   22.80
   3  -6   0  241.58   24.00
  -4   6   0   65.69    5.20
  -4   6   0   62.59    5.40
  -4   6   0   66.39    5.40
   4  -6   0   53.89    7.00
  -5   6   0    8.80    1.20
  -5   6   0    4.30    1.30
  -5   6   0    6.20    1.40
   5  -6   0    7.40    3.00
   5  -6   0    2.60    4.50
  -6   6   0   -0.60    0.70
  -6   6   0   -0.80    0.80
   9   7  -1   10.10    1.40
  -9  -7   1   10.80    2.40
  -9  -7   1   13.80    3.00
  -9  -7   1   11.40    1.80
   8   7  -1   14.90    1.70
   8   7  -1   15.10    1.70
  -8  -7   1   20.20    3.30
  -8  -7   1   17.30    2.10
  -8  -7   1   16.90    3.20
   7   7  -1   27.60    2.90
   7   7  -1   28.00    2.80
   7   7  -1   32.50    2.80
  -7  -7   1   32.60    3.70
  -7  -7   1   25.30    4.00
  -7  -7   1   38.30    4.30
  -7  -7   1   27.20    5.70
   6   7  -1   82.79    6.90
   6   7  -1   81.79    6.90
   6   7  -1   77.59    7.00
   6   7  -1   81.39    7.00
  -6  -7   1   84.99    7.90
  -6  -7   1   92.49    7.80
  -6  -7   1   93.29    7.80
  -6  -7   1   94.59    7.10
   5   7  -1    3.30    1.00
   5   7  -1    4.40    0.80
   5   7  -1    6.50    1.10
   5   7  -1    4.20    0.90
   5   7  -1    3.90    1.00
  -5  -7   1    4.80    1.80
  -5  -7   1    3.80    2.30
  -5  -7   1    4.50    2.00
  -5  -7   1    5.20    1.90
  -5  -7   1    5.20    1.20
   4   7  -1    5.70    1.00
   4   7  -1    4.20    1.60
   4   7  -1    4.90    1.00
   4   7  -1    5.90    1.10
   4   7  -1    6.00    1.00
   4   7  -1    3.60    1.00
   4   7  -1    6.60    1.30
  -4  -7   1    6.50    1.70
  -4  -7   1    5.60    1.90
  -4  -7   1    5.30    1.30
  -4  -7   1    5.60    2.50
  -4  -7   1    8.90    1.90
  -4  -7   1    4.90    2.80
   3   7  -1    7.00    1.80
   3   7  -1    6.20    1.10
   3   7  -1    5.90    1.10
   3   7  -1    6.10    0.90
   3   7  -1    4.20    1.10
   3   7  -1    4.90    0.80
  -3  -7   1    3.90    2.00
  -3  -7   1    0.50    1.80
  -3  -7   1    5.30    3.10
  -3  -7   1    4.60    1.20
  -3  -7   1    4.90    1.90
   2   7  -1   31.50    2.90
   2   7  -1   29.10    2.70
   2   7  -1   32.90    2.70
   2   7  -1   25.50    3.20
   2   7  -1   32.80    2.80
   2   7  -1   36.10    3.00
  -2  -7   1   42.80    4.60
  -2  -7   1   32.40    3.70
  -2  -7   1   26.80    5.00
  -2  -7   1   33.60    4.20
  -2  -7   1   27.50    3.90
  -2  -7   1   26.30    3.00
   1   7  -1  941.61   67.69
   1   7  -1  789.12   67.99
   1   7  -1  974.40   67.59
   1   7  -1  901.11   67.49
  -1  -7   1  828.32   68.29
  -1  -7   1  901.71   69.79
  -1  -7   1  828.42   69.69
  -1  -7   1  817.22   67.79
   0   7  -1   45.60    5.00
   0   7  -1   51.69    4.30
   0   7  -1   53.39    4.50
   0   7  -1   57.49    4.70
   0   7  -1   54.79    4.40
   0  -7   1   55.39    7.30
  -1   7  -1   86.79    6.90
  -1   7  -1   68.19    7.40
  -1   7  -1   95.99    6.90
  -1   7  -1   91.59    7.10
  -1   7  -1   84.39    6.80
   1  -7   1   74.79    8.30
  -2   7  -1    2.40    1.30
  -2   7  -1    2.20    0.80
  -2   7  -1    2.00    1.00
  -2   7  -1    1.80    0.90
  -3   7  -1    9.50    1.70
  -3   7  -1    9.10    1.20
  -3   7  -1    8.10    1.30
  -3   7  -1    9.50    1.40
   3  -7   1    8.50    3.40
  -4   7  -1   19.60    1.90
  -4   7  -1   20.70    2.20
  -4   7  -1   22.00    2.10
  -4   7  -1   19.10    2.00
   4  -7   1   12.00    3.90
   8   8  -2   18.70    1.90
   8   8  -2   18.40    1.90
  -8  -8   2   18.10    2.10
  -8  -8   2   15.90    3.90
  -8  -8   2   20.50    3.40
   7   8  -2   -0.10    0.60
   7   8  -2   -0.20    1.00
   7   8  -2    1.00    0.70
  -7  -8   2    0.80    1.20
  -7  -8   2    2.90    2.20
  -7  -8   2    0.70    1.70
   6   8  -2    8.90    1.40
   6   8  -2   10.00    1.30
   6   8  -2    9.80    1.60
  -6  -8   2    9.60    2.90
  -6  -8   2   12.70    2.90
  -6  -8   2   12.80    1.90
  -6  -8   2   11.30    2.50
   5   8  -2   20.80    2.70
   5   8  -2   22.40    2.10
   5   8  -2   18.30    2.00
   5   8  -2   19.10    2.20
  -5  -8   2   24.80    3.60
  -5  -8   2   22.70    3.70
   4   8  -2   13.70    1.70
   4   8  -2   13.50    1.80
   4   8  -2   10.80    1.70
   4   8  -2   14.10    1.50
   4   8  -2   10.90    1.70
  -4  -8   2    8.10    3.30
  -4  -8   2   17.20    3.00
  -4  -8   2   14.60    3.40
   3   8  -2   62.19    5.40
   3   8  -2   64.09    5.20
   3   8  -2   60.69    5.10
   3   8  -2   61.69    5.40
   3   8  -2   64.89    5.40
   3   8  -2   68.89    5.20
  -3  -8   2   58.49    5.90
  -3  -8   2   69.99    6.80
  -3  -8   2   52.89    7.50
   2   8  -2   66.39    4.90
   2   8  -2   58.19    5.00
   2   8  -2   56.79    5.00
   2   8  -2   55.89    4.80
   2   8  -2   52.69    4.70
  -2  -8   2   57.49    6.30
   1   8  -2  120.29    9.80
   1   8  -2  133.49   10.10
   1   8  -2  125.39    9.80
   1   8  -2  130.09   10.00
   1   8  -2  114.89    9.70
  -1  -8   2  122.59   11.10
  -1  -8   2  113.19   10.90
   0   8  -2   16.30    1.80
   0   8  -2   17.30    1.80
   0   8  -2   18.30    1.70
   0   8  -2   19.90    2.30
   0  -8   2   20.00    3.70
   0  -8   2   15.50    4.70
  -1   8  -2   22.30    2.10
  -1   8  -2   19.60    2.00
  -1   8  -2   24.20    2.50
  -1   8  -2   19.70    2.00
   1  -8   2   21.80    4.10
  -2   8  -2   13.80    1.90
  -2   8  -2   10.80    1.40
  -2   8  -2   13.40    1.50
   2  -8   2    6.30    3.20
   2  -8   2    8.10    3.30
  -3   8  -2   12.00    1.30
  -3   8  -2   12.20    1.70
   3  -8   2    7.10    3.00
   7   9  -3    8.20    1.20
   7   9  -3    6.90    1.00
  -7  -9   3    7.70    2.20
   6   9  -3    7.20    1.00
   6   9  -3    3.70    1.20
  -6  -9   3    5.60    3.40
   5   9  -3   12.70    1.50
   5   9  -3   15.90    1.60
   5   9  -3   13.10    1.70
  -5  -9   3   15.80    2.90
   4   9  -3   13.00    1.50
   4   9  -3   12.20    1.40
   4   9  -3   11.00    1.70
  -4  -9   3   15.30    2.60
   3   9  -3   25.00    2.80
   3   9  -3   28.50    2.60
   3   9  -3   31.00    2.60
   3   9  -3   28.90    2.70
   3   9  -3   23.50    2.90
   2   9  -3    4.00    1.30
   2   9  -3    2.40    1.10
   2   9  -3    1.70    0.80
   2   9  -3    2.00    1.20
   2   9  -3    4.40    0.90
  -2  -9   3    0.70    2.50
   1   9  -3    2.90    0.90
   1   9  -3    3.40    1.60
   1   9  -3    3.20    1.20
   1   9  -3    2.30    1.30
   1   9  -3    2.40    1.00
  -1  -9   3   -0.10    2.20
   0   9  -3   21.00    2.40
   0   9  -3   21.90    2.10
   0   9  -3   20.90    2.40
   1  -3  10  142.49   13.10
   0  -3  10    5.00    2.00
   0   3 -10    4.40    1.60
   0   3 -10    5.40    1.40
   0   3 -10    5.30    1.10
  -1  -3  10    0.60    1.70
   1   3 -10    4.10    1.00
   1   3 -10    2.40    1.20
   1   3 -10    2.80    1.60
   1   3 -10    2.10    1.30
   2   3 -10    3.70    1.50
   2   3 -10    1.40    1.20
   2   3 -10    1.00    1.10
   2   3 -10    3.30    1.00
   3   3 -10   12.70    2.10
   3   3 -10   13.90    2.50
   3   3 -10   18.40    2.00
   3   3 -10   16.20    2.70
  -4   2  -9   15.30    2.20
  -4   2  -9   17.80    1.90
   3  -2   9   17.40    4.30
  -3   2  -9   26.70    2.50
  -3   2  -9   25.60    2.80
  -2   2  -9   31.30    3.30
  -2   2  -9   33.80    3.40
  -2   2  -9   31.60    3.10
  -2   2  -9   28.20    2.80
  -1   2  -9   20.10    2.70
  -1   2  -9   19.90    2.10
  -1   2  -9   20.90    2.40
  -1   2  -9   19.20    2.70
   0  -2   9   44.70    6.10
   0   2  -9   57.09    5.20
   0   2  -9   42.60    4.10
   0   2  -9   47.20    4.50
   0   2  -9   48.30    4.80
   1   2  -9  151.18   12.80
   1   2  -9  161.88   12.90
   1   2  -9  154.48   12.60
   1   2  -9  149.29   12.40
  -2  -2   9    7.40    2.40
  -2  -2   9    9.10    2.50
   2   2  -9   13.80    2.10
   2   2  -9   11.30    2.10
   2   2  -9   16.60    2.80
   2   2  -9   13.90    1.90
  -3  -2   9    3.90    2.20
  -3  -2   9    2.50    2.20
   3   2  -9    3.60    1.70
   3   2  -9    6.60    1.70
   3   2  -9    8.50    1.50
   3   2  -9    9.30    2.00
  -4  -2   9    6.20    2.50
  -4  -2   9    9.20    2.30
  -4  -2   9    9.00    1.20
   4   2  -9    9.90    1.80
   4   2  -9   10.30    2.10
   4   2  -9   14.60    1.90
   4   2  -9   15.30    2.50
  -5  -2   9   16.80    2.90
   5   2  -9   23.60    2.50
   5   2  -9   20.20    2.70
   5   2  -9   19.20    2.80
  -6  -2   9    0.60    1.80
   6   2  -9    0.50    1.00
   6   2  -9   -0.10    1.10
   6  -1   8   19.50    3.80
   5  -1   8   26.50    5.10
  -5   1  -8   35.40    4.20
  -5   1  -8   39.30    3.10
   4  -1   8    9.50    3.40
  -4   1  -8   10.60    1.70
  -4   1  -8   12.40    1.50
  -4   1  -8   13.30    1.90
   3  -1   8    7.50    3.30
  -3   1  -8    9.90    1.30
  -3   1  -8    9.70    1.60
   2  -1   8    8.30    3.10
  -2   1  -8   10.30    1.90
  -2   1  -8   10.90    1.80
  -2   1  -8    8.50    1.50
  -2   1  -8   10.40    1.30
   1  -1   8  123.19    9.90
   1  -1   8  117.49   12.10
  -1   1  -8  128.99   10.60
  -1   1  -8  127.79   10.10
  -1   1  -8  128.99   10.30
  -1   1  -8  134.09   10.70
   0  -1   8  206.38   15.40
   0   1  -8  192.38   15.70
   0   1  -8  195.78   15.90
   0   1  -8  196.48   16.20
   0   1  -8  201.38   16.10
  -1  -1   8  393.96   36.80
  -1  -1   8  401.36   35.70
  -1  -1   8  476.65   35.20
   1   1  -8  476.15   35.90
   1   1  -8  478.85   35.80
   1   1  -8  464.25   35.60
   1   1  -8  485.75   35.50
  -2  -1   8    0.50    0.40
  -2  -1   8   -0.40    1.30
  -2  -1   8    0.30    1.60
  -2  -1   8    0.40    2.00
   2   1  -8    0.10    0.30
   2   1  -8    2.10    1.40
   2   1  -8    2.00    1.20
   2   1  -8    0.60    0.90
   2   1  -8   -0.40    1.00
  -4  -1   8   -1.20    1.40
  -4  -1   8   -0.10    2.00
  -4  -1   8   -0.70    2.00
   4   1  -8    0.40    1.20
   4   1  -8    1.40    0.90
   4   1  -8    0.40    1.10
   4   1  -8   -0.50    1.00
   4   1  -8    1.20    1.40
   4   1  -8    0.90    0.40
  -5  -1   8   11.20    3.20
  -5  -1   8   13.20    2.00
  -5  -1   8   21.00    3.00
   5   1  -8   15.90    1.40
  -6  -1   8    1.20    1.30
  -6  -1   8    0.60    1.60
  -6  -1   8   -0.20    2.10
   6   1  -8    0.40    1.20
   6   1  -8    1.90    1.40
   6   1  -8    1.50    1.30
  -7  -1   8    3.70    2.50
  -7  -1   8    4.00    1.30
   7   1  -8    5.30    1.40
   7   1  -8    5.20    2.00
   7   1  -8    4.60    1.90
   7   0   7    7.80    2.70
   6   0   7    0.10    2.10
   6   0   7    5.50    2.00
   6   0   7    2.90    0.50
   5   0   7   13.70    1.20
   5   0   7   12.40    3.90
   5   0   7   15.30    4.00
  -5   0  -7    8.70    1.60
   4   0   7  107.19    8.90
   4   0   7   99.19    7.80
   4   0   7   94.29   10.20
  -4   0  -7   92.79    7.90
  -4   0  -7  101.39    8.10
   3   0   7  531.15   40.60
   3   0   7  535.25   39.80
   3   0   7  501.05   41.90
  -3   0  -7  478.65   39.90
  -3   0  -7  503.45   40.10
  -3   0  -7  511.45   39.80
  -3   0  -7  533.85   40.00
   2   0   7  936.91   74.69
   2   0   7  929.31   72.69
  -2   0  -7 1005.00   72.99
  -2   0  -7  933.31   72.79
  -2   0  -7  936.61   73.09
  -2   0  -7  906.91   72.89
   1   0   7  203.98   17.50
   1   0   7  211.28   15.70
  -1   0  -7  192.38   15.80
  -1   0  -7  210.38   16.20
  -1   0  -7  213.08   16.10
  -1   0  -7  199.48   16.00
  -1   0  -7  181.78   15.90
   0   0   7   18.90    3.30
   0   0   7   15.10    1.30
   0   0  -7   11.60    1.90
   0   0  -7   12.70    1.70
   0   0  -7   14.40    1.90
   0   0  -7   15.30    2.10
   0   0  -7   11.60    1.50
  -1   0   7   87.09    7.90
  -1   0   7   88.09    8.70
   1   0  -7   91.79    7.70
   1   0  -7   92.79    7.90
   1   0  -7  105.19    7.70
   1   0  -7   86.69    7.60
   1   0  -7   97.79    7.90
  -2   0   7   89.99    9.30
  -2   0   7  102.89    8.90
   2   0  -7  112.69    8.80
   2   0  -7  115.89    9.00
   2   0  -7   97.79    8.70
   2   0  -7  115.79    8.60
   2   0  -7  110.89    9.00
  -3   0   7   72.79    7.00
   3   0  -7   91.39    7.20
   3   0  -7   78.99    7.10
   3   0  -7   85.09    6.70
   3   0  -7   76.59    6.80
  -4   0   7   24.30    3.20
  -4   0   7   23.60    4.30
   4   0  -7   20.20    2.10
   4   0  -7   29.40    3.30
   4   0  -7   30.10    3.20
   4   0  -7   23.20    2.50
   4   0  -7   26.70    2.60
  -5   0   7    1.40    1.60
  -5   0   7    5.20    1.70
  -5   0   7    2.90    1.60
  -5   0   7    4.40    2.40
   5   0  -7    4.10    1.60
   5   0  -7    4.20    1.20
   5   0  -7    5.70    1.30
   5   0  -7    2.80    0.60
   5   0  -7    5.10    1.90
  -6   0   7    1.40    2.30
  -6   0   7    0.60    1.50
  -6   0   7    0.50    1.60
  -6   0   7    2.70    1.70
   6   0  -7    0.40    1.70
   6   0  -7    0.40    1.20
   6   0  -7    0.70    1.40
   6   0  -7    3.40    1.40
   6   0  -7    0.30    0.40
  -7   0   7    1.10    2.20
  -7   0   7    1.40    1.60
  -7   0   7    2.10    1.20
   7   0  -7    2.70    1.50
   7   0  -7    4.40    1.40
   7   0  -7    1.50    1.70
   7   0  -7    4.80    1.80
  -8   0   7    0.80    1.10
  -8   0   7    0.50    1.70
  -8   0   7    0.10    1.20
   8   0  -7    1.70    1.50
   8   1   6    4.90    1.20
   8   1   6    6.70    0.70
   7   1   6   13.30    2.40
   7   1   6   10.40    2.80
   7   1   6   11.60    1.20
   6   1   6  134.89    9.10
   6   1   6  124.49   11.50
   6   1   6  102.59    9.00
  -6  -1  -6   98.49    9.40
   5   1   6  203.68   15.10
   5   1   6  177.18   16.40
   5   1   6  196.18   14.20
  -5  -1  -6  157.48   14.80
  -5  -1  -6  175.78   14.30
   4   1   6  107.59    9.80
  -4  -1  -6   85.79    8.00
  -4  -1  -6   94.39    7.60
   3   1   6  341.87   25.80
   3   1   6  350.96   25.20
   3   1   6  348.57   27.00
  -3  -1  -6  311.47   25.20
  -3  -1  -6  293.07   25.20
  -3  -1  -6  290.87   25.50
  -3  -1  -6  343.57   25.30
  -3  -1  -6  319.67   25.40
   2   1   6   85.29    6.30
   2   1   6   88.69    8.00
  -2  -1  -6   76.09    6.30
  -2  -1  -6   74.59    6.80
  -2  -1  -6   79.79    6.60
  -2  -1  -6   83.19    6.60
  -2  -1  -6   82.59    6.40
  -2  -1  -6   73.99    6.40
   1   1   6   89.69    8.10
   1   1   6   87.69    6.50
  -1  -1  -6   72.99    6.60
  -1  -1  -6   78.79    6.90
  -1  -1  -6   78.59    6.60
  -1  -1  -6   88.89    6.80
  -1  -1  -6   81.79    6.70
  -1  -1  -6   86.69    6.90
   0   1   6  108.79    8.30
   0  -1  -6  111.39    8.50
   0  -1  -6   99.19    8.30
   0  -1  -6   95.79    8.10
   0  -1  -6  107.19    8.40
   0  -1  -6   96.09    8.10
  -1   1   6  123.19   10.90
   1  -1  -6  140.19   10.30
   1  -1  -6  121.49   10.10
   1  -1  -6  132.39   10.30
   1  -1  -6  115.09   10.20
   1  -1  -6  127.79   10.00
  -2   1   6  101.99    8.00
  -2   1   6  104.09    7.90
  -2   1   6   80.69    8.20
   2  -1  -6  104.69    7.70
   2  -1  -6   94.79    7.80
   2  -1  -6  101.19    8.00
   2  -1  -6   82.49    7.80
  -3   1   6   12.10    1.80
  -3   1   6    7.70    1.70
  -3   1   6    5.30    2.30
  -3   1   6    8.80    2.10
   3  -1  -6    9.10    1.40
   3  -1  -6    8.90    1.70
   3  -1  -6   10.40    1.80
   3  -1  -6    6.60    2.10
   3  -1  -6    7.50    1.40
   3  -1  -6    8.70    1.40
  -4   1   6   16.90    3.40
  -4   1   6   22.90    2.70
  -4   1   6   25.30    2.50
  -4   1   6   16.70    2.60
   4  -1  -6   25.60    3.00
   4  -1  -6   20.10    2.30
   4  -1  -6   24.70    3.00
   4  -1  -6   26.90    2.50
   4  -1  -6   22.40    2.30
  -5   1   6    7.60    1.80
  -5   1   6    9.00    1.80
  -5   1   6   18.10    3.90
  -5   1   6   10.30    1.80
  -5   1   6    8.00    2.60
   5  -1  -6    6.00    1.00
   5  -1  -6   11.00    2.00
   5  -1  -6    6.60    0.90
  -6   1   6    6.60    3.60
  -6   1   6   11.20    2.10
   6  -1  -6    6.50    1.00
   6  -1  -6   11.90    2.30
   6  -1  -6    8.00    1.00
   6  -1  -6    9.20    2.70
  -7   1   6   15.90    2.60
  -7   1   6   14.00    2.50
  -7   1   6   12.50    3.10
   7  -1  -6   20.90    2.80
   7  -1  -6   20.90    2.90
  -8   1   6    8.90    2.00
  -8   1   6    6.90    1.50
   8  -1  -6    6.70    2.20
   8  -1  -6   12.50    2.70
   9   2   5   13.20    1.20
   9   2   5   11.40    1.40
   8   2   5   36.10    3.20
   8   2   5   41.80    3.30
   7   2   5   61.79    5.90
   7   2   5   67.69    5.20
   6   2   5   57.29    6.80
   6   2   5   66.99    5.10
   6   2   5   76.09    5.10
  -6  -2  -5   60.69    5.50
  -6  -2  -5   54.09    5.70
   5   2   5   12.00    1.20
   5   2   5   12.90    2.00
   5   2   5   12.70    1.20
   5   2   5   12.80    2.90
   4   2   5    7.50    0.80
   4   2   5    7.50    2.30
   4   2   5    6.50    0.70
   4   2   5    6.50    1.30
  -4  -2  -5    7.40    1.20
  -4  -2  -5    6.00    1.00
  -4  -2  -5    7.30    0.90
  -4  -2  -5    6.70    2.00
  -4  -2  -5    6.10    1.60
   3   2   5  312.67   27.10
   3   2   5  371.16   27.50
   3   2   5  381.66   27.10
  -3  -2  -5  372.36   27.20
  -3  -2  -5  371.26   27.20
  -3  -2  -5  344.57   27.20
  -3  -2  -5  299.47   27.50
   2   2   5  572.24   40.30
  -2  -2  -5  508.55   40.40
  -2  -2  -5  477.65   40.40
  -2  -2  -5  518.25   40.50
  -2  -2  -5  532.55   40.60
   1   2   5  207.98   18.30
   1   2   5  237.38   18.30
   1   2   5  270.67   19.50
  -1  -2  -5  250.47   18.50
  -1  -2  -5  231.38   18.40
  -1  -2  -5  211.78   18.30
  -1  -2  -5  241.78   18.60
  -1  -2  -5  241.28   18.70
   0   2   5  145.09   11.20
   0   2   5  151.68   11.40
   0   2   5  123.59   11.90
   0   2   5  157.08   11.20
   0   2   5  123.29   11.40
   0  -2  -5  151.18   11.60
   0  -2  -5  169.08   11.60
   0  -2  -5  131.59   11.40
   0  -2  -5  146.09   11.50
   0  -2  -5  157.88   11.30
   0  -2  -5  128.59   11.30
  -1   2   5   11.00    1.70
  -1   2   5   11.00    2.00
  -1   2   5   12.60    1.20
  -1   2   5   11.50    1.40
  -1   2   5   11.70    1.20
   1  -2  -5   11.40    1.30
   1  -2  -5   12.10    1.60
   1  -2  -5   10.00    1.70
   1  -2  -5    8.40    1.30
   1  -2  -5   10.40    1.60
   1  -2  -5    9.70    1.20
   1  -2  -5   10.10    1.60
  -2   2   5  115.19    8.50
  -2   2   5  105.49    8.40
   2  -2  -5  119.19    8.90
   2  -2  -5   96.99    8.40
   2  -2  -5   94.59    8.30
   2  -2  -5   99.79    8.60
   2  -2  -5  103.69    8.70
   2  -2  -5  100.09    8.50
  -3   2   5   46.30    4.30
   3  -2  -5   43.80    4.40
   3  -2  -5   55.09    4.40
   3  -2  -5   58.79    4.80
  -4   2   5   77.79    6.80
  -4   2   5   77.39    7.50
  -4   2   5   84.89    6.60
   4  -2  -5   83.39    6.40
   4  -2  -5   75.69    6.30
  -5   2   5   17.80    3.60
  -5   2   5   22.20    3.20
  -5   2   5   23.10    2.90
   5  -2  -5   25.80    2.20
   5  -2  -5   35.00    3.40
   5  -2  -5   31.20    2.80
   5  -2  -5   20.90    2.20
   5  -2  -5   31.20    3.70
   5  -2  -5   31.70    3.50
  -6   2   5   17.10    3.50
  -6   2   5   19.80    2.60
  -6   2   5   17.00    2.90
   6  -2  -5   16.90    1.80
   6  -2  -5   20.50    1.80
  -7   2   5   15.00    2.70
  -7   2   5   16.60    2.20
  -7   2   5    7.70    2.50
   7  -2  -5   11.40    1.50
   7  -2  -5   11.20    1.50
  -8   2   5    2.90    1.90
  -8   2   5    0.00    1.70
  -8   2   5    1.60    1.50
   8  -2  -5    1.10    2.20
   8  -2  -5    1.90    0.90
   9   3   4   15.40    1.50
  -9  -3  -4   17.70    2.60
   8   3   4   11.50    1.30
   8   3   4   10.50    1.20
  -8  -3  -4   10.20    1.70
   7   3   4   14.80    1.30
   7   3   4   13.40    1.40
  -7  -3  -4   13.60    1.60
  -7  -3  -4   10.00    1.60
  -7  -3  -4   13.40    2.60
   5   3   4  198.08   16.90
   5   3   4  186.48   16.90
   5   3   4  221.18   18.00
   5   3   4  214.28   16.70
  -5  -3  -4  236.48   17.30
  -5  -3  -4  220.48   16.80
  -5  -3  -4  221.38   17.10
  -5  -3  -4  222.98   17.10
   4   3   4  554.24   43.40
   4   3   4  521.25   43.40
   4   3   4  573.44   44.60
  -4  -3  -4  597.04   43.80
  -4  -3  -4  640.74   43.90
  -4  -3  -4  545.75   43.60
  -4  -3  -4  523.25   43.50
  -4  -3  -4  539.05   43.60
   3   3   4  311.47   26.40
   3   3   4  314.87   26.40
   3   3   4  374.76   26.60
   3   3   4  369.26   27.60
   3   3   4  366.06   26.40
  -3  -3  -4  332.87   26.70
  -3  -3  -4  351.16   26.80
  -3  -3  -4  325.37   26.60
  -3  -3  -4  329.67   26.50
   2   3   4  556.74   44.00
   2   3   4  669.33   45.10
   2   3   4  566.54   44.00
   2   3   4  623.34   44.00
   2   3   4  547.55   44.00
  -2  -3  -4  522.15   44.10
  -2  -3  -4  559.34   44.10
  -2  -3  -4  552.54   44.10
  -2  -3  -4  591.14   44.20
  -2  -3  -4  556.34   44.10
  -2  -3  -4  575.54   44.20
  -2  -3  -4  515.95   44.30
   1   3   4  142.29   10.70
   1   3   4  153.38   10.80
   1   3   4  131.29   11.30
   1   3   4  151.48   10.70
   1   3   4  134.99   10.70
   1   3   4  145.59   11.60
  -1  -3  -4  122.19   10.80
  -1  -3  -4  130.99   10.90
  -1  -3  -4  131.29   10.90
  -1  -3  -4  128.79   10.80
   0   3   4    6.90    1.80
   0   3   4    5.60    0.90
   0   3   4    6.20    0.90
   0   3   4    7.40    0.90
   0   3   4    6.20    0.80
   0   3   4    4.10    1.10
   0  -3  -4    5.90    1.00
   0  -3  -4    5.10    0.80
   0  -3  -4    7.10    1.10
   0  -3  -4    5.90    1.20
   0  -3  -4    4.40    1.10
   0  -3  -4    9.40    1.80
   0  -3  -4    6.20    1.10
  -1   3   4   74.09    5.70
  -1   3   4   76.69    5.80
   1  -3  -4   74.49    6.10
   1  -3  -4   67.69    5.90
   1  -3  -4   64.09    5.90
   1  -3  -4   70.69    6.00
   1  -3  -4   70.29    5.80
   1  -3  -4   72.29    5.70
   1  -3  -4   70.69    5.70
   1  -3  -4   68.99    5.90
  -2   3   4  157.58   11.50
  -2   3   4  120.59   11.30
   2  -3  -4  143.79   11.40
   2  -3  -4  147.89   11.40
   2  -3  -4  148.89   11.70
   2  -3  -4  159.78   11.70
   2  -3  -4  133.39   11.30
   2  -3  -4  162.88   11.80
   2  -3  -4  143.19   11.60
   2  -3  -4  126.29   11.50
  -3   3   4   12.00    2.50
  -3   3   4   11.20    2.70
  -3   3   4   14.80    2.10
  -3   3   4   20.30    2.00
   3  -3  -4   19.40    2.50
   3  -3  -4   19.20    2.00
   3  -3  -4   20.50    2.50
   3  -3  -4   15.10    2.20
   3  -3  -4   18.90    2.10
   3  -3  -4   16.20    1.50
   3  -3  -4   20.50    2.50
  -4   3   4   61.39    6.40
  -4   3   4   63.49    6.20
  -4   3   4   87.79    6.40
   4  -3  -4   78.09    5.90
   4  -3  -4   82.79    6.50
  -5   3   4   70.19    6.30
  -5   3   4   63.49    6.70
  -5   3   4   83.69    6.10
   5  -3  -4   67.29    5.80
  -6   3   4   32.50    4.90
   6  -3  -4   22.70    2.60
   6  -3  -4   32.80    2.50
  -7   3   4    1.80    1.50
  -7   3   4    0.90    1.40
   7  -3  -4    3.20    2.30
   7  -3  -4    0.90    1.00
  -8   3   4    9.50    2.00
  -8   3   4   12.30    1.70
  10   4   3   37.00    3.00
  10   4   3   28.10    2.80
 -10  -4  -3   37.10    2.90
 -10  -4  -3   32.50    3.80
   9   4   3    4.10    0.90
   9   4   3    3.70    0.70
  -9  -4  -3    4.80    1.30
  -9  -4  -3    5.70    1.10
   8   4   3    3.30    0.70
   8   4   3    1.50    0.50
   8   4   3    1.50    0.40
  -8  -4  -3    1.60    1.20
  -8  -4  -3    5.00    1.80
  -8  -4  -3    1.40    1.00
   7   4   3   80.69    6.00
   7   4   3   73.39    6.00
   7   4   3   77.79    5.90
  -7  -4  -3   71.89    6.10
  -7  -4  -3   68.29    6.30
   6   4   3  149.69   11.10
   6   4   3  149.99   11.20
   6   4   3  146.89   11.10
  -6  -4  -3  130.89   11.50
  -6  -4  -3  130.29   11.20
   5   4   3  266.37   20.80
   5   4   3  282.67   20.70
   5   4   3  278.67   20.80
   5   4   3  284.57   20.70
   5   4   3  272.17   20.70
  -5  -4  -3  245.38   20.90
  -5  -4  -3  264.97   21.10
  -5  -4  -3  240.98   20.80
   4   4   3  446.76   32.50
   4   4   3  408.66   32.50
   4   4   3  407.26   32.50
   4   4   3  440.16   32.50
   4   4   3  431.36   32.50
  -4  -4  -3  407.26   32.70
  -4  -4  -3  428.46   32.90
  -4  -4  -3  431.96   32.70
  -4  -4  -3  376.86   32.60
   3   4   3  168.28   13.40
   3   4   3  182.78   13.30
   3   4   3  173.78   13.40
   3   4   3  187.08   13.50
   3   4   3  161.68   13.30
  -3  -4  -3  154.38   13.80
  -3  -4  -3  188.38   13.60
  -3  -4  -3  151.58   13.50
  -3  -4  -3  176.68   13.70
   2   4   3  180.68   13.90
   2   4   3  174.68   13.90
   2   4   3  182.08   13.90
   2   4   3  195.68   14.10
   2   4   3  194.68   13.90
   2   4   3  191.28   14.00
  -2  -4  -3  165.28   14.10
  -2  -4  -3  177.88   14.20
  -2  -4  -3  168.58   14.20
  -2  -4  -3  160.38   14.10
   1   4   3  387.66   28.50
   1   4   3  361.86   28.50
   1   4   3  416.66   28.50
   1   4   3  420.06   28.40
   1   4   3  404.26   28.50
   1   4   3  387.26   28.60
  -1  -4  -3  374.16   28.80
  -1  -4  -3  339.47   28.70
  -1  -4  -3  322.97   28.70
  -1  -4  -3  334.47   28.70
  -1  -4  -3  346.37   28.60
  -1  -4  -3  342.17   28.70
  -1  -4  -3  340.27   28.70
   0   4   3  230.18   18.60
   0   4   3  218.98   18.70
   0   4   3  241.08   18.50
   0   4   3  271.77   18.90
   0  -4  -3  230.08   18.80
   0  -4  -3  227.28   18.80
   0  -4  -3  232.38   18.90
   0  -4  -3  225.28   18.80
   0  -4  -3  265.87   18.80
   0  -4  -3  243.38   18.80
  -1   4   3  109.79    9.70
  -1   4   3  126.79    9.90
  -1   4   3  119.49   10.50
  -1   4   3  127.19    9.70
   1  -4  -3  123.09   10.10
   1  -4  -3  130.39    9.80
   1  -4  -3  117.29    9.90
   1  -4  -3  131.69   10.10
   1  -4  -3  127.29   10.20
   1  -4  -3  122.89   10.10
  -2   4   3   45.80    4.00
  -2   4   3   38.90    4.00
  -2   4   3   47.10    4.20
   2  -4  -3   47.00    4.10
   2  -4  -3   47.70    3.80
   2  -4  -3   49.80    4.50
   2  -4  -3   50.89    4.60
   2  -4  -3   45.40    4.00
   2  -4  -3   52.79    4.20
   2  -4  -3   51.19    4.70
  -3   4   3   28.60    3.30
  -3   4   3   28.60    2.80
  -3   4   3   22.50    2.60
  -3   4   3   21.20    2.70
   3  -4  -3   29.90    3.40
   3  -4  -3   25.70    4.10
   3  -4  -3   29.80    3.10
   3  -4  -3   26.50    2.20
  -4   4   3   14.60    1.90
  -4   4   3   12.80    2.50
  -4   4   3   11.30    1.90
   4  -4  -3   16.20    2.90
   4  -4  -3   14.50    2.50
   4  -4  -3   17.20    3.40
   4  -4  -3   15.30    1.40
   4  -4  -3   10.90    2.50
  -5   4   3   28.80    3.10
  -5   4   3   19.90    2.70
  -5   4   3   29.00    3.00
  -5   4   3   25.10    2.70
  -5   4   3   24.00    2.90
   5  -4  -3   22.50    2.30
   5  -4  -3   31.80    3.80
   5  -4  -3   25.50    3.10
   5  -4  -3   34.90    4.50
  -6   4   3   25.20    3.00
  -6   4   3   25.20    2.80
  -6   4   3   30.70    2.90
   6  -4  -3   31.00    2.50
  -7   4   3   19.10    2.40
  -7   4   3   19.50    2.50
  -7   4   3   23.50    2.40
   7  -4  -3   31.60    4.60
  10   5   2    3.60    0.60
  10   5   2    5.70    1.00
   9   5   2    2.00    0.50
   9   5   2    1.40    0.50
   9   5   2    1.00    0.60
  -9  -5  -2    2.80    1.10
  -9  -5  -2    0.00    1.90
  -9  -5  -2    2.50    1.30
   8   5   2    7.20    0.90
   8   5   2    7.00    0.90
   8   5   2    7.40    1.10
  -8  -5  -2    5.90    2.00
  -8  -5  -2    9.90    1.60
  -8  -5  -2    8.00    1.80
   7   5   2   90.29    7.50
   7   5   2   94.89    7.50
   7   5   2   96.79    7.60
   7   5   2   95.29    7.50
  -7  -5  -2  100.19    7.80
  -7  -5  -2   96.99    8.10
  -7  -5  -2   87.49    8.00
   6   5   2  245.48   18.70
   6   5   2  244.18   18.70
   6   5   2  249.68   18.80
  -6  -5  -2  260.17   19.20
  -6  -5  -2  229.48   19.20
  -6  -5  -2  204.78   19.10
  -6  -5  -2  249.18   18.90
   5   5   2  111.79    8.40
   5   5   2  108.99    8.30
   5   5   2  108.49    8.30
   5   5   2  103.39    8.40
   5   5   2  113.09    8.40
   5   5   2  107.19    8.40
  -5  -5  -2   88.89    8.70
  -5  -5  -2  102.29    8.50
  -5  -5  -2  103.89    8.50
  -5  -5  -2  109.59    8.90
   4   5   2  155.08   11.50
   4   5   2  153.88   11.40
   4   5   2  150.48   11.40
  -4  -5  -2  136.99   11.60
  -4  -5  -2  130.09   11.70
  -4  -5  -2  138.99   11.80
  -4  -5  -2  156.18   11.90
   3   5   2  120.29    9.00
   3   5   2  116.09    8.80
   3   5   2  118.09    8.80
   3   5   2  107.59    8.80
   3   5   2  117.89    8.70
  -3  -5  -2  108.49    9.10
  -3  -5  -2  101.09    8.90
  -3  -5  -2   97.89    9.10
  -3  -5  -2  121.69    9.30
   2   5   2  145.79   11.20
   2   5   2  137.89   11.10
   2   5   2  142.79   11.10
   2   5   2  133.79   11.10
   2   5   2  147.29   11.00
   2   5   2  156.68   11.20
  -2  -5  -2  151.78   11.50
  -2  -5  -2  122.99   11.30
  -2  -5  -2  137.99   11.40
   1   5   2 1689.13  119.79
   1   5   2 1602.14  119.89
   1   5   2 1591.84  119.89
   1   5   2 1421.76  119.99
   1   5   2 1612.24  119.89
   1   5   2 1516.95  119.89
  -1  -5  -2 1582.04  120.19
  -1  -5  -2 1552.24  120.29
  -1  -5  -2 1594.14  120.29
  -1  -5  -2 1431.16  120.09
  -1  -5  -2 1488.05  120.09
   0   5   2  516.15   42.90
   0   5   2  517.75   42.90
   0   5   2  615.64   42.80
   0   5   2  554.44   42.90
   0   5   2  481.05   43.10
   0  -5  -2  612.04   43.00
   0  -5  -2  566.44   43.30
   0  -5  -2  604.64   43.40
   0  -5  -2  497.95   42.90
   0  -5  -2  576.44   43.40
  -1   5   2  206.38   16.80
  -1   5   2  222.88   16.60
  -1   5   2  202.08   16.50
  -1   5   2  207.68   16.50
   1  -5  -2  206.08   16.60
   1  -5  -2  208.38   17.10
   1  -5  -2  209.08   16.40
   1  -5  -2  211.68   17.10
   1  -5  -2  211.78   17.10
   1  -5  -2  230.28   16.60
  -2   5   2   27.30    2.90
  -2   5   2   29.70    2.70
  -2   5   2   24.90    2.80
  -2   5   2   25.30    2.80
   2  -5  -2   31.10    2.40
   2  -5  -2   28.00    3.40
   2  -5  -2   27.50    2.80
   2  -5  -2   33.20    3.70
   2  -5  -2   27.40    3.00
   2  -5  -2   30.60    3.70
  -3   5   2   32.30    3.00
  -3   5   2   26.60    2.90
  -3   5   2   28.50    3.10
  -3   5   2   30.30    3.20
   3  -5  -2   33.00    3.80
   3  -5  -2   33.80    4.00
   3  -5  -2   32.20    2.60
   3  -5  -2   31.80    4.10
  -4   5   2   39.30    3.70
  -4   5   2   46.70    4.10
  -4   5   2   41.60    3.80
  -4   5   2   35.10    3.60
   4  -5  -2   47.20    4.50
   4  -5  -2   31.40    4.80
   4  -5  -2   43.00    3.40
   4  -5  -2   49.30    5.30
  -5   5   2    9.70    1.70
  -5   5   2    9.70    1.80
  -5   5   2    9.10    2.60
  -5   5   2   13.30    1.80
   5  -5  -2    9.20    3.20
   5  -5  -2    7.30    1.00
  -6   5   2   13.60    1.80
  -6   5   2    8.90    1.70
  -6   5   2   11.10    1.70
   6  -5  -2   15.60    3.90
  -7   5   2   12.10    1.60
  -7   5   2   12.90    1.60
   7  -5  -2   13.80    3.70
  10   6   1    9.20    1.30
 -10  -6  -1    9.10    1.60
 -10  -6  -1   10.30    2.50
   9   6   1   18.60    1.90
   9   6   1   17.60    1.60
  -9  -6  -1   17.40    2.80
  -9  -6  -1   20.40    3.40
   8   6   1   35.40    3.00
   8   6   1   38.30    3.30
   8   6   1   33.90    3.60
  -8  -6  -1   40.60    3.60
   7   6   1   31.30    2.80
   7   6   1   31.80    2.70
   7   6   1   32.70    2.90
   7   6   1   31.00    2.70
  -7  -6  -1   38.20    3.30
  -7  -6  -1   32.50    3.80
  -7  -6  -1   35.10    5.20
   6   6   1   58.59    4.90
   6   6   1   60.89    5.10
   6   6   1   61.49    5.10
   6   6   1   61.99    5.10
  -6  -6  -1   65.49    5.70
  -6  -6  -1   59.09    5.80
  -6  -6  -1   68.99    5.40
   5   6   1   77.99    6.00
   5   6   1   78.49    6.20
   5   6   1   73.09    6.10
   5   6   1   69.29    6.10
   5   6   1   74.19    6.10
   5   6   1   75.89    6.10
  -5  -6  -1   81.09    6.60
  -5  -6  -1   83.79    6.90
  -5  -6  -1   83.09    6.40
  -5  -6  -1   67.39    6.30
   4   6   1  201.68   15.40
   4   6   1  198.98   15.50
   4   6   1  194.98   15.50
   4   6   1  200.78   15.60
  -4  -6  -1  194.08   15.90
  -4  -6  -1  197.08   15.80
  -4  -6  -1  201.98   16.10
  -4  -6  -1  200.18   15.70
   3   6   1   25.40    2.10
   3   6   1   24.70    2.20
   3   6   1   22.80    2.20
   3   6   1   21.10    2.20
   3   6   1   26.20    2.00
   3   6   1   25.40    2.10
   3   6   1   23.90    2.10
  -3  -6  -1   24.80    2.50
  -3  -6  -1   22.80    2.80
  -3  -6  -1   24.70    2.80
  -3  -6  -1   18.20    3.00
  -3  -6  -1   26.50    3.10
  -3  -6  -1   27.30    2.60
   2   6   1   59.99    4.80
   2   6   1   57.39    4.90
   2   6   1   54.49    5.00
   2   6   1   60.19    4.70
   2   6   1   62.39    5.00
   2   6   1   55.69    4.80
   2   6   1   62.79    4.80
  -2  -6  -1   62.79    5.50
  -2  -6  -1   58.39    5.50
  -2  -6  -1   60.29    5.20
  -2  -6  -1   59.49    5.00
  -2  -6  -1   62.69    5.10
   1   6   1  127.89    9.70
   1   6   1  125.59    9.80
   1   6   1  129.99    9.80
   1   6   1  127.39    9.70
   1   6   1  122.09    9.70
  -1  -6  -1  124.89   10.40
  -1  -6  -1  116.39    9.80
  -1  -6  -1  105.69    9.90
  -1  -6  -1  130.49   10.30
  -1  -6  -1  123.29    9.90
  -1  -6  -1  128.89   10.40
   0   6   1   17.70    1.80
   0   6   1   19.30    1.70
   0   6   1   15.90    1.80
   0   6   1   14.40    2.10
   0   6   1   18.60    1.90
   0  -6  -1   23.00    2.90
   0  -6  -1   16.10    1.40
   0  -6  -1   19.40    2.00
   0  -6  -1   21.90    3.10
  -1   6   1   68.89    6.90
  -1   6   1   91.59    6.60
  -1   6   1   94.29    6.70
  -1   6   1   90.19    6.70
   1  -6  -1   71.79    7.20
   1  -6  -1   78.19    6.70
   1  -6  -1   71.49    6.40
   1  -6  -1   89.99    8.50
   1  -6  -1   84.19    7.50
   1  -6  -1   79.29    8.60
  -2   6   1   34.30    3.70
  -2   6   1   28.10    4.20
  -2   6   1   45.20    3.40
   2  -6  -1   39.90    4.70
   2  -6  -1   34.90    5.30
   2  -6  -1   34.20    2.90
   2  -6  -1   43.20    4.40
   2  -6  -1   29.70    3.80
  -3   6   1  183.38   17.50
  -3   6   1  237.48   17.10
  -3   6   1  232.88   17.20
  -3   6   1  221.08   17.20
   3  -6  -1  213.38   18.40
   3  -6  -1  215.98   18.00
  -4   6   1   11.50    1.60
  -4   6   1   12.50    1.80
  -4   6   1   10.10    1.80
   4  -6  -1   11.70    3.40
   4  -6  -1    7.30    2.80
  -5   6   1    9.50    1.50
  -5   6   1   10.20    1.60
  -5   6   1    7.90    1.60
  -6   6   1    2.40    0.90
  -6   6   1    1.80    1.20
  -6   6   1    0.60    1.00
   6  -6  -1   -1.20    2.30
  10   7   0    6.40    1.00
 -10  -7   0    7.20    1.40
 -10  -7   0    6.70    2.10
 -10  -7   0    7.10    1.80
   9   7   0    1.30    0.70
  -9  -7   0    0.60    1.90
  -9  -7   0    1.50    1.50
  -9  -7   0    0.80    1.10
   8   7   0   -0.50    0.60
   8   7   0    0.60    0.30
   8   7   0    0.60    0.70
  -8  -7   0    0.20    1.60
  -8  -7   0    2.00    1.80
  -8  -7   0   -0.40    1.10
  -8  -7   0    0.20    2.30
  -8  -7   0    0.30    1.90
   7   7   0   33.10    3.00
   7   7   0   32.60    2.70
   7   7   0   33.30    3.00
  -7  -7   0   36.80    3.30
  -7  -7   0   35.50    4.00
  -7  -7   0   30.00    3.80
   6   7   0   21.70    1.80
   6   7   0   22.30    2.10
   6   7   0   21.20    2.20
   6   7   0   23.20    2.30
   6   7   0   18.30    2.10
   6   7   0   24.10    2.10
  -6  -7   0   26.50    3.10
  -6  -7   0   19.20    3.20
  -6  -7   0   15.90    3.80
   5   7   0    3.30    0.80
   5   7   0    3.90    0.80
   5   7   0    2.90    0.90
   5   7   0    3.10    0.40
   5   7   0    5.20    1.20
   5   7   0    3.40    0.90
  -5  -7   0    3.30    1.40
  -5  -7   0    4.80    1.30
  -5  -7   0    3.00    1.70
  -5  -7   0    3.30    1.80
   4   7   0  138.89   11.40
   4   7   0  147.29   11.50
   4   7   0  129.69   11.40
   4   7   0  122.59   11.50
   4   7   0  147.19   11.40
  -4  -7   0  157.88   12.40
  -4  -7   0  151.38   12.00
  -4  -7   0  161.88   12.00
  -4  -7   0  154.78   11.60
   3   7   0   59.99    5.30
   3   7   0   63.59    5.20
   3   7   0   61.09    5.10
   3   7   0   57.39    5.30
   3   7   0   60.39    5.40
   3   7   0   64.79    5.10
  -3  -7   0   72.09    5.70
  -3  -7   0   76.09    6.40
  -3  -7   0   67.29    5.30
  -3  -7   0   54.59    5.60
  -3  -7   0   64.29    5.90
   2   7   0   51.99    4.30
   2   7   0   53.49    4.50
   2   7   0   53.09    4.40
   2   7   0   41.30    4.60
   2   7   0   50.39    4.30
  -2  -7   0   55.99    5.40
  -2  -7   0   60.29    4.70
  -2  -7   0   53.09    5.10
  -2  -7   0   53.19    5.10
  -2  -7   0   59.99    5.60
   1   7   0   24.70    2.30
   1   7   0   25.30    2.50
   1   7   0   23.70    2.30
   1   7   0   18.60    2.60
   1   7   0   22.90    2.20
  -1  -7   0   22.00    3.60
  -1  -7   0   28.50    2.60
  -1  -7   0   29.30    3.80
  -1  -7   0   22.20    5.00
  -1  -7   0   27.10    3.00
  -1  -7   0   26.70    3.70
   0   7   0    4.10    1.10
   0   7   0    3.70    0.90
   0   7   0    4.20    0.90
   0   7   0    0.10    1.60
   0   7   0    3.40    1.10
   0   7   0    0.40    1.50
   0  -7   0    6.20    1.30
   0  -7   0    9.70    2.90
   0  -7   0    2.40    3.00
   0  -7   0    1.20    2.00
   0  -7   0    3.30    2.20
  -1   7   0  674.83   48.50
  -1   7   0  652.63   48.40
  -1   7   0  636.04   48.30
  -1   7   0  628.44   48.30
   1  -7   0  616.14   49.20
   1  -7   0  525.95   49.20
  -2   7   0   66.09    5.20
  -2   7   0   67.79    5.10
  -2   7   0   66.49    5.30
  -2   7   0   67.59    5.40
   2  -7   0   49.50    7.50
   2  -7   0   49.70    6.70
   2  -7   0   58.19    6.40
  -3   7   0   24.60    2.30
  -3   7   0   23.60    2.50
  -3   7   0   25.60    2.50
  -3   7   0   28.50    2.70
   3  -7   0   24.60    4.60
  -4   7   0    5.70    1.30
  -4   7   0    4.90    1.10
  -4   7   0    5.00    1.00
  -4   7   0    5.40    1.30
   4  -7   0    1.60    2.30
   4  -7   0    2.00    2.70
  -5   7   0    6.50    1.00
  -5   7   0    7.00    1.30
  -5   7   0    4.20    1.10
   5  -7   0    7.10    2.70
   9   8  -1   14.50    1.50
   9   8  -1   11.30    1.40
  -9  -8   1   12.50    1.80
  -9  -8   1   13.30    2.80
  -9  -8   1   11.70    2.40
   8   8  -1   24.10    2.30
   8   8  -1   23.00    2.30
  -8  -8   1   25.90    2.60
  -8  -8   1   24.80    3.60
  -8  -8   1   26.00    3.70
   7   8  -1    9.10    1.30
   7   8  -1    9.50    1.40
  -7  -8   1    4.10    2.40
  -7  -8   1   10.60    2.70
  -7  -8   1    4.00    2.30
  -7  -8   1    8.50    2.50
  -7  -8   1   10.60    1.70
   6   8  -1   43.60    4.50
   6   8  -1   50.49    4.10
   6   8  -1   49.99    4.10
   6   8  -1   46.10    4.20
  -6  -8   1   45.60    6.60
  -6  -8   1   49.99    5.40
  -6  -8   1   53.09    5.30
   5   8  -1   18.00    1.80
   5   8  -1   17.60    1.90
   5   8  -1   17.90    1.80
   5   8  -1   14.80    2.00
   5   8  -1   13.10    1.90
  -5  -8   1   17.00    2.80
  -5  -8   1   17.40    3.40
  -5  -8   1   16.40    2.00
  -5  -8   1   17.30    2.60
  -5  -8   1   14.60    3.70
   4   8  -1   31.10    2.80
   4   8  -1   31.80    2.70
   4   8  -1   28.00    2.80
   4   8  -1   32.90    2.90
   4   8  -1   30.60    2.70
  -4  -8   1   23.40    3.20
  -4  -8   1   24.50    3.20
  -4  -8   1   33.20    3.90
  -4  -8   1   36.90    4.50
   3   8  -1  378.76   29.00
   3   8  -1  371.96   28.80
   3   8  -1  379.06   28.80
   3   8  -1  313.07   29.10
   3   8  -1  380.16   28.90
  -3  -8   1  411.46   28.80
  -3  -8   1  403.06   30.00
  -3  -8   1  363.36   29.30
  -3  -8   1  324.37   30.80
   2   8  -1    5.50    1.30
   2   8  -1    5.50    1.00
   2   8  -1    6.10    1.10
   2   8  -1    6.20    1.40
   2   8  -1    5.00    2.10
   2   8  -1    4.90    0.90
  -2  -8   1    0.90    3.00
  -2  -8   1    5.50    2.70
  -2  -8   1    8.50    2.00
   1   8  -1  212.88   16.20
   1   8  -1  203.98   16.10
   1   8  -1  227.18   16.40
   1   8  -1  209.88   16.20
  -1  -8   1  194.88   17.30
  -1  -8   1  182.58   17.00
   0   8  -1    1.70    0.80
   0   8  -1    1.10    0.80
   0   8  -1    2.30    1.20
   0   8  -1    1.80    0.90
   0  -8   1    3.90    2.60
   0  -8   1    1.10    2.90
   0  -8   1    2.20    2.40
  -1   8  -1   -0.40    1.00
  -1   8  -1    1.20    0.80
  -1   8  -1   -0.10    0.80
  -1   8  -1    0.20    0.70
   1  -8   1   -2.00    2.40
   1  -8   1    3.40    2.50
  -2   8  -1   10.20    1.40
  -2   8  -1    8.40    1.20
  -2   8  -1    8.80    1.10
  -2   8  -1    9.90    1.70
   2  -8   1    3.10    3.00
   2  -8   1    5.00    2.70
  -3   8  -1    4.00    2.20
  -3   8  -1    0.90    0.80
  -3   8  -1    1.90    0.80
   3  -8   1    0.30    2.00
   3  -8   1    1.10    2.30
   7   9  -2    6.00    1.10
  -7  -9   2   10.30    3.70
   6   9  -2   13.50    1.90
   6   9  -2   13.80    1.60
   6   9  -2   12.10    1.50
  -6  -9   2   15.90    3.30
  -6  -9   2   13.90    2.70
   5   9  -2   27.10    2.60
   5   9  -2   27.80    2.50
   5   9  -2   26.10    2.50
   5   9  -2   25.80    2.60
  -5  -9   2   24.40    4.10
  -5  -9   2   30.50    3.80
   4   9  -2   21.90    2.30
   4   9  -2   17.40    3.40
   4   9  -2   23.50    2.20
   4   9  -2   20.80    2.00
  -4  -9   2   24.20    4.20
  -4  -9   2   18.40    3.10
   3   9  -2   39.80    3.20
   3   9  -2   34.30    3.40
   3   9  -2   39.00    3.40
   3   9  -2   36.80    3.30
   3   9  -2   29.70    3.30
   3   9  -2   36.60    3.10
  -3  -9   2   35.50    4.90
   2   9  -2    1.10    0.70
   2   9  -2   -0.40    1.00
   2   9  -2    0.40    1.00
   2   9  -2    1.30    0.80
   2   9  -2    2.10    1.00
   2   9  -2    1.20    0.70
  -2  -9   2   -1.20    2.50
   1   9  -2    9.70    1.30
   1   9  -2    8.70    1.20
   1   9  -2    9.10    1.40
   1   9  -2    9.40    1.60
   1   9  -2    9.40    1.40
  -1  -9   2    3.60    3.20
   0   9  -2   28.00    2.50
   0   9  -2   28.30    2.90
   0   9  -2   26.60    2.80
   0   9  -2   32.10    2.90
   0  -9   2   19.30    5.00
  -1   9  -2   15.80    1.70
  -1   9  -2   16.00    2.00
  -1   9  -2   17.30    2.00
   1  -9   2   12.40    3.30
   2  -2  10    2.70    2.10
  -2   2 -10    5.90    1.30
  -2   2 -10    4.00    1.30
   1  -2  10    6.30    3.40
  -1   2 -10    6.50    1.90
  -1   2 -10   10.80    1.80
  -1   2 -10    6.90    1.60
  -1   2 -10   14.50    2.70
   0  -2  10   10.40    3.10
   0   2 -10   14.10    2.50
   0   2 -10   13.40    2.00
   0   2 -10   13.20    2.30
  -1  -2  10   -0.60    1.60
   1   2 -10    1.50    1.20
   1   2 -10    3.40    1.00
   1   2 -10   -1.00    1.00
   1   2 -10    2.60    1.40
   2   2 -10    6.80    1.40
   2   2 -10    6.70    2.00
   2   2 -10    5.30    1.80
   2   2 -10    6.80    1.70
   3   2 -10   16.80    2.60
   3   2 -10   16.50    2.70
   3   2 -10   21.40    2.80
   3   2 -10   18.30    2.70
   4   2 -10   33.80    3.10
   4   2 -10   30.20    3.40
   4   2 -10   26.30    3.20
   4   2 -10   30.60    3.40
  -5   1  -9   62.59    5.20
   4  -1   9    0.80    2.30
  -4   1  -9    1.20    0.80
  -4   1  -9    2.80    1.60
   3  -1   9   26.00    5.10
  -3   1  -9   35.30    3.20
  -3   1  -9   35.80    3.40
  -3   1  -9   35.30    3.50
   2  -1   9   49.00    6.80
  -2   1  -9   52.59    4.60
  -2   1  -9   60.39    5.30
  -2   1  -9   53.09    5.50
  -2   1  -9   60.89    5.00
   1  -1   9  214.88   22.20
  -1   1  -9  262.87   20.80
  -1   1  -9  282.07   20.90
  -1   1  -9  273.87   20.60
   0  -1   9   49.70    7.60
   0  -1   9   51.49    4.50
   0   1  -9   59.69    5.10
   0   1  -9   58.89    5.30
   0   1  -9   54.39    5.30
   0   1  -9   54.09    4.70
  -1  -1   9    6.70    0.90
  -1  -1   9    8.30    2.50
   1   1  -9   12.70    2.40
   1   1  -9   12.20    1.70
   1   1  -9   13.20    2.20
   1   1  -9   11.80    2.30
  -2  -1   9    6.70    2.90
  -2  -1   9    6.90    2.40
  -2  -1   9    7.00    0.90
   2   1  -9    8.90    2.00
   2   1  -9   11.10    1.90
   2   1  -9   10.90    1.60
   2   1  -9   11.50    2.20
  -3  -1   9    1.60    2.20
  -3  -1   9    2.70    2.10
   3   1  -9    5.10    1.30
   3   1  -9    8.70    2.10
   3   1  -9    3.70    1.40
   3   1  -9    5.10    1.90
  -4  -1   9   11.30    2.70
   4   1  -9   13.20    2.30
   4   1  -9   12.20    2.00
   4   1  -9   15.20    2.10
   4   1  -9   15.50    2.80
   4   1  -9   16.60    2.20
   5   1  -9    8.80    2.30
   5   1  -9    8.60    2.20
   5   1  -9    9.80    1.70
  -6  -1   9    0.60    1.90
   6   1  -9    0.70    1.20
   6   1  -9    1.50    1.50
   6   1  -9    0.40    1.20
   6   0   8    8.10    3.20
   5   0   8   15.80    3.80
  -5   0  -8   16.50    2.20
  -5   0  -8   21.20    1.90
   4   0   8    9.00    1.00
   4   0   8    7.30    3.20
  -4   0  -8    9.80    1.50
  -4   0  -8   11.40    2.10
  -4   0  -8   10.20    1.40
   3   0   8    8.20    3.20
   3   0   8    8.60    0.90
  -3   0  -8    8.40    1.40
  -3   0  -8   10.60    1.70
  -3   0  -8   11.50    1.90
   2   0   8   52.89    6.80
   2   0   8   58.79    4.60
  -2   0  -8   55.99    4.70
  -2   0  -8   63.29    5.20
  -2   0  -8   63.49    5.40
  -2   0  -8   53.59    5.00
   1   0   8  505.65   38.00
   1   0   8  447.36   40.00
  -1   0  -8  513.45   38.70
  -1   0  -8  494.05   38.20
  -1   0  -8  475.25   38.40
  -1   0  -8  521.85   38.60
  -1   0  -8  482.25   38.40
   0   0   8   72.39    5.70
   0   0   8   87.49    8.00
   0   0  -8   75.89    6.50
   0   0  -8   77.09    6.50
   0   0  -8   72.89    6.20
   0   0  -8   62.19    6.10
   0   0  -8   64.89    5.90
  -1   0   8   16.80    3.20
  -1   0   8   15.30    1.60
   1   0  -8   21.10    2.60
   1   0  -8   20.90    2.00
   1   0  -8   14.80    2.10
   1   0  -8   21.90    2.70
   1   0  -8   20.30    2.30
  -2   0   8   31.20    4.30
  -2   0   8   38.60    4.10
  -2   0   8   30.20    4.00
   2   0  -8   44.20    3.60
   2   0  -8   44.80    3.80
   2   0  -8   44.50    4.10
  -3   0   8   48.00    5.40
   3   0  -8   56.99    5.60
   3   0  -8   61.39    5.30
   3   0  -8   61.39    5.10
   3   0  -8   64.59    5.60
   3   0  -8   54.79    5.20
  -4   0   8   10.40    2.10
  -4   0   8   18.10    2.80
  -4   0   8    9.50    3.30
   4   0  -8   19.70    2.20
   4   0  -8   13.80    1.40
   4   0  -8   16.60    2.10
   4   0  -8   22.70    2.90
  -5   0   8   33.80    3.60
   5   0  -8   26.40    2.40
  -6   0   8    3.50    1.60
   6   0  -8    8.50    1.70
   6   0  -8    7.40    2.00
   6   0  -8    6.40    2.30
   6   0  -8    6.80    1.70
   7   0  -8   20.10    2.40
   7   0  -8   15.20    2.80
   7   0  -8   11.90    2.50
   7   0  -8   15.50    2.30
   7   1   7   19.90    3.90
   7   1   7   24.80    2.00
   6   1   7   24.30    4.60
   6   1   7   29.30    2.30
  -6  -1  -7   23.30    2.80
   5   1   7   41.80    6.00
   5   1   7   46.50    4.60
   5   1   7   44.40    3.60
  -5  -1  -7   42.50    3.70
  -5  -1  -7   46.20    4.00
   4   1   7  468.25   32.90
   4   1   7  447.86   35.30
  -4  -1  -7  418.56   33.20
  -4  -1  -7  409.36   33.30
  -4  -1  -7  409.46   33.10
  -4  -1  -7  394.66   33.00
   3   1   7  183.98   16.70
   3   1   7  200.48   14.70
  -3  -1  -7  169.88   14.80
  -3  -1  -7  188.18   15.10
  -3  -1  -7  196.58   15.10
  -3  -1  -7  190.18   15.00
   2   1   7   62.19    6.60
  -2  -1  -7   56.69    5.00
  -2  -1  -7   62.19    5.00
  -2  -1  -7   52.69    4.60
  -2  -1  -7   54.49    4.80
  -2  -1  -7   55.79    5.10
   1   1   7  123.79   10.60
   1   1   7  146.29   12.30
   1   1   7  135.79   10.50
  -1  -1  -7  128.19   10.90
  -1  -1  -7  142.39   11.20
  -1  -1  -7  134.59   10.80
  -1  -1  -7  129.19   10.60
  -1  -1  -7  143.89   11.00
   0   1   7   37.40    3.10
   0   1   7   36.40    3.40
   0  -1  -7   40.90    3.60
   0  -1  -7   34.20    3.20
   0  -1  -7   37.50    3.70
   0  -1  -7   39.60    3.60
   0  -1  -7   38.30    3.40
  -1   1   7   35.40    4.30
   1  -1  -7   36.30    3.60
   1  -1  -7   36.90    3.40
   1  -1  -7   36.90    3.20
   1  -1  -7   33.40    3.50
   1  -1  -7   41.90    3.70
  -2   1   7   50.39    4.50
  -2   1   7   41.30    4.70
   2  -1  -7   47.90    4.20
   2  -1  -7   51.99    4.60
   2  -1  -7   38.00    4.20
   2  -1  -7   55.29    4.10
  -3   1   7    4.00    0.90
  -3   1   7    5.90    1.20
  -3   1   7    8.70    1.90
  -3   1   7    5.10    1.80
   3  -1  -7   10.40    2.10
   3  -1  -7    9.80    1.80
   3  -1  -7    9.10    1.50
   3  -1  -7    8.70    1.30
   3  -1  -7    6.10    0.80
   3  -1  -7    8.60    1.50
  -4   1   7   48.50    4.30
  -4   1   7   35.20    3.80
   4  -1  -7   41.80    4.60
   4  -1  -7   43.50    4.00
   4  -1  -7   53.39    4.70
  -5   1   7   16.80    3.70
  -5   1   7   16.50    2.90
  -5   1   7   19.20    2.40
   5  -1  -7   23.50    1.80
  -6   1   7   14.50    2.00
  -6   1   7    8.80    3.00
  -6   1   7   10.90    2.20
   6  -1  -7   19.40    3.10
   6  -1  -7   12.80    1.30
  -7   1   7    3.10    1.20
  -7   1   7    2.00    1.50
  -7   1   7    0.80    2.10
   7  -1  -7    4.70    1.90
   7  -1  -7    5.90    2.30
   8   2   6    8.40    1.20
   8   2   6    9.70    1.00
   7   2   6    2.90    0.70
   7   2   6    2.10    0.50
   7   2   6    1.30    1.80
   6   2   6  138.09   10.70
   6   2   6  148.49   10.70
   6   2   6  126.69   12.70
   6   2   6  145.99   11.20
  -6  -2  -6  124.69   11.00
  -6  -2  -6  126.09   11.20
   5   2   6  135.09   10.40
   5   2   6  126.09   12.40
   5   2   6  137.89   10.50
   4   2   6   35.10    4.60
   4   2   6   35.10    2.50
   4   2   6   28.70    2.40
  -4  -2  -6   23.60    3.40
  -4  -2  -6   29.00    2.60
  -4  -2  -6   31.80    2.80
  -4  -2  -6   28.30    2.60
   3   2   6    8.30    0.90
   3   2   6    8.80    2.50
  -3  -2  -6    7.50    1.00
  -3  -2  -6    7.90    1.10
  -3  -2  -6    9.70    1.30
  -3  -2  -6    8.90    2.10
  -3  -2  -6    7.30    1.50
   2   2   6  190.98   15.80
   2   2   6  210.68   17.30
   2   2   6  218.58   16.00
  -2  -2  -6  193.58   16.10
  -2  -2  -6  181.78   15.90
  -2  -2  -6  224.28   15.90
   1   2   6  141.49   12.30
   1   2   6  173.88   13.70
  -1  -2  -6  140.69   12.30
  -1  -2  -6  155.98   12.50
  -1  -2  -6  140.29   12.70
  -1  -2  -6  169.98   12.60
  -1  -2  -6  162.28   12.60
  -1  -2  -6  180.68   12.30
   0   2   6  419.56   38.10
   0   2   6  441.66   37.90
   0  -2  -6  533.95   38.30
   0  -2  -6  492.45   38.20
   0  -2  -6  456.65   38.00
   0  -2  -6  530.35   38.30
   0  -2  -6  511.25   38.00
   0  -2  -6  542.85   38.40
  -1   2   6    7.20    1.00
  -1   2   6    5.00    1.90
  -1   2   6    7.80    1.00
  -1   2   6    9.90    1.00
  -1   2   6    7.60    1.80
  -1   2   6    8.30    1.90
   1  -2  -6    9.40    1.10
   1  -2  -6    8.70    1.50
   1  -2  -6    9.00    1.40
   1  -2  -6    9.80    1.70
   1  -2  -6   11.40    1.70
   1  -2  -6    7.20    1.60
   1  -2  -6    8.10    1.30
  -2   2   6    5.20    1.30
  -2   2   6    2.50    1.70
   2  -2  -6    2.70    0.80
   2  -2  -6    2.20    1.10
   2  -2  -6    3.60    1.30
   2  -2  -6    4.50    1.30
   2  -2  -6    3.30    1.10
   2  -2  -6    2.80    1.00
  -3   2   6   43.30    3.50
  -3   2   6   37.70    3.40
   3  -2  -6   34.50    3.40
   3  -2  -6   40.90    4.10
   3  -2  -6   33.50    3.50
   3  -2  -6   35.30    3.40
  -4   2   6    3.40    2.20
  -4   2   6    7.30    1.50
  -4   2   6    5.20    1.80
  -4   2   6   12.00    2.10
   4  -2  -6    5.90    1.30
   4  -2  -6    9.00    1.70
   4  -2  -6    5.90    1.70
   4  -2  -6    5.30    0.80
   4  -2  -6   10.80    3.10
  -5   2   6  108.19    7.70
  -5   2   6   86.09    7.90
  -5   2   6   85.59    8.80
  -6   2   6   16.00    2.20
  -6   2   6   12.40    3.00
  -6   2   6   13.50    2.30
   6  -2  -6   17.10    1.50
  -7   2   6   12.50    2.20
  -7   2   6   12.10    2.00
   7  -2  -6   16.80    2.60
  -8   2   6    5.60    1.50
  -8   2   6    5.80    1.10
  -8   2   6    1.60    2.50
  -8   2   6    9.30    1.40
   9   3   5   38.40    3.20
  -9  -3  -5   40.00    4.00
   8   3   5   79.69    6.40
  -8  -3  -5   85.19    6.50
  -8  -3  -5   75.59    6.80
   7   3   5   13.90    1.30
   7   3   5   11.40    1.30
  -7  -3  -5   12.20    1.50
   6   3   5   37.10    4.80
   6   3   5   42.20    3.20
   6   3   5   36.00    3.20
  -6  -3  -5   34.70    3.60
   5   3   5  114.69    9.20
   5   3   5  116.39    9.30
   5   3   5  120.39   10.90
  -5  -3  -5  116.29    9.40
  -5  -3  -5  127.39    9.80
  -5  -3  -5  114.99    9.50
   4   3   5  108.59    9.60
   4   3   5   97.49    8.00
   4   3   5  105.79    8.00
  -4  -3  -5  105.19    8.10
  -4  -3  -5  110.49    8.30
  -4  -3  -5  100.59    8.10
  -4  -3  -5   86.09    8.60
   3   3   5   73.09    5.40
   3   3   5   62.49    5.30
   3   3   5   77.49    6.90
   3   3   5   63.49    5.40
  -3  -3  -5   74.09    5.60
  -3  -3  -5   68.39    5.50
  -3  -3  -5   69.29    5.50
  -3  -3  -5   69.59    5.60
  -3  -3  -5   60.19    6.00
   2   3   5  301.67   25.50
   2   3   5  347.57   25.50
   2   3   5  364.36   26.80
  -2  -3  -5  329.37   25.80
  -2  -3  -5  310.97   25.60
  -2  -3  -5  329.77   25.60
  -2  -3  -5  325.67   25.60
  -2  -3  -5  325.57   25.60
   1   3   5    9.40    2.10
   1   3   5    8.70    0.80
   1   3   5    8.10    2.10
   1   3   5    7.60    0.90
   1   3   5   10.40    1.60
   1   3   5    7.90    0.90
  -1  -3  -5   11.00    1.60
  -1  -3  -5    7.20    1.30
  -1  -3  -5    8.40    1.50
  -1  -3  -5    7.10    1.10
  -1  -3  -5    7.10    1.20
  -1  -3  -5    7.90    0.90
   0   3   5  108.69    8.00
   0   3   5  110.99    8.20
   0   3   5  105.79    8.20
   0   3   5  102.09    9.10
   0   3   5  108.59    8.10
   0  -3  -5   90.99    8.10
   0  -3  -5  111.39    8.50
   0  -3  -5  101.19    8.40
   0  -3  -5  113.29    8.10
   0  -3  -5   87.39    8.20
   0  -3  -5  100.69    8.40
   0  -3  -5   86.19    8.30
  -1   3   5  248.68   19.80
  -1   3   5  240.68   19.80
  -1   3   5  257.57   19.80
  -1   3   5  275.57   20.00
   1  -3  -5  247.38   19.90
   1  -3  -5  243.38   20.00
   1  -3  -5  269.77   20.20
   1  -3  -5  258.57   20.10
   1  -3  -5  243.58   20.10
   1  -3  -5  259.57   19.80
  -2   3   5   50.59    4.20
  -2   3   5   41.50    4.00
   2  -3  -5   48.50    4.30
   2  -3  -5   50.89    4.50
   2  -3  -5   47.70    4.10
   2  -3  -5   47.50    4.10
   2  -3  -5   52.19    4.60
   2  -3  -5   50.69    4.30
   2  -3  -5   42.70    4.00
  -3   3   5    4.30    1.50
  -3   3   5    2.20    1.60
   3  -3  -5    6.70    1.00
   3  -3  -5    6.20    1.60
   3  -3  -5    7.50    1.60
   3  -3  -5    4.00    0.70
   3  -3  -5    5.50    1.80
   3  -3  -5    5.50    1.30
   3  -3  -5    7.40    1.80
   3  -3  -5    5.50    1.30
   3  -3  -5    6.90    1.70
  -4   3   5   14.60    3.00
  -4   3   5   15.40    2.70
  -4   3   5   20.60    2.20
   4  -3  -5   12.40    1.60
   4  -3  -5   19.20    1.60
  -5   3   5   38.40    4.60
  -5   3   5   39.40    3.70
  -5   3   5   38.40    4.10
   5  -3  -5   41.60    3.30
  -6   3   5   -0.20    1.50
  -6   3   5    0.50    1.80
  -6   3   5   -0.10    1.60
   6  -3  -5   -0.40    1.80
   6  -3  -5    0.00    0.40
   6  -3  -5   -0.10    0.80
   6  -3  -5    0.00    1.50
  -7   3   5    1.30    1.10
  -7   3   5    1.40    1.30
  -7   3   5    1.40    1.40
  -7   3   5    0.90    2.20
  -7   3   5    2.90    1.40
   7  -3  -5    0.60    1.00
   7  -3  -5    3.00    2.50
   7  -3  -5    5.60    1.80
  10   4   4    0.70    0.40
  10   4   4    1.80    0.60
 -10  -4  -4    3.20    0.80
 -10  -4  -4    0.70    1.20
   9   4   4    0.80    0.40
   9   4   4    1.90    0.60
  -9  -4  -4   -1.50    1.10
   8   4   4   54.09    4.30
   8   4   4   44.10    4.20
  -8  -4  -4   57.59    4.80
   7   4   4  101.59    8.10
  -7  -4  -4  102.69    8.30
  -7  -4  -4  101.29    8.50
   6   4   4  210.78   16.40
   6   4   4  221.78   16.40
  -6  -4  -4  211.08   16.90
  -6  -4  -4  197.28   16.50
   5   4   4   11.10    1.20
   5   4   4   10.70    1.10
  -5  -4  -4    9.70    1.70
  -5  -4  -4   15.20    2.30
  -5  -4  -4   10.40    1.40
  -5  -4  -4    9.30    1.50
  -5  -4  -4   14.10    2.60
   4   4   4  331.47   28.60
   4   4   4  374.06   28.60
   4   4   4  382.46   28.60
   4   4   4  402.86   28.60
  -4  -4  -4  378.06   29.00
  -4  -4  -4  372.76   28.90
  -4  -4  -4  346.07   28.90
   3   4   4  185.48   14.40
   3   4   4  192.98   14.40
   3   4   4  186.68   14.40
   3   4   4  183.08   14.40
   3   4   4  211.98   14.60
   3   4   4  162.48   14.40
  -3  -4  -4  179.48   14.70
  -3  -4  -4  185.68   14.60
  -3  -4  -4  180.28   14.80
   2   4   4   58.79    4.50
   2   4   4   62.49    4.60
   2   4   4   58.19    4.50
   2   4   4   60.99    4.50
   2   4   4   54.89    4.80
   2   4   4   57.89    4.50
  -2  -4  -4   56.69    4.70
  -2  -4  -4   56.19    4.70
  -2  -4  -4   54.29    5.10
  -2  -4  -4   56.19    4.90
  -2  -4  -4   56.99    4.80
  -2  -4  -4   53.99    4.60
  -2  -4  -4   51.39    4.80
  -2  -4  -4   56.49    4.90
   1   4   4   85.39    5.80
   1   4   4   75.69    5.80
   1   4   4   82.79    5.80
   1   4   4   74.99    5.70
   1   4   4   76.49    6.10
   1   4   4   85.89    6.70
   1   4   4   77.49    5.90
  -1  -4  -4   69.69    6.10
  -1  -4  -4   66.79    6.10
  -1  -4  -4   68.89    6.00
  -1  -4  -4   61.29    6.20
  -1  -4  -4   64.79    6.00
  -1  -4  -4   61.29    6.10
   0   4   4  355.66   26.20
   0   4   4  339.57   26.80
   0   4   4  309.47   26.30
   0   4   4  332.77   26.20
   0   4   4  369.56   26.20
   0  -4  -4  334.27   26.50
   0  -4  -4  320.87   26.50
   0  -4  -4  313.87   26.40
   0  -4  -4  355.16   26.40
   0  -4  -4  342.87   26.50
  -1   4   4   74.79    6.10
  -1   4   4   81.49    6.10
  -1   4   4   77.89    6.30
  -1   4   4   74.09    6.20
   1  -4  -4   66.69    6.30
   1  -4  -4   77.99    6.30
   1  -4  -4   78.39    6.20
   1  -4  -4   80.19    6.50
   1  -4  -4   78.49    6.50
   1  -4  -4   64.99    6.20
   1  -4  -4   80.59    6.60
   1  -4  -4   81.59    6.50
  -2   4   4   39.90    3.80
  -2   4   4   47.20    3.90
  -2   4   4   51.99    4.10
  -2   4   4   43.10    4.00
   2  -4  -4   46.30    4.00
   2  -4  -4   44.40    4.10
   2  -4  -4   46.90    3.90
   2  -4  -4   50.89    4.40
   2  -4  -4   37.40    3.80
   2  -4  -4   54.39    4.40
  -3   4   4  115.59   10.40
  -3   4   4  110.19    9.90
  -3   4   4  121.89    9.70
  -3   4   4  138.69    9.80
  -4   4   4    9.00    2.00
  -4   4   4   12.60    1.90
  -4   4   4    9.60    2.50
  -4   4   4   12.80    2.00
  -4   4   4   18.60    2.00
   4  -4  -4   15.00    1.40
   4  -4  -4   17.70    2.40
   4  -4  -4   18.90    3.20
   4  -4  -4   18.20    3.00
  -5   4   4   19.30    3.30
  -5   4   4   19.90    2.40
  -5   4   4   26.40    3.00
  -5   4   4   17.20    2.30
  -5   4   4   20.00    2.60
   5  -4  -4   20.80    1.90
   5  -4  -4   28.20    3.70
   5  -4  -4   27.30    3.00
  -6   4   4    4.10    1.30
  -6   4   4    6.10    1.50
  -6   4   4    2.10    1.60
   6  -4  -4    6.00    0.90
   6  -4  -4    9.00    3.00
   6  -4  -4    6.80    2.30
   6  -4  -4    3.70    1.40
  -7   4   4   28.40    2.70
  -7   4   4   27.40    2.80
  -7   4   4   23.90    2.70
  10   5   3   12.30    1.30
  10   5   3   15.20    1.50
 -10  -5  -3   15.10    1.60
 -10  -5  -3   15.20    2.60
   9   5   3   37.70    3.40
   9   5   3   43.00    3.50
  -9  -5  -3   47.10    3.80
  -9  -5  -3   37.00    4.10
  -8  -5  -3   47.30    4.80
  -8  -5  -3   53.89    5.00
   7   5   3  120.29    9.10
   7   5   3  108.39    9.00
  -7  -5  -3  110.29    9.60
  -7  -5  -3  117.89    9.30
  -7  -5  -3  116.09    9.70
   6   5   3  182.18   13.40
   6   5   3  169.88   13.30
   6   5   3  176.88   13.30
  -6  -5  -3  158.28   13.80
  -6  -5  -3  162.48   13.50
   5   5   3   44.30    3.70
   5   5   3   46.30    3.80
   5   5   3   45.50    3.60
   5   5   3   48.90    3.80
   5   5   3   45.20    3.60
  -5  -5  -3   44.90    4.20
  -5  -5  -3   36.30    4.30
  -5  -5  -3   46.40    4.30
   4   5   3   24.00    2.20
   4   5   3   24.00    2.10
   4   5   3   24.00    2.00
   4   5   3   24.20    1.90
   4   5   3   23.80    2.00
  -4  -5  -3   20.20    2.30
  -4  -5  -3   22.20    2.30
  -4  -5  -3   18.00    3.60
  -4  -5  -3   24.20    2.70
   3   5   3   62.09    4.80
   3   5   3   65.89    5.10
   3   5   3   59.69    4.90
   3   5   3   60.69    4.80
   3   5   3   62.59    4.90
  -3  -5  -3   50.69    5.00
  -3  -5  -3   58.19    5.20
  -3  -5  -3   64.99    5.40
  -3  -5  -3   69.69    5.50
  -3  -5  -3   55.29    5.70
   2   5   3  279.57   24.30
   2   5   3  325.07   24.30
   2   5   3  319.57   24.50
   2   5   3  340.67   24.40
   2   5   3  311.37   24.30
   2   5   3  344.97   24.30
  -2  -5  -3  276.77   24.60
  -2  -5  -3  316.77   24.70
  -2  -5  -3  304.67   24.60
  -2  -5  -3  306.97   24.50
  -2  -5  -3  323.97   24.70
   1   5   3    7.80    0.70
   1   5   3    7.10    0.90
   1   5   3    7.30    1.00
   1   5   3    6.80    1.20
   1   5   3    6.60    0.90
   1   5   3    7.40    1.30
  -1  -5  -3    5.30    1.30
  -1  -5  -3    5.20    1.00
  -1  -5  -3    5.30    1.30
  -1  -5  -3    5.20    1.60
  -1  -5  -3    5.30    1.50
  -1  -5  -3    5.90    1.40
   0   5   3   -0.30    0.70
   0   5   3    0.20    0.90
   0   5   3   -0.40    0.80
   0   5   3   -0.20    0.70
   0   5   3   -0.10    0.80
   0  -5  -3    1.50    1.20
   0  -5  -3    0.70    0.90
   0  -5  -3    0.90    0.70
   0  -5  -3    0.50    1.00
   0  -5  -3    0.40    1.20
   0  -5  -3    0.40    1.00
   0  -5  -3    0.80    1.10
  -1   5   3  276.67   21.30
  -1   5   3  291.67   21.40
  -1   5   3  276.27   21.30
  -1   5   3  254.37   21.50
   1  -5  -3  265.27   21.50
   1  -5  -3  261.17   21.50
   1  -5  -3  292.47   21.90
   1  -5  -3  271.07   21.80
   1  -5  -3  259.37   21.70
   1  -5  -3  290.87   21.90
  -2   5   3  137.09   11.60
  -2   5   3  133.29   11.60
  -2   5   3  131.59   11.50
  -2   5   3  155.58   11.90
   2  -5  -3  157.18   11.70
   2  -5  -3  142.39   11.60
   2  -5  -3  171.28   12.50
   2  -5  -3  150.28   11.50
   2  -5  -3  159.38   12.40
   2  -5  -3  133.79   11.80
  -3   5   3   36.10    3.70
  -3   5   3   34.10    3.60
  -3   5   3   43.60    3.90
  -3   5   3   37.90    3.60
   3  -5  -3   47.50    4.70
   3  -5  -3   42.00    3.30
   3  -5  -3   52.19    5.00
   3  -5  -3   38.40    4.80
   3  -5  -3   44.00    4.40
  -4   5   3  154.18   11.30
  -4   5   3  115.99   10.90
  -4   5   3  130.09   10.90
   4  -5  -3  160.28   12.30
   4  -5  -3  157.48   11.70
   4  -5  -3  135.29   10.70
   4  -5  -3  111.29   11.80
  -5   5   3   41.90    3.60
  -5   5   3   35.70    3.70
  -5   5   3   35.40    3.50
   5  -5  -3   41.10    3.20
   5  -5  -3   38.30    4.10
  -6   5   3   14.80    2.00
  -6   5   3   14.90    2.00
  -6   5   3   12.10    2.10
   6  -5  -3   24.50    4.70
  -7   5   3   24.80    2.30
  -7   5   3   20.90    2.30
   7  -5  -3   24.00    3.90
  10   6   2    4.10    0.80
  10   6   2    4.80    0.70
 -10  -6  -2    7.80    2.10
 -10  -6  -2    3.70    1.40
   9   6   2   20.50    1.90
   9   6   2   17.10    1.70
  -9  -6  -2   21.20    2.40
  -9  -6  -2   18.50    2.70
   8   6   2   79.69    7.20
   8   6   2   96.69    7.40
  -8  -6  -2   86.49    8.00
  -8  -6  -2  100.69    7.70
   7   6   2   86.99    7.30
   7   6   2   89.09    7.30
   7   6   2   85.39    7.20
  -7  -6  -2   96.59    7.60
  -7  -6  -2   96.29    8.00
  -7  -6  -2   97.79    9.20
   6   6   2    9.70    1.30
   6   6   2    5.80    0.90
   6   6   2    6.50    1.00
   6   6   2    6.00    0.80
  -6  -6  -2    4.60    1.50
  -6  -6  -2    8.00    1.50
  -6  -6  -2    6.70    1.90
  -6  -6  -2    4.40    2.20
   5   6   2   67.49    5.50
   5   6   2   68.19    5.50
   5   6   2   66.99    5.40
   5   6   2   64.19    5.50
   5   6   2   68.89    5.60
  -5  -6  -2   67.19    5.80
  -5  -6  -2   73.09    6.10
  -5  -6  -2   70.29    6.20
  -5  -6  -2   65.79    5.70
   4   6   2   53.29    4.10
   4   6   2   55.39    4.30
   4   6   2   47.70    4.40
   4   6   2   52.59    4.10
   4   6   2   46.60    4.10
  -4  -6  -2   48.30    4.40
  -4  -6  -2   54.59    4.90
  -4  -6  -2   50.29    4.60
   3   6   2  573.94   48.30
   3   6   2  619.74   48.30
   3   6   2  626.44   48.30
   3   6   2  633.34   48.30
   3   6   2  607.04   48.30
   3   6   2  672.73   48.50
   3   6   2  653.73   48.20
  -3  -6  -2  581.04   48.40
  -3  -6  -2  576.84   48.70
  -3  -6  -2  694.33   48.90
  -3  -6  -2  631.44   48.80
   2   6   2  619.94   49.70
   2   6   2  679.73   49.50
   2   6   2  653.93   49.50
   2   6   2  629.14   49.60
   2   6   2  631.64   49.60
   2   6   2  679.73   49.70
   2   6   2  634.04   49.50
  -2  -6  -2  686.13   50.09
  -2  -6  -2  606.24   49.70
  -2  -6  -2  572.64   49.60
  -2  -6  -2  653.23   50.09
   1   6   2    3.30    1.20
   1   6   2    2.20    0.30
   1   6   2    2.90    0.70
   1   6   2    2.30    0.80
   1   6   2    1.90    0.60
  -1  -6  -2    1.90    1.10
  -1  -6  -2    3.50    1.00
  -1  -6  -2    1.00    1.40
  -1  -6  -2    2.40    1.40
  -1  -6  -2    0.50    1.40
  -1  -6  -2    0.70    1.20
  -1  -6  -2    1.60    1.30
   0   6   2   52.09    5.00
   0   6   2   59.29    5.10
   0   6   2   50.79    5.30
   0   6   2   59.79    5.10
   0   6   2   71.59    5.10
   0   6   2   62.29    4.90
   0  -6  -2   73.79    5.80
   0  -6  -2   63.59    5.30
   0  -6  -2   50.29    5.30
   0  -6  -2   68.19    6.40
   0  -6  -2   69.19    5.90
   0  -6  -2   71.29    5.20
  -1   6   2   43.20    3.50
  -1   6   2   38.80    3.90
  -1   6   2   43.10    3.40
  -1   6   2   33.00    3.00
  -1   6   2   44.30    3.30
   1  -6  -2   37.50    4.00
   1  -6  -2   32.30    4.30
   1  -6  -2   34.00    3.00
   1  -6  -2   36.50    3.30
   1  -6  -2   38.10    3.40
   1  -6  -2   39.00    4.30
  -2   6   2   36.70    2.90
  -2   6   2   31.30    3.20
  -2   6   2   35.00    3.00
   2  -6  -2   27.40    4.70
   2  -6  -2   29.50    2.60
   2  -6  -2   27.70    3.30
   2  -6  -2   32.80    4.00
   2  -6  -2   29.40    4.10
  -3   6   2   76.39    5.90
  -3   6   2   78.59    6.00
  -3   6   2   63.79    6.30
  -3   6   2   73.79    6.00
   3  -6  -2   69.99    6.90
   3  -6  -2   70.19    7.30
   3  -6  -2   59.89    5.60
   3  -6  -2   80.69    7.90
  -4   6   2   17.00    2.00
  -4   6   2   12.10    2.10
  -4   6   2   14.10    1.90
   4  -6  -2   12.40    3.50
   4  -6  -2    9.60    2.70
   4  -6  -2   10.20    3.10
  -5   6   2   11.40    1.90
  -5   6   2   14.70    1.70
  -5   6   2   11.90    1.90
   5  -6  -2   14.90    3.90
  -6   6   2   13.00    1.70
  -6   6   2   10.00    1.60
  -6   6   2   12.90    1.50
   6  -6  -2   12.60    3.70
  10   7   1    5.50    1.00
 -10  -7  -1    6.40    1.70
 -10  -7  -1   10.00    2.30
   9   7   1   10.50    1.10
   9   7   1   10.50    1.40
  -9  -7  -1   11.70    2.40
  -9  -7  -1   12.40    2.90
  -9  -7  -1   14.30    2.00
   8   7   1    1.80    0.60
   8   7   1   -0.20    0.70
   8   7   1    0.50    0.30
  -8  -7  -1   -3.50    2.20
  -8  -7  -1   -0.60    1.30
  -8  -7  -1   -2.80    1.40
  -8  -7  -1    0.50    1.20
   7   7   1    3.40    0.90
   7   7   1    1.70    0.40
   7   7   1    2.00    0.60
  -7  -7  -1    2.40    1.60
  -7  -7  -1    2.40    1.30
  -7  -7  -1   -0.10    1.40
  -7  -7  -1   -0.50    2.20
   6   7   1   84.59    6.90
   6   7   1   84.49    7.00
   6   7   1   84.19    6.90
   6   7   1   80.69    6.70
  -6  -7  -1   89.49    7.60
  -6  -7  -1   85.79    7.80
  -6  -7  -1   91.29    7.20
   5   7   1   29.60    2.60
   5   7   1   27.80    2.60
   5   7   1   27.90    2.50
   5   7   1   29.40    2.40
   5   7   1   29.50    2.60
  -5  -7  -1   23.80    3.70
  -5  -7  -1   27.70    3.00
  -5  -7  -1   28.40    3.50
  -5  -7  -1   36.20    3.60
  -5  -7  -1   31.40    3.90
   4   7   1   43.90    3.50
   4   7   1   44.20    3.80
   4   7   1   42.90    3.70
   4   7   1   41.90    3.70
   4   7   1   42.80    3.70
  -4  -7  -1   45.40    4.30
  -4  -7  -1   44.70    4.00
  -4  -7  -1   45.60    4.80
   3   7   1    1.60    0.80
   3   7   1    0.90    0.50
   3   7   1    1.20    0.90
   3   7   1    1.30    0.60
   3   7   1    1.20    0.70
   3   7   1   -0.50    0.60
  -3  -7  -1    1.30    1.70
  -3  -7  -1    1.10    1.30
  -3  -7  -1    1.30    1.50
  -3  -7  -1    1.30    1.10
  -3  -7  -1   -0.90    2.00
  -3  -7  -1    0.70    1.30
   2   7   1    4.70    1.30
   2   7   1    4.20    1.30
   2   7   1    7.00    1.10
   2   7   1    7.60    1.10
   2   7   1    6.40    1.20
   2   7   1    8.10    1.10
  -2  -7  -1    5.60    1.30
  -2  -7  -1    7.00    2.10
  -2  -7  -1    7.80    2.30
  -2  -7  -1    5.50    1.50
  -2  -7  -1    4.30    2.00
   1   7   1  141.09   11.40
   1   7   1  132.89   10.50
   1   7   1  139.79   10.40
   1   7   1  132.29   10.50
   1   7   1  132.29   10.40
  -1  -7  -1  128.19   11.30
  -1  -7  -1  120.09   10.70
  -1  -7  -1  129.59   11.30
  -1  -7  -1  115.89   11.00
  -1  -7  -1  145.49   10.60
   0   7   1   13.00    2.30
   0   7   1   10.40    1.30
   0   7   1   12.40    1.70
   0   7   1   10.00    1.50
   0   7   1   11.80    1.60
   0  -7  -1   10.80    2.50
   0  -7  -1   10.30    2.50
   0  -7  -1    9.50    3.40
   0  -7  -1   10.30    1.70
   0  -7  -1   13.00    3.00
  -1   7   1   -0.50    1.70
  -1   7   1    1.70    1.00
  -1   7   1    1.90    1.10
  -1   7   1    1.20    0.80
  -1   7   1    1.90    1.00
  -1   7   1    0.00    1.00
   1  -7  -1    0.30    2.40
   1  -7  -1    5.30    2.00
   1  -7  -1    1.50    2.00
   1  -7  -1    0.10    2.50
  -2   7   1   66.59    5.10
  -2   7   1   61.79    5.20
  -2   7   1   65.29    5.30
  -2   7   1   64.49    5.20
   2  -7  -1   51.19    6.60
   2  -7  -1   52.29    6.20
  -3   7   1   10.40    1.50
  -3   7   1    9.60    1.70
  -3   7   1   10.40    1.40
  -3   7   1    8.30    1.40
   3  -7  -1    6.30    3.30
   3  -7  -1   10.20    2.90
  -4   7   1   14.40    1.60
  -4   7   1   13.10    1.80
  -4   7   1   11.50    1.80
  -4   7   1   11.80    1.70
   4  -7  -1   13.40    3.70
  -5   7   1    6.80    1.20
  -5   7   1    8.70    1.50
  -5   7   1    8.00    1.40
   5  -7  -1    5.70    2.80
   9   8   0    2.80    0.90
   9   8   0    2.80    0.80
  -9  -8   0    5.20    2.50
  -9  -8   0    3.40    1.30
  -9  -8   0    3.80    2.10
   8   8   0   22.90    2.40
   8   8   0   24.90    2.40
  -8  -8   0   26.60    3.70
  -8  -8   0   26.40    2.70
  -8  -8   0   23.10    3.60
  -8  -8   0   26.80    3.80
   7   8   0   17.90    1.90
   7   8   0   18.20    1.90
  -7  -8   0   19.60    3.40
  -7  -8   0   18.70    3.10
  -7  -8   0   17.70    2.30
  -7  -8   0   18.40    3.20
   6   8   0   61.19    5.10
   6   8   0   57.29    5.40
   6   8   0   57.89    5.00
   6   8   0   53.99    5.00
   6   8   0   57.49    5.10
  -6  -8   0   57.79    6.10
  -6  -8   0   69.39    5.20
   5   8   0    7.80    1.40
   5   8   0    6.80    1.20
   5   8   0    8.10    1.30
   5   8   0    7.80    1.30
  -5  -8   0    8.30    3.40
  -5  -8   0    6.20    2.00
  -5  -8   0    7.60    2.60
  -5  -8   0    8.10    1.60
   4   8   0    0.60    0.90
   4   8   0    0.70    0.80
   4   8   0    0.30    0.60
   4   8   0   -0.40    0.80
   4   8   0    2.00    1.00
   4   8   0    1.20    0.80
  -4  -8   0   -0.30    1.60
  -4  -8   0   -0.60    3.00
  -4  -8   0    0.30    2.70
  -4  -8   0   -0.20    1.10
  -4  -8   0    1.40    2.10
  -4  -8   0    0.30    2.10
   3   8   0  153.78   12.30
   3   8   0  150.38   12.40
   3   8   0  147.29   12.20
   3   8   0  161.48   12.30
   3   8   0  154.78   12.30
  -3  -8   0  170.58   13.20
  -3  -8   0  176.48   13.70
  -3  -8   0  130.19   14.30
  -3  -8   0  155.58   12.80
  -3  -8   0  157.08   12.40
   2   8   0   17.10    1.80
   2   8   0   19.70    2.00
   2   8   0   19.60    1.90
   2   8   0   16.40    2.30
   2   8   0   20.40    2.20
  -2  -8   0   17.20    3.50
  -2  -8   0   19.30    2.20
  -2  -8   0   17.40    3.00
  -2  -8   0   18.80    2.90
  -2  -8   0   13.00    4.30
   1   8   0  212.98   19.70
   1   8   0  259.97   19.40
   1   8   0  250.47   19.20
   1   8   0  253.07   19.10
   1   8   0  253.67   19.20
  -1  -8   0  270.57   20.40
  -1  -8   0  218.18   21.50
  -1  -8   0  270.97   20.30
  -1  -8   0  253.47   19.20
  -1  -8   0  208.08   19.90
   0   8   0  103.79    8.60
   0   8   0  103.69    8.80
   0   8   0   99.69    8.70
   0   8   0  111.99    8.70
   0  -8   0  100.99   11.40
   0  -8   0  127.99   10.00
   0  -8   0  117.09    9.80
  -1   8   0   21.50    2.40
  -1   8   0   23.20    2.20
  -1   8   0   21.90    2.10
  -1   8   0   18.90    2.00
   1  -8   0   17.00    3.70
   1  -8   0   19.20    4.20
  -2   8   0    1.50    0.90
  -2   8   0    1.60    0.80
  -2   8   0    2.00    0.90
  -2   8   0    0.20    1.00
   2  -8   0    4.80    2.50
   2  -8   0    0.60    2.30
  -3   8   0   10.30    1.60
  -3   8   0   10.00    1.40
  -3   8   0    9.40    1.70
  -3   8   0   10.10    1.40
   8   9  -1   71.99    6.10
   8   9  -1   78.19    6.20
  -8  -9   1   88.59    7.30
  -8  -9   1   69.39    7.00
  -8  -9   1   73.69    6.30
   7   9  -1   19.00    1.90
   7   9  -1   20.10    2.00
  -7  -9   1   22.90    3.60
  -7  -9   1   14.20    2.90
  -7  -9   1   19.00    3.00
  -7  -9   1   19.50    3.40
   6   9  -1   10.10    1.50
   6   9  -1    8.30    1.30
   6   9  -1    8.80    1.20
   6   9  -1    8.60    1.60
  -6  -9   1    9.30    2.70
  -6  -9   1    5.80    2.00
  -6  -9   1    4.70    2.70
  -6  -9   1    5.00    2.70
   5   9  -1   43.10    3.60
   5   9  -1   36.70    3.70
   5   9  -1   43.30    3.80
   5   9  -1   42.70    3.60
   5   9  -1   41.60    3.60
  -5  -9   1   45.70    5.30
  -5  -9   1   40.70    4.80
   4   9  -1   23.70    2.50
   4   9  -1   23.40    2.40
   4   9  -1   25.50    2.20
   4   9  -1   21.80    2.20
  -4  -9   1   19.90    3.40
  -4  -9   1   22.80    4.30
  -4  -9   1   14.70    4.20
   3   9  -1  125.09    9.80
   3   9  -1  127.59    9.70
   3   9  -1  106.79    9.80
   3   9  -1  121.59    9.90
   3   9  -1  128.79    9.60
   3   9  -1  132.39    9.70
  -3  -9   1  121.99   11.00
  -3  -9   1  101.19   10.10
   2   9  -1   10.50    1.70
   2   9  -1   10.50    1.40
   2   9  -1   13.00    1.50
   2   9  -1   11.90    1.70
  -2  -9   1    9.70    4.60
  -2  -9   1    5.90    3.50
   1   9  -1    1.50    0.80
   1   9  -1    1.60    1.00
   1   9  -1    0.50    1.00
   1   9  -1    0.10    0.70
   1   9  -1    1.00    0.70
  -1  -9   1    1.60    2.40
  -1  -9   1    1.10    2.90
   0   9  -1    3.00    0.70
   0   9  -1    3.30    0.90
   0   9  -1    4.30    1.20
   0   9  -1    3.60    0.90
   0  -9   1    1.10    2.90
   0  -9   1    5.20    2.80
  -1   9  -1    4.50    1.00
  -1   9  -1    6.70    1.40
  -1   9  -1    6.20    1.20
  -1   9  -1    5.20    0.90
   1  -9   1    3.40    2.60
   1  -9   1    1.40    2.70
  -2   9  -1    1.40    1.00
  -2   9  -1    3.50    0.90
   2  -9   1   -1.30    1.70
   2  -9   1    4.00    2.40
   6  10  -2    3.00    0.80
   6  10  -2    6.10    0.90
  -6 -10   2    1.00    1.90
   5  10  -2   10.50    1.40
   5  10  -2   11.80    1.70
   5  10  -2   11.50    1.30
   4  10  -2    0.20    0.80
   4  10  -2    2.50    0.70
   4  10  -2    2.10    1.00
   4  10  -2    3.40    1.00
  -4 -10   2    1.20    2.40
  -4 -10   2    2.30    2.10
   3  10  -2    3.10    1.80
   3  10  -2    4.20    1.10
   3  10  -2    1.10    0.90
   3  10  -2    3.80    0.80
  -3 -10   2    0.80    2.50
   2  10  -2    9.30    1.70
   2  10  -2   10.60    1.50
   2  10  -2    8.70    1.20
  -3   1 -10   33.40    3.00
  -3   1 -10   30.80    3.30
  -2   1 -10   12.90    2.30
  -2   1 -10   14.20    1.90
  -2   1 -10   13.20    2.20
   1  -1  10   14.20    3.50
  -1   1 -10   25.20    2.50
  -1   1 -10   19.70    2.70
  -1   1 -10   18.60    2.70
   0  -1  10    5.80    2.30
   0   1 -10    4.70    1.40
   0   1 -10    3.00    1.60
   0   1 -10    6.00    1.60
   0   1 -10    4.00    1.00
  -1  -1  10   21.00    3.90
   1   1 -10   28.10    3.40
   1   1 -10   29.80    2.80
   1   1 -10   29.90    3.10
   1   1 -10   29.20    3.30
   2   1 -10   49.99    4.60
   2   1 -10   44.30    4.80
   2   1 -10   47.90    4.90
   2   1 -10   47.20    4.30
   3   1 -10    9.00    1.70
   3   1 -10    7.90    1.50
   3   1 -10    5.90    1.70
   3   1 -10    5.60    1.50
   3   1 -10    7.20    2.00
  -4  -1  10    8.60    0.90
  -4  -1  10    6.30    3.00
  -5  -1  10    0.50    0.50
  -5  -1  10    2.30    2.00
   5   1 -10    1.80    1.50
   5   1 -10    1.80    1.10
   5   0   9    5.90    2.50
  -5   0  -9   11.00    1.30
   4   0   9   16.30    4.00
  -4   0  -9   16.70    2.30
  -4   0  -9   20.10    2.00
   3   0   9   66.69    8.50
   3   0   9   78.49    6.30
  -3   0  -9   85.29    7.00
  -3   0  -9   80.09    6.80
  -3   0  -9   82.69    6.60
   2   0   9   12.30    3.40
   2   0   9   12.70    1.30
  -2   0  -9   14.80    2.40
  -2   0  -9   16.80    2.10
  -2   0  -9   14.80    1.90
   1   0   9    1.90    2.20
   1   0   9    3.60    0.50
  -1   0  -9    4.90    1.50
  -1   0  -9    3.40    0.90
  -1   0  -9    3.50    1.30
  -1   0  -9    2.50    1.40
   0   0   9   51.09    4.20
   0   0   9   57.69    6.40
   0   0  -9   49.40    4.70
   0   0  -9   55.69    4.90
   0   0  -9   57.19    5.20
   0   0  -9   49.40    4.50
   0   0  -9   53.99    5.10
  -1   0   9    1.10    2.30
  -1   0   9    4.90    0.70
  -1   0   9    4.10    2.20
   1   0  -9    4.50    1.60
   1   0  -9    7.10    1.90
   1   0  -9    2.90    0.60
   1   0  -9    7.50    1.60
   1   0  -9    5.70    1.10
  -2   0   9   13.30    2.70
  -2   0   9   12.30    1.20
   2   0  -9   11.80    1.10
  -3   0   9    0.50    2.10
  -3   0   9   -0.40    2.00
   3   0  -9    1.90    1.50
   3   0  -9    0.70    1.80
   3   0  -9    2.30    1.30
   3   0  -9    1.50    1.10
   3   0  -9    0.10    1.10
   3   0  -9    0.30    0.40
  -4   0   9    0.20    1.50
  -4   0   9    1.50    2.10
   4   0  -9    3.70    1.60
   4   0  -9    4.10    1.50
   4   0  -9    2.90    0.50
   4   0  -9    2.10    1.10
   4   0  -9    3.80    1.40
   4   0  -9    2.20    1.80
   5   0  -9    9.30    1.70
   5   0  -9    8.20    2.20
   5   0  -9   12.00    2.40
  -6   0   9   -0.70    2.00
   6   0  -9    4.10    1.90
   6   0  -9    5.10    1.70
   6   0  -9    5.30    1.30
   6   0  -9    2.30    1.60
   7   1   8   -0.20    1.50
   6   1   8    9.70    3.40
   6   1   8   12.70    1.20
  -6  -1  -8   15.40    2.10
  -6  -1  -8   13.40    2.20
   5   1   8   67.29    8.10
   5   1   8   72.19    5.80
  -5  -1  -8   71.59    6.70
  -5  -1  -8   75.79    5.90
   4   1   8   52.99    4.00
   4   1   8   47.10    6.40
  -4  -1  -8   52.69    4.50
  -4  -1  -8   45.00    4.30
  -4  -1  -8   48.20    4.20
   3   1   8  426.56   35.60
   3   1   8  439.76   33.40
  -3  -1  -8  408.36   33.60
  -3  -1  -8  457.55   33.80
  -3  -1  -8  419.46   33.80
  -3  -1  -8  432.46   33.80
   2   1   8   48.20    3.80
   2   1   8   45.20    5.90
  -2  -1  -8   49.60    4.30
  -2  -1  -8   49.20    4.50
  -2  -1  -8   44.00    4.30
  -2  -1  -8   46.90    4.20
   1   1   8   23.00    2.10
   1   1   8   26.20    4.10
  -1  -1  -8   27.80    2.80
  -1  -1  -8   21.20    2.60
  -1  -1  -8   29.10    3.00
  -1  -1  -8   23.90    2.30
  -1  -1  -8   29.10    2.70
   0   1   8   53.69    4.70
   0   1   8   67.59    6.60
   0  -1  -8   55.79    4.90
   0  -1  -8   61.99    5.40
   0  -1  -8   56.39    5.10
   0  -1  -8   59.49    5.20
   0  -1  -8   59.99    5.40
  -1   1   8   29.70    2.80
  -1   1   8   29.40    4.20
   1  -1  -8   41.50    3.80
   1  -1  -8   40.40    3.50
   1  -1  -8   36.80    3.10
   1  -1  -8   30.90    4.30
   1  -1  -8   30.50    3.30
  -2   1   8    5.20    1.70
  -2   1   8    7.30    1.90
  -2   1   8    3.20    2.10
   2  -1  -8   10.60    1.90
   2  -1  -8   10.20    2.10
   2  -1  -8    7.80    1.80
   2  -1  -8    7.70    1.70
   2  -1  -8    5.10    0.80
   2  -1  -8   11.80    2.00
   2  -1  -8   10.10    1.40
   3  -1  -8   69.69    6.50
   3  -1  -8   75.39    6.50
   3  -1  -8   80.39    7.10
   3  -1  -8   78.39    6.70
   3  -1  -8   82.79    7.10
  -4   1   8   13.30    2.30
   4  -1  -8   16.90    1.60
   4  -1  -8   20.80    2.30
   4  -1  -8   22.00    2.40
   5  -1  -8   22.70    2.60
   5  -1  -8   17.70    3.00
   5  -1  -8   18.10    3.00
  -6   1   8    5.20    1.50
  -6   1   8    7.90    2.70
  -6   1   8    7.00    1.70
  -6   1   8    7.80    1.10
   6  -1  -8   16.20    3.00
  -7   1   8    6.70    2.50
  -7   1   8    9.00    1.60
   8   2   7   32.10    2.70
   7   2   7    2.30    0.50
   7   2   7    2.30    2.00
   6   2   7  117.59   12.60
   6   2   7  143.99   10.50
  -6  -2  -7  138.59   10.90
  -6  -2  -7  128.99   11.00
   5   2   7  154.58   15.00
   5   2   7  166.48   12.80
  -5  -2  -7  166.58   12.90
   4   2   7  219.48   17.60
   4   2   7  204.68   15.30
  -4  -2  -7  215.58   15.40
  -4  -2  -7  190.08   16.10
  -4  -2  -7  185.38   15.40
  -4  -2  -7  191.48   15.40
  -4  -2  -7  165.98   15.80
   3   2   7   41.20    3.30
   3   2   7   41.50    5.30
  -3  -2  -7   38.80    3.50
  -3  -2  -7   39.60    3.70
  -3  -2  -7   39.30    3.50
  -3  -2  -7   39.50    3.30
   2   2   7   48.50    4.00
   2   2   7   48.90    5.60
   2   2   7   46.40    3.70
  -2  -2  -7   45.00    4.00
  -2  -2  -7   37.40    4.40
  -2  -2  -7   47.40    4.20
  -2  -2  -7   45.70    3.70
  -2  -2  -7   47.40    4.10
   1   2   7   11.80    1.80
   1   2   7    2.70    2.60
   1   2   7    8.00    2.60
  -1  -2  -7    9.60    1.70
  -1  -2  -7    7.30    1.00
  -1  -2  -7    7.70    1.40
  -1  -2  -7    7.70    1.30
  -1  -2  -7    8.10    1.00
  -1  -2  -7    5.50    1.60
   0   2   7   39.60    3.50
   0  -2  -7   39.20    3.50
   0  -2  -7   44.80    4.50
   0  -2  -7   42.60    4.00
   0  -2  -7   45.80    4.00
   0  -2  -7   40.70    3.80
   0  -2  -7   41.00    3.50
  -1   2   7   13.10    2.60
  -1   2   7   19.10    1.60
  -1   2   7   14.50    2.40
   1  -2  -7   18.40    1.80
   1  -2  -7   22.50    2.50
   1  -2  -7   17.50    2.40
   1  -2  -7   14.10    2.40
   1  -2  -7   20.60    2.40
   1  -2  -7   17.00    2.10
  -2   2   7   18.30    1.80
  -2   2   7   14.90    1.90
   2  -2  -7   21.00    2.30
   2  -2  -7   24.00    2.10
   2  -2  -7   24.10    2.50
   2  -2  -7   16.30    2.30
   2  -2  -7   24.40    2.80
  -3   2   7   22.10    3.00
  -3   2   7   19.30    3.60
  -3   2   7   22.40    2.40
   3  -2  -7   24.50    2.00
   3  -2  -7   26.80    2.80
  -4   2   7   19.20    2.00
  -4   2   7   15.50    2.60
  -4   2   7   14.90    3.30
  -4   2   7   14.70    1.80
   4  -2  -7   21.20    1.70
  -5   2   7   27.60    2.70
  -5   2   7   32.40    2.90
   5  -2  -7   30.50    2.60
  -6   2   7   18.80    2.10
  -6   2   7   18.30    2.70
  -6   2   7   23.80    2.20
  -6   2   7   13.70    3.50
  -7   2   7    4.10    2.20
  -7   2   7    5.90    2.40
  -7   2   7    5.50    1.30
  -7   2   7    4.70    1.20
   7  -2  -7    7.70    2.10
   7  -2  -7   13.00    3.40
   9   3   6    5.10    1.10
   9   3   6    4.00    0.60
   8   3   6   88.69    6.60
   8   3   6   77.99    6.60
  -8  -3  -6   79.49    6.90
   7   3   6   46.90    3.70
   7   3   6   38.30    6.20
   7   3   6   51.09    4.00
  -7  -3  -6   38.00    4.20
   6   3   6   39.40    5.40
   6   3   6   46.40    3.50
   6   3   6   41.80    3.50
  -6  -3  -6   41.00    3.80
  -6  -3  -6   40.20    4.10
   5   3   6   18.80    1.80
   5   3   6   20.20    3.70
   5   3   6   20.90    1.70
  -5  -3  -6   21.00    2.20
  -5  -3  -6   13.90    2.80
  -5  -3  -6   20.50    2.00
  -5  -3  -6   20.20    2.50
   4   3   6  117.09    9.40
   4   3   6  117.69    9.50
   4   3   6  130.29   11.40
  -4  -3  -6  117.69    9.70
  -4  -3  -6  126.29    9.90
   3   3   6  107.69    8.30
   3   3   6  118.89    8.50
   3   3   6  107.99   10.20
  -3  -3  -6  103.29    8.50
  -3  -3  -6  110.19    8.60
  -3  -3  -6  101.19    8.40
  -3  -3  -6   90.39    8.40
   2   3   6  108.19    9.50
   2   3   6  125.59   10.90
   2   3   6  132.89    9.70
  -2  -3  -6  119.99    9.70
  -2  -3  -6  120.49    9.80
  -2  -3  -6  119.09    9.70
   1   3   6    1.50    1.20
   1   3   6    0.00    0.30
   1   3   6    0.00    1.20
   1   3   6    0.10    0.40
   1   3   6    2.60    1.80
  -1  -3  -6    0.20    0.70
  -1  -3  -6    0.40    0.90
  -1  -3  -6    0.20    0.70
  -1  -3  -6    0.00    0.70
  -1  -3  -6    0.30    1.30
  -1  -3  -6    0.70    0.90
  -1  -3  -6    0.30    0.40
   0   3   6  257.67   18.60
   0   3   6  245.98   18.80
   0   3   6  250.57   18.60
   0  -3  -6  246.58   19.00
   0  -3  -6  237.28   19.00
   0  -3  -6  219.18   18.70
   0  -3  -6  248.08   19.00
   0  -3  -6  252.07   18.70
   0  -3  -6  210.88   18.90
   0  -3  -6  223.88   18.80
  -1   3   6  237.38   16.50
  -1   3   6  186.58   16.50
  -1   3   6  226.08   16.80
   1  -3  -6  213.88   17.00
   1  -3  -6  197.78   16.80
   1  -3  -6  202.68   16.60
   1  -3  -6  204.38   16.60
   1  -3  -6  210.58   16.90
   1  -3  -6  229.58   17.10
   2  -3  -6  165.48   13.10
   2  -3  -6  156.28   12.90
   2  -3  -6  162.08   13.00
   2  -3  -6  151.48   12.50
   2  -3  -6  147.39   12.60
   2  -3  -6  165.48   12.60
  -3   3   6  177.58   16.20
  -3   3   6  195.68   15.30
  -3   3   6  218.98   15.40
  -3   3   6  167.48   15.50
   3  -3  -6  201.48   15.30
   3  -3  -6  209.38   15.70
  -4   3   6   38.70    3.40
  -4   3   6   34.40    4.60
  -4   3   6   32.70    4.00
   4  -3  -6   43.60    3.20
  -5   3   6   34.50    3.00
  -5   3   6   25.60    2.80
  -5   3   6   26.10    4.10
  -5   3   6   24.10    3.40
   5  -3  -6   37.00    3.50
   5  -3  -6   34.80    2.70
  -6   3   6    3.10    1.70
  -6   3   6    3.20    1.20
  -6   3   6    1.40    1.00
  -6   3   6    0.30    1.90
  -6   3   6    4.60    1.30
   6  -3  -6    6.20    2.20
   6  -3  -6    7.30    2.70
   6  -3  -6    1.90    0.60
  -7   3   6    9.70    2.00
  -7   3   6   12.20    1.80
  -7   3   6   12.80    2.00
   9   4   5    2.80    0.60
   8   4   5   22.80    2.20
   8   4   5   29.80    2.30
  -8  -4  -5   25.30    2.90
  -8  -4  -5   21.90    2.40
   7   4   5    1.60    0.50
   7   4   5    3.50    0.70
  -7  -4  -5    2.40    1.10
  -7  -4  -5    0.80    1.70
  -7  -4  -5    0.20    1.70
  -7  -4  -5    1.60    1.00
   6   4   5   25.90    2.10
   6   4   5   24.50    2.10
  -6  -4  -5   23.20    2.80
  -6  -4  -5   22.50    2.50
   5   4   5    7.90    0.90
   5   4   5    8.20    0.90
  -5  -4  -5    5.60    2.00
  -5  -4  -5    7.40    2.30
  -5  -4  -5    7.50    1.30
  -5  -4  -5   12.30    2.10
   4   4   5  110.69    8.60
   4   4   5  115.79   10.00
   4   4   5  107.99    8.50
   4   4   5  105.09    8.50
  -4  -4  -5  107.69    8.90
  -4  -4  -5  109.59    9.00
  -4  -4  -5  117.19    8.80
  -4  -4  -5   94.39    9.20
   3   4   5   60.99    4.70
   3   4   5   53.49    4.40
   3   4   5   51.99    4.30
   3   4   5   62.59    5.90
   3   4   5   52.69    4.40
  -3  -4  -5   52.69    4.60
  -3  -4  -5   45.30    5.00
  -3  -4  -5   54.69    4.80
  -3  -4  -5   56.89    4.60
  -3  -4  -5   60.59    4.90
   2   4   5  182.58   15.50
   2   4   5  198.48   15.20
   2   4   5  202.68   15.30
   2   4   5  197.98   15.30
   2   4   5  188.78   15.20
  -2  -4  -5  193.98   15.50
  -2  -4  -5  211.78   15.50
  -2  -4  -5  200.98   15.60
  -2  -4  -5  173.38   15.40
  -2  -4  -5  198.88   15.50
  -2  -4  -5  211.58   15.70
  -2  -4  -5  195.98   15.60
   1   4   5   93.59    8.40
   1   4   5  120.89    8.40
   1   4   5  116.59    8.60
  -1  -4  -5  101.29    8.80
  -1  -4  -5  103.79    8.70
  -1  -4  -5  105.39    8.60
  -1  -4  -5  103.89    8.90
  -1  -4  -5  116.39    8.80
  -1  -4  -5   99.89    8.70
   0   4   5  141.29   10.30
   0   4   5  135.89   10.30
   0   4   5  128.39   10.50
   0  -4  -5  124.49   10.70
   0  -4  -5  120.79   10.50
   0  -4  -5  129.09   10.70
   0  -4  -5  129.79   10.70
   0  -4  -5  119.99   10.50
   0  -4  -5  133.39   10.70
   0  -4  -5  148.19   10.40
  -1   4   5  440.06   34.50
  -1   4   5  467.95   34.50
  -1   4   5  421.86   34.70
  -1   4   5  455.05   34.50
   1  -4  -5  422.86   34.90
   1  -4  -5  424.56   34.70
   1  -4  -5  452.65   35.00
   1  -4  -5  451.65   35.00
   1  -4  -5  468.75   34.90
  -2   4   5    2.00    1.10
  -2   4   5    1.70    1.20
  -2   4   5    1.10    1.10
  -2   4   5    0.40    1.70
  -2   4   5   -0.10    2.10
  -2   4   5    0.90    1.10
   2  -4  -5    1.30    1.20
   2  -4  -5    1.70    1.20
   2  -4  -5   -0.40    1.00
   2  -4  -5    1.40    1.20
   2  -4  -5    1.70    0.90
   2  -4  -5    1.40    1.20
   2  -4  -5    1.10    1.20
   2  -4  -5    1.20    1.00
  -3   4   5  159.88   13.80
  -3   4   5  176.18   13.90
  -3   4   5  187.88   13.90
   3  -4  -5  174.78   13.70
   3  -4  -5  160.58   14.10
   3  -4  -5  193.58   14.20
  -4   4   5    9.40    2.40
  -4   4   5    9.80    1.70
  -4   4   5    5.90    2.40
  -4   4   5    9.60    1.70
  -4   4   5    9.30    2.00
  -4   4   5    6.40    1.30
   4  -4  -5   15.60    2.70
   4  -4  -5    9.40    1.10
   4  -4  -5   14.20    2.20
   4  -4  -5   15.90    3.00
   4  -4  -5   15.40    2.80
  -5   4   5    4.40    1.50
  -5   4   5    4.00    1.50
  -5   4   5    2.60    1.40
   5  -4  -5    4.60    1.80
   5  -4  -5    5.00    2.50
   5  -4  -5    2.90    0.70
   5  -4  -5    1.20    2.60
  -6   4   5    5.30    1.60
  -6   4   5    7.30    1.60
  -6   4   5    8.30    1.60
  -6   4   5   11.10    1.60
   6  -4  -5   14.30    3.50
   6  -4  -5   11.20    2.60
  -7   4   5   14.00    1.80
  -7   4   5   10.40    1.70
  -7   4   5   11.70    1.80
   7  -4  -5   21.70    3.90
  10   5   4    6.10    0.90
 -10  -5  -4    5.30    1.80
 -10  -5  -4    4.80    1.00
   9   5   4   13.20    1.30
  -9  -5  -4   12.80    2.20
   8   5   4   26.80    2.30
   8   5   4   23.00    2.20
  -8  -5  -4   26.70    2.80
  -8  -5  -4   25.50    3.10
   7   5   4    0.80    0.50
   7   5   4    1.20    0.60
  -7  -5  -4    0.60    2.30
  -7  -5  -4    2.00    0.90
  -7  -5  -4    1.90    1.80
  -7  -5  -4    0.80    1.10
   6   5   4   73.39    5.70
   6   5   4   78.09    5.80
  -6  -5  -4   66.79    6.30
  -6  -5  -4   67.39    6.00
   5   5   4   16.10    1.50
   5   5   4   15.70    1.40
   5   5   4   17.20    1.60
  -5  -5  -4   19.80    2.40
  -5  -5  -4   14.80    1.80
  -5  -5  -4   14.40    2.00
  -5  -5  -4   18.30    2.90
   4   5   4   94.09    7.20
   4   5   4   91.39    7.10
   4   5   4   85.39    7.10
   4   5   4   92.69    7.10
   4   5   4   90.19    7.10
  -4  -5  -4   95.99    7.70
  -4  -5  -4   81.39    7.30
  -4  -5  -4   93.29    7.90
  -4  -5  -4   86.79    7.50
   3   5   4   11.40    1.00
   3   5   4   12.30    1.20
   3   5   4   12.90    1.10
   3   5   4   12.00    1.80
  -3  -5  -4   10.10    1.60
  -3  -5  -4   12.10    1.60
  -3  -5  -4   10.60    2.10
  -3  -5  -4    9.40    1.40
  -3  -5  -4   14.60    1.90
  -3  -5  -4    9.60    2.30
   2   5   4   48.10    3.90
   2   5   4   51.79    3.90
   2   5   4   50.59    3.90
   2   5   4   49.70    4.00
   2   5   4   44.00    4.20
   2   5   4   52.89    4.10
  -2  -5  -4   47.30    4.40
  -2  -5  -4   46.40    4.30
  -2  -5  -4   40.70    4.10
  -2  -5  -4   55.99    4.50
   1   5   4   13.60    1.30
   1   5   4   12.80    1.30
   1   5   4   11.70    1.20
   1   5   4   13.40    1.20
   1   5   4   14.20    1.40
   1   5   4   12.00    1.40
  -1  -5  -4   12.60    1.70
  -1  -5  -4   12.90    1.90
  -1  -5  -4   13.20    1.90
  -1  -5  -4   13.50    1.90
  -1  -5  -4   15.30    2.30
  -1  -5  -4   10.00    1.50
   0   5   4    3.50    0.90
   0   5   4    2.70    0.90
   0   5   4    3.70    1.00
   0   5   4    0.60    1.60
   0   5   4   -0.20    1.70
   0   5   4    2.00    1.00
   0  -5  -4    3.70    1.20
   0  -5  -4    2.80    1.30
   0  -5  -4    3.30    1.40
   0  -5  -4    1.90    1.30
   0  -5  -4    2.60    1.20
   0  -5  -4    2.80    1.00
   0  -5  -4    2.50    1.10
  -1   5   4   36.20    3.10
  -1   5   4   32.40    3.20
  -1   5   4   37.30    3.20
   1  -5  -4   33.90    3.60
   1  -5  -4   30.10    3.40
   1  -5  -4   34.80    3.40
   1  -5  -4   38.60    3.80
   1  -5  -4   38.10    3.20
   1  -5  -4   37.20    3.90
  -2   5   4   81.39    6.70
  -2   5   4   78.09    6.60
  -2   5   4   85.19    6.90
  -2   5   4   77.69    6.70
   2  -5  -4   95.39    7.50
   2  -5  -4   67.29    6.40
   2  -5  -4   75.49    6.80
   2  -5  -4   79.79    6.90
   2  -5  -4   95.29    7.40
   2  -5  -4   95.99    7.70
   2  -5  -4   81.49    6.70
  -3   5   4   43.00    3.80
  -3   5   4   39.50    3.70
  -3   5   4   43.30    3.90
  -3   5   4   36.10    4.70
   3  -5  -4   52.29    5.00
   3  -5  -4   52.59    4.90
   3  -5  -4   34.30    4.80
   3  -5  -4   37.70    3.40
   3  -5  -4   47.80    4.50
  -4   5   4    5.40    1.50
  -4   5   4    4.20    1.50
  -4   5   4    5.00    1.80
  -4   5   4    5.80    3.50
  -4   5   4    6.10    1.60
  -4   5   4    7.00    1.90
   4  -5  -4    5.60    0.80
   4  -5  -4   10.30    2.80
   4  -5  -4    4.90    2.10
   4  -5  -4    7.10    1.90
  -5   5   4   35.50    3.20
  -5   5   4   31.20    3.30
  -5   5   4   34.60    3.10
   5  -5  -4   29.70    2.80
   5  -5  -4   31.80    4.40
  -6   5   4   20.80    2.50
  -6   5   4   21.70    2.40
  -6   5   4   21.30    2.40
   6  -5  -4   28.90    4.40
  -7   5   4    2.50    1.10
  10   6   3   10.10    1.10
  10   6   3    8.00    0.90
 -10  -6  -3    9.40    2.30
 -10  -6  -3   10.10    2.00
   9   6   3    6.30    0.90
   9   6   3    9.40    1.20
  -9  -6  -3   12.10    2.10
  -9  -6  -3    9.30    1.70
   8   6   3   60.79    5.40
   8   6   3   72.49    5.60
  -8  -6  -3   59.19    6.00
  -8  -6  -3   73.59    6.30
  -8  -6  -3   73.09    5.90
   7   6   3   34.60    2.90
   7   6   3   29.60    2.80
   7   6   3   31.70    2.80
  -7  -6  -3   32.40    3.30
  -7  -6  -3   32.60    3.60
  -7  -6  -3   39.70    4.00
  -7  -6  -3   35.40    3.90
   6   6   3   17.80    1.70
   6   6   3   19.10    1.70
   6   6   3   19.60    2.00
   6   6   3   19.60    1.90
  -6  -6  -3   19.80    2.30
  -6  -6  -3   17.30    2.60
  -6  -6  -3   12.50    2.90
  -6  -6  -3   25.70    3.20
   5   6   3   82.59    6.50
   5   6   3   79.99    6.30
   5   6   3   83.79    6.40
   5   6   3   79.39    6.30
   5   6   3   77.59    6.40
  -5  -6  -3   75.19    6.60
  -5  -6  -3   81.59    7.10
  -5  -6  -3   73.09    6.60
   4   6   3  103.79    8.20
   4   6   3  105.69    8.20
   4   6   3  109.09    8.40
  -4  -6  -3  102.79    8.60
  -4  -6  -3  105.29    9.00
  -4  -6  -3   98.59    8.70
  -4  -6  -3  106.09    8.90
   3   6   3  104.09    7.70
   3   6   3  103.99    7.70
   3   6   3  102.19    8.00
   3   6   3   95.59    7.70
   3   6   3  103.39    7.80
  -3  -6  -3   97.89    8.30
  -3  -6  -3  103.59    8.40
  -3  -6  -3   81.39    8.30
  -3  -6  -3   87.59    7.90
   2   6   3   88.19    6.90
   2   6   3   79.99    7.20
   2   6   3   90.39    6.90
   2   6   3   86.39    7.10
   2   6   3   88.99    6.80
   2   6   3   89.19    7.10
   2   6   3   89.89    6.70
  -2  -6  -3   87.99    7.40
  -2  -6  -3   89.09    7.40
  -2  -6  -3   73.19    7.00
  -2  -6  -3   83.09    7.60
   1   6   3  173.98   12.70
   1   6   3  163.28   12.80
   1   6   3  182.78   13.00
   1   6   3  170.08   12.80
   1   6   3  140.69   12.90
   1   6   3  171.28   12.80
   1   6   3  163.38   12.90
  -1  -6  -3  152.58   13.10
  -1  -6  -3  165.08   13.30
  -1  -6  -3  171.98   13.00
  -1  -6  -3  135.49   12.90
  -1  -6  -3  164.48   13.30
  -1  -6  -3  168.68   13.40
   0   6   3  219.68   16.40
   0   6   3  201.98   16.60
   0   6   3  202.58   16.50
   0   6   3  235.28   16.70
   0  -6  -3  195.38   16.70
   0  -6  -3  228.18   17.10
   0  -6  -3  173.88   16.60
   0  -6  -3  221.48   17.20
   0  -6  -3  224.08   17.40
   0  -6  -3  212.38   17.00
   0  -6  -3  216.68   16.60
  -1   6   3   23.70    2.40
  -1   6   3   23.70    2.60
  -1   6   3   27.50    2.30
  -1   6   3   26.80    2.60
   1  -6  -3   26.20    3.50
   1  -6  -3   26.30    3.30
   1  -6  -3   24.70    2.50
   1  -6  -3   20.70    3.30
   1  -6  -3   22.60    2.50
   1  -6  -3   21.50    3.00
  -2   6   3  119.49    8.60
  -2   6   3  113.39    8.60
  -2   6   3   98.99    8.90
   2  -6  -3  122.49    9.60
   2  -6  -3  106.59    9.60
   2  -6  -3   93.49    8.40
   2  -6  -3   93.69    8.90
   2  -6  -3  112.09    9.40
  -3   6   3   84.89    6.50
  -3   6   3   74.49    6.50
  -3   6   3   76.19    6.70
   3  -6  -3   66.99    6.20
   3  -6  -3   84.89    7.40
   3  -6  -3   86.29    7.80
  -4   6   3   12.70    1.60
  -4   6   3   12.20    1.80
  -4   6   3   10.90    1.60
   4  -6  -3    7.10    2.90
   4  -6  -3    9.20    1.10
   4  -6  -3    9.50    2.80
   4  -6  -3   13.40    3.70
  -5   6   3   12.50    2.10
  -5   6   3   14.30    1.90
  -5   6   3   16.60    2.00
   5  -6  -3   15.10    4.00
  -6   6   3    0.90    1.10
  -6   6   3   -0.30    1.20
  -6   6   3    1.20    0.70
  -6   6   3    1.50    1.00
   6  -6  -3   -0.10    2.00
  10   7   2   11.00    1.10
  10   7   2   11.20    1.30
 -10  -7  -2   13.50    1.80
 -10  -7  -2   11.50    2.60
 -10  -7  -2   13.40    2.20
   9   7   2   39.40    3.60
   9   7   2   47.20    3.80
  -9  -7  -2   49.60    4.20
  -9  -7  -2   42.70    4.60
   8   7   2   28.40    2.60
   8   7   2   33.00    2.80
   8   7   2   33.40    2.90
  -8  -7  -2   26.30    3.60
  -8  -7  -2   35.30    3.30
  -8  -7  -2   32.10    3.90
   7   7   2   59.99    5.00
   7   7   2   62.09    5.10
   7   7   2   56.29    4.90
  -7  -7  -2   65.99    5.40
  -7  -7  -2   58.19    5.80
  -7  -7  -2   63.59    5.90
   6   7   2  141.69   11.50
   6   7   2  139.09   11.50
   6   7   2  144.89   11.50
   6   7   2  137.49   11.30
   6   7   2  140.49   11.40
  -6  -7  -2  159.08   12.30
  -6  -7  -2  149.99   12.00
  -6  -7  -2  155.68   11.80
  -6  -7  -2  132.79   12.20
   5   7   2  100.39    7.90
   5   7   2  100.69    8.00
   5   7   2   97.09    7.80
   5   7   2  102.89    8.10
   5   7   2   98.49    8.00
  -5  -7  -2  109.69    8.50
  -5  -7  -2   88.19    8.40
  -5  -7  -2  106.69    8.90
  -5  -7  -2   91.89    8.70
  -5  -7  -2  104.09    8.20
   4   7   2  417.86   34.30
   4   7   2  384.46   34.30
   4   7   2  444.26   34.40
   4   7   2  440.76   34.30
   4   7   2  443.36   34.20
  -4  -7  -2  474.85   35.10
  -4  -7  -2  494.65   34.70
  -4  -7  -2  440.56   34.50
   3   7   2   64.19    5.50
   3   7   2   68.19    5.50
   3   7   2   73.89    5.80
   3   7   2   68.69    5.50
   3   7   2   56.09    5.50
   3   7   2   70.39    5.30
   3   7   2   63.99    5.50
   3   7   2   71.29    5.50
  -3  -7  -2   74.59    6.50
  -3  -7  -2   59.59    6.00
  -3  -7  -2   73.49    6.00
  -3  -7  -2   76.79    6.30
   2   7   2   28.60    2.80
   2   7   2   27.40    2.80
   2   7   2   27.50    2.50
   2   7   2   30.90    2.70
   2   7   2   31.10    2.60
   2   7   2   31.20    2.60
  -2  -7  -2   33.70    3.50
  -2  -7  -2   30.30    2.90
  -2  -7  -2   34.50    3.80
  -2  -7  -2   30.60    3.60
  -2  -7  -2   31.30    3.10
   1   7   2   58.79    4.70
   1   7   2   60.19    4.60
   1   7   2   56.99    4.80
   1   7   2   62.79    4.70
  -1  -7  -2   53.29    5.60
  -1  -7  -2   51.79    4.80
  -1  -7  -2   60.59    5.00
  -1  -7  -2   53.29    4.90
  -1  -7  -2   47.20    5.30
  -1  -7  -2   59.09    5.60
   0   7   2   30.00    2.60
   0   7   2   30.70    2.70
   0   7   2   29.30    2.80
   0   7   2   22.60    2.90
   0   7   2   31.00    2.70
   0  -7  -2   33.10    3.80
   0  -7  -2   26.90    3.80
   0  -7  -2   27.00    2.80
   0  -7  -2   31.00    4.00
   0  -7  -2   30.50    2.90
  -1   7   2   44.40    3.70
  -1   7   2   43.00    3.60
  -1   7   2   36.50    3.90
  -1   7   2   46.90    3.50
  -1   7   2   47.10    3.70
   1  -7  -2   36.90    3.70
   1  -7  -2   37.10    5.80
   1  -7  -2   45.00    4.90
   1  -7  -2   38.10    4.80
   1  -7  -2   30.90    4.30
  -2   7   2   11.00    1.50
  -2   7   2    9.30    1.70
  -2   7   2   11.70    1.60
  -2   7   2   10.50    2.50
   2  -7  -2    9.00    2.80
   2  -7  -2    5.50    2.90
   2  -7  -2    7.90    2.30
   2  -7  -2    7.10    2.20
  -3   7   2    8.30    1.50
  -3   7   2    8.30    1.50
  -3   7   2    8.20    1.20
   3  -7  -2    3.80    2.10
   3  -7  -2    5.80    3.00
   3  -7  -2    3.20    3.50
  -4   7   2    1.30    0.90
  -4   7   2    1.10    1.00
  -4   7   2    1.10    1.20
   4  -7  -2    2.90    2.10
   4  -7  -2    0.00    2.30
  -5   7   2   23.10    2.00
  -5   7   2   19.00    2.10
  -5   7   2   20.90    2.40
   5  -7  -2   12.20    3.70
   9   8   1   12.40    1.50
  -9  -8  -1    8.90    2.60
  -9  -8  -1   12.00    2.60
  -9  -8  -1   15.60    2.60
   8   8   1   13.60    1.40
   8   8   1   16.50    1.70
   8   8   1   15.90    1.70
  -8  -8  -1   15.70    2.90
  -8  -8  -1   17.70    2.20
  -8  -8  -1   15.00    2.80
   7   8   1   32.60    2.90
   7   8   1   32.20    2.70
   7   8   1   32.10    3.00
  -7  -8  -1   34.00    3.30
  -7  -8  -1   33.10    4.00
  -7  -8  -1   29.90    3.90
   6   8   1   65.49    5.40
   6   8   1   65.89    5.40
   6   8   1   66.19    5.50
   6   8   1   62.79    5.50
   6   8   1   58.59    5.20
  -6  -8  -1   65.39    6.50
  -6  -8  -1   69.29    5.70
  -6  -8  -1   75.29    6.30
   5   8   1    4.70    1.10
   5   8   1    5.60    1.00
   5   8   1    5.20    1.10
  -5  -8  -1    4.40    1.60
  -5  -8  -1    3.40    1.90
  -5  -8  -1    5.70    2.20
  -5  -8  -1    1.10    1.80
   4   8   1    2.50    0.80
   4   8   1    3.10    0.90
   4   8   1    3.20    1.00
   4   8   1    3.40    0.90
  -4  -8  -1    3.90    2.20
  -4  -8  -1    0.50    1.80
  -4  -8  -1    1.70    1.70
  -4  -8  -1    2.80    2.00
  -4  -8  -1    3.20    1.40
  -4  -8  -1    1.00    1.40
   3   8   1  102.79    8.50
   3   8   1   98.19    8.50
   3   8   1   99.39    8.40
   3   8   1   98.19    8.60
   3   8   1  104.99    8.50
  -3  -8  -1  113.19    9.70
  -3  -8  -1  107.19    8.90
  -3  -8  -1  122.39    9.50
  -3  -8  -1  100.79    8.80
  -3  -8  -1  122.79    8.80
   2   8   1   52.79    5.30
   2   8   1   61.79    5.10
   2   8   1   63.89    5.10
   2   8   1   61.29    5.00
   2   8   1   66.99    5.30
  -2  -8  -1   66.89    6.30
  -2  -8  -1   57.59    5.60
  -2  -8  -1   61.89    6.30
  -2  -8  -1   62.69    5.40
   1   8   1   88.69    6.90
   1   8   1   87.79    7.00
   1   8   1   69.19    7.20
   1   8   1   93.29    7.10
   1   8   1   92.09    6.90
  -1  -8  -1   94.89    8.20
  -1  -8  -1   84.09    8.10
  -1  -8  -1   67.89    9.30
  -1  -8  -1   89.49    7.00
   0   8   1  176.18   14.00
   0   8   1  173.18   14.10
   0   8   1  170.28   14.10
   0   8   1  172.78   14.20
   0  -8  -1  199.58   15.10
   0  -8  -1  194.08   15.20
   0  -8  -1  172.08   14.10
  -1   8   1   10.30    1.50
  -1   8   1    6.40    2.10
  -1   8   1   10.30    1.50
  -1   8   1    8.10    2.10
   1  -8  -1    6.40    2.30
   1  -8  -1    7.20    2.70
   1  -8  -1   10.60    3.50
  -2   8   1   12.40    2.00
  -2   8   1   14.10    1.50
  -2   8   1   13.40    1.90
  -2   8   1   13.60    1.70
   2  -8  -1   14.10    3.10
   2  -8  -1    8.40    3.00
   2  -8  -1    7.20    3.60
  -3   8   1   31.60    2.90
  -3   8   1   32.80    2.80
  -3   8   1   33.20    3.10
  -3   8   1   32.80    2.90
   3  -8  -1   21.90    4.40
  -4   8   1   10.90    1.40
  -4   8   1    9.20    1.20
  -4   8   1   10.30    1.60
   4  -8  -1    6.20    2.80
   8   9   0   30.70    3.10
   8   9   0   31.70    3.10
  -8  -9   0   39.40    4.80
  -8  -9   0   37.10    3.30
  -8  -9   0   34.00    4.20
   7   9   0   11.60    1.50
   7   9   0   12.00    1.50
  -7  -9   0   11.20    2.70
  -7  -9   0   11.70    2.50
  -7  -9   0   11.70    1.80
  -7  -9   0   12.00    2.60
   6   9   0   28.40    2.70
   6   9   0   30.20    2.70
   6   9   0   28.10    2.70
   6   9   0   29.30    2.90
  -6  -9   0   39.80    4.20
  -6  -9   0   28.70    2.90
  -6  -9   0   24.10    4.00
  -6  -9   0   25.70    3.50
   5   9   0   87.49    7.10
   5   9   0   86.59    7.20
   5   9   0   74.99    7.10
   5   9   0   87.89    7.10
   5   9   0   86.09    7.10
  -5  -9   0   91.39    8.50
  -5  -9   0   97.69    8.00
  -5  -9   0   88.39    8.00
   4   9   0   10.00    2.60
   4   9   0   17.90    1.90
   4   9   0   17.10    1.80
   4   9   0   17.00    2.00
  -4  -9   0   12.70    4.20
  -4  -9   0   15.60    2.60
  -4  -9   0   20.20    4.20
  -4  -9   0   16.80    3.60
   3   9   0   15.40    2.00
   3   9   0   17.30    1.80
   3   9   0   15.60    2.00
   3   9   0   19.50    1.80
  -3  -9   0   11.00    4.10
  -3  -9   0   13.80    3.50
  -3  -9   0   17.40    3.60
   2   9   0   23.30    2.40
   2   9   0   22.00    2.30
   2   9   0   24.60    2.20
   2   9   0   23.10    2.20
   2   9   0   22.00    2.30
  -2  -9   0   15.60    3.60
  -2  -9   0   18.40    3.70
   1   9   0   11.60    1.50
   1   9   0   12.20    1.60
   1   9   0   13.00    1.80
   1   9   0   10.90    1.40
  -1  -9   0   10.90    3.30
   0   9   0    2.90    0.90
   0   9   0    3.80    1.20
   0   9   0    2.30    0.80
   0   9   0    2.90    0.90
   0  -9   0   -1.60    2.20
   0  -9   0   -1.40    2.60
   0  -9   0    1.00    2.80
  -1   9   0   19.20    1.90
  -1   9   0   18.10    2.20
  -1   9   0   18.60    1.90
  -1   9   0   17.00    1.70
   1  -9   0   12.40    3.50
  -2   9   0    9.30    1.20
  -2   9   0   10.30    1.40
  -2   9   0   11.70    1.40
  -2   9   0   11.00    1.70
   2  -9   0    8.50    2.80
   7  10  -1    1.50    0.70
   7  10  -1    0.30    0.60
  -7 -10   1   -0.60    2.00
   6  10  -1    2.50    0.80
   6  10  -1    4.60    0.90
  -6 -10   1    3.60    2.10
  -6 -10   1    3.30    2.50
  -6 -10   1    2.30    3.40
   5  10  -1   27.10    2.50
   5  10  -1   27.10    2.50
   5  10  -1   25.90    2.60
  -5 -10   1   23.20    4.20
   4  10  -1   15.20    1.70
   4  10  -1   14.30    1.80
   4  10  -1   18.40    1.70
   4  10  -1   19.30    2.50
  -4 -10   1   14.60    3.40
  -4 -10   1    9.30    3.50
   3  10  -1   14.10    1.50
   3  10  -1   10.30    1.60
   3  10  -1   13.80    2.00
   3  10  -1   14.10    1.90
   3  10  -1   13.70    2.40
  -3 -10   1   10.40    3.10
   2  10  -1    5.90    1.70
   2  10  -1    2.10    0.80
   2  10  -1    1.90    0.90
   2  10  -1    0.00    0.60
   2  10  -1    1.90    1.60
   2  10  -1   -0.30    0.90
  -2 -10   1   -1.00    2.30
   1  10  -1    3.50    1.10
   1  10  -1    2.90    0.90
   1  10  -1    6.50    1.30
   1  10  -1    4.00    1.00
   1  10  -1    4.10    0.90
  -1 -10   1    3.20    3.30
   0  10  -1    0.50    1.00
   0  10  -1    0.50    0.50
   0 -10   1    1.30    2.40
   1  -1  11    1.50    1.50
  -1   1 -11    2.00    1.20
  -1   1 -11    2.50    1.30
   0  -1  11    1.30    1.80
   0   1 -11    2.50    1.30
   0   1 -11    2.60    1.20
   1   1 -11   23.30    3.10
   1   1 -11   22.20    2.60
   1   1 -11   19.80    2.80
   1   1 -11   21.10    2.60
   2   1 -11   24.00    2.70
   2   1 -11   24.30    3.90
   2   1 -11   25.30    3.10
   2   1 -11   23.70    2.80
   2   1 -11   24.50    2.60
   3   1 -11   15.20    2.50
   3   1 -11   16.00    2.30
   3   1 -11   17.20    2.90
  -4   0 -10   12.70    1.90
  -4   0 -10   13.90    1.60
   3   0  10    6.20    3.00
  -3   0 -10   10.40    1.60
  -3   0 -10    7.50    1.50
  -3   0 -10    7.90    3.20
   2   0  10    1.00    1.90
  -2   0 -10    2.10    1.20
  -2   0 -10    2.60    1.20
  -2   0 -10    1.20    1.30
   1   0  10    2.50    2.10
   1   0  10    5.00    0.70
  -1   0 -10    6.30    1.90
  -1   0 -10    7.20    1.70
  -1   0 -10    5.80    1.50
   0   0  10   15.20    3.30
   0   0  10   11.70    1.20
   0   0 -10   13.40    1.60
   0   0 -10   13.60    2.20
   0   0 -10   12.80    2.40
   0   0 -10   15.00    2.30
  -1   0  10    1.90    2.20
  -1   0  10    6.40    2.30
  -1   0  10    5.90    0.80
   1   0 -10   11.10    2.20
   1   0 -10    7.90    1.90
   1   0 -10    7.60    1.30
   1   0 -10    9.10    1.80
  -2   0  10    2.30    2.50
  -2   0  10    7.50    0.90
   2   0 -10    9.50    2.20
   2   0 -10   13.40    2.40
   2   0 -10   13.20    2.10
   2   0 -10   12.70    2.10
  -3   0  10    0.70    2.00
   3   0 -10    2.90    1.30
   3   0 -10    3.60    1.80
   3   0 -10    0.80    1.10
   3   0 -10    1.50    1.70
   3   0 -10    2.70    1.10
   4   0 -10   85.89    7.90
   4   0 -10   88.19    7.90
   4   0 -10   82.19    7.50
   4   0 -10   91.59    7.40
   5   0 -10   20.60    2.40
   5   0 -10   19.90    2.90
   5   0 -10   16.80    2.70
   6   1   9    6.30    2.40
   5   1   9    1.60    2.10
   5   1   9    3.50    0.50
   4   1   9    5.30    2.90
   4   1   9    3.10    0.60
  -4  -1  -9    4.40    1.30
  -4  -1  -9    3.00    1.00
   3   1   9   43.70    4.50
   3   1   9   50.59    6.50
  -3  -1  -9   53.39    4.60
  -3  -1  -9   52.69    4.70
  -3  -1  -9   59.79    5.30
   2   1   9   42.00    3.60
   2   1   9   38.40    5.70
  -2  -1  -9   47.40    4.40
  -2  -1  -9   46.40    4.10
  -2  -1  -9   45.70    4.10
   1   1   9   11.50    1.20
   1   1   9   10.60    3.10
  -1  -1  -9   13.80    2.20
  -1  -1  -9    8.50    1.90
  -1  -1  -9   13.40    2.10
  -1  -1  -9   14.90    2.00
  -1  -1  -9   11.50    1.40
   0   1   9   -0.80    2.20
   0   1   9    1.20    0.50
   0   1   9    1.80    1.90
   0  -1  -9    0.60    1.00
   0  -1  -9    3.40    0.80
   0  -1  -9    0.10    1.00
   0  -1  -9    2.70    1.50
   0  -1  -9    2.60    1.40
  -1   1   9   15.40    2.30
  -1   1   9   20.40    3.40
  -1   1   9   19.30    1.70
   1  -1  -9   18.30    2.30
   2  -1  -9   80.19    7.20
   2  -1  -9   85.49    7.20
   2  -1  -9   81.29    7.30
   2  -1  -9   73.69    6.70
   2  -1  -9   80.39    7.00
   3  -1  -9   70.19    6.70
   3  -1  -9   66.49    6.60
   3  -1  -9   74.69    7.10
   3  -1  -9   70.19    6.10
   4  -1  -9   28.10    3.50
   4  -1  -9   26.40    2.90
   4  -1  -9   23.10    2.80
   4  -1  -9   28.40    3.60
   5  -1  -9   21.50    3.00
   5  -1  -9   18.90    3.10
   5  -1  -9   20.70    2.50
  -6   1   9    2.00    1.30
   6  -1  -9    8.70    1.70
   6  -1  -9    4.70    2.10
   6  -1  -9    7.30    1.80
   6  -1  -9    3.80    1.40
   7   2   8   23.20    2.00
   7   2   8   21.40    4.60
   6   2   8    0.50    2.00
   6   2   8    2.40    0.50
  -6  -2  -8    1.90    0.90
  -6  -2  -8    0.50    1.00
  -6  -2  -8    1.20    1.20
   5   2   8  118.69    8.70
   5   2   8   98.09   10.90
   4   2   8   13.80    1.30
   4   2   8   13.00    3.50
  -4  -2  -8   11.20    2.10
  -4  -2  -8   12.40    1.60
  -4  -2  -8   12.70    1.80
   3   2   8   97.39    7.80
   3   2   8  103.99   10.10
  -3  -2  -8   84.79    8.30
  -3  -2  -8  102.89    8.20
  -3  -2  -8  100.59    8.10
  -3  -2  -8  105.89    8.30
   2   2   8   40.70    5.50
   2   2   8   43.00    3.50
  -2  -2  -8   46.00    3.90
  -2  -2  -8   35.60    4.10
  -2  -2  -8   46.40    4.00
  -2  -2  -8   49.50    4.20
   1   2   8   21.70    2.00
   1   2   8   27.80    2.50
   1   2   8   23.90    3.90
  -1  -2  -8   24.70    2.70
  -1  -2  -8   25.30    2.50
  -1  -2  -8   18.20    2.00
  -1  -2  -8   27.30    2.80
  -1  -2  -8   19.80    2.70
   0   2   8    4.40    0.70
   0   2   8    2.70    2.50
   0   2   8    6.80    2.00
   0   2   8    5.10    2.10
   0  -2  -8    6.80    1.60
   0  -2  -8    5.20    1.50
   0  -2  -8    7.00    1.50
   0  -2  -8    4.60    0.90
   0  -2  -8    4.10    1.40
  -1   2   8   12.90    2.20
  -1   2   8    8.10    2.90
  -1   2   8   10.10    2.60
   1  -2  -8   17.40    2.30
   1  -2  -8   16.40    2.30
   1  -2  -8   15.40    1.60
   1  -2  -8    9.60    1.90
   1  -2  -8   14.50    2.00
  -2   2   8    9.10    3.20
  -2   2   8    8.90    2.00
   2  -2  -8    9.70    1.90
   2  -2  -8   15.30    2.50
   2  -2  -8   14.10    2.10
   2  -2  -8   15.20    1.70
   2  -2  -8   12.90    1.90
   2  -2  -8   14.30    2.60
  -3   2   8    1.30    2.10
  -3   2   8   -0.30    1.40
  -3   2   8    3.00    0.70
   3  -2  -8    1.20    0.50
   3  -2  -8    2.90    1.10
   3  -2  -8    2.80    1.20
   3  -2  -8    1.40    1.10
   3  -2  -8    2.30    1.60
   3  -2  -8    3.20    1.60
  -4   2   8   19.80    1.90
  -4   2   8   15.90    2.30
   4  -2  -8   25.80    4.80
   4  -2  -8   18.00    1.70
  -5   2   8   18.90    3.90
  -5   2   8   22.50    2.30
  -5   2   8   18.30    2.90
   5  -2  -8   27.40    2.10
  -6   2   8   13.10    2.40
  -6   2   8   10.60    2.30
  -6   2   8   13.70    3.00
   8   3   7   21.20    2.00
   7   3   7  113.79    8.20
   7   3   7  106.29   10.30
  -7  -3  -7   95.99    8.70
  -7  -3  -7   97.99    8.30
   6   3   7   79.39    5.90
   6   3   7   76.49    8.20
  -6  -3  -7   69.79    6.50
  -6  -3  -7   63.69    6.20
  -6  -3  -7   71.79    6.00
   5   3   7   10.30    1.10
   5   3   7   11.80    3.40
  -5  -3  -7   10.80    1.50
  -5  -3  -7    9.10    2.20
  -5  -3  -7   10.90    1.70
   4   3   7    3.50    0.60
   4   3   7    2.40    2.10
  -4  -3  -7    4.20    1.00
  -4  -3  -7    4.20    0.90
  -4  -3  -7    1.80    1.80
  -4  -3  -7    1.80    1.40
  -4  -3  -7    5.00    1.30
   3   3   7    7.00    0.90
   3   3   7    6.60    2.40
  -3  -3  -7    7.40    1.50
  -3  -3  -7    5.80    2.20
  -3  -3  -7    7.50    1.30
  -3  -3  -7    7.10    1.20
  -3  -3  -7    7.80    1.30
   2   3   7   13.10    3.10
   2   3   7   11.90    1.30
   2   3   7   12.30    2.00
  -2  -3  -7   12.10    1.70
  -2  -3  -7   13.70    1.60
  -2  -3  -7   12.80    1.70
  -2  -3  -7   11.70    1.70
   1   3   7   17.00    1.90
   1   3   7   22.60    2.80
   1   3   7   22.40    3.50
   1   3   7   17.10    3.90
  -1  -3  -7   26.50    2.80
  -1  -3  -7   25.00    2.10
  -1  -3  -7   22.80    2.50
  -1  -3  -7   22.90    2.40
  -1  -3  -7   23.30    2.50
  -1  -3  -7   19.70    2.10
   0   3   7   76.59    6.70
   0   3   7   78.39    6.70
   0  -3  -7   78.99    7.10
   0  -3  -7   87.49    7.10
   0  -3  -7   90.79    7.50
   0  -3  -7   91.39    7.30
   0  -3  -7   80.49    6.80
   0  -3  -7   89.69    7.20
   0  -3  -7   90.09    7.30
  -1   3   7   19.50    1.60
  -1   3   7   17.90    1.50
   1  -3  -7   15.50    2.30
   1  -3  -7   14.00    2.00
   1  -3  -7   14.60    1.80
   1  -3  -7   16.10    2.30
   1  -3  -7   14.40    1.80
   1  -3  -7   13.90    2.40
  -2   3   7   73.69    5.90
  -2   3   7   65.09    5.50
  -2   3   7   60.19    5.50
  -2   3   7   61.49    5.50
   2  -3  -7   70.59    6.10
   2  -3  -7   79.29    6.40
   2  -3  -7   69.59    5.90
   2  -3  -7   77.29    6.50
   2  -3  -7   68.59    5.80
  -3   3   7   39.70    3.30
  -3   3   7   31.10    4.70
  -3   3   7   44.00    3.40
  -3   3   7   42.90    3.30
   3  -3  -7   31.70    3.20
   3  -3  -7   38.80    3.80
  -4   3   7  129.49   10.50
  -4   3   7  131.79   10.50
   4  -3  -7  136.49   10.50
  -5   3   7   16.00    2.80
  -5   3   7   19.10    2.00
  -5   3   7   21.50    2.00
  -5   3   7   14.70    2.10
  -5   3   7   15.50    3.30
   5  -3  -7   19.60    1.70
  -6   3   7   19.00    2.00
  -6   3   7   18.80    2.10
  -6   3   7   19.50    1.90
  -6   3   7   12.80    2.50
  -7   3   7    0.20    2.00
  -7   3   7    0.80    0.90
  -7   3   7    0.80    1.20
  -7   3   7   -0.30    1.00
   7  -3  -7    2.10    1.60
   7  -3  -7    1.80    2.00
   9   4   6   10.80    1.10
   9   4   6   13.40    1.40
  -9  -4  -6   10.80    1.30
   8   4   6   37.90    3.20
  -8  -4  -6   38.80    3.40
   7   4   6   32.30    2.90
   7   4   6   38.20    2.90
  -7  -4  -6   29.20    3.40
   6   4   6   18.50    1.50
   6   4   6   15.60    1.60
  -6  -4  -6   12.60    2.90
  -6  -4  -6   18.10    2.00
  -6  -4  -6   15.60    2.30
   5   4   6   73.69    7.60
   5   4   6   70.59    5.70
   5   4   6   68.09    5.60
  -5  -4  -6   75.89    6.00
  -5  -4  -6   70.69    6.30
  -5  -4  -6   67.89    6.10
   4   4   6    5.10    0.60
   4   4   6    4.50    1.80
   4   4   6    4.20    0.60
  -4  -4  -6    5.60    1.60
  -4  -4  -6    4.60    1.40
  -4  -4  -6    6.20    1.20
  -4  -4  -6    1.70    1.70
  -4  -4  -6    3.00    2.10
   3   4   6   13.10    1.30
   3   4   6   16.20    2.10
   3   4   6   14.60    3.00
   3   4   6   13.80    1.30
  -3  -4  -6   13.90    1.90
  -3  -4  -6   15.60    2.00
  -3  -4  -6   11.90    1.50
  -3  -4  -6   14.30    3.30
  -3  -4  -6   15.80    4.00
  -3  -4  -6   15.70    1.70
   2   4   6   57.09    4.80
   2   4   6   57.19    4.80
   2   4   6   53.99    5.20
  -2  -4  -6   60.09    5.20
  -2  -4  -6   63.19    5.30
  -2  -4  -6   60.39    5.10
  -2  -4  -6   69.79    5.20
  -2  -4  -6   63.39    5.10
   1   4   6  197.78   15.30
   1   4   6  205.38   16.50
   1   4   6  189.98   15.60
   1   4   6  172.98   15.30
   1   4   6  219.08   15.30
  -1  -4  -6  191.68   15.70
  -1  -4  -6  207.98   15.80
  -1  -4  -6  188.78   15.60
  -1  -4  -6  197.48   15.70
   0   4   6  332.67   26.40
   0   4   6  376.46   26.20
   0   4   6  352.46   26.10
   0  -4  -6  315.27   26.60
   0  -4  -6  339.87   26.70
   0  -4  -6  322.37   26.30
   0  -4  -6  357.36   26.60
   0  -4  -6  325.27   26.60
   0  -4  -6  313.07   26.40
  -1   4   6  450.55   32.60
  -1   4   6  478.35   32.60
  -1   4   6  431.46   32.70
  -1   4   6  419.76   32.90
   1  -4  -6  360.66   32.80
   1  -4  -6  427.66   33.20
   1  -4  -6  423.36   33.10
   1  -4  -6  416.66   32.90
   1  -4  -6  393.96   32.70
   1  -4  -6  401.26   33.10
  -2   4   6  211.08   18.00
  -2   4   6  262.67   18.30
  -2   4   6  224.38   18.00
   2  -4  -6  256.17   18.60
   2  -4  -6  219.18   18.10
   2  -4  -6  203.48   18.10
   2  -4  -6  242.48   18.30
  -3   4   6  151.58   11.50
  -3   4   6  150.18   11.50
  -3   4   6  154.48   11.40
   3  -4  -6  123.89   11.30
   3  -4  -6  142.29   11.80
  -4   4   6   28.50    2.70
  -4   4   6   20.70    3.30
  -4   4   6   28.70    2.60
  -4   4   6   24.80    2.70
   4  -4  -6   29.30    2.40
  -5   4   6   14.60    2.80
  -5   4   6   18.60    2.10
  -5   4   6   20.30    2.30
  -5   4   6   19.90    2.20
   5  -4  -6   21.20    1.80
  -6   4   6   20.00    2.20
  -6   4   6   21.10    2.20
  -6   4   6   21.10    2.30
  -7   4   6    1.10    1.20
  -7   4   6    0.20    0.90
  -7   4   6    1.70    0.90
   7  -4  -6    2.40    2.10
   9   5   5    6.70    1.00
   9   5   5    6.00    0.80
   8   5   5    8.50    1.10
   8   5   5    8.00    1.10
  -8  -5  -5    9.40    1.60
  -8  -5  -5    9.00    2.00
   7   5   5   57.89    4.30
   7   5   5   47.90    4.20
  -7  -5  -5   47.70    4.60
  -7  -5  -5   50.49    4.90
   6   5   5   32.30    2.70
   6   5   5   29.50    2.60
  -6  -5  -5   32.30    3.90
  -6  -5  -5   29.50    3.10
   5   5   5    4.60    0.90
   5   5   5    3.40    0.60
  -5  -5  -5    3.50    1.00
  -5  -5  -5    3.50    1.30
  -5  -5  -5    0.70    2.00
  -5  -5  -5    2.10    2.00
  -5  -5  -5    4.50    1.30
   4   5   5   81.49    6.50
   4   5   5   81.59    6.40
   4   5   5   81.49    6.50
   4   5   5   81.89    6.50
  -4  -5  -5   79.79    6.90
  -4  -5  -5   82.09    7.10
   3   5   5   19.00    1.70
   3   5   5   22.20    1.80
   3   5   5   19.10    2.30
   3   5   5   18.30    1.60
   3   5   5   20.50    1.70
  -3  -5  -5   13.90    2.80
  -3  -5  -5   19.20    2.30
  -3  -5  -5   16.50    2.00
  -3  -5  -5   16.70    2.70
  -3  -5  -5   19.00    2.30
   2   5   5   53.49    4.00
   2   5   5   42.20    3.80
   2   5   5   48.30    3.90
   2   5   5   50.29    4.00
   2   5   5   52.69    4.00
  -2  -5  -5   48.60    4.40
  -2  -5  -5   47.00    5.20
  -2  -5  -5   46.50    4.30
  -2  -5  -5   49.50    4.50
   1   5   5  351.66   27.70
   1   5   5  346.37   28.00
   1   5   5  354.96   27.70
   1   5   5  394.86   27.90
   1   5   5  368.66   27.90
  -1  -5  -5  341.07   28.10
  -1  -5  -5  363.46   28.00
  -1  -5  -5  353.76   28.20
  -1  -5  -5  342.07   28.20
  -1  -5  -5  363.26   28.30
   0   5   5   64.79    5.70
   0   5   5   78.89    5.60
   0   5   5   70.59    5.60
   0   5   5   69.69    5.60
   0  -5  -5   71.09    6.20
   0  -5  -5   60.69    5.70
   0  -5  -5   64.69    6.00
   0  -5  -5   70.89    6.00
   0  -5  -5   71.49    6.00
   0  -5  -5   75.39    5.70
   0  -5  -5   57.89    6.00
   0  -5  -5   71.19    6.10
  -1   5   5   78.69    6.50
  -1   5   5   68.19    6.60
  -1   5   5   86.49    6.50
   1  -5  -5   76.19    6.50
   1  -5  -5   80.19    7.00
   1  -5  -5   80.89    6.80
   1  -5  -5   89.09    7.10
   1  -5  -5   78.99    7.20
   1  -5  -5   83.39    7.10
  -2   5   5   11.40    1.70
  -2   5   5   12.20    1.60
  -2   5   5    7.50    2.20
  -2   5   5   13.40    1.70
  -2   5   5   12.80    1.70
   2  -5  -5    8.90    1.90
   2  -5  -5   11.70    1.80
   2  -5  -5    8.50    1.10
   2  -5  -5   13.20    2.50
   2  -5  -5   12.80    2.40
   2  -5  -5   11.80    1.90
   2  -5  -5   12.90    2.40
   2  -5  -5   17.60    2.80
  -3   5   5   28.20    2.90
  -3   5   5   32.10    2.90
  -3   5   5   27.60    3.00
   3  -5  -5   40.40    4.20
   3  -5  -5   36.10    3.70
   3  -5  -5   25.70    2.50
  -4   5   5   12.90    2.00
  -4   5   5   11.50    2.10
  -4   5   5   15.70    1.90
  -4   5   5   17.70    2.60
   4  -5  -5   22.90    3.50
   4  -5  -5   17.80    2.90
   4  -5  -5   19.40    3.60
   4  -5  -5   14.50    1.40
  -5   5   5   10.00    1.70
  -5   5   5    9.10    1.50
   5  -5  -5   15.90    3.00
   5  -5  -5    6.90    1.00
   5  -5  -5   17.80    4.00
   5  -5  -5   10.10    2.40
  -6   5   5    9.60    1.70
  -6   5   5    9.40    1.40
  -6   5   5    7.80    1.50
   6  -5  -5   13.10    3.00
  10   6   4    1.20    0.40
  10   6   4    1.80    0.70
 -10  -6  -4    0.90    0.90
 -10  -6  -4    0.50    1.60
 -10  -6  -4    0.20    2.40
   9   6   4   17.50    1.80
   9   6   4   22.10    1.90
  -9  -6  -4   20.00    2.70
  -9  -6  -4   18.30    2.30
   8   6   4    1.20    0.70
   8   6   4    1.00    0.50
  -8  -6  -4    2.40    1.20
  -8  -6  -4    0.40    1.90
  -8  -6  -4    0.30    1.40
  -8  -6  -4    0.20    1.20
   7   6   4   25.50    2.20
   7   6   4   20.90    2.00
  -7  -6  -4   22.70    2.90
  -7  -6  -4   22.50    2.60
   6   6   4  116.09    8.90
   6   6   4  100.09    8.70
   6   6   4  121.09    8.90
   6   6   4  106.49    8.80
  -6  -6  -4  112.99    9.10
   5   6   4    1.10    0.40
   5   6   4    2.10    0.90
   5   6   4    2.70    0.70
   5   6   4    1.50    0.80
   5   6   4    1.40    0.40
  -5  -6  -4    1.80    1.10
  -5  -6  -4    5.20    3.30
  -5  -6  -4    2.20    2.30
  -5  -6  -4    2.30    1.30
  -5  -6  -4    1.90    1.00
   4   6   4   11.90    1.10
   4   6   4    8.10    1.00
   4   6   4   12.80    1.80
   4   6   4   10.90    1.40
   4   6   4   10.90    1.20
   4   6   4   10.30    1.30
  -4  -6  -4    8.50    2.90
  -4  -6  -4    8.10    1.70
  -4  -6  -4    9.70    1.70
  -4  -6  -4   10.10    1.70
  -4  -6  -4   10.00    2.70
   3   6   4  115.49    8.80
   3   6   4  116.99    8.90
   3   6   4  110.49    8.90
   3   6   4  123.09    9.00
  -3  -6  -4  118.39    9.60
  -3  -6  -4  107.19    9.40
  -3  -6  -4   98.29    9.30
   2   6   4  145.49   10.40
   2   6   4  145.69   10.50
   2   6   4  134.09   10.70
   2   6   4  138.39   10.40
   2   6   4  148.89   10.50
   2   6   4  113.59   10.50
  -2  -6  -4  125.09   10.80
  -2  -6  -4  140.09   11.00
  -2  -6  -4  113.49   10.60
  -2  -6  -4  130.39   10.90
  -2  -6  -4  130.19   11.00
   1   6   4  132.89   10.10
   1   6   4  111.29   10.50
   1   6   4  130.99   10.20
   1   6   4  119.89   10.20
   1   6   4  143.19   10.00
   1   6   4  140.19   10.10
  -1  -6  -4  135.79   10.30
  -1  -6  -4  122.39   10.60
  -1  -6  -4  124.39   10.60
  -1  -6  -4  116.79   10.40
   0   6   4  144.49   10.40
   0   6   4  135.09   10.60
   0   6   4  142.29   10.50
   0   6   4  132.59   10.60
   0   6   4  124.89   10.50
   0  -6  -4  117.69   10.60
   0  -6  -4  141.29   11.10
   0  -6  -4  138.59   10.70
   0  -6  -4  110.99   10.80
   0  -6  -4  148.09   11.30
   0  -6  -4  138.99   11.10
  -1   6   4   30.30    2.40
  -1   6   4   24.90    2.50
  -1   6   4   28.60    2.60
  -1   6   4   21.30    2.50
   1  -6  -4   24.40    3.30
   1  -6  -4   28.60    3.60
   1  -6  -4   30.50    3.60
   1  -6  -4   22.10    2.90
   1  -6  -4   25.80    2.60
   1  -6  -4   21.10    2.70
  -2   6   4    1.00    1.50
  -2   6   4    8.60    1.90
  -2   6   4    7.50    1.30
  -2   6   4    6.50    1.40
  -2   6   4    5.00    1.80
   2  -6  -4    6.60    2.20
   2  -6  -4    6.60    2.20
   2  -6  -4    1.70    1.30
   2  -6  -4    5.80    2.00
   2  -6  -4    3.90    2.20
   2  -6  -4    3.90    0.60
   2  -6  -4    7.10    1.70
  -3   6   4  131.99   11.50
  -3   6   4  129.69   11.50
  -3   6   4  147.39   11.50
  -3   6   4  146.69   12.00
   3  -6  -4  150.18   12.70
   3  -6  -4  162.68   12.70
   3  -6  -4  153.68   12.40
  -4   6   4    3.10    1.30
  -4   6   4    2.50    1.20
  -4   6   4    2.40    1.70
  -4   6   4    5.00    1.40
   4  -6  -4    1.00    2.00
   4  -6  -4    6.90    2.10
   4  -6  -4    2.40    2.50
   4  -6  -4    2.70    0.50
  -5   6   4   36.80    3.10
  -5   6   4   32.00    3.10
  -5   6   4   27.40    3.10
   5  -6  -4   31.40    3.90
   5  -6  -4   40.40    5.10
  -6   6   4    1.40    0.90
  -6   6   4    0.90    1.10
  -6   6   4    0.90    0.70
  -6   6   4    1.10    1.00
   6  -6  -4   -0.80    2.20
  10   7   3    2.00    0.40
  10   7   3    2.20    0.60
 -10  -7  -3    2.10    1.40
 -10  -7  -3    2.60    1.80
   9   7   3    9.00    1.10
   9   7   3   13.00    1.40
  -9  -7  -3   11.30    2.00
  -9  -7  -3   10.20    2.00
   8   7   3   44.80    3.60
   8   7   3   38.30    3.40
  -8  -7  -3   44.80    4.60
  -8  -7  -3   44.20    4.10
  -8  -7  -3   37.40    4.50
   7   7   3   41.10    3.50
   7   7   3   39.80    3.30
   7   7   3   36.20    3.20
  -7  -7  -3   40.00    4.30
  -7  -7  -3   40.50    4.30
  -7  -7  -3   41.20    3.90
   6   7   3   95.89    7.60
   6   7   3   87.09    7.50
   6   7   3   97.29    7.70
   6   7   3   95.09    7.70
   6   7   3   92.19    7.50
  -6  -7  -3  105.39    8.40
  -6  -7  -3   90.99    8.40
  -6  -7  -3   95.49    7.90
   5   7   3   32.40    2.70
   5   7   3   32.30    3.00
   5   7   3   32.80    2.80
   5   7   3   35.10    2.90
   5   7   3   33.10    3.10
  -5  -7  -3   30.70    5.00
  -5  -7  -3   32.80    4.00
  -5  -7  -3   31.80    3.30
   4   7   3  152.28   11.70
   4   7   3  147.19   11.60
   4   7   3  136.19   11.60
   4   7   3  146.09   11.60
  -4  -7  -3  156.68   12.20
  -4  -7  -3  143.49   11.80
  -4  -7  -3  149.99   12.40
   3   7   3   12.20    1.30
   3   7   3   13.50    1.80
   3   7   3   16.10    1.60
   3   7   3   12.40    1.10
   3   7   3   12.60    2.10
   3   7   3   10.80    1.30
  -3  -7  -3   10.00    2.00
  -3  -7  -3    8.30    2.40
  -3  -7  -3   12.70    1.90
  -3  -7  -3    9.60    2.50
  -3  -7  -3   11.50    2.20
   2   7   3   81.99    6.40
   2   7   3   78.29    6.50
   2   7   3   83.19    6.40
   2   7   3   73.99    6.50
   2   7   3   82.39    6.20
   2   7   3   83.99    6.60
   2   7   3   70.89    6.40
  -2  -7  -3   68.69    6.60
  -2  -7  -3   83.79    6.80
  -2  -7  -3   83.09    7.20
  -2  -7  -3   83.39    7.20
   1   7   3   51.99    5.20
   1   7   3   65.09    5.20
   1   7   3   63.09    5.00
   1   7   3   67.79    5.10
   1   7   3   55.39    5.30
   1   7   3   67.19    5.00
   1   7   3   63.79    4.80
  -1  -7  -3   61.79    5.90
  -1  -7  -3   57.49    5.70
  -1  -7  -3   54.19    5.20
  -1  -7  -3   62.79    5.30
  -1  -7  -3   65.59    5.30
  -1  -7  -3   58.99    5.90
   0   7   3  119.19    8.90
   0   7   3  106.99    8.90
   0   7   3  106.09    9.00
   0   7   3  112.19    9.00
   0   7   3  111.19    8.70
   0  -7  -3  122.79    9.70
   0  -7  -3  110.59    9.00
   0  -7  -3  101.99    9.10
   0  -7  -3  117.09    9.70
   0  -7  -3  118.19    9.90
  -1   7   3   82.29    7.60
  -1   7   3  104.89    7.50
  -1   7   3   80.89    7.10
  -1   7   3   97.19    7.30
   1  -7  -3   97.19    8.40
   1  -7  -3   82.19    8.20
   1  -7  -3   86.09    7.90
   1  -7  -3   92.19    7.40
  -2   7   3   38.50    4.20
  -2   7   3   39.30    3.10
   2  -7  -3   28.60    4.70
   2  -7  -3   24.10    3.80
   2  -7  -3   32.40    4.20
   2  -7  -3   26.50    2.50
   2  -7  -3   30.00    4.30
  -3   7   3    0.80    1.10
  -3   7   3    0.60    1.40
  -3   7   3    0.50    1.20
  -3   7   3    0.20    1.10
   3  -7  -3   -1.30    2.50
   3  -7  -3    0.50    2.30
   3  -7  -3   -0.30    1.70
  -4   7   3    9.90    1.50
  -4   7   3   12.00    1.70
  -4   7   3    9.90    1.70
   4  -7  -3    5.40    2.80
   4  -7  -3    6.60    2.20
  -5   7   3   15.50    2.00
  -5   7   3   14.50    1.90
  -5   7   3   19.60    1.80
   5  -7  -3   14.10    3.30
   9   8   2   15.80    1.70
   9   8   2   12.20    1.20
  -9  -8  -2   15.70    2.80
  -9  -8  -2   15.20    2.10
   8   8   2   35.10    3.30
   8   8   2   38.50    3.40
   8   8   2   40.80    3.60
  -8  -8  -2   43.70    4.60
  -8  -8  -2   44.50    4.40
  -8  -8  -2   46.20    4.00
   7   8   2   38.90    3.40
   7   8   2   37.30    3.30
   7   8   2   35.70    3.10
  -7  -8  -2   36.90    4.40
  -7  -8  -2   36.80    4.50
  -7  -8  -2   42.40    3.80
   6   8   2   95.59    8.00
   6   8   2  106.09    8.30
   6   8   2  101.59    8.20
   6   8   2  111.79    8.40
   6   8   2   95.19    8.30
  -6  -8  -2   95.19    9.20
  -6  -8  -2  111.79    9.00
  -6  -8  -2  104.09    8.50
   5   8   2   49.30    4.00
   5   8   2   44.90    4.00
   5   8   2   42.50    3.70
   5   8   2   46.00    4.20
   5   8   2   48.70    4.00
  -5  -8  -2   49.30    5.20
  -5  -8  -2   55.99    4.90
  -5  -8  -2   45.20    5.90
  -5  -8  -2   45.90    4.70
   4   8   2   23.50    2.40
   4   8   2   23.80    2.00
   4   8   2   25.10    2.20
   4   8   2   23.70    2.30
  -4  -8  -2   24.40    3.40
  -4  -8  -2   25.40    2.70
  -4  -8  -2   17.40    3.30
  -4  -8  -2   32.40    5.00
  -4  -8  -2   25.10    3.10
   3   8   2   21.30    1.90
   3   8   2   22.10    2.10
   3   8   2   19.60    1.90
   3   8   2   15.30    2.10
   3   8   2   17.70    2.10
  -3  -8  -2   17.80    2.30
  -3  -8  -2   18.30    3.00
  -3  -8  -2   23.00    3.30
  -3  -8  -2   19.90    2.70
  -3  -8  -2   19.60    3.40
   2   8   2   17.90    1.80
   2   8   2   16.90    2.20
   2   8   2   17.70    1.90
   2   8   2   18.70    1.80
   2   8   2   19.20    2.00
   2   8   2   14.30    2.00
  -2  -8  -2   15.00    2.10
  -2  -8  -2   15.10    2.50
  -2  -8  -2   13.90    2.80
  -2  -8  -2   14.20    3.10
  -2  -8  -2   16.30    2.50
   1   8   2   50.59    4.20
   1   8   2   50.39    4.10
   1   8   2   53.99    4.20
   1   8   2   39.70    4.30
   1   8   2   53.19    4.40
  -1  -8  -2   51.69    5.50
  -1  -8  -2   44.20    4.80
  -1  -8  -2   46.40    5.30
   0   8   2    8.60    1.30
   0   8   2    5.20    1.40
   0   8   2    7.30    1.20
   0   8   2    6.90    1.40
   0   8   2    8.20    1.20
   0   8   2    5.70    1.80
   0  -8  -2    7.80    2.40
   0  -8  -2   12.40    2.30
   0  -8  -2    4.40    2.40
   0  -8  -2    3.80    2.50
   0  -8  -2    4.70    3.20
  -1   8   2    3.30    1.10
  -1   8   2    2.80    1.00
  -1   8   2    1.50    1.20
  -1   8   2    4.10    1.10
  -1   8   2    3.00    1.30
   1  -8  -2    3.00    2.20
   1  -8  -2    2.00    2.80
   1  -8  -2    1.50    2.40
   1  -8  -2    4.20    2.50
  -2   8   2    4.00    1.30
  -2   8   2    5.90    1.20
  -2   8   2    5.10    1.20
  -2   8   2    4.80    1.10
   2  -8  -2    4.90    2.20
   2  -8  -2    6.00    2.80
   2  -8  -2    4.10    2.80
  -3   8   2    6.80    1.20
  -3   8   2    9.40    1.60
  -3   8   2    8.10    1.20
  -3   8   2    8.40    1.30
   3  -8  -2    3.30    2.20
   3  -8  -2    3.50    2.40
   3  -8  -2    4.50    2.40
  -4   8   2   21.10    2.10
  -4   8   2   23.00    2.00
  -4   8   2   20.70    2.10
  -4   8   2   19.80    2.30
   4  -8  -2   13.20    3.40
   9   9   1    3.40    0.80
  -9  -9  -1    2.80    1.80
  -9  -9  -1    3.60    1.80
  -9  -9  -1    1.90    1.20
   8   9   1   22.50    2.10
   8   9   1   16.80    2.00
  -8  -9  -1   16.20    3.10
  -8  -9  -1   25.90    4.10
  -8  -9  -1   21.40    2.50
  -8  -9  -1   16.00    3.00
   7   9   1    2.00    0.70
   7   9   1    2.80    1.00
  -7  -9  -1    2.50    2.00
  -7  -9  -1    6.90    2.40
  -7  -9  -1    1.20    2.70
  -7  -9  -1    0.40    1.20
  -7  -9  -1    1.50    1.80
   6   9   1   17.40    2.00
   6   9   1   14.70    2.70
   6   9   1   18.80    1.90
   6   9   1   16.20    1.90
  -6  -9  -1   15.10    2.70
  -6  -9  -1   17.70    2.20
  -6  -9  -1   13.20    3.10
  -6  -9  -1   14.50    3.80
   5   9   1   33.50    3.00
   5   9   1   32.20    3.10
   5   9   1   31.40    2.90
  -5  -9  -1   21.90    5.40
  -5  -9  -1   28.70    3.60
  -5  -9  -1   37.60    4.70
  -5  -9  -1   39.80    4.10
  -5  -9  -1   31.30    3.80
   4   9   1   52.69    4.40
   4   9   1   52.89    4.90
   4   9   1   43.90    4.30
  -4  -9  -1   54.89    5.50
  -4  -9  -1   41.50    4.70
  -4  -9  -1   55.39    6.00
  -4  -9  -1   57.19    4.60
  -4  -9  -1   51.89    5.20
   3   9   1   29.90    3.10
   3   9   1   34.40    3.20
   3   9   1   37.00    3.10
   3   9   1   35.20    3.10
   3   9   1   29.90    3.10
  -3  -9  -1   37.90    3.90
  -3  -9  -1   38.80    4.50
  -3  -9  -1   28.50    4.60
  -3  -9  -1   25.70    6.10
  -3  -9  -1   34.60    3.40
   2   9   1   60.59    5.00
   2   9   1   57.29    5.00
   2   9   1   61.99    5.00
   2   9   1   61.69    4.90
  -2  -9  -1   63.49    7.30
  -2  -9  -1   54.09    5.00
  -2  -9  -1   58.29    6.20
  -2  -9  -1   45.60    7.90
   1   9   1   10.70    1.30
   1   9   1    9.20    1.30
   1   9   1   11.80    1.50
   1   9   1    9.30    1.70
  -1  -9  -1    4.30    2.70
  -1  -9  -1    6.90    2.50
  -1  -9  -1    7.20    2.90
   0   9   1    6.40    1.10
   0   9   1    5.20    1.40
   0   9   1    5.40    1.30
   0   9   1    5.60    1.10
   0  -9  -1    6.40    2.90
   0  -9  -1    1.30    3.00
   0  -9  -1    9.50    4.40
  -1   9   1   12.20    1.80
  -1   9   1   10.80    1.50
  -1   9   1   11.40    1.50
  -1   9   1   10.50    1.30
   1  -9  -1    4.50    2.60
   1  -9  -1    7.30    2.70
  -2   9   1   14.50    1.70
  -2   9   1   14.60    1.60
   2  -9  -1   10.20    3.00
   7  10   0    6.50    1.20
   7  10   0    5.90    1.00
  -7 -10   0    8.60    3.30
  -7 -10   0   11.00    2.50
   6  10   0    3.00    0.90
   6  10   0    5.70    1.20
   6  10   0    2.30    0.90
  -6 -10   0    5.60    2.80
  -6 -10   0    1.30    2.60
  -6 -10   0    2.90    2.00
   5  10   0   12.10    1.70
   5  10   0   13.30    1.60
   5  10   0   11.80    1.50
   5  10   0   11.00    1.50
  -5 -10   0   16.90    3.50
  -5 -10   0    8.40    2.40
   4  10   0    7.90    1.40
   4  10   0    9.60    1.30
   4  10   0    5.90    1.10
   4  10   0    7.60    1.20
  -4 -10   0    2.50    1.90
  -4 -10   0    4.70    2.90
  -4 -10   0    2.00    2.70
   3  10   0    7.70    1.20
   3  10   0    5.70    1.20
   3  10   0    6.10    1.10
   3  10   0    4.40    1.10
  -3 -10   0    3.60    2.90
  -3 -10   0    5.50    2.70
   2  10   0    3.80    1.00
   2  10   0    4.30    1.10
   2  10   0    2.10    0.80
   2  10   0    5.30    1.00
   2  10   0    2.90    1.00
  -2 -10   0    0.00    2.60
   1  10   0    6.20    1.80
   1  10   0    3.80    1.90
   1  10   0    5.10    1.10
   1  10   0    5.20    1.00
   1  10   0    1.60    1.50
  -1 -10   0   -0.20    3.00
   0  10   0    6.10    1.40
   0  10   0    6.40    1.40
   0  10   0    8.50    1.30
   0  10   0    9.70    1.20
   0  10   0    9.30    1.20
   2   0  11    1.60    1.90
  -2   0 -11    4.20    1.30
  -2   0 -11    8.40    1.40
   1   0  11   -1.40    1.60
  -1   0 -11    1.40    1.60
  -1   0 -11    0.20    1.30
   0   0  11   31.40    4.40
   0   0 -11   40.80    4.10
   0   0 -11   36.50    3.70
   1   0 -11   18.20    2.60
   1   0 -11   14.60    2.30
   1   0 -11   19.00    3.90
   1   0 -11   11.70    2.30
   2   0 -11   35.00    3.90
   2   0 -11   25.50    4.70
   2   0 -11   29.90    3.00
   2   0 -11   32.00    3.40
   2   0 -11   33.00    3.30
  -3   0  11   -1.90    1.70
  -3   0  11    0.50    0.50
   3   0 -11   -0.10    1.20
   3   0 -11    1.00    1.80
   3   0 -11    1.50    1.40
   3   0 -11    2.00    1.20
   3   0 -11    2.90    1.20
   5   1  10    1.80    1.70
  -5  -1 -10    2.30    1.20
   4   1  10    2.00    2.20
  -4  -1 -10    4.30    1.20
  -4  -1 -10    5.70    1.10
   3   1  10    0.60    1.80
   3   1  10    0.20    0.30
  -3  -1 -10    1.90    1.00
  -3  -1 -10    1.50    1.10
  -3  -1 -10    1.20    1.50
   2   1  10    5.50    2.50
   2   1  10    5.30    0.70
  -2  -1 -10    5.90    1.40
  -2  -1 -10    7.20    1.50
  -2  -1 -10    6.40    1.70
   1   1  10    5.00    2.40
   1   1  10    5.30    0.80
  -1  -1 -10    7.20    1.60
  -1  -1 -10    9.40    2.40
  -1  -1 -10    9.40    2.10
   0   1  10   17.30    3.50
   0   1  10   15.90    1.60
   0  -1 -10   17.30    2.60
   0  -1 -10   20.20    2.50
   0  -1 -10   22.90    2.90
  -1   1  10    7.50    2.40
  -1   1  10    4.20    2.50
  -1   1  10    7.50    0.90
   1  -1 -10    4.90    1.00
   2  -1 -10   92.49    8.00
   2  -1 -10   92.29    8.30
   2  -1 -10   98.59    8.50
   2  -1 -10   93.19    8.10
   2  -1 -10   89.09    7.70
   3  -1 -10   31.70    3.10
   3  -1 -10   28.70    3.70
   3  -1 -10   32.00    3.40
   3  -1 -10   30.40    3.90
   3  -1 -10   30.90    3.20
  -4   1  10   31.00    3.60
  -4   1  10   37.00    4.80
   5  -1 -10   32.70    3.90
   5  -1 -10   36.50    3.60
   5  -1 -10   36.90    4.00
   5  -1 -10   40.40    4.30
   6   2   9    2.80    0.50
   6   2   9    4.70    2.30
  -6  -2  -9    4.70    1.50
  -6  -2  -9    5.40    1.00
   5   2   9   56.79    4.80
   5   2   9   52.99    6.90
  -5  -2  -9   65.09    5.10
  -5  -2  -9   64.59    5.40
   4   2   9   16.90    3.70
   4   2   9   15.00    1.50
  -4  -2  -9   17.70    2.00
  -4  -2  -9   12.30    2.10
   3   2   9    4.90    0.70
   3   2   9    2.00    3.10
  -3  -2  -9    3.50    1.40
  -3  -2  -9    4.80    1.30
  -3  -2  -9    5.60    1.30
   2   2   9    8.40    2.60
   2   2   9    8.90    1.10
  -2  -2  -9    8.90    1.60
  -2  -2  -9   12.40    2.00
  -2  -2  -9    9.40    1.70
  -2  -2  -9   10.00    1.70
   1   2   9   45.00    4.40
   1   2   9   49.30    6.10
   1   2   9   50.49    4.20
  -1  -2  -9   46.70    4.70
  -1  -2  -9   61.79    4.80
  -1  -2  -9   61.89    4.90
   0   2   9  457.35   33.70
   0   2   9  356.36   31.80
   0  -2  -9  356.16   32.20
   0  -2  -9  348.27   31.80
   0  -2  -9  439.36   32.30
   0  -2  -9  419.76   32.50
   0  -2  -9  462.45   32.60
   0  -2  -9  452.15   32.50
   1  -2  -9   48.90    4.40
   1  -2  -9   51.49    4.80
   1  -2  -9   50.79    5.10
   1  -2  -9   52.39    5.00
   1  -2  -9   53.79    5.20
   2  -2  -9  135.49   11.40
   2  -2  -9  136.39   11.90
   2  -2  -9  138.59   11.80
   2  -2  -9  138.59   11.20
   2  -2  -9  143.29   11.60
  -3   2   9    9.10    2.40
   3  -2  -9   11.30    2.70
   3  -2  -9   12.00    1.80
   3  -2  -9   12.10    2.60
   3  -2  -9    8.60    1.90
   4  -2  -9   26.70    3.90
   4  -2  -9   34.70    3.30
   4  -2  -9   26.30    3.10
   4  -2  -9   35.10    4.00
   5  -2  -9   14.90    3.10
   5  -2  -9    8.80    2.30
   5  -2  -9   12.70    2.20
   5  -2  -9   12.40    2.70
  -6   2   9    0.70    1.70
  -6   2   9    0.10    1.20
   6  -2  -9    3.50    1.50
   6  -2  -9    1.30    1.90
   7   3   8    0.10    0.40
   6   3   8   11.10    3.20
   6   3   8   13.80    1.40
  -6  -3  -8   15.70    2.90
  -6  -3  -8   15.40    1.80
  -6  -3  -8   14.00    2.10
   5   3   8   49.20    4.10
  -5  -3  -8   43.80    4.60
  -5  -3  -8   49.00    4.30
  -5  -3  -8   47.60    4.50
   4   3   8   20.70    4.10
   4   3   8   23.20    2.10
  -4  -3  -8   26.40    2.50
  -4  -3  -8   26.30    2.90
  -4  -3  -8   17.50    3.20
  -4  -3  -8   21.80    2.40
   3   3   8    7.00    2.60
   3   3   8    4.40    0.70
  -3  -3  -8    6.60    1.50
  -3  -3  -8    6.40    1.40
  -3  -3  -8    7.10    1.10
  -3  -3  -8    7.00    1.40
  -3  -3  -8    7.40    1.60
  -3  -3  -8    4.40    1.70
   2   3   8   44.00    5.40
   2   3   8   46.10    3.90
   2   3   8   34.40    3.40
  -2  -3  -8   46.80    4.20
  -2  -3  -8   42.20    4.00
  -2  -3  -8   40.70    3.90
  -2  -3  -8   42.00    3.90
  -2  -3  -8   40.20    3.50
   1   3   8   37.40    3.70
   1   3   8   45.70    5.50
   1   3   8   36.60    4.20
  -1  -3  -8   45.30    3.80
  -1  -3  -8   53.99    4.60
  -1  -3  -8   48.30    4.20
  -1  -3  -8   49.99    4.40
  -1  -3  -8   49.60    4.30
   0   3   8    1.00    1.50
   0   3   8    2.10    0.60
   0   3   8    0.50    2.50
   0  -3  -8    2.90    1.30
   0  -3  -8    1.70    1.40
   0  -3  -8    3.20    1.10
   0  -3  -8    2.20    1.40
   0  -3  -8    2.80    0.80
   0  -3  -8    3.20    1.10
   0  -3  -8    1.50    1.30
  -1   3   8    7.30    1.90
  -1   3   8    6.40    2.80
   1  -3  -8    7.80    1.50
   1  -3  -8    9.50    1.80
   1  -3  -8    8.70    1.80
   1  -3  -8    9.40    1.90
   1  -3  -8    4.80    1.20
  -2   3   8    3.60    1.80
  -2   3   8    1.20    2.40
  -2   3   8    7.30    0.90
   2  -3  -8    2.80    1.10
   2  -3  -8    6.90    1.80
   2  -3  -8    5.10    2.00
   2  -3  -8    6.10    2.00
   2  -3  -8    5.40    1.40
  -3   3   8   59.49    5.00
   3  -3  -8   67.99    5.60
   3  -3  -8   49.99    5.80
   3  -3  -8   62.79    5.80
   3  -3  -8   70.89    6.20
   3  -3  -8   71.99    6.40
   4  -3  -8   30.60    2.60
  -5   3   8   23.20    2.30
  -6   3   8    1.80    2.90
  -6   3   8    7.40    1.10
   6  -3  -8   15.90    3.50
   6  -3  -8    9.50    4.10
   8   4   7    6.10    0.80
   7   4   7   12.50    1.30
  -7  -4  -7    9.40    1.70
  -7  -4  -7   16.70    2.60
   6   4   7   11.20    1.30
  -6  -4  -7   11.00    2.10
  -6  -4  -7   11.10    1.90
   5   4   7    8.70    2.40
   5   4   7    5.80    0.90
  -5  -4  -7    9.20    1.50
  -5  -4  -7   11.70    2.00
  -5  -4  -7    6.40    1.70
  -5  -4  -7    9.50    2.20
   4   4   7    9.20    2.70
   4   4   7    9.10    1.10
  -4  -4  -7   11.90    1.60
  -4  -4  -7   12.90    2.20
  -4  -4  -7    5.40    2.30
  -4  -4  -7    9.70    1.90
  -4  -4  -7    7.40    1.90
   3   4   7    4.30    0.70
   3   4   7    4.30    2.10
   3   4   7    7.00    0.90
   3   4   7    8.30    1.50
  -3  -4  -7    5.40    1.30
  -3  -4  -7    2.60    1.90
  -3  -4  -7    5.20    1.20
  -3  -4  -7    6.10    1.30
  -3  -4  -7    4.30    1.60
   2   4   7   23.00    3.70
   2   4   7   21.70    2.00
   2   4   7   21.60    2.10
   2   4   7   19.70    2.80
  -2  -4  -7   29.00    2.80
  -2  -4  -7   24.80    2.70
  -2  -4  -7   28.40    2.60
  -2  -4  -7   23.90    2.50
  -2  -4  -7   20.50    3.80
  -2  -4  -7   27.80    2.50
   1   4   7   19.10    4.30
   1   4   7   30.70    2.30
   1   4   7   19.90    3.10
  -1  -4  -7   28.10    3.00
  -1  -4  -7   27.30    2.80
  -1  -4  -7   26.60    2.90
  -1  -4  -7   30.80    2.60
  -1  -4  -7   29.80    3.60
   0   4   7    8.10    1.20
   0   4   7    5.80    2.70
   0   4   7   12.00    2.40
   0   4   7   12.00    1.10
   0   4   7    9.60    1.10
   0  -4  -7    9.60    2.30
   0  -4  -7    9.20    2.00
   0  -4  -7    7.70    1.50
   0  -4  -7    9.20    1.70
   0  -4  -7   10.30    1.40
   0  -4  -7    9.90    1.80
  -1   4   7    7.80    1.10
  -1   4   7    4.40    1.70
  -1   4   7    7.70    0.90
  -1   4   7    2.30    2.00
  -1   4   7    4.50    1.40
   1  -4  -7    5.70    1.30
   1  -4  -7    4.40    1.60
   1  -4  -7    6.90    1.60
   1  -4  -7    6.40    1.80
   1  -4  -7    4.90    1.50
   1  -4  -7    5.60    1.20
   1  -4  -7    5.00    1.70
  -2   4   7  214.38   20.00
  -2   4   7  245.28   20.10
  -2   4   7  264.57   20.50
   2  -4  -7  272.77   21.00
   2  -4  -7  288.77   20.90
   2  -4  -7  254.27   20.40
   2  -4  -7  284.87   20.90
   2  -4  -7  248.58   20.70
  -3   4   7  149.09   10.80
  -3   4   7  138.99   10.90
   3  -4  -7  126.09   10.70
   3  -4  -7  127.09   11.20
  -4   4   7   57.79    4.50
  -4   4   7   43.60    5.00
  -4   4   7   59.09    4.60
   4  -4  -7   52.19    4.40
  -5   4   7    2.90    2.30
  -5   4   7    5.80    1.90
  -5   4   7    6.70    1.40
  -5   4   7    7.80    1.40
  -5   4   7    7.90    1.20
   5  -4  -7   11.50    2.60
   5  -4  -7   14.30    2.80
  -6   4   7    3.10    1.90
  -6   4   7    1.70    1.00
  -6   4   7   -0.10    1.40
  -6   4   7    5.10    1.30
   6  -4  -7    7.60    2.80
   6  -4  -7    3.90    2.70
   9   5   6   24.30    2.10
  -9  -5  -6   24.20    2.30
  -9  -5  -6   23.70    2.70
   8   5   6    1.80    0.60
   8   5   6    1.50    0.50
  -8  -5  -6   -0.60    0.90
   7   5   6   31.30    2.90
   7   5   6   37.50    3.00
  -7  -5  -6   32.10    3.30
  -7  -5  -6   32.20    3.70
   6   5   6   28.20    2.20
   6   5   6   23.90    2.30
  -6  -5  -6   25.70    2.70
  -6  -5  -6   33.60    3.40
  -6  -5  -6   25.20    2.80
  -6  -5  -6   20.40    3.50
   5   5   6    4.60    0.70
   5   5   6    5.90    0.80
  -5  -5  -6    5.00    1.70
  -5  -5  -6    4.40    1.50
  -5  -5  -6    4.50    1.30
  -5  -5  -6    2.40    2.10
  -5  -5  -6    5.20    2.00
   4   5   6   13.40    1.30
   4   5   6   12.50    1.20
   4   5   6   10.50    1.20
  -4  -5  -6   17.20    2.20
  -4  -5  -6   15.30    1.90
  -4  -5  -6   10.00    2.60
  -4  -5  -6    9.10    2.20
   3   5   6   34.90    3.00
   3   5   6   32.80    3.00
   3   5   6   33.10    3.60
   3   5   6   38.70    3.00
   3   5   6   33.40    2.90
  -3  -5  -6   36.60    3.60
  -3  -5  -6   41.00    3.50
  -3  -5  -6   35.20    3.80
  -3  -5  -6   40.00    3.70
  -3  -5  -6   39.90    3.40
   2   5   6    4.70    0.70
   2   5   6    4.00    0.60
   2   5   6    3.60    0.80
   2   5   6    4.90    1.70
  -2  -5  -6    3.20    1.00
  -2  -5  -6    3.00    2.50
  -2  -5  -6    3.40    1.00
  -2  -5  -6    3.60    1.20
  -2  -5  -6    5.00    1.20
   1   5   6  335.47   27.70
   1   5   6  375.76   27.40
   1   5   6  336.77   27.60
   1   5   6  383.06   28.60
  -1  -5  -6  323.97   27.80
  -1  -5  -6  352.46   27.90
  -1  -5  -6  338.47   27.90
  -1  -5  -6  361.46   27.70
  -1  -5  -6  325.87   27.80
  -1  -5  -6  394.86   27.60
   0   5   6  691.73   51.19
   0   5   6  641.84   51.49
   0   5   6  616.74   51.19
   0   5   6  746.63   51.49
   0   5   6  593.04   51.19
   0  -5  -6  642.74   51.29
   0  -5  -6  659.23   51.69
   0  -5  -6  675.13   51.69
   0  -5  -6  696.53   51.59
   0  -5  -6  674.73   51.79
   0  -5  -6  645.74   51.79
  -1   5   6  692.23   47.20
  -1   5   6  532.05   47.40
  -1   5   6  559.94   47.20
  -1   5   6  680.93   47.20
   1  -5  -6  580.74   47.30
   1  -5  -6  615.84   47.80
   1  -5  -6  598.74   47.50
   1  -5  -6  615.64   47.80
   1  -5  -6  602.34   47.90
  -2   5   6  135.59   10.30
  -2   5   6  134.99   10.60
  -2   5   6  114.69   10.30
  -2   5   6  112.09   10.30
   2  -5  -6  143.09   11.20
   2  -5  -6  150.58   11.40
   2  -5  -6  151.08   11.20
   2  -5  -6  121.49   10.60
   2  -5  -6  122.49   10.40
  -3   5   6   -0.30    1.10
  -3   5   6   -0.50    1.00
  -3   5   6    0.20    1.10
  -3   5   6    0.00    1.70
  -3   5   6    1.40    1.20
  -3   5   6   -0.40    2.20
   3  -5  -6    1.10    1.80
   3  -5  -6    0.00    0.40
   3  -5  -6   -2.30    1.30
   3  -5  -6    2.80    1.90
  -4   5   6    5.40    1.50
  -4   5   6    2.30    1.50
  -4   5   6   -0.30    2.60
  -4   5   6    1.30    1.70
  -4   5   6    1.60    1.10
   4  -5  -6    3.00    1.70
   4  -5  -6    0.90    0.50
   4  -5  -6    0.80    2.20
   4  -5  -6    2.30    2.00
  -5   5   6    0.60    2.60
  -5   5   6    1.50    1.10
  -5   5   6    0.90    1.10
  -5   5   6    2.60    1.60
  -5   5   6    1.60    1.00
   5  -5  -6   -0.10    1.70
   5  -5  -6    2.70    2.60
  -6   5   6   19.00    2.20
  -6   5   6   20.90    2.10
   9   6   5   18.80    2.20
   9   6   5   17.50    1.70
  -9  -6  -5   19.70    2.10
  -9  -6  -5   13.80    3.30
   8   6   5   35.40    3.30
   8   6   5   46.20    3.40
  -8  -6  -5   34.70    4.00
  -8  -6  -5   43.10    4.40
  -8  -6  -5   40.90    3.90
   7   6   5   53.39    4.50
   7   6   5   59.69    4.50
  -7  -6  -5   50.49    5.10
  -7  -6  -5   52.89    5.20
   6   6   5    1.20    0.60
   6   6   5    0.20    0.40
  -6  -6  -5    3.90    2.60
  -6  -6  -5    1.30    2.90
  -6  -6  -5   -1.10    1.00
  -6  -6  -5    1.10    1.20
   5   6   5   33.40    2.80
   5   6   5   34.10    2.70
   5   6   5   30.00    2.60
  -5  -6  -5   29.50    3.10
  -5  -6  -5   26.70    3.70
  -5  -6  -5   29.10    3.90
  -5  -6  -5   31.50    3.20
   4   6   5   55.89    4.20
   4   6   5   54.69    4.20
   4   6   5   52.29    4.10
   4   6   5   53.39    4.70
   4   6   5   53.69    4.20
  -4  -6  -5   41.90    4.90
  -4  -6  -5   47.70    4.50
  -4  -6  -5   57.29    5.00
  -4  -6  -5   47.70    4.70
  -4  -6  -5   42.00    5.10
   3   6   5   10.80    1.10
   3   6   5   11.40    1.30
   3   6   5   11.00    1.20
   3   6   5   10.50    1.30
   3   6   5    7.80    1.70
  -3  -6  -5   13.20    2.20
  -3  -6  -5   10.50    1.70
  -3  -6  -5   10.10    1.60
  -3  -6  -5   12.90    2.60
  -3  -6  -5    9.40    2.50
  -3  -6  -5   11.70    2.10
   2   6   5   26.30    2.30
   2   6   5   27.70    2.30
   2   6   5   25.50    2.10
  -2  -6  -5   23.80    3.00
  -2  -6  -5   22.30    2.70
  -2  -6  -5   24.40    3.00
  -2  -6  -5   26.00    3.10
  -2  -6  -5   23.30    2.60
  -2  -6  -5   17.50    3.40
   1   6   5  152.08   11.20
   1   6   5  145.89   11.20
   1   6   5  137.49   11.40
   1   6   5  124.89   11.80
   1   6   5  148.69   11.50
   1   6   5  154.48   11.30
  -1  -6  -5  137.79   11.70
  -1  -6  -5  146.99   11.40
  -1  -6  -5  134.19   11.80
  -1  -6  -5  140.69   11.90
  -1  -6  -5  142.89   12.20
   0   6   5   59.49    5.90
   0   6   5   66.59    5.80
   0   6   5   65.19    5.70
   0   6   5   81.79    5.70
   0   6   5   68.59    5.60
   0   6   5   73.49    5.70
   0  -6  -5   72.49    6.30
   0  -6  -5   77.79    6.50
   0  -6  -5   75.09    6.50
   0  -6  -5   72.79    5.90
   0  -6  -5   76.79    6.30
   0  -6  -5   61.09    5.90
  -1   6   5   15.80    2.00
  -1   6   5   16.10    2.00
  -1   6   5   19.70    1.90
  -1   6   5   19.50    2.10
   1  -6  -5   17.00    2.40
   1  -6  -5   15.40    2.00
   1  -6  -5   12.00    2.10
   1  -6  -5   19.40    2.90
   1  -6  -5   21.30    3.10
   1  -6  -5   20.60    3.00
  -2   6   5   29.60    2.60
  -2   6   5   26.50    2.70
  -2   6   5   26.80    2.80
  -2   6   5   24.80    2.70
   2  -6  -5   20.20    3.00
   2  -6  -5   27.50    3.60
   2  -6  -5   32.90    3.10
   2  -6  -5   28.70    3.90
   2  -6  -5   28.40    3.80
  -3   6   5   11.10    1.90
  -3   6   5   13.80    1.80
  -3   6   5   15.30    1.70
  -3   6   5    7.90    2.20
   3  -6  -5   19.10    2.90
   3  -6  -5   14.00    2.90
   3  -6  -5   18.20    3.50
  -4   6   5   27.70    2.50
  -4   6   5   22.90    2.60
  -4   6   5   22.80    2.60
   4  -6  -5   23.40    3.30
   4  -6  -5   30.10    4.40
   4  -6  -5   24.20    3.90
  -5   6   5   -0.50    1.40
  -5   6   5    1.20    1.10
  -5   6   5    2.30    1.10
  -5   6   5    1.90    1.20
   5  -6  -5    1.20    2.20
  -6   6   5    4.40    1.10
   9   7   4    9.70    1.20
   9   7   4   14.90    1.40
  -9  -7  -4   14.90    2.40
  -9  -7  -4   11.30    2.00
   8   7   4   24.20    2.20
   8   7   4   18.90    2.00
  -8  -7  -4   23.50    3.30
  -8  -7  -4   25.10    2.80
  -8  -7  -4   21.40    3.10
   7   7   4    4.30    0.80
   7   7   4    6.40    1.20
  -7  -7  -4    3.20    1.30
   6   7   4   16.30    1.60
   6   7   4   13.80    1.40
   6   7   4   14.60    1.40
  -6  -7  -4   15.50    2.60
  -6  -7  -4   14.40    2.20
  -6  -7  -4   12.70    2.70
  -6  -7  -4   10.30    2.70
   5   7   4   52.09    4.20
   5   7   4   53.89    4.30
   5   7   4   46.50    4.00
   5   7   4   46.50    4.10
   5   7   4   55.39    4.20
  -5  -7  -4   52.09    4.60
  -5  -7  -4   48.40    4.70
  -5  -7  -4   41.90    5.10
  -5  -7  -4   51.39    5.10
   4   7   4  150.88   11.80
   4   7   4  151.38   11.70
   4   7   4  160.58   11.90
   4   7   4  145.89   11.70
  -4  -7  -4  137.49   12.00
  -4  -7  -4  142.09   12.40
  -4  -7  -4  158.18   12.60
   3   7   4  174.18   12.80
   3   7   4  150.08   13.10
   3   7   4  178.78   12.90
   3   7   4  171.48   12.80
   3   7   4  165.88   12.90
  -3  -7  -4  171.48   13.60
  -3  -7  -4  150.18   13.10
  -3  -7  -4  139.49   13.20
  -3  -7  -4  175.28   13.60
   2   7   4   58.49    4.80
   2   7   4   63.79    4.70
   2   7   4   64.09    4.80
   2   7   4   54.99    4.90
   2   7   4   60.89    4.90
   2   7   4   49.90    4.90
  -2  -7  -4   63.69    5.70
  -2  -7  -4   60.49    5.60
  -2  -7  -4   50.39    5.10
  -2  -7  -4   63.19    5.30
   1   7   4   29.20    2.50
   1   7   4   29.20    2.60
   1   7   4   23.90    2.60
   1   7   4   29.70    2.30
   1   7   4   30.10    2.70
   1   7   4   31.80    2.60
  -1  -7  -4   26.40    3.00
  -1  -7  -4   26.80    3.50
  -1  -7  -4   31.90    3.70
  -1  -7  -4   23.40    2.80
  -1  -7  -4   26.40    3.40
   0   7   4   25.00    2.50
   0   7   4   25.60    2.60
   0   7   4   22.50    2.60
   0   7   4   29.90    2.50
   0   7   4   27.40    2.30
   0   7   4   29.70    2.60
   0  -7  -4   31.20    3.50
   0  -7  -4   25.80    3.50
   0  -7  -4   21.00    3.40
   0  -7  -4   26.90    3.60
   0  -7  -4   27.60    3.60
   0  -7  -4   26.90    2.80
  -1   7   4  122.19   10.70
  -1   7   4  143.69   10.60
  -1   7   4  151.48   10.50
  -1   7   4  123.19   10.20
  -1   7   4  136.09   10.40
   1  -7  -4  146.79   11.50
   1  -7  -4  117.49   11.00
   1  -7  -4  129.49   10.60
   1  -7  -4  124.39   11.30
   1  -7  -4  143.39   11.50
   1  -7  -4  111.99   10.60
  -2   7   4    1.20    1.70
  -2   7   4    2.00    0.50
  -2   7   4    4.10    1.20
  -2   7   4    2.90    1.20
   2  -7  -4    2.20    2.10
   2  -7  -4    1.30    2.30
   2  -7  -4    4.60    2.10
   2  -7  -4    3.30    2.20
   2  -7  -4    2.60    0.70
  -3   7   4   40.30    3.70
  -3   7   4   37.30    3.70
  -3   7   4   45.20    3.60
   3  -7  -4   40.40    4.70
   3  -7  -4   36.50    5.00
  -4   7   4   -0.30    1.20
  -4   7   4   -0.60    1.30
  -4   7   4   -0.80    1.00
  -4   7   4    0.90    1.10
   4  -7  -4    1.60    2.40
   4  -7  -4    1.40    1.90
  -5   7   4    7.00    1.30
  -5   7   4    8.20    1.40
  -5   7   4   10.50    1.30
   5  -7  -4    9.20    2.80
   9   8   3    2.50    0.50
  -9  -8  -3    3.20    1.60
   8   8   3   42.70    3.50
   8   8   3   36.10    3.20
  -8  -8  -3   40.90    4.50
  -8  -8  -3   46.30    4.00
  -8  -8  -3   32.50    4.40
   7   8   3   17.80    1.70
   7   8   3   16.20    1.60
   7   8   3   18.70    1.90
  -7  -8  -3   20.20    2.60
  -7  -8  -3   19.10    3.20
  -7  -8  -3   16.10    2.90
   6   8   3   33.30    3.10
   6   8   3   31.80    2.90
   6   8   3   31.50    2.80
   6   8   3   31.70    3.00
   6   8   3   28.00    2.60
  -6  -8  -3   27.90    3.90
  -6  -8  -3   33.40    3.90
  -6  -8  -3   35.30    3.40
   5   8   3    8.70    1.40
   5   8   3    7.50    1.10
   5   8   3    7.00    1.00
   5   8   3    7.80    1.20
   5   8   3    6.40    0.80
  -5  -8  -3    5.80    2.10
  -5  -8  -3    5.80    1.70
  -5  -8  -3    3.20    2.20
  -5  -8  -3    4.20    1.60
  -5  -8  -3    5.40    1.50
   4   8   3   23.50    2.30
   4   8   3   23.90    2.00
   4   8   3   26.00    2.20
   4   8   3   24.40    2.40
  -4  -8  -3   24.10    3.30
  -4  -8  -3   16.30    3.30
  -4  -8  -3   24.10    2.70
  -4  -8  -3   25.70    3.70
  -4  -8  -3   22.30    3.00
   3   8   3    4.60    1.00
   3   8   3    4.50    1.00
   3   8   3    7.50    1.60
   3   8   3    5.60    0.90
   3   8   3    4.90    0.60
  -3  -8  -3    3.30    1.90
  -3  -8  -3    1.80    1.80
  -3  -8  -3    5.10    2.10
  -3  -8  -3    5.30    1.60
  -3  -8  -3    6.60    1.50
  -3  -8  -3    1.70    1.80
   2   8   3   68.19    5.80
   2   8   3   73.89    5.70
   2   8   3   75.19    5.80
   2   8   3   72.29    6.10
   2   8   3   60.09    5.80
   2   8   3   72.69    5.70
  -2  -8  -3   65.09    5.90
  -2  -8  -3   73.29    6.10
  -2  -8  -3   69.19    6.10
  -2  -8  -3   69.29    6.80
  -2  -8  -3   73.19    6.80
   1   8   3  141.49   11.40
   1   8   3  141.39   11.20
   1   8   3  147.69   11.20
   1   8   3  144.79   11.30
  -1  -8  -3  141.19   11.40
  -1  -8  -3  137.99   12.10
  -1  -8  -3  136.29   12.00
  -1  -8  -3  140.99   12.20
   0   8   3   80.49    6.30
   0   8   3   72.29    6.50
   0   8   3   77.59    6.40
   0   8   3   71.39    6.30
   0  -8  -3   78.29    7.30
   0  -8  -3   81.29    6.60
   0  -8  -3   84.09    7.70
   0  -8  -3   83.19    7.30
  -1   8   3    1.60    1.40
  -1   8   3    2.70    1.30
  -1   8   3    4.90    1.10
  -1   8   3    5.90    1.40
  -1   8   3    4.60    1.20
   1  -8  -3    2.40    1.20
   1  -8  -3    2.70    2.70
   1  -8  -3   -1.20    2.30
   1  -8  -3    1.20    3.30
   1  -8  -3    3.60    2.00
  -2   8   3    3.90    1.10
  -2   8   3    7.70    1.40
  -2   8   3    7.40    1.50
  -2   8   3    6.60    1.10
   2  -8  -3    2.60    2.30
   2  -8  -3    2.70    2.30
   2  -8  -3   10.30    2.70
  -3   8   3    1.90    0.90
  -3   8   3    4.50    1.30
  -3   8   3    1.80    1.30
  -3   8   3    3.10    1.10
   3  -8  -3   -0.20    1.70
   3  -8  -3    2.70    2.00
   3  -8  -3    0.60    2.10
  -4   8   3    2.10    0.90
  -4   8   3    1.60    1.00
  -4   8   3    0.90    1.00
  -4   8   3    2.00    0.80
   4  -8  -3    5.00    2.40
   9   9   2    9.20    1.20
  -9  -9  -2    8.30    2.40
  -9  -9  -2    7.60    1.50
  -9  -9  -2    8.10    2.00
   8   9   2   27.80    2.70
   8   9   2   22.10    3.00
  -8  -9  -2   35.40    4.00
  -8  -9  -2   31.30    3.10
   7   9   2   14.20    1.70
   7   9   2   17.70    1.80
  -7  -9  -2   14.00    2.80
  -7  -9  -2   13.40    2.80
  -7  -9  -2   17.20    2.30
   6   9   2   16.50    2.00
   6   9   2   17.30    2.10
   6   9   2   14.90    1.80
   6   9   2   16.90    1.90
  -6  -9  -2   20.70    3.10
  -6  -9  -2   17.60    2.40
  -6  -9  -2   14.10    3.00
   5   9   2    3.10    1.00
   5   9   2    3.90    1.20
   5   9   2    3.90    1.10
   5   9   2    2.80    1.10
  -5  -9  -2    5.10    1.70
  -5  -9  -2    2.50    1.80
  -5  -9  -2    2.60    2.10
  -5  -9  -2    4.20    2.60
   4   9   2   66.59    5.20
   4   9   2   62.79    5.40
   4   9   2   63.39    5.40
  -4  -9  -2   61.89    6.60
  -4  -9  -2   65.79    6.40
  -4  -9  -2   68.39    5.90
  -4  -9  -2   60.69    5.40
  -4  -9  -2   55.29    5.70
   3   9   2   18.70    1.80
   3   9   2   17.40    1.90
   3   9   2   14.30    1.90
   3   9   2   17.60    2.00
  -3  -9  -2   14.70    2.50
  -3  -9  -2   21.20    3.80
  -3  -9  -2   17.10    3.20
  -3  -9  -2   18.40    2.80
   2   9   2   12.90    1.50
   2   9   2    9.90    1.50
   2   9   2   11.90    1.60
   2   9   2   10.10    1.60
   2   9   2   11.10    1.70
  -2  -9  -2   11.50    2.30
  -2  -9  -2    9.40    1.80
  -2  -9  -2   13.50    3.20
  -2  -9  -2    8.10    2.90
   1   9   2   22.30    2.10
   1   9   2   23.40    2.10
   1   9   2   21.80    2.20
  -1  -9  -2   16.10    2.30
  -1  -9  -2   17.00    3.60
  -1  -9  -2   25.60    3.90
   0   9   2   17.20    1.60
   0   9   2   14.60    1.90
   0   9   2   13.20    1.60
   0   9   2    8.40    2.70
   0   9   2   15.30    1.80
   0  -9  -2    8.50    3.20
   0  -9  -2   10.70    2.70
   0  -9  -2   11.10    2.90
  -1   9   2   17.80    1.90
  -1   9   2   20.30    2.20
  -1   9   2   17.80    2.00
  -1   9   2   18.00    1.90
   1  -9  -2   15.10    3.40
   1  -9  -2   15.80    3.10
  -2   9   2    9.90    1.30
  -2   9   2    7.90    1.50
  -2   9   2    7.60    1.20
  -2   9   2    9.40    1.30
   2  -9  -2    6.10    2.90
   2  -9  -2    7.10    2.50
  -3   9   2    8.60    1.50
  -3   9   2   10.50    1.30
   3  -9  -2    5.80    3.40
  -8 -10  -1   10.40    2.50
  -8 -10  -1    6.90    2.00
   7  10   1   17.20    2.10
   7  10   1   16.20    1.70
  -7 -10  -1   13.50    2.40
  -7 -10  -1   11.30    2.10
  -7 -10  -1   18.40    3.00
   6  10   1    6.00    1.30
   6  10   1    4.50    1.10
   6  10   1    6.00    1.10
   6  10   1    5.90    1.20
  -6 -10  -1    3.60    2.20
  -6 -10  -1    1.40    2.50
  -6 -10  -1    6.00    2.60
   5  10   1    6.80    1.30
   5  10   1    4.70    1.10
   5  10   1    4.80    1.00
   5  10   1    4.00    1.20
  -5 -10  -1    0.30    2.50
  -5 -10  -1    3.00    2.50
  -5 -10  -1    7.60    2.20
   4  10   1    7.90    1.40
   4  10   1    6.80    1.30
   4  10   1    9.20    1.30
  -4 -10  -1    3.90    3.00
  -4 -10  -1    8.20    3.10
  -4 -10  -1    9.10    2.30
   3  10   1    8.50    1.60
   3  10   1    8.20    1.30
   3  10   1   10.10    1.30
   3  10   1   10.80    1.40
  -3 -10  -1    6.10    2.80
  -3 -10  -1    4.00    3.40
  -3 -10  -1   12.20    3.00
   2  10   1    1.10    0.90
   2  10   1    0.60    0.70
   2  10   1    0.20    0.90
   2  10   1   -1.90    0.90
   2  10   1    1.80    0.90
  -2 -10  -1    1.70    2.60
  -2 -10  -1    0.50    2.20
   1  10   1   15.90    1.90
   1  10   1   19.80    1.80
   1  10   1   15.50    2.00
   1  10   1   17.20    1.80
   1  10   1   15.50    2.00
  -1 -10  -1   16.50    3.50
   0  10   1   15.40    2.00
   0  10   1   16.60    1.70
   0  10   1   13.70    2.20
  -1  10   1   35.40    3.20
  -1  10   1   33.10    3.00
  -1  10   1   34.40    3.00
  -5 -11   0   -0.20    2.30
   4  11   0    6.60    1.00
   4  11   0    6.80    1.10
  -3 -11   0   -0.70    2.10
   3   1  11    6.00    2.30
  -3  -1 -11    8.90    1.90
  -3  -1 -11    9.40    1.50
  -3  -1 -11    5.00    1.50
  -2  -1 -11   27.30    3.00
  -2  -1 -11   17.90    2.50
  -2  -1 -11   21.70    2.60
   1   1  11    6.00    2.30
   1   1  11    5.40    0.80
  -1  -1 -11    8.50    1.80
  -1  -1 -11   10.10    1.80
  -1  -1 -11    8.00    2.30
  -1  -1 -11   10.60    2.10
   0   1  11   17.40    1.80
   0   1  11   21.70    3.40
   0  -1 -11   20.70    2.90
   0  -1 -11   24.30    2.70
   0  -1 -11   24.40    3.00
   0  -1 -11   25.90    3.10
  -1   1  11   -0.80    1.70
  -1   1  11    1.70    0.50
   1  -1 -11    2.10    1.30
   1  -1 -11    3.10    1.80
   1  -1 -11    3.80    1.70
   1  -1 -11   -1.00    1.60
   2  -1 -11   38.10    4.00
   2  -1 -11   37.10    4.20
   2  -1 -11   33.80    4.10
   2  -1 -11   38.50    3.40
   2  -1 -11   32.90    4.10
   3  -1 -11   36.00    3.20
   3  -1 -11   34.40    3.90
   3  -1 -11   29.10    3.80
   3  -1 -11   32.00    3.60
   3  -1 -11   33.30    3.40
   5   2  10    1.20    2.30
   5   2  10    2.40    0.50
  -5  -2 -10    2.10    0.90
  -5  -2 -10    3.80    1.40
  -5  -2 -10    2.60    1.60
   4   2  10    9.70    3.00
   4   2  10   11.60    1.20
  -4  -2 -10   14.10    2.10
  -4  -2 -10   15.60    1.80
   3   2  10    1.50    0.40
   3   2  10    1.50    1.90
  -3  -2 -10    3.90    1.50
  -3  -2 -10    2.20    1.10
  -3  -2 -10    3.30    1.20
   2   2  10    6.30    0.90
   2   2  10    6.40    2.70
  -2  -2 -10    6.80    1.70
  -2  -2 -10    9.30    2.10
  -2  -2 -10    9.30    2.30
  -2  -2 -10   10.00    1.70
   1   2  10   28.20    2.70
   1   2  10   27.70    4.60
  -1  -2 -10   40.40    3.80
  -1  -2 -10   32.10    3.70
  -1  -2 -10   33.30    3.50
  -1  -2 -10   35.50    3.40
   0   2  10   13.70    3.00
   0   2  10   10.60    1.30
   0  -2 -10   15.10    2.20
   0  -2 -10   18.20    2.70
   0  -2 -10   15.30    2.50
   0  -2 -10   13.30    2.40
  -1   2  10    3.30    2.80
  -1   2  10    2.30    2.00
  -1   2  10    6.00    0.90
   1  -2 -10    9.10    2.00
   1  -2 -10    9.60    2.10
   1  -2 -10    3.90    0.80
   1  -2 -10    5.50    1.20
   1  -2 -10    7.20    2.10
   1  -2 -10    8.90    1.70
   2  -2 -10  170.78   14.60
   2  -2 -10  184.48   15.10
   2  -2 -10  187.98   14.90
   2  -2 -10  173.88   14.30
   2  -2 -10  183.08   15.00
   3  -2 -10   28.20    2.80
   3  -2 -10   28.60    3.10
   3  -2 -10   28.10    3.60
   3  -2 -10   22.30    2.90
   3  -2 -10   26.30    3.40
  -4   2  10   -2.10    2.60
  -4   2  10    0.80    2.10
   4  -2 -10    4.90    2.00
   4  -2 -10    3.00    1.80
   4  -2 -10    5.70    1.70
  -5   2  10   -0.50    1.20
  -5   2  10    0.20    1.90
   5  -2 -10    2.10    1.50
   5  -2 -10    3.90    1.90
   7   3   9   24.00    2.10
   6   3   9   22.40    4.10
   6   3   9   20.70    2.00
  -6  -3  -9   27.50    3.00
  -6  -3  -9   26.10    3.00
   5   3   9   10.80    1.20
   5   3   9    9.60    2.90
  -5  -3  -9   11.10    1.70
  -5  -3  -9   14.40    2.10
  -5  -3  -9   10.70    1.80
   4   3   9   10.00    3.00
   4   3   9   10.40    1.20
  -4  -3  -9   13.80    2.40
  -4  -3  -9   10.50    1.70
   3   3   9   10.00    1.30
   3   3   9    9.80    3.10
  -3  -3  -9   13.10    1.90
  -3  -3  -9   14.10    1.90
  -3  -3  -9   15.10    2.30
  -3  -3  -9   13.40    2.00
   2   3   9  103.19    9.50
   2   3   9  119.29    9.70
   2   3   9  106.09   11.30
  -2  -3  -9  120.69    9.90
  -2  -3  -9  126.39    9.90
  -2  -3  -9  136.89   10.30
  -2  -3  -9  133.19   10.20
   1   3   9    2.80    2.70
   1   3   9   10.40    2.00
   1   3   9    7.70    2.70
   1   3   9    5.50    0.90
  -1  -3  -9   10.10    1.90
  -1  -3  -9    7.70    1.70
  -1  -3  -9    9.00    1.80
  -1  -3  -9    7.20    1.80
  -1  -3  -9   10.50    2.10
   0  -3  -9  661.83   51.19
   0  -3  -9  630.84   50.89
   0  -3  -9  663.33   51.09
  -1   3   9   15.20    2.60
  -1   3   9   12.10    1.60
   1  -3  -9   21.20    2.40
   1  -3  -9   19.50    2.80
   1  -3  -9   17.90    2.00
   1  -3  -9   17.00    2.90
   1  -3  -9   18.70    2.60
   2  -3  -9   21.40    2.60
   2  -3  -9   24.30    3.20
   2  -3  -9   25.80    2.50
   2  -3  -9   18.00    2.70
   2  -3  -9   22.50    3.00
   3  -3  -9   10.00    2.00
   3  -3  -9   16.70    3.00
   3  -3  -9   14.00    2.80
   3  -3  -9   13.60    2.00
   4  -3  -9   13.90    2.90
   4  -3  -9   18.50    3.10
   4  -3  -9   19.60    3.30
   4  -3  -9   16.00    2.40
  -5   3   9    1.40    1.50
  -5   3   9    0.10    2.20
   5  -3  -9    1.60    1.70
   5  -3  -9    1.50    1.70
   5  -3  -9   -1.50    1.70
   8   4   8    5.80    0.80
   7   4   8    0.20    0.40
  -7  -4  -8   -0.30    1.50
  -7  -4  -8    0.40    0.90
   6   4   8    2.80    0.60
  -6  -4  -8    3.60    1.50
   5   4   8    4.50    2.20
   5   4   8    7.60    1.20
  -5  -4  -8    8.80    1.70
  -5  -4  -8    9.80    1.80
  -5  -4  -8    7.70    2.00
   4   4   8   61.49    7.20
  -4  -4  -8   63.09    5.50
  -4  -4  -8   63.59    5.80
  -4  -4  -8   68.29    6.00
  -4  -4  -8   63.29    5.30
   3   4   8   25.70    2.50
   3   4   8   27.00    4.50
   3   4   8   30.20    3.10
  -3  -4  -8   32.70    2.80
  -3  -4  -8   28.30    2.90
  -3  -4  -8   29.90    3.00
  -3  -4  -8   32.20    3.30
  -3  -4  -8   27.20    3.00
   2   4   8    7.00    1.00
   2   4   8    9.90    1.80
  -2  -4  -8    8.60    1.40
  -2  -4  -8    6.70    1.40
  -2  -4  -8    6.80    1.60
  -2  -4  -8    6.10    1.90
  -2  -4  -8    8.50    1.70
  -2  -4  -8    8.50    1.60
   1   4   8   29.00    3.00
  -1  -4  -8   34.70    3.10
  -1  -4  -8   38.90    3.80
  -1  -4  -8   37.40    3.50
  -1  -4  -8   36.50    3.60
  -1  -4  -8   38.10    3.80
   0   4   8    4.80    0.90
   0   4   8    3.20    2.60
   0   4   8    4.10    2.10
   0   4   8    5.20    0.90
   0  -4  -8    8.10    2.30
   0  -4  -8    5.50    1.70
   0  -4  -8    7.20    1.20
   0  -4  -8    5.80    1.60
   0  -4  -8    7.20    1.80
   0  -4  -8    6.60    1.50
  -1   4   8   17.00    1.50
   1  -4  -8   16.60    2.90
   1  -4  -8   15.50    2.20
   1  -4  -8   20.20    2.60
   1  -4  -8   13.90    2.30
   1  -4  -8   13.70    2.70
  -2   4   8   55.09    4.20
   2  -4  -8   44.60    4.70
   2  -4  -8   54.89    5.50
   2  -4  -8   48.20    5.00
   2  -4  -8   55.69    5.30
  -3   4   8  102.49    8.70
   3  -4  -8  109.59    9.80
   3  -4  -8  111.29    9.60
   3  -4  -8  126.89   10.50
  -4   4   8    2.50    2.70
  -4   4   8    8.50    1.50
  -4   4   8    7.90    2.00
   4  -4  -8   15.10    2.60
   4  -4  -8   15.70    2.70
   4  -4  -8    7.90    1.00
  -5   4   8    1.70    1.30
  -5   4   8    2.70    1.60
  -5   4   8    1.30    2.20
   5  -4  -8    8.90    2.30
  -6   4   8    1.80    2.20
  -6   4   8    3.10    1.40
   6  -4  -8    4.90    1.80
   8   5   7    6.30    0.90
  -8  -5  -7    6.80    1.20
   7   5   7   20.40    2.00
  -7  -5  -7   22.50    2.60
  -7  -5  -7   23.90    2.80
   6   5   7    9.90    1.40
  -6  -5  -7   10.60    2.10
  -6  -5  -7   12.80    2.20
   5   5   7    7.40    0.90
  -5  -5  -7    5.00    1.50
  -5  -5  -7    6.50    2.40
  -5  -5  -7    8.60    1.60
  -5  -5  -7    6.10    2.00
   4   5   7   79.29    6.60
   4   5   7   85.59    6.80
  -4  -5  -7   87.69    7.40
  -4  -5  -7   89.99    7.30
  -4  -5  -7   70.29    7.00
  -4  -5  -7   89.89    7.10
   3   5   7   54.09    4.80
   3   5   7   59.09    4.80
   3   5   7   53.59    5.40
  -3  -5  -7   59.19    5.30
  -3  -5  -7   66.19    5.50
  -3  -5  -7   66.99    5.30
  -3  -5  -7   61.89    5.30
   2   5   7   44.70    3.60
   2   5   7   39.60    3.60
  -2  -5  -7   47.10    4.30
  -2  -5  -7   37.10    5.20
  -2  -5  -7   44.80    4.00
  -2  -5  -7   43.10    4.30
  -2  -5  -7   45.60    4.10
  -2  -5  -7   46.50    4.00
   1   5   7   16.60    1.80
   1   5   7   20.90    1.70
   1   5   7   13.30    1.70
   1   5   7   18.50    2.80
  -1  -5  -7   18.00    2.20
  -1  -5  -7   18.40    2.40
  -1  -5  -7   18.80    2.50
  -1  -5  -7   21.10    2.50
  -1  -5  -7   17.60    2.10
  -1  -5  -7   19.20    2.60
   0   5   7  140.09   10.30
   0   5   7  123.79   10.20
   0   5   7  123.69   10.60
   0  -5  -7  133.49   11.00
   0  -5  -7  142.49   10.90
   0  -5  -7  134.39   11.10
   0  -5  -7  121.69   10.40
   0  -5  -7  129.89   10.90
  -1   5   7  584.84   46.20
  -1   5   7  652.63   45.80
  -1   5   7  608.04   45.80
  -1   5   7  569.44   46.20
   1  -5  -7  576.14   46.50
   1  -5  -7  635.74   46.50
   1  -5  -7  506.15   45.90
   1  -5  -7  604.74   46.60
   1  -5  -7  599.44   46.70
   1  -5  -7  583.14   46.30
  -2   5   7  438.36   34.70
  -2   5   7  441.96   34.30
   2  -5  -7  385.46   34.60
   2  -5  -7  447.96   35.10
   2  -5  -7  465.35   35.30
   2  -5  -7  463.85   35.10
   2  -5  -7  457.15   35.20
  -3   5   7   32.20    2.70
  -3   5   7   31.60    2.70
   3  -5  -7   23.10    2.50
  -4   5   7    3.00    1.50
  -4   5   7   -0.20    2.20
  -4   5   7    4.50    0.90
  -4   5   7    4.30    1.20
  -4   5   7    2.10    1.70
   4  -5  -7    4.20    2.00
   4  -5  -7    3.60    1.60
   4  -5  -7    4.60    2.70
   4  -5  -7    2.50    0.50
  -5   5   7    5.50    1.20
  -5   5   7    8.50    1.30
  -5   5   7    3.70    1.70
  -5   5   7    6.90    1.20
   5  -5  -7   11.80    2.80
   5  -5  -7    9.40    2.40
  -6   5   7    3.10    1.00
   9   6   6   12.40    1.20
  -9  -6  -6   11.30    1.60
  -9  -6  -6    9.80    1.80
   8   6   6   26.00    2.00
   8   6   6   19.10    2.00
  -8  -6  -6   22.70    3.00
  -8  -6  -6   21.00    2.60
   7   6   6    2.00    0.50
   7   6   6    2.30    0.70
  -7  -6  -6    0.30    1.10
  -7  -6  -6    2.50    1.40
  -7  -6  -6    3.70    1.80
   6   6   6    5.30    0.80
   6   6   6    2.80    0.60
  -6  -6  -6    4.40    1.50
  -6  -6  -6    4.80    1.30
  -6  -6  -6    4.00    2.00
  -6  -6  -6    3.70    1.50
   5   6   6    2.70    0.60
   5   6   6    4.20    0.70
   5   6   6    4.20    0.90
  -5  -6  -6    0.50    2.60
  -5  -6  -6    2.10    2.20
  -5  -6  -6    4.30    1.90
  -5  -6  -6    2.70    1.20
  -5  -6  -6    2.20    1.30
   4   6   6   86.49    7.60
   4   6   6  106.59    8.10
   4   6   6  106.79    7.70
   4   6   6   87.19    7.60
   4   6   6   97.99    7.60
  -4  -6  -6   85.39    8.20
  -4  -6  -6   94.59    8.00
  -4  -6  -6   97.59    8.30
  -4  -6  -6  106.79    8.50
   3   6   6  251.77   19.80
   3   6   6  258.17   19.80
   3   6   6  283.87   19.90
   3   6   6  264.07   19.80
  -3  -6  -6  269.57   20.50
  -3  -6  -6  241.68   20.10
  -3  -6  -6  245.68   20.10
  -3  -6  -6  245.28   20.40
  -3  -6  -6  231.08   20.10
   2   6   6  327.07   23.30
   2   6   6  323.97   23.30
   2   6   6  285.67   23.30
  -2  -6  -6  262.07   23.50
  -2  -6  -6  300.77   23.90
  -2  -6  -6  304.57   23.90
  -2  -6  -6  310.47   23.50
  -2  -6  -6  279.67   23.70
   1   6   6  805.82   64.89
   1   6   6  885.11   65.19
   1   6   6  780.82   64.89
  -1  -6  -6  929.61   65.59
  -1  -6  -6  784.32   65.49
  -1  -6  -6  929.41   65.09
  -1  -6  -6  855.11   65.59
  -1  -6  -6  740.23   65.09
  -1  -6  -6  847.02   65.49
   0   6   6    4.40    1.30
   0   6   6    3.10    0.70
   0   6   6    1.70    2.20
   0   6   6    4.30    0.70
   0   6   6    4.50    1.00
   0   6   6    3.20    1.00
   0   6   6    1.50    0.90
   0  -6  -6    3.40    1.80
   0  -6  -6    3.30    1.70
   0  -6  -6    5.70    1.70
   0  -6  -6    3.80    1.20
   0  -6  -6    4.40    1.60
   0  -6  -6    4.60    1.40
   0  -6  -6    4.60    1.80
  -1   6   6   25.60    2.40
  -1   6   6   21.30    2.50
  -1   6   6   18.70    2.30
  -1   6   6   28.10    2.30
   1  -6  -6   22.80    2.50
   1  -6  -6   30.20    3.50
   1  -6  -6   29.60    3.60
   1  -6  -6   28.80    3.30
   1  -6  -6   17.20    3.50
   1  -6  -6   26.00    2.90
  -2   6   6   20.40    2.30
  -2   6   6   25.70    2.30
  -2   6   6   21.50    2.30
  -2   6   6   26.70    2.50
   2  -6  -6   16.20    2.90
   2  -6  -6   25.50    3.50
   2  -6  -6   25.10    3.60
   2  -6  -6   28.50    3.80
  -3   6   6   11.60    2.30
  -3   6   6   10.90    1.60
  -3   6   6   13.00    1.50
   3  -6  -6   14.10    2.90
   3  -6  -6    8.60    2.90
   3  -6  -6   14.90    5.10
  -4   6   6   12.60    1.70
  -4   6   6    9.10    2.00
  -4   6   6   13.00    1.70
   4  -6  -6   20.00    3.80
   4  -6  -6   18.50    3.30
   4  -6  -6   13.70    2.40
  -5   6   6   19.90    2.00
   5  -6  -6   20.00    3.40
   5  -6  -6   20.80    4.60
   9   7   5   12.10    1.30
  -9  -7  -5   18.80    2.50
  -9  -7  -5   12.90    2.70
   8   7   5   21.30    1.90
   8   7   5   17.60    1.80
  -8  -7  -5   25.50    2.70
  -8  -7  -5   13.80    2.70
  -8  -7  -5   21.40    3.20
   7   7   5    4.60    0.70
   7   7   5    5.20    0.90
  -7  -7  -5    5.60    2.10
  -7  -7  -5    5.50    1.60
  -7  -7  -5    2.80    1.20
   6   7   5    1.90    0.80
   6   7   5    2.00    1.00
   6   7   5    1.30    0.50
  -6  -7  -5   -1.30    1.50
  -6  -7  -5   -0.10    1.50
  -6  -7  -5    0.80    1.90
  -6  -7  -5    1.60    1.40
   5   7   5   29.10    2.50
   5   7   5   25.90    2.60
   5   7   5   31.00    3.10
   5   7   5   25.80    2.30
  -5  -7  -5   26.40    3.10
  -5  -7  -5   26.10    3.00
  -5  -7  -5   22.10    4.10
  -5  -7  -5   30.50    4.60
  -5  -7  -5   24.90    3.40
   4   7   5    7.40    1.10
   4   7   5    6.90    1.80
   4   7   5    6.00    0.90
   4   7   5    9.40    1.20
   4   7   5    5.60    0.90
   4   7   5    9.10    1.30
  -4  -7  -5    6.50    2.60
  -4  -7  -5   10.40    2.70
  -4  -7  -5    8.40    2.00
  -4  -7  -5    6.40    1.90
  -4  -7  -5    5.00    1.50
   3   7   5  124.69    9.50
   3   7   5  128.19    9.70
   3   7   5  136.29    9.70
   3   7   5  121.69    9.50
  -3  -7  -5  103.79    9.90
  -3  -7  -5  125.89   10.40
  -3  -7  -5  108.89   10.10
   2   7   5  169.88   12.90
   2   7   5  171.98   13.00
   2   7   5  175.98   13.00
   2   7   5  156.38   13.00
   2   7   5  177.28   12.90
  -2  -7  -5  161.98   13.20
  -2  -7  -5  169.28   13.70
  -2  -7  -5  137.99   13.10
  -2  -7  -5  160.68   13.60
   1   7   5   22.90    2.00
   1   7   5   22.60    1.80
   1   7   5   22.80    2.10
   1   7   5   18.90    1.90
   1   7   5   16.90    2.10
   1   7   5   17.90    2.20
  -1  -7  -5   23.90    3.00
  -1  -7  -5   18.80    2.40
  -1  -7  -5   20.50    2.50
  -1  -7  -5   26.70    3.60
  -1  -7  -5   18.80    3.00
   0   7   5   31.20    3.60
   0   7   5   37.60    2.90
   0   7   5   36.20    2.70
   0   7   5   25.70    3.00
   0   7   5   30.80    3.00
   0   7   5   31.20    2.80
   0  -7  -5   28.20    4.10
   0  -7  -5   33.10    3.50
   0  -7  -5   33.30    3.80
   0  -7  -5   32.70    3.20
   0  -7  -5   35.00    4.00
   0  -7  -5   41.40    4.30
  -1   7   5   81.29    6.90
  -1   7   5   71.39    6.40
  -1   7   5   82.49    6.70
  -1   7   5   80.99    6.60
   1  -7  -5   83.99    7.50
   1  -7  -5   95.39    7.70
   1  -7  -5   88.09    7.80
   1  -7  -5   79.19    6.70
   1  -7  -5   73.29    8.40
  -2   7   5   11.30    1.40
  -2   7   5   15.60    1.90
  -2   7   5   18.80    2.00
   2  -7  -5   20.10    3.30
   2  -7  -5   19.60    3.30
   2  -7  -5   17.40    3.40
  -3   7   5   16.50    1.70
   3  -7  -5   19.60    1.70
   3  -7  -5   14.50    3.60
   3  -7  -5   28.90    3.90
   3  -7  -5   27.40    3.90
  -4   7   5    1.10    1.10
  -4   7   5    2.20    1.50
  -4   7   5    2.40    1.00
  -4   7   5    1.40    1.10
   4  -7  -5   -1.10    2.00
   4  -7  -5   -2.00    1.40
  -5   7   5    1.00    1.10
  -5   7   5    1.10    0.60
   5  -7  -5   -0.70    2.20
   9   8   4   31.90    2.50
   9   8   4   22.20    2.30
  -9  -8  -4   26.90    3.50
  -9  -8  -4   30.30    3.00
   8   8   4   15.30    1.60
   8   8   4    9.70    1.20
  -8  -8  -4   13.50    2.60
  -8  -8  -4   15.80    2.30
  -8  -8  -4   14.10    2.60
   7   8   4    3.80    0.90
   7   8   4    3.80    0.60
   7   8   4    5.40    1.10
  -7  -8  -4    2.30    2.50
  -7  -8  -4    7.80    2.00
  -7  -8  -4    7.30    2.20
  -7  -8  -4    4.80    2.00
   6   8   4   31.50    2.70
   6   8   4   39.70    3.30
   6   8   4   31.80    3.00
   6   8   4   29.70    2.70
   6   8   4   32.40    2.90
  -6  -8  -4   31.30    3.60
  -6  -8  -4   29.00    3.80
  -6  -8  -4   29.40    4.40
   5   8   4  112.89    9.10
   5   8   4  107.89    8.90
   5   8   4  117.29    9.20
   5   8   4  119.79    9.10
   5   8   4  116.49    9.00
  -5  -8  -4  108.29   10.00
  -5  -8  -4  121.89    9.80
  -5  -8  -4  108.69    9.40
  -5  -8  -4  111.09    9.80
   4   8   4   10.50    1.70
   4   8   4   11.00    1.10
   4   8   4   12.10    1.60
   4   8   4   11.40    1.30
  -4  -8  -4   16.70    3.70
  -4  -8  -4   13.60    3.00
  -4  -8  -4   11.90    2.40
  -4  -8  -4   10.00    1.90
   3   8   4    8.90    1.80
   3   8   4    7.80    1.30
   3   8   4    7.50    1.30
   3   8   4    7.30    1.00
   3   8   4    6.00    0.80
  -3  -8  -4    8.40    2.50
  -3  -8  -4    5.90    1.60
  -3  -8  -4    4.10    2.10
  -3  -8  -4    5.40    1.90
  -3  -8  -4    7.40    2.20
   2   8   4   13.40    2.50
   2   8   4   17.10    1.60
   2   8   4   16.00    1.40
   2   8   4   15.40    1.90
   2   8   4   13.10    1.80
  -2  -8  -4   13.80    2.20
  -2  -8  -4   15.20    2.50
  -2  -8  -4   17.00    2.50
  -2  -8  -4   19.20    3.10
  -2  -8  -4   13.40    2.80
   1   8   4  153.78   11.90
   1   8   4  144.09   11.70
   1   8   4  157.58   12.00
   1   8   4  159.58   11.90
   1   8   4  144.19   12.00
  -1  -8  -4  165.68   12.10
  -1  -8  -4  151.28   12.90
  -1  -8  -4  143.09   12.20
  -1  -8  -4  134.39   12.70
   0   8   4   18.10    2.00
   0   8   4   13.40    2.00
   0   8   4   16.80    1.80
   0   8   4   13.00    2.50
   0   8   4   19.30    1.80
   0  -8  -4   15.50    2.10
   0  -8  -4   25.30    3.60
   0  -8  -4   16.60    2.90
  -1   8   4   12.80    2.10
  -1   8   4   14.70    1.80
  -1   8   4   19.00    2.30
  -1   8   4   14.10    1.70
  -1   8   4    8.60    2.60
   1  -8  -4   15.50    2.60
   1  -8  -4   12.40    2.00
   1  -8  -4   17.00    3.20
   1  -8  -4   12.70    2.90
  -2   8   4    1.50    1.20
  -2   8   4    0.70    1.00
  -2   8   4    0.20    1.10
  -2   8   4   -2.00    1.30
   2  -8  -4    1.00    1.80
   2  -8  -4   -0.20    1.70
   2  -8  -4    3.70    2.30
  -3   8   4    2.10    1.20
  -3   8   4    4.50    1.20
  -3   8   4    6.30    1.30
  -3   8   4    1.80    1.30
  -3   8   4    2.90    0.90
   3  -8  -4    1.50    1.90
   3  -8  -4    2.40    2.50
   3  -8  -4    0.40    2.10
  -4   8   4    1.90    0.70
  -4   8   4    3.60    1.80
  -4   8   4   -0.50    1.60
  -4   8   4    2.80    1.10
  -4   8   4    5.20    0.90
   4  -8  -4    3.60    2.20
   4  -8  -4    1.70    1.80
   9   9   3   20.10    1.90
   9   9   3   14.80    1.60
  -9  -9  -3   20.20    2.30
  -9  -9  -3   17.80    2.90
   8   9   3    2.70    0.50
  -8  -9  -3   -0.20    3.70
  -8  -9  -3    5.40    1.60
  -8  -9  -3    3.70    1.70
   7   9   3   12.10    1.20
   7   9   3   12.60    1.40
   7   9   3   14.00    1.60
  -7  -9  -3    6.50    2.50
  -7  -9  -3   15.00    2.70
  -7  -9  -3   12.90    2.20
   6   9   3    5.50    0.90
   6   9   3    3.50    0.50
   6   9   3    5.70    1.30
   6   9   3    4.30    1.30
   6   9   3    5.80    1.10
  -6  -9  -3    1.70    3.60
  -6  -9  -3    4.30    1.70
  -6  -9  -3    2.30    1.90
  -6  -9  -3    9.50    2.40
   5   9   3   20.30    2.30
   5   9   3   22.70    2.30
   5   9   3   21.00    2.40
  -5  -9  -3   22.70    3.60
  -5  -9  -3   27.60    4.10
  -5  -9  -3   27.20    3.60
  -5  -9  -3   21.20    3.70
  -5  -9  -3   17.50    3.20
   4   9   3   10.00    1.30
   4   9   3   11.70    1.60
   4   9   3    8.80    1.60
  -4  -9  -3   12.20    2.60
  -4  -9  -3   12.40    1.90
  -4  -9  -3    7.10    2.40
  -4  -9  -3    8.30    2.20
  -4  -9  -3    6.00    2.30
   3   9   3   92.79    7.20
   3   9   3   90.99    7.10
   3   9   3   90.79    7.00
  -3  -9  -3   81.49    7.40
  -3  -9  -3   84.69    7.50
  -3  -9  -3   81.09    7.20
  -3  -9  -3   84.79    8.20
  -3  -9  -3   88.69    8.20
   2   9   3   48.20    3.90
   2   9   3   47.70    4.00
   2   9   3   40.30    3.90
   2   9   3   46.10    3.80
   2   9   3   39.20    4.10
  -2  -9  -3   53.79    5.70
  -2  -9  -3   46.10    5.20
  -2  -9  -3   43.60    4.10
  -2  -9  -3   40.90    4.30
   1   9   3   29.20    2.40
   1   9   3   28.00    2.40
   1   9   3   22.70    2.60
   1   9   3   27.00    2.50
  -1  -9  -3   20.60    3.90
  -1  -9  -3   19.30    2.60
  -1  -9  -3   21.70    3.80
   0   9   3    7.10    1.20
   0   9   3    7.40    1.30
   0   9   3    8.00    1.20
   0   9   3    7.30    1.50
   0  -9  -3    5.80    2.50
   0  -9  -3    6.40    2.40
   0  -9  -3    1.10    2.50
   0  -9  -3    1.40    2.80
  -1   9   3    1.30    1.00
  -1   9   3    1.00    0.70
  -1   9   3    2.30    1.00
  -1   9   3    0.60    1.10
  -1   9   3   -1.50    1.30
   1  -9  -3    0.80    1.90
   1  -9  -3    1.10    2.20
  -2   9   3    8.90    1.60
  -2   9   3    9.40    1.40
  -2   9   3    9.50    1.30
  -2   9   3   10.40    1.30
   2  -9  -3   13.00    2.80
   2  -9  -3    6.50    3.00
  -3   9   3    1.00    1.00
  -3   9   3    1.70    0.70
   3  -9  -3   -1.40    3.20
   8  10   2    1.20    0.70
   8  10   2    2.80    0.80
  -8 -10  -2    2.50    1.90
  -8 -10  -2    4.10    1.30
  -8 -10  -2    0.80    1.50
   7  10   2   12.20    1.40
   7  10   2   14.50    1.70
  -7 -10  -2    9.10    2.60
  -7 -10  -2   10.70    1.80
  -7 -10  -2    7.70    4.30
  -7 -10  -2   10.20    2.50
   6  10   2    9.80    1.70
   6  10   2   12.10    1.60
   6  10   2   12.10    1.70
   6  10   2   13.30    1.50
  -6 -10  -2    9.70    1.70
  -6 -10  -2    9.50    2.40
  -6 -10  -2   13.60    3.20
   5  10   2   26.40    2.40
   5  10   2   26.30    2.50
   5  10   2   21.90    2.60
   5  10   2   28.70    2.50
  -5 -10  -2   26.80    3.50
  -5 -10  -2   25.30    4.20
  -5 -10  -2   19.30    3.20
   4  10   2    9.20    1.70
   4  10   2   12.20    1.50
   4  10   2   13.20    1.60
  -4 -10  -2   10.20    2.30
  -4 -10  -2    5.00    3.60
  -4 -10  -2   13.00    3.00
  -4 -10  -2    9.30    3.00
   3  10   2   14.10    1.90
   3  10   2   16.80    1.80
   3  10   2   17.80    1.70
  -3 -10  -2   13.20    2.70
  -3 -10  -2   12.80    3.10
  -3 -10  -2   14.90    3.40
   2  10   2    9.60    1.40
   2  10   2    9.40    1.50
   2  10   2   10.90    2.50
   2  10   2   11.60    1.60
   2  10   2    9.80    1.40
  -2 -10  -2    6.80    2.70
  -2 -10  -2    5.70    2.70
   1  10   2    5.70    1.20
   1  10   2    5.50    1.20
   1  10   2    4.70    1.20
   1  10   2    8.10    1.20
   1  10   2    7.60    1.20
  -1 -10  -2    2.10    2.60
  -1 -10  -2    3.70    2.30
  -1 -10  -2    5.00    2.60
   0  10   2    3.40    1.70
   0  10   2    0.90    0.90
   0  10   2    2.30    0.90
   0  10   2    0.90    0.80
   0 -10  -2    2.00    2.20
   0 -10  -2    7.20    3.80
   0 -10  -2    2.40    2.30
  -1  10   2    4.40    0.90
  -1  10   2    2.00    1.00
  -1  10   2    2.00    0.70
  -1  10   2    4.50    1.40
   1 -10  -2    0.40    2.00
  -6 -11  -1    2.20    2.70
   5  11   1   14.80    1.70
   5  11   1   20.00    3.00
   5  11   1   15.90    1.70
   5  11   1   13.20    1.60
  -5 -11  -1   15.70    2.70
   4  11   1    1.00    0.80
   4  11   1    2.20    0.80
   4  11   1    0.20    0.90
  -4 -11  -1    5.80    2.70
  -4 -11  -1   -0.50    2.20
   3  11   1    5.70    1.00
   3  11   1    4.50    0.90
   3  11   1    4.70    1.20
  -3 -11  -1    7.90    3.60
  -3 -11  -1    2.10    2.30
   2  11   1   16.70    1.60
   2  11   1   14.50    1.70
   4   2  11   11.40    2.80
  -4  -2 -11   12.40    1.70
  -4  -2 -11   17.60    2.00
   3   2  11    7.80    0.90
   3   2  11    5.50    3.00
  -3  -2 -11   10.90    1.70
  -3  -2 -11   13.80    2.20
   2   2  11   15.80    3.10
   2   2  11   10.90    1.40
  -2  -2 -11   14.40    2.50
  -2  -2 -11   18.10    2.40
  -2  -2 -11   16.30    2.10
   1   2  11    1.50    1.60
   1   2  11    2.40    0.50
  -1  -2 -11    3.50    1.40
  -1  -2 -11    5.20    1.90
  -1  -2 -11    4.20    1.70
  -1  -2 -11    1.40    1.40
   0   2  11    9.30    1.10
   0  -2 -11   12.10    2.00
   0  -2 -11   13.20    2.50
   0  -2 -11   13.90    2.20
   0  -2 -11   11.00    2.10
   1  -2 -11   15.20    2.60
   1  -2 -11   16.60    2.60
   1  -2 -11   15.10    2.40
   1  -2 -11   15.20    2.20
   2  -2 -11   16.60    2.90
   2  -2 -11   19.90    2.70
   2  -2 -11   17.50    3.20
   2  -2 -11   20.30    2.80
   3  -2 -11   15.30    2.40
   3  -2 -11   14.50    2.20
   3  -2 -11   15.40    2.80
   3  -2 -11   18.10    2.90
   6   3  10    4.50    0.60
   5   3  10    7.70    2.60
   5   3  10    5.60    1.00
  -5  -3 -10   12.10    2.00
  -5  -3 -10    9.90    1.70
  -5  -3 -10   11.80    2.90
   4   3  10    9.00    1.10
   4   3  10    9.10    2.70
  -4  -3 -10   10.90    1.70
  -4  -3 -10   11.00    1.90
   3   3  10    2.10    2.20
   3   3  10    1.90    0.50
  -3  -3 -10    3.00    1.30
  -3  -3 -10    1.80    1.10
  -3  -3 -10    3.60    1.20
   2   3  10   10.80    2.90
   2   3  10    8.80    1.10
  -2  -3 -10   11.10    2.00
  -2  -3 -10    8.70    1.80
  -2  -3 -10   12.70    2.20
  -2  -3 -10   10.60    1.90
   1   3  10    5.20    0.90
  -1  -3 -10    7.50    2.10
  -1  -3 -10    7.40    2.00
  -1  -3 -10    8.00    1.70
  -1  -3 -10    8.70    1.90
   0   3  10   32.50    4.20
   0   3  10   34.10    3.40
   0  -3 -10   44.80    4.50
   0  -3 -10   41.70    4.30
   0  -3 -10   47.50    4.10
   0  -3 -10   51.49    4.50
  -1   3  10    3.40    0.70
  -1   3  10    1.60    2.50
  -1   3  10    0.90    1.30
   1  -3 -10    4.30    1.60
   1  -3 -10    5.40    2.40
   1  -3 -10    5.30    1.50
   1  -3 -10    4.80    1.80
   2  -3 -10  104.29    8.90
   2  -3 -10   94.99    8.50
   2  -3 -10  105.99    9.10
   2  -3 -10   93.29    8.20
   2  -3 -10  105.49    8.50
   2  -3 -10   97.89    8.70
  -3   3  10   15.20    1.40
  -3   3  10   13.30    2.20
  -3   3  10    9.10    3.10
   4  -3 -10    7.40    2.00
   4  -3 -10   16.20    4.10
   4  -3 -10    8.40    2.50
   4  -3 -10   10.50    3.90
   7   4   9   17.50    1.60
  -7  -4  -9   16.20    1.90
   6   4   9    6.70    0.90
  -6  -4  -9    9.50    1.90
   5   4   9    0.60    0.50
  -5  -4  -9    0.50    1.00
  -5  -4  -9    1.20    1.20
  -5  -4  -9    2.10    1.50
   4   4   9   21.70    2.20
   4   4   9   25.30    4.30
  -4  -4  -9   24.50    3.00
  -4  -4  -9   26.20    2.70
  -4  -4  -9   24.40    3.10
   3   4   9   25.40    4.40
   3   4   9   24.80    2.40
  -3  -4  -9   31.90    3.10
  -3  -4  -9   29.30    3.30
  -3  -4  -9   28.30    3.10
   2   4   9  423.66   39.20
  -2  -4  -9  523.75   39.80
  -2  -4  -9  575.34   40.00
  -2  -4  -9  534.35   39.70
  -2  -4  -9  485.05   39.30
  -2  -4  -9  501.05   39.70
  -1  -4  -9   40.30    4.30
  -1  -4  -9   41.20    4.00
  -1  -4  -9   43.90    4.40
  -1  -4  -9   38.50    3.50
  -1  -4  -9   40.40    4.00
   0   4   9   17.70    3.00
   0   4   9   19.50    2.10
   0  -4  -9   27.20    3.30
   0  -4  -9   26.90    3.10
   0  -4  -9   26.20    3.00
   0  -4  -9   29.20    2.90
   0  -4  -9   19.20    2.90
  -1   4   9    7.80    2.10
  -1   4   9    7.50    1.10
  -1   4   9    5.80    3.10
   1  -4  -9   12.30    2.20
   1  -4  -9   10.50    1.90
   1  -4  -9   14.40    2.60
   2  -4  -9   58.09    5.50
   2  -4  -9   46.30    5.00
   2  -4  -9   54.49    5.30
   2  -4  -9   59.59    5.70
   2  -4  -9   56.39    5.50
  -3   4   9    1.00    2.40
  -3   4   9   -0.70    1.60
   3  -4  -9    0.40    0.40
   3  -4  -9    3.10    1.90
   3  -4  -9    1.30    1.50
   3  -4  -9   -1.40    1.80
   3  -4  -9    1.80    1.90
  -4   4   9    1.20    1.50
   4  -4  -9    2.80    1.90
   4  -4  -9    4.70    2.20
   4  -4  -9    3.90    1.60
   4  -4  -9    6.70    2.30
   5  -4  -9   39.60    4.40
   5  -4  -9   32.90    4.20
   8   5   8    4.40    0.60
  -8  -5  -8    4.40    1.00
   7   5   8    4.70    0.70
  -7  -5  -8    7.10    1.80
  -7  -5  -8    5.80    1.40
   6   5   8    3.30    0.70
  -6  -5  -8    4.80    2.40
  -6  -5  -8    5.80    1.60
  -6  -5  -8    3.90    1.40
   5   5   8   40.10    3.50
  -5  -5  -8   41.20    4.30
  -5  -5  -8   44.40    4.20
  -5  -5  -8   39.60    3.80
  -4  -5  -8    3.20    1.70
  -4  -5  -8    5.10    1.50
  -4  -5  -8    6.20    2.50
  -4  -5  -8    6.70    1.80
   3   5   8   13.70    2.30
   3   5   8   13.10    1.50
  -3  -5  -8   18.80    2.50
  -3  -5  -8   17.90    2.20
  -3  -5  -8   13.10    1.90
  -3  -5  -8   14.20    2.40
  -3  -5  -8   14.70    2.10
   2   5   8   40.10    3.80
   2   5   8   38.30    3.90
  -2  -5  -8   49.30    4.70
  -2  -5  -8   47.90    4.50
  -2  -5  -8   53.29    4.40
  -2  -5  -8   44.20    4.30
  -2  -5  -8   47.70    4.10
  -2  -5  -8   54.89    4.70
   1   5   8   10.50    1.40
   1   5   8   14.00    2.50
   1   5   8   10.70    1.30
  -1  -5  -8   15.30    2.30
  -1  -5  -8   17.10    2.10
  -1  -5  -8   13.80    2.20
  -1  -5  -8   16.90    2.50
  -1  -5  -8    8.00    2.70
  -1  -5  -8   13.30    1.70
  -1  -5  -8   13.40    2.30
   0   5   8   62.39    5.40
   0  -5  -8   64.39    5.60
   0  -5  -8   71.89    6.20
   0  -5  -8   65.49    6.20
   0  -5  -8   71.49    6.30
   0  -5  -8   70.59    6.10
   0  -5  -8   69.39    6.40
  -1   5   8   56.29    5.30
  -1   5   8   65.69    5.00
   1  -5  -8   68.49    5.90
   1  -5  -8   54.09    5.20
   1  -5  -8   62.39    6.10
   1  -5  -8   61.39    5.60
   1  -5  -8   64.29    5.90
   1  -5  -8   63.29    5.90
  -2   5   8   17.10    1.60
   2  -5  -8   18.40    3.00
   2  -5  -8   14.80    2.40
   2  -5  -8    9.80    4.20
   2  -5  -8   17.80    3.10
   2  -5  -8   14.00    2.60
  -3   5   8   55.29    4.70
  -3   5   8   56.19    5.10
   3  -5  -8   63.29    6.30
   3  -5  -8   66.69    6.20
   3  -5  -8   58.19    5.70
   3  -5  -8   58.59    6.00
  -4   5   8   10.40    1.20
   4  -5  -8    9.90    2.10
   4  -5  -8   12.60    3.10
   4  -5  -8   11.60    2.80
  -5   5   8    3.00    2.10
  -5   5   8    5.60    0.90
   5  -5  -8    6.20    2.20
   5  -5  -8    5.90    2.10
   8   6   7    6.30    0.90
  -8  -6  -7    6.10    1.50
   7   6   7   29.30    2.80
  -7  -6  -7   37.70    3.40
  -7  -6  -7   30.50    3.70
   6   6   7   19.30    1.90
  -6  -6  -7   16.50    2.50
  -6  -6  -7   20.90    2.90
  -6  -6  -7   21.10    2.60
   5   6   7   38.60    3.30
  -5  -6  -7   31.90    4.00
  -5  -6  -7   40.20    3.90
  -5  -6  -7   46.80    4.50
  -5  -6  -7   43.40    4.00
   4   6   7   -0.90    1.50
   4   6   7   -0.20    0.50
   4   6   7   -0.20    0.70
  -4  -6  -7   -2.10    2.30
  -4  -6  -7   -1.00    1.00
  -4  -6  -7    1.10    1.40
  -4  -6  -7    1.50    1.50
  -4  -6  -7    0.20    2.30
   3   6   7   15.70    2.90
   3   6   7   16.30    1.70
   3   6   7   20.20    1.80
  -3  -6  -7   20.40    2.80
  -3  -6  -7   15.80    2.30
  -3  -6  -7   13.90    3.10
  -3  -6  -7   19.40    2.70
  -3  -6  -7   19.00    2.70
  -3  -6  -7   15.30    2.40
   2   6   7   66.69    5.90
   2   6   7   69.29    5.90
  -2  -6  -7   82.09    6.80
  -2  -6  -7   73.19    6.40
  -2  -6  -7   80.89    6.80
  -2  -6  -7   76.99    6.60
   1   6   7  319.57   29.60
   1   6   7  406.26   30.10
   1   6   7  340.97   29.80
   1   6   7  376.36   29.50
   1   6   7  420.26   29.60
  -1  -6  -7  374.06   30.30
  -1  -6  -7  392.26   30.30
  -1  -6  -7  414.16   30.20
  -1  -6  -7  353.76   29.90
  -1  -6  -7  401.06   30.30
  -1  -6  -7  395.26   29.80
   0   6   7  786.82   62.69
   0   6   7  720.33   62.99
   0   6   7  850.61   62.69
   0   6   7  688.53   62.69
   0  -6  -7  862.01   63.29
   0  -6  -7  822.82   62.89
   0  -6  -7  728.83   62.99
   0  -6  -7  917.41   63.59
   0  -6  -7  841.92   63.49
   0  -6  -7  851.41   63.39
   0  -6  -7  857.11   63.29
  -1   6   7   10.70    1.50
  -1   6   7   19.40    1.70
  -1   6   7   10.80    1.90
   1  -6  -7   15.30    2.20
   1  -6  -7   15.20    2.30
   1  -6  -7   19.20    3.00
   1  -6  -7   22.40    3.20
   1  -6  -7   17.60    2.00
  -2   6   7    1.00    0.70
  -2   6   7   -0.40    0.80
  -2   6   7    0.30    2.30
  -2   6   7    1.10    0.70
   2  -6  -7    0.70    2.40
   2  -6  -7   -0.50    0.40
   2  -6  -7    1.00    1.80
   2  -6  -7    0.30    1.60
  -3   6   7    4.70    1.60
  -3   6   7    0.70    1.50
  -3   6   7    4.70    0.90
  -3   6   7    2.10    2.30
  -3   6   7    3.20    1.10
   3  -6  -7    4.60    2.40
   3  -6  -7    3.00    2.20
   3  -6  -7    5.20    1.90
  -4   6   7   12.10    1.40
  -4   6   7   11.80    1.50
   4  -6  -7   11.20    2.20
   4  -6  -7   13.30    3.20
   4  -6  -7   11.90    2.80
  -5   6   7    2.70    0.90
  -5   6   7    0.80    1.10
  -5   6   7    1.40    0.60
   5  -6  -7    1.20    1.70
   5  -6  -7    7.30    2.50
   9   7   6    6.90    1.20
   9   7   6    3.40    0.60
  -9  -7  -6    3.80    1.50
  -9  -7  -6    3.70    1.20
   8   7   6   24.20    2.50
   8   7   6   31.80    2.50
  -8  -7  -6   30.60    3.20
  -8  -7  -6   32.20    3.70
  -8  -7  -6   27.20    3.40
   7   7   6   22.60    2.20
   7   7   6   27.70    2.30
  -7  -7  -6   22.40    3.20
  -7  -7  -6   28.70    3.10
   6   7   6   24.10    2.10
   6   7   6   22.10    2.10
  -6  -7  -6   21.50    3.10
  -6  -7  -6   26.80    3.10
  -6  -7  -6   15.60    3.00
  -6  -7  -6   21.30    2.80
   5   7   6  120.99    9.40
   5   7   6  131.29    9.50
   5   7   6  114.69    9.40
  -5  -7  -6  103.09    9.90
  -5  -7  -6  118.09    9.90
  -5  -7  -6  126.79   10.50
  -5  -7  -6  121.99   10.10
   4   7   6   42.20    3.60
   4   7   6   42.50    3.50
   4   7   6   47.20    3.70
   4   7   6   41.10    3.50
   4   7   6   37.50    4.20
  -4  -7  -6   40.20    4.00
  -4  -7  -6   45.20    4.70
  -4  -7  -6   41.50    4.40
   3   7   6  664.33   48.70
   3   7   6  609.44   48.70
   3   7   6  615.34   48.70
   3   7   6  692.23   48.80
  -3  -7  -6  648.04   49.40
  -3  -7  -6  543.25   48.90
  -3  -7  -6  609.34   48.90
  -3  -7  -6  652.63   49.40
  -3  -7  -6  624.94   49.40
   2   7   6   98.29    8.10
   2   7   6  110.19    8.00
   2   7   6  109.79    8.00
   2   7   6  102.99    7.90
  -2  -7  -6  106.29    8.90
  -2  -7  -6   85.29    8.30
  -2  -7  -6   94.09    8.30
  -2  -7  -6   97.79    8.80
  -2  -7  -6   94.39    8.60
   1   7   6   44.10    3.60
   1   7   6   40.10    3.90
   1   7   6   47.50    3.80
   1   7   6   49.80    3.80
   1   7   6   42.20    3.70
  -1  -7  -6   38.70    4.10
  -1  -7  -6   45.60    4.10
  -1  -7  -6   49.40    4.70
  -1  -7  -6   44.70    4.60
  -1  -7  -6   42.40    4.80
   0   7   6   10.90    1.30
   0   7   6   10.80    1.40
   0   7   6    9.40    1.80
   0   7   6    8.30    1.50
   0   7   6    7.80    1.10
   0   7   6    5.50    2.00
   0   7   6    8.40    1.00
   0  -7  -6   13.80    2.30
   0  -7  -6    9.70    1.70
   0  -7  -6    9.60    2.40
   0  -7  -6    7.50    2.20
   0  -7  -6    9.00    2.20
   0  -7  -6   11.20    1.80
   0  -7  -6   10.30    2.10
  -1   7   6   15.30    1.80
  -1   7   6   15.20    1.50
  -1   7   6   13.10    1.80
  -1   7   6   13.30    1.40
   1  -7  -6   16.80    3.00
   1  -7  -6   17.10    2.90
   1  -7  -6   16.70    3.30
   1  -7  -6   16.40    2.00
   1  -7  -6   13.80    2.40
  -2   7   6    1.40    1.30
  -2   7   6   -0.40    1.50
  -2   7   6    0.60    0.40
  -2   7   6   -0.40    1.00
  -2   7   6    0.90    0.80
   2  -7  -6   -2.40    1.50
   2  -7  -6   -0.50    2.10
   2  -7  -6    2.00    2.00
   2  -7  -6    0.40    0.40
  -3   7   6    3.00    1.00
  -3   7   6    3.20    1.60
  -3   7   6    1.50    0.60
  -3   7   6    3.00    1.00
  -3   7   6    4.60    1.00
   3  -7  -6    6.10    2.00
   3  -7  -6    2.30    2.20
   3  -7  -6    4.10    2.30
  -4   7   6   -0.30    0.40
  -4   7   6    0.70    1.00
  -4   7   6    2.30    1.40
  -4   7   6    0.50    1.40
  -4   7   6   -1.50    1.10
   4  -7  -6    3.60    1.90
   4  -7  -6    1.70    3.60
   9   8   5    3.40    0.50
   9   8   5    3.00    0.70
  -9  -8  -5    2.70    1.40
  -9  -8  -5    4.20    1.40
   8   8   5    4.90    0.90
   8   8   5    3.90    0.60
  -8  -8  -5    3.00    1.70
  -8  -8  -5    3.50    1.60
  -8  -8  -5    3.50    1.60
   7   8   5   49.99    4.50
   7   8   5   62.89    4.70
  -7  -8  -5   55.89    5.70
  -7  -8  -5   47.80    5.40
  -7  -8  -5   60.09    5.20
   6   8   5    6.90    1.40
   6   8   5    5.50    1.10
   6   8   5    3.20    0.60
  -6  -8  -5    2.30    1.60
  -6  -8  -5    3.20    1.90
  -6  -8  -5    2.50    1.50
  -6  -8  -5    1.20    2.50
   5   8   5   89.09    7.00
   5   8   5   92.49    6.90
   5   8   5   91.59    7.00
   5   8   5   80.99    6.80
  -5  -8  -5   80.99    7.30
  -5  -8  -5   91.79    8.00
  -5  -8  -5   86.09    7.60
  -5  -8  -5   71.39    7.50
   4   8   5   45.80    3.80
   4   8   5   40.40    3.50
   4   8   5   46.00    3.70
   4   8   5   46.00    3.80
   4   8   5   43.20    3.50
  -4  -8  -5   45.90    4.60
  -4  -8  -5   43.70    4.70
  -4  -8  -5   40.60    4.10
  -4  -8  -5   34.30    4.50
   3   8   5   20.20    2.10
   3   8   5   19.30    1.90
   3   8   5   21.80    3.00
   3   8   5   22.50    1.80
   3   8   5   22.70    2.20
  -3  -8  -5   19.20    3.20
  -3  -8  -5   17.10    2.90
  -3  -8  -5   20.40    2.60
  -3  -8  -5   20.50    3.20
   2   8   5   17.10    1.50
   2   8   5   12.10    2.50
   2   8   5   15.70    1.60
   2   8   5   19.10    1.80
   2   8   5   17.30    1.90
  -2  -8  -5   16.50    3.00
  -2  -8  -5   12.90    2.30
  -2  -8  -5   19.10    3.10
  -2  -8  -5   13.60    2.40
   1   8   5  113.09   10.60
   1   8   5  137.29   10.30
   1   8   5  139.69   10.50
   1   8   5  135.49   10.40
   1   8   5  144.59   10.50
  -1  -8  -5  127.19   10.70
  -1  -8  -5  130.19   10.70
  -1  -8  -5  127.39   11.40
  -1  -8  -5  128.59   11.30
   0   8   5   27.20    2.90
   0   8   5   31.50    2.90
   0   8   5   28.50    2.70
   0   8   5   31.30    2.60
   0   8   5   33.70    2.80
   0  -8  -5   35.50    4.00
   0  -8  -5   30.10    3.00
   0  -8  -5   32.50    4.20
  -1   8   5   75.49    6.70
  -1   8   5   79.09    6.20
  -1   8   5   88.39    6.30
  -1   8   5   64.89    6.10
  -1   8   5   82.29    6.30
   1  -8  -5   68.09    6.40
   1  -8  -5   81.69    7.60
  -2   8   5   12.40    1.40
  -2   8   5   10.50    1.60
  -2   8   5   11.00    1.50
  -2   8   5    9.20    1.60
   2  -8  -5    7.10    2.80
   2  -8  -5   15.10    3.30
  -3   8   5    0.90    0.80
  -3   8   5   -0.10    0.50
  -3   8   5   -0.80    0.90
  -3   8   5    0.40    1.30
  -3   8   5    0.30    0.90
   3  -8  -5    0.10    2.00
  -4   8   5    1.70    0.80
  -4   8   5   -0.70    0.90
  -4   8   5    0.50    0.70
   4  -8  -5   -1.50    2.50
   4  -8  -5    5.90    2.20
   8   9   4   17.00    1.60
   8   9   4   22.50    2.60
  -8  -9  -4   17.00    3.50
  -8  -9  -4   20.10    3.30
  -8  -9  -4   22.00    2.60
   7   9   4   25.20    2.40
   7   9   4   32.20    2.70
  -7  -9  -4   28.70    3.90
  -7  -9  -4   29.10    3.20
  -7  -9  -4   29.00    3.80
   6   9   4    3.70    0.60
   6   9   4    6.90    1.40
   6   9   4    5.30    0.80
   6   9   4    5.50    1.10
  -6  -9  -4    4.80    1.80
  -6  -9  -4    5.80    2.20
  -6  -9  -4    3.20    2.40
  -6  -9  -4    2.30    2.70
   5   9   4    6.30    1.10
   5   9   4    6.50    1.30
   5   9   4    6.40    1.30
  -5  -9  -4    5.90    2.30
  -5  -9  -4    5.80    2.10
  -5  -9  -4    7.20    2.00
  -5  -9  -4    5.80    1.80
   4   9   4   11.90    1.80
   4   9   4    9.90    1.10
   4   9   4    9.80    1.40
  -4  -9  -4   13.20    3.00
  -4  -9  -4   14.60    3.10
  -4  -9  -4   10.50    2.70
  -4  -9  -4   14.60    2.20
   3   9   4   16.60    1.60
   3   9   4   17.30    2.40
   3   9   4   14.70    1.90
   3   9   4   17.10    2.60
  -3  -9  -4   21.50    3.30
  -3  -9  -4   13.30    3.10
  -3  -9  -4   11.60    2.20
  -3  -9  -4   10.40    2.20
  -3  -9  -4   16.40    2.70
   2   9   4    0.50    0.70
   2   9   4    1.80    1.00
   2   9   4    2.20    2.20
   2   9   4    3.30    1.20
  -2  -9  -4   -0.20    1.70
  -2  -9  -4    3.00    2.10
  -2  -9  -4    0.30    1.50
  -2  -9  -4    2.50    3.80
   1   9   4   22.40    2.70
   1   9   4   27.10    2.40
   1   9   4   29.90    2.60
  -1  -9  -4   21.60    3.70
  -1  -9  -4   30.10    4.20
  -1  -9  -4   24.20    2.70
   0   9   4    0.70    1.40
   0   9   4    0.10    0.60
   0   9   4   -1.00    1.00
   0   9   4    0.20    0.80
   0   9   4   -1.00    1.30
   0  -9  -4   -1.10    2.00
   0  -9  -4    1.80    2.30
   0  -9  -4   -0.60    1.10
  -1   9   4    1.90    1.30
  -1   9   4    4.70    1.30
  -1   9   4    4.60    1.00
  -1   9   4    4.20    0.80
  -1   9   4    4.60    1.00
   1  -9  -4   -0.90    1.90
   1  -9  -4    2.10    2.40
  -2   9   4    1.70    1.30
  -2   9   4    3.90    1.00
  -2   9   4    1.30    0.70
   2  -9  -4    1.50    2.00
   2  -9  -4    1.10    2.00
   8  10   3    2.20    0.80
  -8 -10  -3    5.30    1.90
  -8 -10  -3    3.90    1.30
   7  10   3    0.70    0.70
   7  10   3    2.10    0.90
  -7 -10  -3    2.40    2.60
  -7 -10  -3   -1.40    1.40
  -7 -10  -3    2.80    1.80
   6  10   3   15.20    1.90
   6  10   3   14.80    1.90
   6  10   3   16.40    1.80
   6  10   3   16.40    1.60
  -6 -10  -3   12.10    3.20
  -6 -10  -3   13.10    2.50
  -6 -10  -3   12.50    2.10
   5  10   3   16.50    1.80
   5  10   3   18.90    2.10
   5  10   3   14.30    1.70
   5  10   3   18.20    2.00
  -5 -10  -3   11.70    3.20
  -5 -10  -3   11.00    2.10
  -5 -10  -3   17.70    2.90
  -5 -10  -3   18.40    2.80
   4  10   3    9.40    1.30
   4  10   3    8.50    1.40
   4  10   3    8.30    1.50
  -4 -10  -3   11.80    2.80
  -4 -10  -3    9.10    2.20
  -4 -10  -3    7.50    2.80
   3  10   3   86.69    6.60
   3  10   3   80.09    6.60
   3  10   3   85.79    6.50
  -3 -10  -3   69.99    7.70
  -3 -10  -3   65.49    7.00
  -3 -10  -3   88.39    7.90
   2  10   3    9.30    1.40
   2  10   3    7.90    1.20
   2  10   3    8.40    1.30
  -2 -10  -3    5.50    2.60
  -2 -10  -3    5.90    2.50
  -2 -10  -3    6.10    3.50
   1  10   3    8.10    1.10
   1  10   3    8.90    1.30
   1  10   3    4.80    1.40
   1  10   3    5.90    1.20
  -1 -10  -3    5.80    2.60
  -1 -10  -3    4.20    2.50
  -1 -10  -3    2.60    2.60
   0  10   3    4.00    0.80
   0  10   3    7.00    1.30
   0 -10  -3    9.20    2.80
   0 -10  -3    0.40    2.10
   0 -10  -3   -5.50    4.70
  -1  10   3    0.60    0.90
  -1  10   3    0.80    0.50
  -1  10   3    1.00    0.80
  -1  10   3   -0.60    0.80
   1 -10  -3    0.60    2.10
   1 -10  -3    0.00    2.00
   6  11   2    8.10    1.30
   6  11   2    7.70    1.10
   6  11   2    4.70    1.00
  -6 -11  -2    3.00    2.50
  -6 -11  -2    5.50    2.00
   5  11   2   28.40    2.50
   5  11   2   27.30    2.80
   5  11   2   30.00    2.60
   5  11   2   28.50    2.60
  -5 -11  -2   23.20    4.00
  -5 -11  -2   21.80    3.40
   4  11   2   42.00    3.40
   4  11   2   37.10    3.30
   4  11   2   38.10    3.50
  -4 -11  -2   26.60    4.80
   3  11   2    2.50    0.90
   3  11   2    3.20    0.80
   3  11   2    5.30    1.10
  -3 -11  -2    1.00    2.30
  -3 -11  -2    2.90    2.60
   2  11   2    6.00    1.00
   2  11   2    8.00    1.50
   2  11   2    8.90    1.30
   0  -2 -12   64.49    5.90
   4   3  11   16.60    1.60
  -4  -3 -11   19.20    3.30
  -4  -3 -11   19.80    2.10
  -4  -3 -11   18.30    2.30
   3   3  11    0.70    0.40
  -3  -3 -11    2.90    1.10
  -3  -3 -11   -3.00    1.30
  -3  -3 -11    3.10    1.50
   2   3  11    1.30    0.50
  -2  -3 -11    1.50    1.30
  -2  -3 -11    2.60    1.30
  -2  -3 -11    3.40    1.30
  -1  -3 -11   16.90    2.70
  -1  -3 -11   21.70    2.90
  -1  -3 -11   19.90    2.50
  -1  -3 -11   16.70    2.60
   0   3  11    6.90    1.00
   0  -3 -11    9.10    2.00
   0  -3 -11    7.80    2.00
   0  -3 -11    8.50    1.90
   0  -3 -11   12.10    1.90
   1  -3 -11   14.90    2.20
   1  -3 -11   13.80    2.70
   1  -3 -11   14.70    2.50
   1  -3 -11   11.90    2.40
   1  -3 -11   17.30    2.90
  -2   3  11    3.90    0.60
  -2   3  11    1.30    2.30
  -2   3  11    1.00    1.70
   2  -3 -11    4.50    2.10
  -3   3  11    0.60    2.00
  -3   3  11    2.50    0.50
  -3   3  11    2.60    1.20
   3  -3 -11    5.10    1.90
   3  -3 -11    5.60    1.70
   6   4  10   10.70    1.20
  -6  -4 -10   15.30    1.70
   5   4  10   12.30    1.30
  -5  -4 -10   13.30    1.80
  -5  -4 -10   13.30    2.30
  -5  -4 -10   14.70    3.30
   4   4  10   22.70    2.30
  -4  -4 -10   28.10    3.10
  -4  -4 -10   25.30    3.20
  -4  -4 -10   28.70    2.80
   3   4  10    1.40    0.60
  -3  -4 -10    1.20    1.40
  -3  -4 -10    2.30    1.30
  -3  -4 -10    0.10    1.20
  -3  -4 -10    0.30    1.10
  -2  -4 -10   28.40    3.50
  -2  -4 -10   26.20    3.10
  -2  -4 -10   28.90    3.40
  -2  -4 -10   27.50    3.50
  -2  -4 -10   28.60    3.20
   1   4  10   11.50    1.60
  -1  -4 -10   15.20    2.40
  -1  -4 -10   15.70    2.60
  -1  -4 -10   20.10    2.50
  -1  -4 -10   21.30    2.80
  -1  -4 -10   19.50    2.60
   0  -4 -10  265.47   20.40
   0  -4 -10  249.97   20.40
   0  -4 -10  242.78   20.30
   0  -4 -10  241.08   20.20
   0  -4 -10  249.88   20.00
   1  -4 -10   50.39    4.90
   1  -4 -10   56.19    5.30
   1  -4 -10   53.29    5.30
   1  -4 -10   52.69    5.60
   1  -4 -10   55.09    5.20
   2  -4 -10   18.20    2.90
   2  -4 -10   16.10    2.70
   2  -4 -10   22.90    3.80
   2  -4 -10   21.00    3.20
   2  -4 -10   20.20    3.20
   3  -4 -10   25.30    3.50
   3  -4 -10   24.20    3.60
   3  -4 -10   29.70    3.60
   3  -4 -10   24.60    3.00
  -4   4  10    1.50    2.10
  -4   4  10    2.10    1.30
   4  -4 -10    5.50    2.00
   4  -4 -10   10.80    3.60
   4  -4 -10   10.70    2.40
   7   5   9    4.90    0.70
  -7  -5  -9    8.60    1.40
   6   5   9   19.90    2.00
  -6  -5  -9   19.30    2.80
  -6  -5  -9   24.40    2.60
   5   5   9    8.90    1.20
  -5  -5  -9   10.90    2.10
  -5  -5  -9   12.00    2.00
  -4  -5  -9  183.78   15.40
  -4  -5  -9  194.98   15.60
  -4  -5  -9  184.98   15.20
   3   5   9   60.09    5.80
  -3  -5  -9   86.89    7.00
  -3  -5  -9   79.59    6.80
  -3  -5  -9   71.69    6.40
  -3  -5  -9   71.49    5.90
   2   5   9   44.60    4.30
  -2  -5  -9   58.99    5.30
  -2  -5  -9   47.90    4.40
  -2  -5  -9   58.99    5.20
  -2  -5  -9   62.69    5.10
  -2  -5  -9   55.99    5.10
  -2  -5  -9   43.60    4.80
   1   5   9    7.70    1.20
   1   5   9   10.20    2.00
  -1  -5  -9   11.40    1.60
  -1  -5  -9   12.30    2.40
  -1  -5  -9   10.30    2.30
  -1  -5  -9   11.50    2.20
  -1  -5  -9   12.10    2.10
  -1  -5  -9   11.00    2.10
   0   5   9    0.50    0.60
   0   5   9   -0.60    2.90
   0   5   9   -1.60    1.90
   0  -5  -9    0.80    1.50
   0  -5  -9   -0.40    1.20
   0  -5  -9    0.40    1.80
   0  -5  -9   -0.80    1.40
   0  -5  -9    0.20    1.10
   0  -5  -9   -1.50    1.00
  -1   5   9    1.30    0.60
  -1   5   9    1.70    1.60
  -1   5   9    2.00    2.60
   1  -5  -9    0.00    1.40
   1  -5  -9    5.40    1.80
   1  -5  -9    2.90    1.80
   1  -5  -9    3.30    1.50
   1  -5  -9    1.80    1.60
  -2   5   9   12.40    1.30
  -2   5   9    7.20    2.10
   2  -5  -9   11.00    3.70
   2  -5  -9   17.10    2.70
   2  -5  -9   18.80    3.40
   2  -5  -9   12.90    2.50
   2  -5  -9   21.80    3.60
  -3   5   9   47.80    4.20
   3  -5  -9   52.49    5.40
   3  -5  -9   53.69    5.40
   3  -5  -9   53.29    5.20
   3  -5  -9   56.99    5.60
  -4   5   9    5.00    0.80
  -4   5   9   -0.60    2.30
  -4   5   9    2.80    2.20
   4  -5  -9   10.10    2.00
   4  -5  -9    9.40    3.40
   8   6   8    2.70    0.50
  -8  -6  -8   -0.30    1.00
   7   6   8   14.60    1.60
  -7  -6  -8   20.40    2.80
  -7  -6  -8   19.40    2.30
   6   6   8   24.20    2.20
  -6  -6  -8   27.50    3.00
  -6  -6  -8   22.60    2.90
  -6  -6  -8   23.00    3.20
   5   6   8    2.00    0.60
  -5  -6  -8    2.60    1.50
  -5  -6  -8    3.50    1.50
  -5  -6  -8    4.50    1.80
  -5  -6  -8    1.20    1.20
   4   6   8   21.00    2.00
  -4  -6  -8   21.70    2.80
  -4  -6  -8   20.10    2.90
  -4  -6  -8   19.40    2.60
  -4  -6  -8   25.50    3.20
   3   6   8   53.69    5.90
   3   6   8   65.49    5.30
   3   6   8   58.29    5.40
  -3  -6  -8   75.79    6.30
  -3  -6  -8   73.59    6.30
  -3  -6  -8   70.19    5.90
  -3  -6  -8   71.89    5.70
   2   6   8  115.29    8.80
   2   6   8   93.19    8.80
  -2  -6  -8  121.29    9.70
  -2  -6  -8  109.39    9.00
  -2  -6  -8  122.49    9.70
  -2  -6  -8  110.29    9.50
   1   6   8   35.40    3.90
   1   6   8   33.70    2.90
  -1  -6  -8   33.60    3.70
  -1  -6  -8   36.30    3.60
  -1  -6  -8   37.90    3.90
  -1  -6  -8   23.80    4.00
  -1  -6  -8   34.70    3.70
  -1  -6  -8   31.30    3.10
   0   6   8   21.50    2.00
   0  -6  -8   27.40    3.40
   0  -6  -8   21.70    2.40
   0  -6  -8   22.30    3.00
   0  -6  -8   23.00    2.90
   0  -6  -8   24.60    3.10
   0  -6  -8   19.80    2.60
   0  -6  -8   22.80    3.30
  -1   6   8  124.39    9.90
   1  -6  -8  136.69   10.80
   1  -6  -8  105.49   10.10
   1  -6  -8  128.79   10.90
   1  -6  -8  146.59   11.10
   1  -6  -8  124.19   10.50
  -2   6   8   14.50    1.40
  -2   6   8   15.20    2.90
  -2   6   8    7.30    3.00
   2  -6  -8   11.60    1.20
  -3   6   8   18.40    1.80
   3  -6  -8   19.60    2.90
   3  -6  -8   16.60    3.20
   3  -6  -8   21.00    3.50
  -4   6   8    1.10    0.70
  -4   6   8    1.60    2.00
  -4   6   8    0.10    0.40
   4  -6  -8    1.60    2.10
   4  -6  -8    1.80    2.00
   4  -6  -8    0.50    1.40
  -8  -7  -7    8.70    2.50
  -8  -7  -7    9.10    2.50
   7   7   7   11.80    1.30
  -7  -7  -7   15.10    2.30
  -7  -7  -7   12.30    2.50
   6   7   7   13.90    1.50
  -6  -7  -7    9.70    2.80
  -6  -7  -7   18.50    2.50
  -6  -7  -7   13.80    2.80
  -6  -7  -7   13.70    2.40
   5   7   7   50.09    4.00
   5   7   7   45.70    4.00
  -5  -7  -7   42.50    4.70
  -5  -7  -7   41.80    4.70
  -5  -7  -7   49.40    5.00
  -5  -7  -7   51.99    4.60
   4   7   7   76.89    5.70
   4   7   7   65.59    5.60
   4   7   7   65.19    6.30
  -4  -7  -7   63.09    6.10
  -4  -7  -7   74.89    6.70
  -4  -7  -7   72.29    6.50
  -4  -7  -7   69.59    6.20
   3   7   7   22.30    2.10
   3   7   7   23.90    2.30
  -3  -7  -7   25.60    3.30
  -3  -7  -7   20.40    2.70
  -3  -7  -7   23.90    3.00
  -3  -7  -7   23.50    3.20
   2   7   7  376.46   25.90
   2   7   7  294.47   25.80
   2   7   7  334.97   25.80
  -2  -7  -7  359.26   26.70
  -2  -7  -7  296.37   26.10
  -2  -7  -7  344.27   26.60
  -2  -7  -7  323.77   26.40
  -2  -7  -7  330.47   26.00
   1   7   7   84.19    7.50
   1   7   7   92.19    7.60
   1   7   7   91.29    7.30
  -1  -7  -7   84.69    7.80
  -1  -7  -7   96.99    8.30
  -1  -7  -7   97.49    8.30
  -1  -7  -7  104.49    8.50
  -1  -7  -7   94.19    7.60
   0   7   7    4.10    0.90
   0   7   7    5.10    2.20
   0   7   7   -0.20    1.70
   0  -7  -7    2.50    1.90
   0  -7  -7    2.50    1.50
   0  -7  -7    3.70    1.70
   0  -7  -7    3.00    2.10
   0  -7  -7    3.70    1.50
  -1   7   7    3.70    0.90
  -1   7   7    4.80    0.90
  -1   7   7    2.00    0.70
  -1   7   7    3.30    1.90
   1  -7  -7    3.10    2.30
   1  -7  -7    5.20    2.10
   1  -7  -7    6.10    1.30
   1  -7  -7    8.20    2.40
   1  -7  -7    4.00    1.80
  -2   7   7    2.80    1.40
  -2   7   7    3.00    0.80
  -2   7   7    3.50    0.60
   2  -7  -7    1.50    0.60
   2  -7  -7    7.60    2.40
   2  -7  -7    4.30    2.20
   2  -7  -7    5.60    2.10
  -3   7   7    0.60    1.40
  -3   7   7   -0.10    0.40
  -3   7   7    0.90    0.50
  -3   7   7    0.40    0.70
  -3   7   7    0.80    1.00
   3  -7  -7    1.30    1.70
   3  -7  -7    0.70    2.10
   3  -7  -7   -0.60    1.80
  -4   7   7    0.50    0.40
  -4   7   7    1.00    0.70
  -4   7   7   -0.70    1.20
  -4   7   7    0.60    1.00
  -4   7   7   -0.40    0.50
   4  -7  -7   -1.50    1.90
   4  -7  -7   -0.40    1.70
   4  -7  -7    2.20    2.40
   8   8   6    1.00    0.60
  -8  -8  -6    2.80    1.80
  -8  -8  -6    4.60    2.00
  -8  -8  -6    3.00    1.50
   7   8   6    6.60    1.00
   7   8   6    6.20    0.90
  -7  -8  -6   11.20    2.00
  -7  -8  -6    4.10    1.70
   6   8   6    0.80    1.00
   6   8   6    0.70    0.60
   6   8   6    1.10    0.50
  -6  -8  -6    0.10    1.80
  -6  -8  -6    0.80    1.40
  -6  -8  -6   -1.10    1.90
  -6  -8  -6   -1.10    1.60
   5   8   6  152.78   12.40
   5   8   6  166.38   12.50
   5   8   6  159.58   12.40
   5   8   6  144.09   12.70
  -5  -8  -6  161.38   13.40
  -5  -8  -6  156.08   13.40
  -5  -8  -6  162.18   12.90
   4   8   6  163.88   12.30
   4   8   6  155.08   12.20
   4   8   6  177.08   12.40
   4   8   6  140.79   12.70
   4   8   6  159.88   12.30
  -4  -8  -6  164.08   13.20
  -4  -8  -6  140.49   12.70
  -4  -8  -6  145.89   12.60
   3   8   6   83.99    6.30
   3   8   6   75.39    6.10
   3   8   6   80.99    6.20
  -3  -8  -6   66.59    6.60
  -3  -8  -6   80.29    7.20
  -3  -8  -6   68.49    6.60
  -3  -8  -6   78.89    7.20
   2   8   6    9.10    1.30
   2   8   6   10.30    1.40
   2   8   6    6.50    2.00
   2   8   6    8.60    1.00
  -2  -8  -6   10.80    2.50
  -2  -8  -6   10.70    1.90
  -2  -8  -6    8.70    2.20
  -2  -8  -6    6.90    1.70
   1   8   6    2.50    0.70
   1   8   6    4.70    1.20
   1   8   6    3.40    0.60
   1   8   6    3.80    1.90
   1   8   6    3.10    0.90
  -1  -8  -6    3.40    2.00
  -1  -8  -6    5.00    1.50
  -1  -8  -6    5.30    2.10
  -1  -8  -6    1.80    1.90
  -1  -8  -6    1.60    1.00
   0   8   6    2.90    1.00
   0   8   6    2.50    0.90
   0   8   6    0.90    1.80
   0   8   6    3.70    0.70
   0   8   6    3.60    0.70
   0  -8  -6    7.10    2.50
   0  -8  -6    2.20    1.70
   0  -8  -6    5.20    1.50
   0  -8  -6    3.10    2.20
  -1   8   6    1.40    1.60
  -1   8   6    0.10    0.90
  -1   8   6   -1.70    1.00
  -1   8   6    0.00    0.40
  -1   8   6   -0.90    0.90
   1  -8  -6    2.30    2.60
   1  -8  -6    1.80    0.50
   1  -8  -6   -1.30    1.80
   1  -8  -6    2.20    1.50
   1  -8  -6   -1.30    1.70
  -2   8   6    2.60    0.90
  -2   8   6    2.40    0.60
  -2   8   6    0.60    0.90
  -2   8   6    3.30    0.80
  -2   8   6    0.50    1.50
  -2   8   6    1.60    0.50
   2  -8  -6   -0.10    1.80
   2  -8  -6    2.80    2.10
   2  -8  -6    5.90    2.50
  -3   8   6    1.40    1.70
  -3   8   6    3.00    0.80
  -3   8   6    2.80    0.80
  -3   8   6    4.90    1.10
  -3   8   6    5.70    1.10
   3  -8  -6    0.20    2.30
   3  -8  -6    1.30    1.80
   8   9   5    4.30    0.60
   8   9   5    5.60    0.90
  -8  -9  -5    8.70    2.50
  -8  -9  -5    5.70    1.60
   7   9   5   47.70    4.00
  -7  -9  -5   47.50    4.50
  -7  -9  -5   46.20    5.00
  -7  -9  -5   41.60    4.80
   6   9   5   10.30    1.50
   6   9   5    5.90    0.80
   6   9   5   11.10    1.70
  -6  -9  -5    0.10    2.60
  -6  -9  -5    7.80    2.20
  -6  -9  -5    4.40    1.80
  -6  -9  -5    6.90    1.90
   5   9   5   21.40    2.10
   5   9   5   20.60    2.10
   5   9   5   15.80    1.70
   5   9   5   18.30    1.90
  -5  -9  -5   16.00    2.90
  -5  -9  -5   12.40    2.70
  -5  -9  -5   24.60    3.30
  -5  -9  -5   20.90    2.70
   4   9   5    9.10    1.60
   4   9   5    6.20    1.20
   4   9   5    7.10    1.00
   4   9   5    6.50    1.10
   4   9   5    4.20    1.00
  -4  -9  -5    6.10    1.80
  -4  -9  -5    4.50    2.10
  -4  -9  -5    6.50    2.30
  -4  -9  -5    3.90    2.20
  -4  -9  -5    4.90    2.00
   3   9   5   17.10    2.70
   3   9   5   17.40    1.60
   3   9   5   20.50    2.10
   3   9   5   17.50    1.80
   3   9   5   21.30    2.10
  -3  -9  -5   20.70    3.40
  -3  -9  -5   16.60    3.00
  -3  -9  -5   16.50    2.60
  -3  -9  -5   19.50    3.10
   2   9   5   37.60    3.00
   2   9   5   33.50    3.00
   2   9   5   32.00    2.60
  -2  -9  -5   36.50    4.40
  -2  -9  -5   31.40    3.30
  -2  -9  -5   30.50    4.10
  -2  -9  -5   26.00    3.40
  -2  -9  -5   28.00    3.90
   1   9   5   36.80    3.10
   1   9   5   39.70    3.10
   1   9   5   30.30    2.90
   1   9   5   28.30    3.60
  -1  -9  -5   30.80    4.20
  -1  -9  -5   38.50    4.70
   0   9   5    1.10    0.60
   0   9   5    2.90    1.60
   0   9   5    2.70    1.20
   0   9   5    5.10    1.50
   0   9   5    1.90    0.90
   0  -9  -5    1.20    2.20
   0  -9  -5    3.10    1.20
   0  -9  -5    1.80    2.10
  -1   9   5    1.40    0.90
  -1   9   5    1.60    1.40
  -1   9   5    3.20    1.00
  -1   9   5   -0.40    0.60
  -1   9   5   -0.70    0.80
   1  -9  -5    3.20    2.20
   1  -9  -5    0.00    1.70
  -2   9   5    3.00    1.40
  -2   9   5    2.40    0.90
  -2   9   5    3.40    1.30
  -2   9   5    1.20    0.60
   2  -9  -5   -1.30    1.80
   2  -9  -5    1.10    2.50
  -8 -10  -4    9.00    2.10
   7  10   4   10.50    1.70
  -7 -10  -4    9.10    3.30
  -7 -10  -4    4.90    2.40
  -7 -10  -4   11.50    2.00
   6  10   4   12.20    1.80
   6  10   4   12.50    1.60
   6  10   4   14.80    1.90
  -6 -10  -4   14.20    2.60
  -6 -10  -4   12.90    3.00
  -6 -10  -4   11.90    2.10
   5  10   4    2.50    1.10
   5  10   4    4.50    1.10
   5  10   4    3.30    1.30
   5  10   4    3.00    0.80
  -5 -10  -4    2.40    2.30
  -5 -10  -4    3.30    2.00
  -5 -10  -4    8.10    2.10
  -5 -10  -4    4.00    1.40
   4  10   4   40.40    3.70
   4  10   4   45.90    3.70
   4  10   4   42.00    3.40
  -4 -10  -4   42.40    4.80
  -4 -10  -4   37.70    4.20
  -4 -10  -4   43.80    5.00
  -4 -10  -4   32.00    3.80
   3  10   4   15.80    2.00
   3  10   4   18.40    2.00
   3  10   4   16.30    1.70
  -3 -10  -4   20.20    3.50
  -3 -10  -4   12.90    2.50
  -3 -10  -4   13.30    3.30
   2  10   4    8.30    1.10
   2  10   4   10.20    1.40
   2  10   4    8.00    1.30
  -2 -10  -4    4.60    2.60
  -2 -10  -4    6.00    2.70
   1  10   4   14.10    1.60
   1  10   4   15.60    1.80
   1  10   4   15.40    1.80
  -1 -10  -4   12.10    3.20
  -1 -10  -4   15.50    3.40
   0  10   4    3.50    1.30
   0  10   4    3.50    1.00
   0  10   4    1.10    0.80
   0  10   4    3.50    1.00
   0 -10  -4    3.40    2.30
   0 -10  -4    0.60    1.90
  -1  10   4    2.10    0.90
  -1  10   4    1.90    0.70
  -1  10   4    4.90    1.30
   1 -10  -4    1.90    1.80
   1 -10  -4    0.90    2.00
   6  11   3   15.00    1.80
   6  11   3   18.50    1.90
   6  11   3   19.10    2.00
  -6 -11  -3   17.30    2.80
   5  11   3   26.80    3.00
   5  11   3   36.40    3.00
   5  11   3   38.00    3.00
   5  11   3   29.90    2.80
  -5 -11  -3   25.60    3.60
  -5 -11  -3   28.20    4.60
   4  11   3    6.60    1.00
   4  11   3    6.80    1.50
  -4 -11  -3    5.30    2.40
   3  11   3   29.80    2.50
   3  11   3   31.50    2.90
   3  11   3   22.80    2.70
  -3 -11  -3   29.00    3.90
  -3 -11  -3   28.10    4.40
   2  11   3    5.40    1.20
   2  11   3    3.50    0.70
   2  11   3    3.50    1.10
  -2 -11  -3   -0.10    2.70
  -2 -11  -3    2.90    2.20
   1  11   3    2.90    0.70
  -1 -11  -3    1.50    1.90
  -1 -11  -3    0.10    2.00
  -1  -3 -12   10.50    1.70
  -1  -3 -12   10.70    2.00
  -1  -3 -12   12.60    2.10
   0  -3 -12   15.30    2.50
   0  -3 -12   12.80    2.30
   0  -3 -12   10.30    1.90
   4   4  11    5.80    0.80
  -4  -4 -11    8.30    1.80
  -4  -4 -11    7.70    1.50
  -4  -4 -11    4.60    1.60
   3   4  11    2.50    0.60
  -3  -4 -11    2.80    1.50
  -3  -4 -11    4.70    1.40
  -3  -4 -11    2.50    1.30
  -2  -4 -11   38.40    3.70
  -2  -4 -11   33.20    3.90
  -2  -4 -11   41.40    5.10
  -2  -4 -11   37.00    4.00
   1   4  11   13.20    1.70
  -1  -4 -11   16.10    2.50
  -1  -4 -11   20.80    2.50
  -1  -4 -11   29.70    4.20
  -1  -4 -11   19.80    2.80
  -1  -4 -11   20.50    2.70
   0   4  11   -1.90    2.30
   0   4  11    1.00    0.50
   0  -4 -11    2.00    1.70
   0  -4 -11    2.10    1.30
   0  -4 -11    1.30    1.30
   0  -4 -11    0.70    1.50
   0  -4 -11    4.10    1.70
   1  -4 -11    6.40    2.70
   1  -4 -11    5.30    1.80
   1  -4 -11    7.00    2.40
   1  -4 -11    6.90    1.90
  -2   4  11    0.50    2.00
  -2   4  11   -0.10    0.40
  -2   4  11   -1.30    1.10
   2  -4 -11    1.40    1.60
   2  -4 -11    2.50    1.70
   2  -4 -11    1.10    1.50
   2  -4 -11    0.80    1.40
   6   5  10   22.00    2.00
  -6  -5 -10   23.50    2.50
  -5  -5 -10    7.00    2.40
  -5  -5 -10    4.50    1.70
   4   5  10   40.00    3.90
  -4  -5 -10   54.49    4.80
  -4  -5 -10   52.49    4.90
  -3  -5 -10   27.20    3.50
  -3  -5 -10   32.80    3.30
  -3  -5 -10   33.00    3.70
  -2  -5 -10  117.59    9.80
  -2  -5 -10  103.39    9.40
  -2  -5 -10  111.89    9.70
  -2  -5 -10  114.29    9.40
  -1  -5 -10   57.09    5.60
  -1  -5 -10   61.89    5.40
  -1  -5 -10   61.89    5.80
  -1  -5 -10   53.49    5.60
   0   5  10    7.30    1.80
   0   5  10   10.60    1.30
   0  -5 -10   18.60    2.60
   0  -5 -10   16.30    2.30
   0  -5 -10   13.40    2.30
   0  -5 -10   12.70    2.40
   0  -5 -10   13.60    2.60
  -1   5  10    2.70    0.70
   1  -5 -10    5.10    1.50
   1  -5 -10    4.60    1.80
   1  -5 -10    8.00    2.40
   1  -5 -10    8.60    2.40
   1  -5 -10    4.40    1.80
   1  -5 -10    5.10    1.90
   2  -5 -10   39.70    4.40
   2  -5 -10   36.40    4.10
   2  -5 -10   34.80    4.30
   2  -5 -10   40.90    4.50
   3  -5 -10   21.40    3.30
   3  -5 -10   24.30    3.20
   3  -5 -10   34.30    3.60
   3  -5 -10   26.60    3.60
   7   6   9    0.00    0.40
  -7  -6  -9    0.10    0.90
   6   6   9   38.60    3.50
  -6  -6  -9   42.10    5.00
  -6  -6  -9   44.30    4.00
  -6  -6  -9   41.10    4.50
   5   6   9   67.89    6.00
  -5  -6  -9   74.29    6.70
  -5  -6  -9   76.09    6.50
  -5  -6  -9   77.89    6.90
   4   6   9  173.88   15.50
  -4  -6  -9  222.58   16.40
  -4  -6  -9  208.18   15.90
  -4  -6  -9  191.88   15.90
   3   6   9    5.30    0.90
   3   6   9    5.90    1.80
  -3  -6  -9    5.00    1.40
  -3  -6  -9    6.50    2.10
  -3  -6  -9    6.40    2.00
   2   6   9   11.20    1.50
   2   6   9   12.50    2.60
  -2  -6  -9   18.90    2.80
  -2  -6  -9   17.00    1.90
  -2  -6  -9   17.90    2.80
   1   6   9    1.10    1.80
   1   6   9    0.60    0.60
  -1  -6  -9    2.40    2.00
  -1  -6  -9    1.00    1.30
  -1  -6  -9    2.50    1.10
  -1  -6  -9   -0.10    1.60
  -1  -6  -9    1.20    1.50
  -1  -6  -9    3.50    1.60
   0   6   9   17.80    1.80
   0   6   9   17.90    2.00
   0   6   9   14.30    2.70
   0  -6  -9   21.40    2.50
   0  -6  -9   25.30    3.30
   0  -6  -9   27.10    3.30
   0  -6  -9   26.00    2.90
   0  -6  -9   17.90    2.80
   0  -6  -9   18.80    3.10
  -1   6   9   34.80    3.20
   1  -6  -9   43.60    4.70
   1  -6  -9   39.90    4.30
   1  -6  -9   40.50    4.20
   1  -6  -9   40.80    4.20
   1  -6  -9   42.00    4.50
  -2   6   9    1.20    0.50
  -2   6   9   -0.70    2.00
  -2   6   9   -0.80    1.20
  -2   6   9    0.30    0.50
   2  -6  -9   -0.20    1.70
   2  -6  -9    3.00    1.80
   2  -6  -9    0.30    1.80
  -3   6   9    1.00    0.60
  -3   6   9    0.80    2.00
  -3   6   9    0.50    1.30
  -3   6   9    0.80    0.60
   3  -6  -9    2.40    2.10
   3  -6  -9   -0.90    1.60
   3  -6  -9    2.90    2.00
   7   7   8   14.20    1.60
  -7  -7  -8   20.30    2.50
  -7  -7  -8   23.70    3.30
   6   7   8    8.50    1.20
  -6  -7  -8   13.30    2.80
  -6  -7  -8   10.30    2.20
  -6  -7  -8   12.10    2.10
   5   7   8   46.90    3.90
  -5  -7  -8   41.70    4.30
  -5  -7  -8   49.90    4.60
  -5  -7  -8   51.39    4.80
   4   7   8  101.29    8.70
  -4  -7  -8  115.99    9.70
  -4  -7  -8  125.09    9.70
  -4  -7  -8  102.19    9.00
  -4  -7  -8  109.69    9.20
   3   7   8   22.60    2.20
   3   7   8   18.50    3.30
   3   7   8   27.20    2.30
  -3  -7  -8   23.40    2.90
  -3  -7  -8   24.20    3.40
  -3  -7  -8   26.60    3.40
  -3  -7  -8   24.60    2.70
   2   7   8  118.29    8.70
  -2  -7  -8  108.29    9.40
  -2  -7  -8  100.09    8.90
  -2  -7  -8  109.99    9.50
   1   7   8   90.89    8.90
   1   7   8  114.09    8.40
  -1  -7  -8   96.49    8.50
  -1  -7  -8  113.09    9.20
  -1  -7  -8  111.99    9.40
   0   7   8   21.30    2.20
   0   7   8   18.20    3.30
   0   7   8   27.00    2.30
   0  -7  -8   27.30    2.70
   0  -7  -8   24.40    3.00
   0  -7  -8   30.20    3.70
   0  -7  -8   29.60    3.40
   0  -7  -8   33.60    3.80
  -1   7   8   12.30    2.60
  -1   7   8   18.50    1.70
   1  -7  -8   19.80    3.60
   1  -7  -8   23.90    3.50
   1  -7  -8   18.60    3.70
   1  -7  -8   24.10    3.30
  -2   7   8   -0.50    0.50
  -2   7   8   -0.10    0.40
  -2   7   8   -0.60    1.40
   2  -7  -8   -2.20    2.00
   2  -7  -8    1.70    1.70
   2  -7  -8    0.10    1.70
  -3   7   8   12.70    1.30
   3  -7  -8   17.90    4.00
   8   8   7   13.70    1.40
  -8  -8  -7   19.20    2.80
   7   8   7   16.50    1.70
  -7  -8  -7   20.90    2.60
  -7  -8  -7   18.50    2.90
   6   8   7   42.00    4.00
  -6  -8  -7   48.00    5.10
  -6  -8  -7   54.29    4.80
  -6  -8  -7   55.49    5.20
   5   8   7    6.00    1.30
   5   8   7    4.80    0.90
  -5  -8  -7    8.00    1.90
  -5  -8  -7    4.20    2.10
  -5  -8  -7    3.40    2.00
  -5  -8  -7    8.50    1.90
   4   8   7   24.30    2.30
   4   8   7   22.50    2.00
  -4  -8  -7   23.70    3.40
  -4  -8  -7   18.80    2.80
  -4  -8  -7   21.70    3.30
  -4  -8  -7   19.90    3.00
   3   8   7   61.49    4.70
   3   8   7   48.40    4.80
  -3  -8  -7   55.39    5.10
  -3  -8  -7   59.39    5.90
  -3  -8  -7   58.89    5.40
  -3  -8  -7   63.49    5.90
   2   8   7   12.10    1.30
   2   8   7   13.80    1.80
   2   8   7   13.70    1.50
   2   8   7    7.40    2.20
  -2  -8  -7   10.90    3.70
  -2  -8  -7   10.10    2.50
  -2  -8  -7    9.10    1.90
  -2  -8  -7    9.50    2.20
  -2  -8  -7   11.80    2.50
   1   8   7   24.00    2.20
   1   8   7   26.80    2.30
   1   8   7   22.50    2.10
  -1  -8  -7   21.60    3.30
  -1  -8  -7   25.30    3.80
  -1  -8  -7   21.20    3.90
  -1  -8  -7   21.80    2.50
  -1  -8  -7   22.00    3.30
   0   8   7   13.10    1.40
   0   8   7   15.50    1.60
   0   8   7   14.50    1.60
   0  -8  -7   18.90    2.70
   0  -8  -7   12.10    1.90
   0  -8  -7   12.80    2.60
   0  -8  -7   16.60    3.40
  -1   8   7    3.40    1.70
  -1   8   7    5.80    1.00
  -1   8   7    4.50    0.80
  -1   8   7    4.00    0.70
   1  -8  -7    6.20    2.50
   1  -8  -7    4.30    2.20
  -2   8   7    1.20    1.40
  -2   8   7    4.20    0.80
  -2   8   7    4.90    1.10
   2  -8  -7    3.60    2.00
   2  -8  -7    5.70    2.20
   2  -8  -7    5.60    3.80
  -3   8   7   14.40    1.40
   3  -8  -7   10.20    2.60
   8   9   6    7.30    1.10
   8   9   6    5.20    0.80
  -8  -9  -6    8.60    1.70
  -8  -9  -6    7.90    1.90
   7   9   6   12.30    1.40
   7   9   6   13.90    1.50
  -7  -9  -6   15.90    2.50
  -7  -9  -6   22.20    3.60
  -7  -9  -6   15.70    2.70
   6   9   6   43.30    3.60
   6   9   6   34.80    3.20
   6   9   6   38.70    3.30
  -6  -9  -6   41.00    4.00
  -6  -9  -6   36.20    4.50
  -6  -9  -6   41.20    4.50
   5   9   6   93.09    8.10
   5   9   6  100.79    8.20
   5   9   6  114.69    8.40
   5   9   6  102.69    8.30
  -5  -9  -6  109.09    9.20
  -5  -9  -6  101.49    9.40
  -5  -9  -6  101.19    8.70
   4   9   6   21.30    2.10
   4   9   6   18.60    1.60
   4   9   6   19.50    2.10
   4   9   6   16.10    1.80
  -4  -9  -6   16.60    2.50
  -4  -9  -6   10.40    2.90
  -4  -9  -6   19.80    2.80
  -4  -9  -6   15.50    3.10
   3   9   6    1.30    0.90
   3   9   6    3.20    0.50
   3   9   6    1.40    1.70
   3   9   6    2.60    1.10
  -3  -9  -6    0.40    1.50
  -3  -9  -6    2.60    2.00
  -3  -9  -6    1.70    3.10
  -3  -9  -6    4.20    1.80
   2   9   6    0.40    0.90
   2   9   6    1.20    0.50
   2   9   6    1.70    1.00
   2   9   6    0.80    1.60
  -2  -9  -6    4.70    1.60
  -2  -9  -6    4.60    1.60
  -2  -9  -6    1.20    1.50
  -2  -9  -6    0.20    1.90
  -2  -9  -6    3.40    1.90
   1   9   6    1.80    0.70
   1   9   6    0.60    1.60
   1   9   6    1.60    0.50
   1   9   6    2.70    1.10
   1   9   6    2.30    0.80
  -1  -9  -6   -0.10    1.80
  -1  -9  -6    4.60    2.20
  -1  -9  -6    2.10    1.50
   0   9   6    6.80    1.00
   0   9   6    1.40    1.60
   0   9   6    5.50    0.90
   0   9   6    4.10    0.80
   0  -9  -6    7.30    2.70
   0  -9  -6    2.00    2.30
  -1   9   6    6.80    1.20
  -1   9   6    6.60    1.10
   1  -9  -6    9.60    2.70
  -2   9   6    3.90    0.70
  -2   9   6    4.20    0.80
  -2   9   6    3.10    1.30
   2  -9  -6    3.60    2.10
   7  10   5   14.60    1.60
  -7 -10  -5   17.70    2.90
  -7 -10  -5   15.00    3.20
  -7 -10  -5   15.40    2.20
   6  10   5    7.40    1.50
   6  10   5    4.70    1.00
  -6 -10  -5    2.50    1.40
  -6 -10  -5   -1.20    1.80
  -6 -10  -5    3.50    2.40
   5  10   5    4.00    1.30
   5  10   5    1.80    0.80
  -5 -10  -5    2.10    2.10
  -5 -10  -5   -2.20    1.50
  -5 -10  -5    3.20    1.80
  -5 -10  -5    0.40    1.40
   4  10   5    3.10    1.10
   4  10   5    4.00    1.20
   4  10   5    4.10    0.90
  -4 -10  -5    7.40    2.10
  -4 -10  -5    1.90    1.80
  -4 -10  -5    5.10    1.50
  -4 -10  -5    2.50    2.00
   3  10   5   16.70    1.90
   3  10   5   12.70    1.80
   3  10   5   13.10    1.50
  -3 -10  -5   16.40    2.50
  -3 -10  -5   13.70    2.80
  -3 -10  -5    8.20    2.70
   2  10   5    6.70    1.20
   2  10   5    1.80    1.50
   2  10   5    5.90    1.10
   2  10   5    4.20    0.80
  -2 -10  -5    4.10    2.30
  -2 -10  -5    1.60    2.20
   1  10   5    4.90    1.30
   1  10   5    4.30    1.00
  -1 -10  -5    2.20    2.30
  -1 -10  -5    5.70    2.60
   0  10   5    1.00    0.50
   0  10   5    0.40    1.00
   0  10   5    1.30    1.30
   0 -10  -5    0.10    2.30
   0 -10  -5    2.90    2.40
  -1  10   5    3.20    0.70
  -1  10   5    4.80    1.10
  -1  10   5    2.50    2.20
   1 -10  -5    1.40    2.00
   1 -10  -5    3.30    1.90
   6  11   4   17.90    2.00
   6  11   4   16.80    1.80
  -6 -11  -4   19.30    2.80
   5  11   4   23.50    2.20
   5  11   4   22.90    2.30
  -5 -11  -4   19.00    3.00
  -5 -11  -4   21.80    3.90
  -5 -11  -4   26.30    3.60
   4  11   4    7.70    1.40
   4  11   4    6.40    1.00
   4  11   4    6.40    1.00
   4  11   4    5.20    1.20
  -4 -11  -4    5.40    2.10
  -4 -11  -4    5.70    2.40
   3  11   4    8.90    1.70
   3  11   4    4.80    1.10
   3  11   4    2.00    0.80
  -3 -11  -4    3.40    4.10
  -3 -11  -4    2.10    2.40
  -3 -11  -4    0.60    2.00
   2  11   4    3.20    1.20
   2  11   4    3.80    0.70
   2  11   4    2.50    1.10
  -2 -11  -4    3.70    2.20
  -2 -11  -4   -0.60    2.10
  -1 -11  -4   -0.20    1.90
  -1 -11  -4    1.20    2.00
  -1  -4 -12    1.80    1.10
   4   5  11   52.19    4.80
  -4  -5 -11   62.29    5.40
  -4  -5 -11   64.59    5.70
   3   5  11   34.50    3.30
  -3  -5 -11   34.80    4.20
  -3  -5 -11   44.80    4.20
   2   5  11    5.40    0.90
  -2  -5 -11    6.00    1.70
  -2  -5 -11    8.10    1.70
  -2  -5 -11    8.40    2.00
  -1  -5 -11    8.60    2.00
  -1  -5 -11    8.20    2.10
   0   5  11   -0.70    2.10
   0   5  11    0.30    0.50
   0  -5 -11   -1.50    2.20
   0  -5 -11    1.50    2.40
   0  -5 -11   -0.70    1.00
  -1   5  11    4.10    0.80
   1  -5 -11    7.10    2.30
   1  -5 -11    8.60    1.90
   1  -5 -11    7.20    1.60
   1  -5 -11    6.90    1.90
  -2   5  11    2.70    2.10
  -2   5  11    6.20    0.80
   2  -5 -11   12.00    2.40
   6   6  10   18.90    1.90
  -6  -6 -10   24.30    2.50
   5   6  10   15.40    1.80
  -5  -6 -10   21.10    2.60
  -5  -6 -10   21.00    3.40
  -5  -6 -10   20.20    2.60
   4   6  10    7.10    1.00
  -4  -6 -10   11.20    1.90
  -4  -6 -10    8.40    2.10
  -4  -6 -10    5.60    1.50
   3   6  10   30.90    3.30
  -3  -6 -10   43.10    4.30
  -3  -6 -10   39.70    3.90
  -3  -6 -10   49.80    4.30
  -2  -6 -10   11.50    2.20
  -2  -6 -10   10.90    2.00
  -2  -6 -10    7.10    2.10
  -2  -6 -10   10.70    2.20
   1   6  10    3.20    0.70
   1   6  10    4.50    1.50
  -1  -6 -10    5.50    2.00
  -1  -6 -10    3.90    1.70
  -1  -6 -10    6.10    1.90
  -1  -6 -10    7.50    1.70
   0   6  10   -0.20    1.40
   0   6  10    2.60    0.60
   0  -6 -10    4.00    1.40
   0  -6 -10    4.40    1.70
   0  -6 -10    3.20    1.80
   0  -6 -10    2.60    1.90
   0  -6 -10    4.20    1.70
  -1   6  10   17.20    1.70
   1  -6 -10   22.60    4.00
  -2   6  10    1.50    0.50
  -2   6  10    1.60    1.30
   2  -6 -10    2.00    1.80
   2  -6 -10    3.10    1.70
   7   7   9   23.50    2.30
  -7  -7  -9   28.50    2.80
   6   7   9   63.19    5.70
  -6  -7  -9   78.19    6.30
   5   7   9   41.40    3.80
  -5  -7  -9   46.80    4.60
  -5  -7  -9   49.10    4.40
  -5  -7  -9   46.20    4.80
   4   7   9    6.70    1.00
  -4  -7  -9    9.50    1.90
  -4  -7  -9    9.80    2.10
  -4  -7  -9    9.80    2.20
   3   7   9    2.60    0.70
   3   7   9    2.50    1.60
  -3  -7  -9    3.30    1.80
  -3  -7  -9    5.30    1.60
  -3  -7  -9    3.40    1.60
  -3  -7  -9    4.00    1.80
   2   7   9    2.80    1.70
   2   7   9    3.80    0.80
  -2  -7  -9    6.40    1.90
  -2  -7  -9    7.70    2.10
  -2  -7  -9    5.40    1.50
  -2  -7  -9    4.70    1.80
  -2  -7  -9    6.80    1.80
   1   7   9   22.70    2.40
   1   7   9   24.90    3.30
  -1  -7  -9   32.00    3.50
  -1  -7  -9   29.50    3.20
  -1  -7  -9   26.80    3.70
  -1  -7  -9   29.10    3.50
  -1  -7  -9   32.10    3.50
   0   7   9    0.80    0.70
   0   7   9   -0.50    1.50
   0   7   9    0.70    0.50
   0  -7  -9   -0.50    1.50
   0  -7  -9    1.90    1.70
   0  -7  -9    1.50    1.50
   0  -7  -9    0.20    1.70
  -1   7   9   -0.20    1.40
  -1   7   9    0.70    0.40
   1  -7  -9   -1.40    1.50
   1  -7  -9   -0.40    1.60
  -2   7   9   -0.40    1.80
  -2   7   9   -0.20    0.40
  -2   7   9   -0.20    0.60
   2  -7  -9    0.30    1.70
   2  -7  -9    4.20    2.40
   7   8   8   14.70    1.60
  -7  -8  -8   20.80    2.50
   6   8   8   22.50    2.30
  -6  -8  -8   25.00    3.50
  -6  -8  -8   32.10    3.20
   5   8   8    3.00    1.00
   5   8   8    1.80    0.60
  -5  -8  -8    3.00    1.60
  -5  -8  -8    1.60    1.60
  -5  -8  -8    0.90    1.60
   4   8   8   59.59    4.50
   4   8   8   50.39    4.40
  -4  -8  -8   48.80    5.00
  -4  -8  -8   57.59    5.70
  -4  -8  -8   54.79    5.50
   3   8   8   37.40    3.60
   3   8   8   48.00    3.70
  -3  -8  -8   41.90    4.90
  -3  -8  -8   46.40    4.90
  -3  -8  -8   42.20    4.00
  -3  -8  -8   44.10    4.30
   2   8   8    2.70    0.70
   2   8   8    3.90    1.00
   2   8   8    1.90    1.90
  -2  -8  -8    4.20    1.60
  -2  -8  -8    2.40    1.60
  -2  -8  -8    4.40    2.30
  -2  -8  -8    5.30    2.10
  -2  -8  -8    8.10    2.20
   1   8   8    7.30    1.10
   1   8   8    6.20    2.00
   1   8   8    5.60    0.80
  -1  -8  -8    7.60    1.90
  -1  -8  -8    6.80    2.10
  -1  -8  -8    8.50    2.10
  -1  -8  -8    5.10    1.80
  -1  -8  -8    5.80    2.40
   0   8   8    1.20    0.70
   0   8   8    0.30    1.60
   0   8   8    1.00    0.50
   0  -8  -8    2.10    2.10
   0  -8  -8    3.20    1.70
   0  -8  -8   -0.40    1.80
  -1   8   8   57.29    4.90
   1  -8  -8   67.89    6.20
  -2   8   8   -0.30    0.70
  -2   8   8    1.00    0.40
  -2   8   8    0.00    1.30
   2  -8  -8    1.90    1.80
   2  -8  -8   -0.60    1.60
  -7  -9  -7    4.50    3.30
  -7  -9  -7    5.00    1.70
  -7  -9  -7    2.80    1.90
   6   9   7    5.80    0.80
  -6  -9  -7    7.60    1.80
  -6  -9  -7    4.90    1.90
   5   9   7   18.90    1.90
   5   9   7   23.50    2.30
  -5  -9  -7   28.20    3.40
  -5  -9  -7   19.50    3.30
  -5  -9  -7   21.80    2.80
   4   9   7   24.00    2.40
   4   9   7   21.40    2.10
  -4  -9  -7   24.40    3.00
  -4  -9  -7   24.10    3.50
  -4  -9  -7   27.20    3.50
   3   9   7    9.50    1.00
   3   9   7    9.20    1.50
   3   9   7    9.10    2.20
  -3  -9  -7    9.80    2.00
  -3  -9  -7    9.70    2.40
  -3  -9  -7    7.30    2.20
   2   9   7    6.80    0.90
   2   9   7    7.90    1.20
   2   9   7    7.60    1.10
   2   9   7    3.20    1.80
  -2  -9  -7    8.70    2.20
  -2  -9  -7    7.90    2.40
  -2  -9  -7   10.50    2.00
   1   9   7    9.00    1.20
   1   9   7    6.30    0.80
   1   9   7    5.90    1.10
   1   9   7    3.00    1.70
  -1  -9  -7    7.70    2.40
  -1  -9  -7    4.70    2.20
   0   9   7    7.30    1.10
   0   9   7    5.70    1.80
   0   9   7    6.30    1.10
   0  -9  -7   13.20    3.80
   0  -9  -7    9.70    2.80
  -1   9   7    2.50    1.20
  -1   9   7    0.10    1.40
   1  -9  -7    0.00    1.90
   1  -9  -7    1.50    2.70
   7  10   6   12.50    1.40
   7  10   6   19.10    2.00
  -7 -10  -6   17.40    2.20
   6  10   6   10.80    1.60
   6  10   6    6.10    0.80
   6  10   6    6.50    1.00
  -6 -10  -6    8.60    2.90
  -6 -10  -6    7.30    1.90
  -6 -10  -6    4.90    1.50
   5  10   6    1.50    1.10
   5  10   6   -1.90    1.90
   5  10   6    2.20    0.40
   5  10   6    2.60    1.20
  -5 -10  -6   -2.80    1.90
  -5 -10  -6    2.60    1.70
  -5 -10  -6    1.00    2.40
  -5 -10  -6    2.40    1.40
   4  10   6    8.90    1.40
   4  10   6   14.20    1.70
   4  10   6   10.10    1.30
  -4 -10  -6   13.70    2.70
  -4 -10  -6   12.10    2.00
  -4 -10  -6   13.70    2.70
  -4 -10  -6   12.00    2.40
   3  10   6   27.90    2.50
   3  10   6   24.80    2.20
  -3 -10  -6   24.40    3.00
  -3 -10  -6   19.40    3.60
  -3 -10  -6   25.30    3.70
  -3 -10  -6   22.50    3.70
   2  10   6    1.70    1.00
   2  10   6    3.00    1.10
   2  10   6    1.40    1.50
  -2 -10  -6    6.50    2.30
  -2 -10  -6    1.80    2.10
   1  10   6    5.00    1.10
   1  10   6    4.70    2.00
  -1 -10  -6    1.00    2.30
  -1 -10  -6    9.90    2.90
   0  10   6    6.80    1.60
   0 -10  -6    6.40    2.60
   5  11   5   -0.50    0.60
   5  11   5    0.70    1.00
  -5 -11  -5    5.30    3.30
  -5 -11  -5    0.60    1.60
  -5 -11  -5   -1.20    2.00
   4  11   5   12.90    1.40
   4  11   5   14.20    1.70
  -4 -11  -5    9.10    2.70
  -4 -11  -5   12.20    2.60
   3  11   5    7.00    1.50
  -3 -11  -5    2.10    2.10
  -3 -11  -5    8.40    3.40
   2  11   5    6.80    1.30
  -2 -11  -5    8.50    2.30
   4   6  11    0.60    0.50
  -4  -6 -11   -1.90    1.10
  -4  -6 -11    1.40    1.10
   3   6  11   20.70    2.10
  -3  -6 -11   26.20    2.70
  -3  -6 -11   24.50    3.10
  -3  -6 -11   25.90    3.00
   2   6  11   -0.20    0.60
  -2  -6 -11    3.80    2.20
  -2  -6 -11    1.10    1.50
  -2  -6 -11    1.80    1.40
  -1  -6 -11    9.80    1.70
  -1  -6 -11   11.80    3.00
  -1  -6 -11    9.20    2.00
  -1  -6 -11    7.20    1.90
   0   6  11    5.60    0.80
   0   6  11    3.40    1.30
   0  -6 -11    9.60    2.10
   0  -6 -11    7.60    1.90
   0  -6 -11    7.10    1.60
  -1   6  11    1.70    0.50
  -1   6  11   -0.20    0.90
   1  -6 -11    4.30    1.80
   1  -6 -11    6.40    1.90
   5   7  10    1.70    0.60
  -5  -7 -10    2.80    1.40
  -5  -7 -10    0.70    1.60
  -5  -7 -10    4.50    1.60
   4   7  10    0.80    0.60
  -4  -7 -10   -1.60    1.60
  -4  -7 -10    0.70    1.60
  -4  -7 -10    0.30    1.20
   3   7  10    7.90    1.20
  -3  -7 -10   11.60    2.20
  -3  -7 -10   10.60    2.00
  -3  -7 -10   12.30    2.20
   2   7  10   20.20    1.80
   2   7  10   16.10    2.50
   1   7  10   25.80    3.10
   1   7  10   25.90    2.40
  -1  -7 -10   36.70    3.70
   0   7  10    1.40    0.50
   0   7  10    2.10    1.30
   0  -7 -10    0.00    1.80
   0  -7 -10    5.60    2.50
   0  -7 -10    3.20    1.90
   0  -7 -10    4.40    1.90
  -1   7  10   -0.10    0.40
  -1   7  10   -0.10    1.00
   1  -7 -10    3.50    1.70
   1  -7 -10   -0.50    1.40
   6   8   9   11.60    1.30
  -6  -8  -9    8.40    3.40
  -6  -8  -9   13.90    2.20
   5   8   9   15.70    1.70
  -5  -8  -9   21.30    2.90
  -5  -8  -9   17.40    3.10
  -5  -8  -9   18.10    2.50
   4   8   9    1.30    0.60
  -4  -8  -9   -0.60    1.30
  -4  -8  -9    0.60    1.80
  -4  -8  -9   -0.60    1.40
   3   8   9    4.80    1.70
   3   8   9    1.40    0.60
  -3  -8  -9    3.60    1.50
  -3  -8  -9    2.90    1.60
  -3  -8  -9    3.60    1.90
   2   8   9    0.80    1.50
   2   8   9    1.10    0.50
  -2  -8  -9    2.50    1.50
  -2  -8  -9    1.60    1.70
  -2  -8  -9    1.60    1.60
   1   8   9   -0.10    0.40
   1   8   9   -0.90    1.50
   1   8   9    0.20    0.80
  -1  -8  -9    1.00    1.70
  -1  -8  -9    1.80    1.80
  -1  -8  -9    3.20    1.50
  -1  -8  -9   -3.40    1.60
   0   8   9    0.40    1.50
   0   8   9    2.90    0.70
   0   8   9    2.20    0.60
   0  -8  -9    1.40    1.90
   0  -8  -9    7.60    3.10
   0  -8  -9    5.30    2.30
  -1   8   9    5.50    0.80
  -1   8   9    3.30    0.60
  -1   8   9    1.80    1.40
   1  -8  -9    7.40    1.90
   1  -8  -9    9.30    2.00
   6   9   8   10.10    1.20
  -6  -9  -8   13.80    2.10
  -6  -9  -8   12.00    2.90
   5   9   8    8.90    1.30
   5   9   8    9.50    1.20
  -5  -9  -8   10.20    2.40
  -5  -9  -8    8.50    2.00
  -5  -9  -8   13.70    2.30
   4   9   8    1.40    0.90
   4   9   8    1.10    0.50
  -4  -9  -8    5.90    1.70
  -4  -9  -8    1.00    1.60
  -4  -9  -8    2.30    1.90
   3   9   8    1.20    0.80
   3   9   8    0.50    0.40
   3   9   8    1.20    1.80
  -3  -9  -8    0.10    1.60
  -3  -9  -8    1.00    1.60
  -3  -9  -8    3.00    1.80
   2   9   8    3.80    1.80
   2   9   8    4.90    0.80
   2   9   8    7.80    1.20
  -2  -9  -8    7.10    2.20
  -2  -9  -8    7.90    1.90
  -2  -9  -8    5.10    2.30
   1   9   8   39.90    3.40
   1   9   8   41.00    4.20
  -1  -9  -8   42.80    4.90
  -1  -9  -8   33.60    5.30
   0   9   8   -0.70    2.20
   0   9   8   -0.70    0.40
   0   9   8    0.20    0.70
   0  -9  -8    4.20    3.10
  -1   9   8   28.20    2.20
  -1   9   8   16.30    2.60
   1  -9  -8   19.80    5.70
   6  10   7    7.70    1.00
   6  10   7   11.80    1.50
  -6 -10  -7   13.20    2.00
  -6 -10  -7   12.80    2.50
   5  10   7    2.20    0.50
   5  10   7    3.00    1.10
  -5 -10  -7    1.60    1.80
  -5 -10  -7    0.00    1.90
  -5 -10  -7    4.70    1.60
  -5 -10  -7    3.10    1.90
   4  10   7    1.90    0.50
  -4 -10  -7    2.40    1.60
  -4 -10  -7    5.70    2.00
  -4 -10  -7    0.90    1.60
  -4 -10  -7    3.20    2.10
   3  10   7    5.70    1.60
  -3 -10  -7    5.40    2.00
  -3 -10  -7    1.40    1.80
  -3 -10  -7    2.50    2.10
  -3 -10  -7    9.50    2.00
   2  10   7    3.00    2.00
  -2 -10  -7    4.90    2.20
  -2 -10  -7    4.80    2.60
   1  10   7    3.20    1.50
   1  10   7    2.90    0.90
  -1 -10  -7    2.70    2.30
   0 -10  -7    2.20    2.10
   0 -10  -7    2.90    2.10
   4  11   6    3.50    1.00
   4  11   6    2.20    1.00
  -4 -11  -6    0.20    2.00
   3  11   6    7.90    1.30
  -3 -11  -6    5.90    2.20
   3   7  11    5.20    0.80
  -3  -7 -11    9.00    1.90
  -3  -7 -11    8.20    1.60
  -2  -7 -11    4.20    1.40
  -2  -7 -11    6.20    1.70
   1   7  11    0.00    0.40
   1   7  11    1.10    1.30
  -1  -7 -11    2.00    2.80
  -1  -7 -11    2.50    1.70
  -1  -7 -11   -0.90    1.40
  -4  -8 -10    4.10    1.50
  -4  -8 -10    2.00    1.60
  -4  -8 -10    7.00    2.30
   3   8  10   28.00    2.60
  -3  -8 -10   34.30    3.70
  -3  -8 -10   33.20    3.20
  -3  -8 -10   28.20    3.80
   2   8  10    1.40    1.40
   2   8  10    0.70    0.50
  -2  -8 -10    2.10    1.50
  -2  -8 -10    2.30    2.00
  -2  -8 -10    1.00    1.40
   1   8  10    0.50    0.40
   1   8  10   -0.30    1.40
  -1  -8 -10    1.60    1.80
  -1  -8 -10    5.40    2.00
   0   8  10    0.80    0.40
   0   8  10   -0.90    1.20
   0  -8 -10    3.10    1.70
   0  -8 -10    3.80    1.90
   5   9   9    0.70    0.40
  -5  -9  -9    1.00    1.30
  -5  -9  -9    0.50    1.80
   4   9   9   14.60    1.50
  -4  -9  -9   14.00    2.70
  -4  -9  -9   20.70    2.80
  -4  -9  -9   14.30    2.30
   3   9   9    3.10    1.80
   3   9   9    5.10    0.80
   3   9   9    8.40    1.90
  -3  -9  -9    9.10    2.00
  -3  -9  -9    8.50    1.90
  -3  -9  -9    7.50    2.00
   2   9   9    0.80    0.40
   2   9   9    1.60    1.80
   2   9   9    2.10    0.90
  -2  -9  -9    2.70    1.80
  -2  -9  -9   -0.60    1.70
   1   9   9    4.20    1.50
   1   9   9    3.80    0.70
   1   9   9    6.40    1.00
  -1  -9  -9    7.70    2.00
  -5 -10  -8    6.10    2.90
   4  10   8    1.60    0.40
   4  10   8    1.80    0.80
  -4 -10  -8    2.80    1.40
  -4 -10  -8    3.40    1.60
  -4 -10  -8   -0.60    1.60
   3  10   8    7.10    0.90
   3  10   8    9.50    1.20
  -3 -10  -8    9.40    3.10
  -3 -10  -8    5.40    2.20
  -3 -10  -8    6.30    2.40
   2  10   8    3.80    1.60
   2  10   8    6.90    1.10
  -2 -10  -8    5.80    2.00
   0   0   0    0.00    0.00

_computing_structure_solution     'SHELXT 2014/5 (Sheldrick, 2014)'
;
_shelx_hkl_checksum              44677
_olex2_submission_special_instructions 'No special instructions were received'
loop_
_space_group_symop_operation_xyz
'x, y, z'
loop_
_atom_site_label
_atom_site_type_symbol
_atom_site_fract_x
_atom_site_fract_y
_atom_site_fract_z
_atom_site_U_iso_or_equiv
_atom_site_adp_type
_atom_site_occupancy
_atom_site_site_symmetry_order
_atom_site_calc_flag
_atom_site_refinement_flags_posn
_atom_site_refinement_flags_adp
_atom_site_refinement_flags_occupancy
_atom_site_disorder_assembly
_atom_site_disorder_group
O1 O 1.6079(5) -0.7715(4) 0.1634(3) 0.066 Uani 1 1 d . . . . .
O2 O 1.5370(5) -0.6265(4) 0.3165(3) 0.064 Uani 1 1 d D . . . .
H2 H 1.47(10) -0.59(4) 0.38(7) 2.000 Uiso 1 1 d D . . . .
O3 O 1.6252(4) -0.6109(3) 0.8946(3) 0.056 Uani 1 1 d D . . . .
H3 H 1.618(5) -0.642(4) 0.980(3) 0.031 Uiso 1 1 d D . . . .
C1 C 1.9051(5) -1.3240(5) 0.7439(5) 0.049 Uani 1 1 d . . . . .
H1 H 1.810240 -1.357807 0.780642 0.059 Uiso 1 1 calc R . . . .
C2 C 1.9727(6) -1.2802(5) 0.8607(5) 0.050 Uani 1 1 d . . . . .
H2A H 2.010918 -1.373823 0.943160 0.060 Uiso 1 1 calc R . . . .
H2B H 2.069963 -1.250979 0.827276 0.060 Uiso 1 1 calc R . . . .
C3 C 1.8424(5) -1.1425(5) 0.9057(4) 0.048 Uani 1 1 d . . . . .
H3A H 1.892209 -1.116780 0.979782 0.058 Uiso 1 1 calc R . . . .
H3B H 1.748616 -1.174147 0.945879 0.058 Uiso 1 1 calc R . . . .
C4 C 1.7770(5) -0.9955(4) 0.7811(4) 0.039 Uani 1 1 d . . . . .
H4 H 1.874357 -0.966079 0.743904 0.046 Uiso 1 1 calc R . . . .
C5 C 1.7066(4) -1.0367(4) 0.6627(4) 0.038 Uani 1 1 d . . . . .
H5 H 1.611683 -1.070036 0.700330 0.045 Uiso 1 1 calc R . . . .
C6 C 1.6405(4) -0.8962(4) 0.5361(4) 0.038 Uani 1 1 d . . . . .
H6 H 1.589932 -0.793891 0.551879 0.046 Uiso 1 1 calc R . . . .
C7 C 1.6485(5) -0.9065(5) 0.4035(4) 0.039 Uani 1 1 d . . . . .
C8 C 1.7218(5) -1.0621(5) 0.3655(4) 0.046 Uani 1 1 d . . . . .
H8A H 1.824980 -1.066390 0.315015 0.055 Uiso 1 1 calc R . . . .
H8B H 1.642084 -1.068360 0.300824 0.055 Uiso 1 1 calc R . . . .
C9 C 1.7621(5) -1.2048(5) 0.4944(5) 0.047 Uani 1 1 d . . . . .
H9A H 1.841376 -1.299933 0.469352 0.056 Uiso 1 1 calc R . . . .
H9B H 1.658901 -1.225027 0.523535 0.056 Uiso 1 1 calc R . . . .
C10 C 1.8384(5) -1.1772(5) 0.6187(4) 0.041 Uani 1 1 d . . . . .
H10 H 1.934126 -1.144307 0.583083 0.049 Uiso 1 1 calc R . . . .
C11 C 2.0398(7) -1.4634(6) 0.7036(6) 0.066 Uani 1 1 d . . . . .
H11A H 2.129033 -1.429319 0.658583 0.099 Uiso 1 1 calc GR . . . .
H11B H 1.991279 -1.499581 0.637926 0.099 Uiso 1 1 calc GR . . . .
H11C H 2.085456 -1.550483 0.788395 0.099 Uiso 1 1 calc GR . . . .
C12 C 1.6543(5) -0.8552(5) 0.8283(4) 0.041 Uani 1 1 d . . . . .
C13 C 1.5017(5) -0.8430(6) 0.8619(5) 0.052 Uani 1 1 d . . . . .
H13A H 1.431911 -0.755351 0.894754 0.062 Uiso 1 1 calc R . . . .
H13B H 1.460994 -0.921723 0.853417 0.062 Uiso 1 1 calc R . . . .
C14 C 1.7287(6) -0.7363(5) 0.8386(4) 0.048 Uani 1 1 d . . . . .
H14A H 1.833098 -0.793140 0.898018 0.057 Uiso 1 1 calc R . . . .
H14B H 1.758626 -0.689641 0.743246 0.057 Uiso 1 1 calc R . . . .
C15 C 1.5949(5) -0.7631(5) 0.2834(4) 0.045 Uani 1 1 d D . . . .
O1A O 1.4046(4) -0.2171(4) 0.8369(3) 0.053 Uani 1 1 d . . . . .
O2A O 1.4427(4) -0.3727(4) 0.6940(3) 0.055 Uani 1 1 d D . . . .
H2AA H 1.471(7) -0.435(6) 0.774(4) 0.071 Uiso 1 1 d D . . . .
O3A O 1.5198(4) -0.3777(3) 0.1074(3) 0.052 Uani 1 1 d . . . . .
H3AA H 1.550851 -0.457882 0.176822 0.078 Uiso 1 1 calc R . . . .
C1A C 1.0045(5) 0.2977(5) 0.2583(4) 0.044 Uani 1 1 d . . . . .
H1A H 0.901444 0.271625 0.264522 0.053 Uiso 1 1 calc R . . . .
C2A C 1.0753(6) 0.2860(5) 0.1141(4) 0.051 Uani 1 1 d . . . . .
H2AB H 0.990276 0.360773 0.039475 0.061 Uiso 1 1 calc R . . . .
H2AC H 1.173133 0.318623 0.102893 0.061 Uiso 1 1 calc R . . . .
C3A C 1.1268(5) 0.1206(5) 0.0949(4) 0.046 Uani 1 1 d . . . . .
H3AB H 1.178966 0.118709 0.003265 0.056 Uiso 1 1 calc R . . . .
H3AC H 1.026258 0.093968 0.092556 0.056 Uiso 1 1 calc R . . . .
C4A C 1.2498(5) -0.0063(4) 0.2128(4) 0.038 Uani 1 1 d . . . . .
H4A H 1.352613 0.019547 0.210777 0.046 Uiso 1 1 calc R . . . .
C5A C 1.1697(4) 0.0065(4) 0.3554(4) 0.037 Uani 1 1 d . . . . .
H5A H 1.060632 -0.006863 0.350606 0.044 Uiso 1 1 calc R . . . .
C6A C 1.2697(5) -0.1229(4) 0.4793(4) 0.038 Uani 1 1 d . . . . .
H6A H 1.324820 -0.226410 0.467177 0.046 Uiso 1 1 calc R . . . .
C7A C 1.2851(5) -0.1003(4) 0.6042(4) 0.039 Uani 1 1 d . . . . .
C8A C 1.2058(5) 0.0585(5) 0.6352(4) 0.044 Uani 1 1 d . . . . .
H8AA H 1.292320 0.103431 0.639099 0.053 Uiso 1 1 calc R . . . .
H8AB H 1.156689 0.044278 0.728590 0.053 Uiso 1 1 calc R . . . .
C9A C 1.0710(5) 0.1741(4) 0.5248(4) 0.041 Uani 1 1 d . . . . .
H9AA H 1.040205 0.282555 0.536259 0.050 Uiso 1 1 calc R . . . .
H9AB H 0.970642 0.145371 0.538511 0.050 Uiso 1 1 calc R . . . .
C10A C 1.1302(4) 0.1721(4) 0.3750(4) 0.037 Uani 1 1 d . . . . .
H10A H 1.235642 0.194297 0.365842 0.045 Uiso 1 1 calc R . . . .
C11A C 0.9548(7) 0.4661(5) 0.2733(6) 0.062 Uani 1 1 d . . . . .
H11D H 0.892814 0.475007 0.358797 0.093 Uiso 1 1 calc GR . . . .
H11E H 0.884550 0.541523 0.191138 0.093 Uiso 1 1 calc GR . . . .
H11F H 1.055099 0.490085 0.279775 0.093 Uiso 1 1 calc GR . . . .
C12A C 1.2988(5) -0.1693(5) 0.1869(4) 0.043 Uani 1 1 d . . . . .
C13A C 1.1938(6) -0.2408(6) 0.1861(5) 0.056 Uani 1 1 d . . . . .
H13C H 1.230570 -0.340305 0.164311 0.067 Uiso 1 1 calc R . . . .
H13D H 1.081065 -0.193016 0.207312 0.067 Uiso 1 1 calc R . . . .
C14A C 1.4786(5) -0.2382(5) 0.1544(4) 0.047 Uani 1 1 d . . . . .
H14C H 1.505990 -0.157044 0.080987 0.056 Uiso 1 1 calc R . . . .
H14D H 1.548603 -0.263229 0.240103 0.056 Uiso 1 1 calc R . . . .
C15A C 1.3843(5) -0.2363(5) 0.7223(4) 0.040 Uani 1 1 d . . . . .
loop_
_atom_site_aniso_label
_atom_site_aniso_U_11
_atom_site_aniso_U_22
_atom_site_aniso_U_33
_atom_site_aniso_U_23
_atom_site_aniso_U_13
_atom_site_aniso_U_12
O1 0.106 0.066 0.031 -0.013 -0.002 -0.034
O2 0.094 0.047 0.036 -0.007 0.000 -0.010
O3 0.084 0.039 0.034 -0.006 -0.005 -0.012
C1 0.051 0.042 0.052 -0.007 0.007 -0.017
C2 0.049 0.043 0.045 0.000 0.001 -0.010
C3 0.051 0.048 0.039 -0.005 -0.003 -0.014
C4 0.037 0.043 0.036 -0.008 0.002 -0.018
C5 0.034 0.044 0.040 -0.012 0.006 -0.020
C6 0.036 0.043 0.037 -0.010 0.000 -0.016
C7 0.035 0.048 0.037 -0.010 0.000 -0.019
C8 0.044 0.057 0.045 -0.021 -0.001 -0.022
C9 0.046 0.049 0.054 -0.021 0.006 -0.023
C10 0.041 0.041 0.043 -0.012 0.005 -0.018
C11 0.073 0.043 0.067 -0.009 -0.003 -0.007
C12 0.047 0.045 0.027 -0.006 -0.004 -0.014
C13 0.048 0.064 0.046 -0.022 0.005 -0.018
C14 0.057 0.042 0.041 -0.008 -0.005 -0.015
C15 0.048 0.054 0.036 -0.009 -0.006 -0.022
O1A 0.065 0.057 0.035 -0.007 -0.007 -0.020
O2A 0.073 0.045 0.038 -0.007 -0.010 -0.013
O3A 0.066 0.043 0.039 -0.009 -0.003 -0.011
C1A 0.041 0.043 0.042 -0.003 -0.001 -0.015
C2A 0.057 0.048 0.039 0.001 -0.002 -0.017
C3A 0.052 0.051 0.031 -0.004 -0.001 -0.017
C4A 0.040 0.044 0.034 -0.009 0.002 -0.018
C5A 0.031 0.044 0.036 -0.005 -0.004 -0.018
C6A 0.038 0.040 0.038 -0.008 0.000 -0.018
C7A 0.036 0.046 0.037 -0.005 -0.002 -0.020
C8A 0.048 0.051 0.039 -0.013 -0.004 -0.022
C9A 0.039 0.043 0.043 -0.011 0.001 -0.015
C10A 0.031 0.043 0.040 -0.007 0.001 -0.018
C11A 0.070 0.042 0.062 -0.006 0.000 -0.012
C12A 0.051 0.046 0.030 -0.006 -0.005 -0.017
C13A 0.051 0.059 0.070 -0.029 0.004 -0.026
C14A 0.050 0.045 0.043 -0.011 0.000 -0.014
C15A 0.041 0.048 0.034 -0.008 0.000 -0.021
loop_
_atom_type_symbol
_atom_type_description
_atom_type_scat_dispersion_real
_atom_type_scat_dispersion_imag
_atom_type_scat_source
C C 0.0148 0.0070 'International Tables Vol C Tables 4.2.6.8 and 6.1.1.4'
H H 0.0000 0.0000 'International Tables Vol C Tables 4.2.6.8 and 6.1.1.4'
O O 0.0412 0.0250 'International Tables Vol C Tables 4.2.6.8 and 6.1.1.4'
loop_
_geom_angle_atom_site_label_1
_geom_angle_atom_site_label_2
_geom_angle_atom_site_label_3
_geom_angle
_geom_angle_site_symmetry_1
_geom_angle_site_symmetry_3
_geom_angle_publ_flag
C15 O2 H2 133(6) . . ?
C14 O3 H3 111(3) . . ?
C2 C1 H1 108.2 . . ?
C2 C1 C10 109.3(3) . . ?
C2 C1 C11 110.1(4) . . ?
C10 C1 H1 108.2 . . ?
C11 C1 H1 108.2 . . ?
C11 C1 C10 112.6(4) . . ?
C1 C2 H2A 109.2 . . ?
C1 C2 H2B 109.2 . . ?
H2A C2 H2B 107.9 . . ?
C3 C2 C1 112.2(4) . . ?
C3 C2 H2A 109.2 . . ?
C3 C2 H2B 109.2 . . ?
C2 C3 H3A 109.4 . . ?
C2 C3 H3B 109.4 . . ?
C2 C3 C4 111.2(3) . . ?
H3A C3 H3B 108.0 . . ?
C4 C3 H3A 109.4 . . ?
C4 C3 H3B 109.4 . . ?
C3 C4 H4 107.3 . . ?
C3 C4 C5 109.7(3) . . ?
C5 C4 H4 107.3 . . ?
C12 C4 C3 110.9(3) . . ?
C12 C4 H4 107.3 . . ?
C12 C4 C5 114.1(3) . . ?
C4 C5 H5 107.7 . . ?
C4 C5 C10 111.1(3) . . ?
C6 C5 C4 112.2(3) . . ?
C6 C5 H5 107.7 . . ?
C6 C5 C10 110.2(3) . . ?
C10 C5 H5 107.7 . . ?
C5 C6 H6 117.9 . . ?
C7 C6 C5 124.1(4) . . ?
C7 C6 H6 117.9 . . ?
C6 C7 C8 122.9(4) . . ?
C6 C7 C15 121.4(4) . . ?
C15 C7 C8 115.6(3) . . ?
C7 C8 H8A 109.1 . . ?
C7 C8 H8B 109.1 . . ?
C7 C8 C9 112.5(3) . . ?
H8A C8 H8B 107.8 . . ?
C9 C8 H8A 109.1 . . ?
C9 C8 H8B 109.1 . . ?
C8 C9 H9A 109.3 . . ?
C8 C9 H9B 109.3 . . ?
C8 C9 C10 111.7(3) . . ?
H9A C9 H9B 107.9 . . ?
C10 C9 H9A 109.3 . . ?
C10 C9 H9B 109.3 . . ?
C1 C10 C5 111.7(3) . . ?
C1 C10 C9 114.4(3) . . ?
C1 C10 H10 107.5 . . ?
C5 C10 C9 107.9(3) . . ?
C5 C10 H10 107.5 . . ?
C9 C10 H10 107.5 . . ?
C1 C11 H11A 109.5 . . ?
C1 C11 H11B 109.5 . . ?
C1 C11 H11C 109.5 . . ?
H11A C11 H11B 109.5 . . ?
H11A C11 H11C 109.5 . . ?
H11B C11 H11C 109.5 . . ?
C13 C12 C4 123.4(4) . . ?
C13 C12 C14 123.6(4) . . ?
C14 C12 C4 113.0(3) . . ?
C12 C13 H13A 120.0 . . ?
C12 C13 H13B 120.0 . . ?
H13A C13 H13B 120.0 . . ?
O3 C14 C12 115.4(4) . . ?
O3 C14 H14A 108.4 . . ?
O3 C14 H14B 108.4 . . ?
C12 C14 H14A 108.4 . . ?
C12 C14 H14B 108.4 . . ?
H14A C14 H14B 107.5 . . ?
O1 C15 O2 122.5(4) . . ?
O1 C15 C7 121.7(4) . . ?
O2 C15 C7 115.7(3) . . ?
C15A O2A H2AA 102(4) . . ?
C14A O3A H3AA 109.5 . . ?
C2A C1A H1A 107.6 . . ?
C2A C1A C10A 109.4(3) . . ?
C10A C1A H1A 107.6 . . ?
C11A C1A H1A 107.6 . . ?
C11A C1A C2A 111.1(3) . . ?
C11A C1A C10A 113.2(3) . . ?
C1A C2A H2AB 109.0 . . ?
C1A C2A H2AC 109.0 . . ?
H2AB C2A H2AC 107.8 . . ?
C3A C2A C1A 112.8(3) . . ?
C3A C2A H2AB 109.0 . . ?
C3A C2A H2AC 109.0 . . ?
C2A C3A H3AB 109.0 . . ?
C2A C3A H3AC 109.0 . . ?
C2A C3A C4A 112.8(3) . . ?
H3AB C3A H3AC 107.8 . . ?
C4A C3A H3AB 109.0 . . ?
C4A C3A H3AC 109.0 . . ?
C3A C4A H4A 108.0 . . ?
C3A C4A C5A 107.9(3) . . ?
C5A C4A H4A 108.0 . . ?
C12A C4A C3A 110.4(3) . . ?
C12A C4A H4A 108.0 . . ?
C12A C4A C5A 114.3(3) . . ?
C4A C5A H5A 106.6 . . ?
C6A C5A C4A 113.4(3) . . ?
C6A C5A H5A 106.6 . . ?
C6A C5A C10A 112.4(3) . . ?
C10A C5A C4A 110.8(3) . . ?
C10A C5A H5A 106.6 . . ?
C5A C6A H6A 118.2 . . ?
C7A C6A C5A 123.6(3) . . ?
C7A C6A H6A 118.2 . . ?
C6A C7A C8A 122.9(3) . . ?
C6A C7A C15A 120.1(4) . . ?
C15A C7A C8A 116.9(3) . . ?
C7A C8A H8AA 109.2 . . ?
C7A C8A H8AB 109.2 . . ?
C7A C8A C9A 112.0(3) . . ?
H8AA C8A H8AB 107.9 . . ?
C9A C8A H8AA 109.2 . . ?
C9A C8A H8AB 109.2 . . ?
C8A C9A H9AA 109.4 . . ?
C8A C9A H9AB 109.4 . . ?
C8A C9A C10A 111.2(3) . . ?
H9AA C9A H9AB 108.0 . . ?
C10A C9A H9AA 109.4 . . ?
C10A C9A H9AB 109.4 . . ?
C1A C10A H10A 107.9 . . ?
C5A C10A C1A 110.2(3) . . ?
C5A C10A C9A 109.2(3) . . ?
C5A C10A H10A 107.9 . . ?
C9A C10A C1A 113.6(3) . . ?
C9A C10A H10A 107.9 . . ?
C1A C11A H11D 109.5 . . ?
C1A C11A H11E 109.5 . . ?
C1A C11A H11F 109.5 . . ?
H11D C11A H11E 109.5 . . ?
H11D C11A H11F 109.5 . . ?
H11E C11A H11F 109.5 . . ?
C13A C12A C4A 123.8(4) . . ?
C13A C12A C14A 122.7(4) . . ?
C14A C12A C4A 113.4(3) . . ?
C12A C13A H13C 120.0 . . ?
C12A C13A H13D 120.0 . . ?
H13C C13A H13D 120.0 . . ?
O3A C14A C12A 114.0(3) . . ?
O3A C14A H14C 108.8 . . ?
O3A C14A H14D 108.8 . . ?
C12A C14A H14C 108.8 . . ?
C12A C14A H14D 108.8 . . ?
H14C C14A H14D 107.7 . . ?
O1A C15A O2A 123.7(4) . . ?
O1A C15A C7A 121.2(4) . . ?
O2A C15A C7A 115.1(3) . . ?
loop_
_geom_bond_atom_site_label_1
_geom_bond_atom_site_label_2
_geom_bond_distance
_geom_bond_site_symmetry_2
_geom_bond_publ_flag
O1 C15 1.204(5) . ?
O2 H2 0.85(5) . ?
O2 C15 1.318(5) . ?
O3 H3 0.82(2) . ?
O3 C14 1.419(5) . ?
C1 H1 1.0000 . ?
C1 C2 1.528(6) . ?
C1 C10 1.531(6) . ?
C1 C11 1.529(6) . ?
C2 H2A 0.9900 . ?
C2 H2B 0.9900 . ?
C2 C3 1.524(6) . ?
C3 H3A 0.9900 . ?
C3 H3B 0.9900 . ?
C3 C4 1.529(5) . ?
C4 H4 1.0000 . ?
C4 C5 1.540(5) . ?
C4 C12 1.526(5) . ?
C5 H5 1.0000 . ?
C5 C6 1.509(5) . ?
C5 C10 1.542(5) . ?
C6 H6 0.9500 . ?
C6 C7 1.333(5) . ?
C7 C8 1.505(6) . ?
C7 C15 1.479(6) . ?
C8 H8A 0.9900 . ?
C8 H8B 0.9900 . ?
C8 C9 1.528(6) . ?
C9 H9A 0.9900 . ?
C9 H9B 0.9900 . ?
C9 C10 1.544(5) . ?
C10 H10 1.0000 . ?
C11 H11A 0.9800 . ?
C11 H11B 0.9800 . ?
C11 H11C 0.9800 . ?
C12 C13 1.313(6) . ?
C12 C14 1.502(6) . ?
C13 H13A 0.9500 . ?
C13 H13B 0.9500 . ?
C14 H14A 0.9900 . ?
C14 H14B 0.9900 . ?
O1A C15A 1.222(5) . ?
O2A H2AA 0.83(3) . ?
O2A C15A 1.294(5) . ?
O3A H3AA 0.8400 . ?
O3A C14A 1.421(5) . ?
C1A H1A 1.0000 . ?
C1A C2A 1.533(6) . ?
C1A C10A 1.540(5) . ?
C1A C11A 1.526(6) . ?
C2A H2AB 0.9900 . ?
C2A H2AC 0.9900 . ?
C2A C3A 1.512(6) . ?
C3A H3AB 0.9900 . ?
C3A H3AC 0.9900 . ?
C3A C4A 1.540(5) . ?
C4A H4A 1.0000 . ?
C4A C5A 1.548(5) . ?
C4A C12A 1.519(5) . ?
C5A H5A 1.0000 . ?
C5A C6A 1.507(5) . ?
C5A C10A 1.528(5) . ?
C6A H6A 0.9500 . ?
C6A C7A 1.325(5) . ?
C7A C8A 1.502(6) . ?
C7A C15A 1.496(5) . ?
C8A H8AA 0.9900 . ?
C8A H8AB 0.9900 . ?
C8A C9A 1.518(6) . ?
C9A H9AA 0.9900 . ?
C9A H9AB 0.9900 . ?
C9A C10A 1.539(5) . ?
C10A H10A 1.0000 . ?
C11A H11D 0.9800 . ?
C11A H11E 0.9800 . ?
C11A H11F 0.9800 . ?
C12A C13A 1.311(6) . ?
C12A C14A 1.502(6) . ?
C13A H13C 0.9500 . ?
C13A H13D 0.9500 . ?
C14A H14C 0.9900 . ?
C14A H14D 0.9900 . ?
loop_
_geom_hbond_atom_site_label_D
_geom_hbond_atom_site_label_H
_geom_hbond_atom_site_label_A
_geom_hbond_distance_DH
_geom_hbond_distance_HA
_geom_hbond_distance_DA
_geom_hbond_angle_DHA
_geom_hbond_site_symmetry_A
O3 H3 O1 0.82(2) 1.91(3) 2.705(4) 163(4) 1_556
O2A H2AA O3 0.83(3) 1.86(4) 2.610(4) 150(6) .
O3A H3AA O2 0.84 1.84 2.636(4) 158.0 .
