#------------------------------------------------------------------------------
#$Date: 2020-10-30 02:29:10 +0200 (Fri, 30 Oct 2020) $
#$Revision: 258642 $
#$URL: file:///home/coder/svn-repositories/cod/cif/1/55/94/1559419.cif $
#------------------------------------------------------------------------------
#
# This file is available in the Crystallography Open Database (COD),
# http://www.crystallography.net/
#
# All data on this site have been placed in the public domain by the
# contributors.
#
data_1559419
loop_
_publ_author_name
'Shkrob, Ilya A.'
'Li, Tao'
'Sarnello, Erik'
'Robertson, Lily A.'
'Zhao, Yuyue'
'Farag, Hossam'
'Yu, Zhou'
'Zhang, Jingjing'
'Bheemireddy, Sambasiva R.'
'Z, Y'
'Assary, Rajeev S.'
'Ewoldt, Randy H.'
'Cheng, Lei'
'Zhang, Lu'
_publ_section_title
;
 Self-Assembled Solute Networks in Crowded Electrolyte Solutions and
 Nanoconfinement of Charged Redoxmer Molecules
;
_journal_name_full               'The Journal of Physical Chemistry B'
_journal_paper_doi               10.1021/acs.jpcb.0c07760
_journal_year                    2020
_chemical_formula_moiety         'C20 H34 O4'
_chemical_formula_sum            'C20 H34 O4'
_chemical_formula_weight         338.47
_space_group_crystal_system      triclinic
_space_group_IT_number           2
_space_group_name_Hall           '-P 1'
_space_group_name_H-M_alt        'P -1'
_atom_sites_solution_hydrogens   geom
_audit_creation_method           SHELXL-2014/7
_cell_angle_alpha                113.2830(10)
_cell_angle_beta                 103.7660(10)
_cell_angle_gamma                91.1030(10)
_cell_formula_units_Z            1
_cell_length_a                   6.8597(4)
_cell_length_b                   8.1506(5)
_cell_length_c                   9.6464(6)
_cell_measurement_reflns_used    6705
_cell_measurement_temperature    100(2)
_cell_measurement_theta_max      30.504
_cell_measurement_theta_min      2.385
_cell_volume                     477.29(5)
_computing_cell_refinement       'BRUKR APEX'
_computing_data_collection       'BRUKER APEX'
_computing_data_reduction        'BRUKER APEX'
_computing_structure_refinement  'SHELXL-2014/7 (Sheldrick, 2014)'
_computing_structure_solution    SHELXS
_diffrn_ambient_temperature      100(2)
_diffrn_measured_fraction_theta_full 1.000
_diffrn_measured_fraction_theta_max 0.917
_diffrn_measurement_device_type  'BRUKER APEX II'
_diffrn_measurement_method       '0.5 deg /w scans'
_diffrn_radiation_type           MoK\a
_diffrn_radiation_wavelength     0.71073
_diffrn_reflns_av_R_equivalents  0.0090
_diffrn_reflns_av_unetI/netI     0.0102
_diffrn_reflns_Laue_measured_fraction_full 1.000
_diffrn_reflns_Laue_measured_fraction_max 0.917
_diffrn_reflns_limit_h_max       9
_diffrn_reflns_limit_h_min       -9
_diffrn_reflns_limit_k_max       11
_diffrn_reflns_limit_k_min       -11
_diffrn_reflns_limit_l_max       13
_diffrn_reflns_limit_l_min       -13
_diffrn_reflns_number            6705
_diffrn_reflns_point_group_measured_fraction_full 1.000
_diffrn_reflns_point_group_measured_fraction_max 0.917
_diffrn_reflns_theta_full        25.242
_diffrn_reflns_theta_max         30.504
_diffrn_reflns_theta_min         2.385
_diffrn_source                   'BRUKER TRIUMPH'
_exptl_absorpt_coefficient_mu    0.080
_exptl_absorpt_correction_T_max  0.7461
_exptl_absorpt_correction_T_min  0.6994
_exptl_absorpt_correction_type   multi-scan
_exptl_absorpt_process_details   SADABS
_exptl_crystal_colour            colorless
_exptl_crystal_density_diffrn    1.178
_exptl_crystal_density_meas      ?
_exptl_crystal_description       fragment
_exptl_crystal_F_000             186
_exptl_crystal_size_max          0.400
_exptl_crystal_size_mid          0.300
_exptl_crystal_size_min          0.200
_refine_diff_density_max         0.432
_refine_diff_density_min         -0.207
_refine_diff_density_rms         0.042
_refine_ls_extinction_method     none
_refine_ls_goodness_of_fit_ref   1.018
_refine_ls_hydrogen_treatment    constr
_refine_ls_matrix_type           full
_refine_ls_number_parameters     109
_refine_ls_number_reflns         2662
_refine_ls_number_restraints     0
_refine_ls_restrained_S_all      1.018
_refine_ls_R_factor_all          0.0361
_refine_ls_R_factor_gt           0.0339
_refine_ls_shift/su_max          0.000
_refine_ls_shift/su_mean         0.000
_refine_ls_structure_factor_coef Fsqd
_refine_ls_weighting_details
'w=1/[\s^2^(Fo^2^)+(0.0493P)^2^+0.1733P] where P=(Fo^2^+2Fc^2^)/3'
_refine_ls_weighting_scheme      calc
_refine_ls_wR_factor_gt          0.0927
_refine_ls_wR_factor_ref         0.0946
_reflns_Friedel_coverage         0.000
_reflns_number_gt                2491
_reflns_number_total             2662
_reflns_threshold_expression     'I > 2\s(I)'
_cod_data_source_file            DB3.cif
_cod_data_source_block           pbar
_cod_depositor_comments
;
The following automatic conversions were performed:

data item '_exptl_crystal_density_meas' value 'not measured' was
changed to '?' -- the value is perceived as not measured.

Automatic conversion script
Id: cif_fix_values 7556 2019-12-06 15:28:31Z antanas 
;
_cod_database_code               1559419
_shelx_shelxl_version_number     2014/7
_shelx_space_group_comment
;
The symmetry employed for this shelxl refinement is uniquely defined
by the following loop, which should always be used as a source of
symmetry information in preference to the above space-group names.
They are only intended as comments.
;
_shelx_res_file
;

    pbar.res created by SHELXL-2014/7

TITL pbar in P-1
CELL 0.71073   6.8597   8.1506   9.6464 113.283 103.766  91.103
ZERR    1.00   0.0004   0.0005   0.0006   0.001   0.001   0.001
LATT  1
SFAC C H O
UNIT 20 34 4
ACTA
TEMP 23.000
L.S. 8
BOND
FMAP 2
PLAN 20

WGHT    0.049300    0.173300
FVAR       0.44142
O1    3    0.108029    0.390122    0.808906    11.00000    0.00880    0.01622 =
         0.01384    0.00905   -0.00223   -0.00280
O2    3   -0.232625    0.149597    0.558074    11.00000    0.01499    0.01319 =
         0.01126    0.00490    0.00049   -0.00016
C3    1    0.303493    0.443322    0.904047    11.00000    0.00864    0.01156 =
         0.00895    0.00378    0.00040    0.00033
C4    1    0.420357    0.576087    0.889427    11.00000    0.01093    0.01064 =
         0.00852    0.00438    0.00154    0.00137
C5    1    0.383050    0.370267    1.011173    11.00000    0.01078    0.01095 =
         0.01010    0.00500    0.00151   -0.00002
AFIX  43
H5A   2    0.301547    0.281784    1.016733    11.00000   -1.20000
AFIX   0
C6    1   -0.019914    0.266368    0.829606    11.00000    0.01044    0.01523 =
         0.01155    0.00632    0.00103   -0.00176
AFIX  23
H6A   2   -0.028851    0.313613    0.936993    11.00000   -1.20000
H6B   2    0.033861    0.152101    0.806023    11.00000   -1.20000
AFIX   0
C7    1    0.281741    0.505784    0.602195    11.00000    0.01792    0.01585 =
         0.00960    0.00554    0.00094    0.00040
AFIX  33
H7A   2    0.232882    0.557209    0.528457    11.00000   -1.50000
H7B   2    0.397725    0.447103    0.580187    11.00000   -1.50000
H7C   2    0.177317    0.419504    0.593717    11.00000   -1.50000
AFIX   0
C9    1    0.341723    0.656205    0.769799    11.00000    0.01214    0.01202 =
         0.00985    0.00613    0.00027    0.00057
C10   1    0.156949    0.754394    0.802684    11.00000    0.01637    0.01513 =
         0.01699    0.00841    0.00228    0.00472
AFIX  33
H10A  2    0.110209    0.803374    0.726842    11.00000   -1.50000
H10B  2    0.050746    0.670830    0.795860    11.00000   -1.50000
H10C  2    0.194847    0.850113    0.905824    11.00000   -1.50000
AFIX   0
C11   1    0.503080    0.793394    0.774728    11.00000    0.01723    0.01752 =
         0.01561    0.01071   -0.00020   -0.00262
AFIX  33
H11A  2    0.448415    0.840246    0.698618    11.00000   -1.50000
H11B  2    0.542638    0.890241    0.877243    11.00000   -1.50000
H11C  2    0.618957    0.735371    0.751400    11.00000   -1.50000
AFIX   0
C12   1   -0.241520   -0.040481    0.507829    11.00000    0.01466    0.01328 =
         0.01861    0.00392    0.00187    0.00046
AFIX  33
H12A  2   -0.245046   -0.095399    0.398847    11.00000   -1.50000
H12B  2   -0.124257   -0.068122    0.567864    11.00000   -1.50000
H12C  2   -0.361253   -0.086074    0.522899    11.00000   -1.50000
AFIX   0
C8    1   -0.226955    0.241264    0.718626    11.00000    0.00954    0.01678 =
         0.01273    0.00413    0.00141    0.00047
AFIX  23
H8A   2   -0.322342    0.174310    0.742895    11.00000   -1.20000
H8B   2   -0.270734    0.358624    0.736244    11.00000   -1.20000

AFIX   0
HKLF 4

REM  pbar in P-1
REM R1 =  0.0339 for    2491 Fo > 4sig(Fo)  and  0.0361 for all    2662 data
REM    109 parameters refined using      0 restraints

END

WGHT      0.0473      0.1592

REM Highest difference peak  0.432,  deepest hole -0.207,  1-sigma level  0.042
Q1    1  -0.1225  0.2466  0.7657  11.00000  0.05    0.43
Q2    1   0.3497  0.4095  0.9536  11.00000  0.05    0.42
Q3    1   0.5170  0.5981  0.9389  11.00000  0.05    0.41
Q4    1   0.3588  0.5105  0.9049  11.00000  0.05    0.40
Q5    1   0.3822  0.6175  0.8370  11.00000  0.05    0.36
Q6    1   0.4226  0.7238  0.7764  11.00000  0.05    0.36
Q7    1   0.3128  0.5852  0.6917  11.00000  0.05    0.33
Q8    1   0.2485  0.6956  0.7823  11.00000  0.05    0.33
Q9    1   0.2072  0.4161  0.8619  11.00000  0.05    0.27
Q10   1  -0.2359  0.0616  0.5388  11.00000  0.05    0.20
Q11   1  -0.2246  0.1905  0.6388  11.00000  0.05    0.19
Q12   1   0.0477  0.3282  0.8150  11.00000  0.05    0.19
Q13   1  -0.1278  0.1564  0.5471  11.00000  0.05    0.14
Q14   1   0.0695  0.4232  0.7578  11.00000  0.05    0.13
Q15   1  -0.3456  0.1435  0.5202  11.00000  0.05    0.13
Q16   1   0.5331  0.9621  0.9016  11.00000  0.05    0.11
Q17   1   0.0994  0.3604  0.7227  11.00000  0.05    0.11
Q18   1  -0.3441  0.2451  0.7398  11.00000  0.05    0.11
Q19   1   0.0567  0.4851  0.8436  11.00000  0.05    0.09
Q20   1  -0.3730  0.1627  0.7838  11.00000  0.05    0.09
;
_shelx_res_checksum              28928
_shelx_hkl_file
;
  -1   0   0   10.18    0.11
  -1   0   0   10.06    0.11
   1   0   0   10.17    0.11
   1   0   0   10.31    0.12
  -2   0   0  132.94    1.31
  -2   0   0  130.49    1.36
   2   0   0  133.38    1.46
   2   0   0  133.32    1.41
  -3   0   0    2.30    0.05
  -3   0   0    2.11    0.04
   3   0   0    2.21    0.05
   3   0   0    2.16    0.04
  -4   0   0   10.89    0.14
  -4   0   0   10.76    0.13
   4   0   0   10.63    0.15
   4   0   0   10.84    0.13
  -5   0   0    0.07    0.03
  -5   0   0    0.05    0.03
   5   0   0    0.07    0.03
   5   0   0    0.07    0.02
  -6   0   0    2.57    0.07
  -6   0   0    2.69    0.08
   6   0   0    2.64    0.09
  -7   0   0    0.02    0.04
   7   0   0    0.02    0.05
  -8   0   0   11.53    0.18
   8   0   0   11.50    0.21
  -9   0   0    2.41    0.11
   9   0   0    2.34    0.13
   9  -1   0    1.23    0.10
  -9   1   0    1.13    0.08
   8  -1   0    2.42    0.11
  -8   1   0    2.53    0.09
   7  -1   0   25.37    0.35
  -7   1   0   25.74    0.31
  -7   1   0   25.75    0.30
   6  -1   0    9.95    0.17
  -6   1   0   10.50    0.14
  -6   1   0   10.49    0.16
   5  -1   0    0.49    0.03
   5  -1   0    0.53    0.04
  -5   1   0    0.53    0.04
  -5   1   0    0.50    0.04
   4  -1   0  103.82    1.14
   4  -1   0  109.95    1.17
  -4   1   0  110.11    1.11
  -4   1   0  109.22    1.06
   3  -1   0    2.02    0.03
   3  -1   0    2.02    0.05
  -3   1   0    2.04    0.05
  -3   1   0    2.01    0.04
   2  -1   0   25.86    0.28
   2  -1   0   25.90    0.29
  -2   1   0   25.84    0.26
   1  -1   0   43.38    0.45
   1  -1   0   43.48    0.47
  -1   1   0   43.31    0.43
   0  -1   0  194.33    2.00
   0  -1   0  198.46    2.22
   0  -1   0  197.34    2.24
  -1  -1   0  209.13    2.03
  -1  -1   0  201.84    2.11
   1   1   0  207.32    2.20
   1   1   0  212.43    2.23
  -2  -1   0    1.96    0.04
  -2  -1   0    1.97    0.04
   2   1   0    2.22    0.04
   2   1   0    2.01    0.04
  -3  -1   0  158.28    1.56
  -3  -1   0  155.76    1.62
   3   1   0  160.86    1.72
   3   1   0  157.15    1.69
  -4  -1   0   14.99    0.18
  -4  -1   0   15.25    0.18
   4   1   0   15.31    0.20
   4   1   0   15.38    0.18
  -5  -1   0   29.37    0.32
  -5  -1   0   29.20    0.32
   5   1   0   29.23    0.33
   5   1   0   29.24    0.36
  -6  -1   0    7.36    0.12
  -6  -1   0    7.71    0.12
   6   1   0    7.34    0.12
   6   1   0    7.43    0.14
  -7  -1   0    1.52    0.08
   7   1   0    1.40    0.09
  -8  -1   0    2.80    0.10
   8   1   0    2.80    0.12
  -9  -1   0    4.71    0.13
   9   1   0    5.02    0.16
   9  -2   0    0.28    0.07
   8  -2   0    1.20    0.09
  -8   2   0    1.01    0.08
  -8   2   0    1.17    0.09
   7  -2   0   29.50    0.39
  -7   2   0   30.45    0.36
  -7   2   0   29.97    0.34
   6  -2   0   13.15    0.21
  -6   2   0   13.65    0.17
  -6   2   0   13.81    0.19
   5  -2   0    6.15    0.12
  -5   2   0    6.31    0.11
  -5   2   0    6.36    0.10
   4  -2   0    2.31    0.07
  -4   2   0    2.34    0.07
  -4   2   0    2.30    0.05
   3  -2   0   18.45    0.23
   3  -2   0   18.56    0.22
  -3   2   0   18.41    0.20
   2  -2   0  157.20    1.71
   2  -2   0  154.76    1.62
  -2   2   0  155.41    1.54
   1  -2   0  158.84    1.77
   1  -2   0  165.04    1.71
   1  -2   0  166.57    1.72
  -1   2   0  164.38    1.61
   0  -2   0   38.03    0.40
   0  -2   0   36.46    0.36
   0  -2   0   36.28    0.38
   0   2   0   36.65    0.39
  -1  -2   0    3.12    0.05
  -1  -2   0    3.08    0.05
   1   2   0    3.01    0.05
   1   2   0    3.18    0.05
  -2  -2   0   -0.11    0.02
  -2  -2   0   -0.13    0.01
   2   2   0   -0.07    0.02
   2   2   0   -0.16    0.02
  -3  -2   0   10.67    0.13
  -3  -2   0   11.05    0.13
   3   2   0   11.07    0.14
   3   2   0   10.98    0.14
  -4  -2   0    2.75    0.06
  -4  -2   0    2.66    0.06
   4   2   0    2.75    0.07
   4   2   0    2.66    0.07
  -5  -2   0   13.19    0.16
  -5  -2   0   13.16    0.17
   5   2   0   12.70    0.19
   5   2   0   13.37    0.18
  -6  -2   0   19.47    0.24
   6   2   0   19.66    0.27
   6   2   0   19.25    0.25
  -7  -2   0    0.07    0.04
   7   2   0    0.10    0.05
  -8  -2   0    8.73    0.16
   8   2   0    8.94    0.19
   8  -3   0    1.14    0.09
  -8   3   0    0.89    0.08
  -8   3   0    1.07    0.09
   7  -3   0    2.35    0.10
  -7   3   0    2.39    0.08
  -7   3   0    2.36    0.11
   6  -3   0    0.23    0.05
  -6   3   0    0.20    0.04
  -6   3   0    0.22    0.05
   5  -3   0    0.24    0.04
  -5   3   0    0.15    0.04
  -5   3   0    0.14    0.03
   4  -3   0   19.09    0.25
   4  -3   0   19.29    0.24
  -4   3   0   19.19    0.21
   3  -3   0   24.13    0.28
   3  -3   0   23.92    0.29
  -3   3   0   23.85    0.25
   2  -3   0  140.94    1.43
   2  -3   0  138.51    1.54
  -2   3   0  142.29    1.38
   1  -3   0  191.80    1.99
   1  -3   0  191.90    2.07
   1  -3   0  191.08    1.90
   0  -3   0    8.25    0.10
   0  -3   0    8.58    0.10
   0  -3   0    8.25    0.10
   0   3   0    8.48    0.11
  -1  -3   0   54.60    0.57
  -1  -3   0   55.28    0.55
   1   3   0   55.10    0.59
   1   3   0   56.13    0.59
  -2  -3   0    8.75    0.11
  -2  -3   0    8.77    0.11
   2   3   0    8.93    0.12
   2   3   0    8.78    0.12
  -3  -3   0    7.99    0.10
  -3  -3   0    7.97    0.11
   3   3   0    8.11    0.12
   3   3   0    8.33    0.12
  -4  -3   0   61.43    0.62
  -4  -3   0   58.85    0.63
   4   3   0   61.29    0.67
   4   3   0   61.59    0.68
  -5  -3   0    5.29    0.10
   5   3   0    5.37    0.11
   5   3   0    5.42    0.11
  -6  -3   0    0.12    0.04
   6   3   0    0.09    0.04
   6   3   0    0.15    0.05
  -7  -3   0    0.13    0.05
   7   3   0    0.07    0.05
   7   3   0    0.06    0.05
  -8  -3   0    1.21    0.08
  -9   4   0    0.89    0.10
   8  -4   0    0.09    0.06
  -8   4   0   -0.02    0.07
   7  -4   0    0.45    0.06
  -7   4   0    0.54    0.07
  -7   4   0    0.54    0.05
   6  -4   0   15.53    0.23
  -6   4   0   15.17    0.20
  -6   4   0   15.46    0.22
   5  -4   0   12.02    0.19
  -5   4   0   12.08    0.16
   4  -4   0    0.72    0.06
   4  -4   0    0.80    0.07
  -4   4   0    0.71    0.05
   3  -4   0   11.92    0.17
   3  -4   0   11.95    0.17
  -3   4   0   12.24    0.15
   2  -4   0    1.67    0.06
   2  -4   0    1.64    0.05
  -2   4   0    1.65    0.04
  -2   4   0    1.69    0.05
   1  -4   0   28.32    0.32
   1  -4   0   29.51    0.30
   1  -4   0   29.42    0.33
  -1   4   0   28.75    0.32
   0  -4   0    2.48    0.05
   0  -4   0    2.55    0.06
   0   4   0    2.44    0.06
  -1  -4   0    0.57    0.04
  -1  -4   0    0.53    0.04
   1   4   0    0.57    0.05
   1   4   0    0.59    0.04
  -2  -4   0    0.60    0.04
  -2  -4   0    0.55    0.04
   2   4   0    0.57    0.04
   2   4   0    0.58    0.05
  -3  -4   0    2.69    0.06
  -3  -4   0    2.86    0.07
   3   4   0    2.82    0.08
   3   4   0    2.79    0.07
  -4  -4   0  112.49    1.13
   4   4   0  112.88    1.22
   4   4   0  115.96    1.23
  -5  -4   0    8.35    0.14
   5   4   0    8.50    0.14
   5   4   0    8.39    0.15
  -6  -4   0    0.45    0.05
   6   4   0    0.43    0.06
  -7  -4   0   22.82    0.29
   7   4   0   22.66    0.31
   8  -5   0    2.38    0.13
  -8   5   0    2.24    0.14
   7  -5   0    0.65    0.07
  -7   5   0    0.69    0.06
  -7   5   0    0.72    0.07
   6  -5   0    4.65    0.13
  -6   5   0    4.47    0.13
  -6   5   0    4.71    0.11
   5  -5   0    0.15    0.05
   5  -5   0    0.11    0.04
  -5   5   0    0.14    0.04
   4  -5   0    0.20    0.05
   4  -5   0    0.20    0.04
  -4   5   0    0.20    0.04
   3  -5   0  104.95    1.10
   3  -5   0  103.31    1.14
  -3   5   0  103.67    1.04
  -3   5   0  106.59    1.10
   2  -5   0    0.31    0.04
   2  -5   0    0.40    0.03
  -2   5   0    0.38    0.03
  -2   5   0    0.34    0.03
   1  -5   0    1.55    0.05
   1  -5   0    1.42    0.05
   1  -5   0    1.52    0.06
  -1   5   0    1.50    0.06
   0  -5   0   24.62    0.28
   0  -5   0   24.17    0.27
   0   5   0   24.27    0.28
   0   5   0   23.97    0.29
  -1  -5   0   20.38    0.24
   1   5   0   21.11    0.26
   1   5   0   20.98    0.24
  -2  -5   0   20.05    0.24
  -2  -5   0   20.10    0.23
   2   5   0   20.60    0.26
   2   5   0   20.61    0.24
  -3  -5   0    2.20    0.07
   3   5   0    2.43    0.09
  -4  -5   0   23.33    0.28
   4   5   0   23.31    0.30
  -5  -5   0    1.58    0.08
   5   5   0    1.72    0.09
  -6  -5   0    0.07    0.05
   6   5   0   -0.08    0.05
  -7  -5   0    3.50    0.12
   7   5   0    3.44    0.13
   8  -6   0    0.12    0.07
  -8   6   0    0.14    0.08
   7  -6   0   30.66    0.42
  -7   6   0   31.60    0.41
   6  -6   0    2.51    0.11
  -6   6   0    2.55    0.12
  -6   6   0    2.38    0.09
   5  -6   0    0.50    0.06
   5  -6   0    0.43    0.06
  -5   6   0    0.40    0.05
   4  -6   0    0.03    0.05
   4  -6   0    0.10    0.04
  -4   6   0    0.07    0.04
   3  -6   0   13.95    0.20
   3  -6   0   14.02    0.20
  -3   6   0   14.08    0.18
   2  -6   0    1.28    0.07
   2  -6   0    1.24    0.06
  -2   6   0    1.16    0.06
  -2   6   0    1.22    0.06
   1  -6   0    0.79    0.05
   1  -6   0    0.84    0.05
   1  -6   0    0.78    0.06
  -1   6   0    0.66    0.06
   0  -6   0    6.83    0.12
   0  -6   0    7.00    0.11
   0   6   0    6.92    0.12
   0   6   0    6.80    0.11
  -1  -6   0   23.82    0.28
  -1  -6   0   24.12    0.28
   1   6   0   24.56    0.30
  -2  -6   0   15.56    0.20
   2   6   0   16.09    0.22
  -3  -6   0    0.32    0.04
   3   6   0    0.39    0.05
  -4  -6   0    5.76    0.12
   4   6   0    5.87    0.14
  -5  -6   0   10.64    0.17
   5   6   0   10.41    0.19
  -6  -6   0    1.27    0.10
   6   6   0    1.06    0.09
   7  -7   0   10.97    0.22
  -7   7   0   10.96    0.22
   6  -7   0    1.12    0.08
  -6   7   0    1.09    0.07
   5  -7   0   12.96    0.21
   5  -7   0   12.84    0.22
  -5   7   0   13.09    0.19
   4  -7   0    0.09    0.05
   4  -7   0    0.07    0.04
  -4   7   0    0.00    0.04
   3  -7   0    6.92    0.13
   3  -7   0    7.11    0.14
  -3   7   0    7.08    0.13
   2  -7   0    0.93    0.08
  -2   7   0    0.94    0.07
  -2   7   0    0.98    0.06
   1  -7   0    7.18    0.12
   1  -7   0    7.00    0.13
  -1   7   0    7.17    0.13
   0  -7   0    0.32    0.04
   0  -7   0    0.28    0.04
   0   7   0    0.29    0.05
  -1  -7   0    0.90    0.07
  -1  -7   0    0.77    0.06
   1   7   0    0.82    0.06
  -2  -7   0    0.36    0.04
   2   7   0    0.30    0.05
  -3  -7   0    9.39    0.16
   3   7   0    9.97    0.18
  -4  -7   0    6.61    0.14
   4   7   0    6.47    0.15
  -5  -7   0    0.01    0.05
   5   7   0   -0.06    0.06
   7  -8   0    0.41    0.08
   6  -8   0    0.75    0.08
   5  -8   0    0.03    0.06
  -5   8   0    0.04    0.05
   4  -8   0    0.02    0.06
  -4   8   0    0.06    0.05
   3  -8   0    0.73    0.07
  -3   8   0    0.75    0.06
   2  -8   0    0.11    0.05
  -2   8   0    0.20    0.05
   1  -8   0   13.81    0.19
   1  -8   0   13.57    0.21
  -1   8   0   13.36    0.20
   0  -8   0    7.51    0.13
   0  -8   0    7.47    0.14
   0   8   0    7.79    0.15
  -1  -8   0    2.53    0.09
   1   8   0    2.49    0.10
  -2  -8   0    3.91    0.11
   2   8   0    3.81    0.12
  -3  -8   0    0.06    0.05
   3   8   0    0.06    0.06
  -4  -8   0    4.56    0.13
   4   8   0    4.55    0.15
   5  -9   0    0.06    0.08
  -5   9   0   -0.07    0.06
   4  -9   0    1.25    0.09
  -4   9   0    1.27    0.08
   3  -9   0    5.00    0.15
  -3   9   0    5.01    0.13
   2  -9   0    4.13    0.13
  -2   9   0    4.19    0.12
   1  -9   0   17.97    0.26
   0  -9   0    1.26    0.09
   0   9   0    1.10    0.08
  -1  -9   0    0.81    0.06
   1   9   0    0.65    0.07
  -2  -9   0    5.43    0.13
   2   9   0    5.17    0.15
  -3  -9   0    4.02    0.13
   3   9   0    3.87    0.15
  -4  10   0    0.44    0.08
   3 -10   0    9.85    0.21
  -3  10   0    9.31    0.19
  -2  10   0   16.27    0.25
  -1  10   0    2.25    0.12
   0 -10   0    9.39    0.18
   0  10   0    9.32    0.19
   1  10   0    0.27    0.08
   2  10  -1    1.31    0.10
   1  10  -1    2.99    0.14
  -1 -10   1    3.21    0.12
   0  10  -1    3.73    0.13
   0 -10   1    3.74    0.12
  -2  10  -1   11.62    0.20
  -3  10  -1   10.16    0.19
   3 -10   1    9.94    0.21
   3   9  -1    0.03    0.07
  -3  -9   1    0.06    0.05
   2   9  -1    0.09    0.06
  -2  -9   1    0.07    0.05
   1   9  -1    3.01    0.12
  -1  -9   1    3.21    0.10
   0   9  -1    0.92    0.07
   0  -9   1    0.89    0.06
  -1   9  -1    1.49    0.10
   1  -9   1    1.80    0.10
  -2   9  -1   53.24    0.58
   2  -9   1   53.77    0.62
  -3   9  -1    1.88    0.10
   3  -9   1    2.12    0.11
  -4   9  -1    0.74    0.07
   4  -9   1    0.71    0.08
   5   8  -1   27.11    0.38
  -5  -8   1   27.77    0.35
   4   8  -1    4.06    0.14
  -4  -8   1    3.62    0.11
   3   8  -1    1.39    0.10
  -3  -8   1    1.54    0.08
   2   8  -1    7.10    0.15
  -2  -8   1    7.30    0.13
   1   8  -1    0.43    0.06
  -1  -8   1    0.59    0.05
   0   8  -1   12.90    0.20
   0  -8   1   12.93    0.18
  -1   8  -1   -0.05    0.04
   1  -8   1   -0.01    0.03
   1  -8   1    0.02    0.04
  -2   8  -1   13.65    0.19
   2  -8   1   13.72    0.21
  -3   8  -1    0.22    0.05
   3  -8   1    0.23    0.06
   3  -8   1    0.24    0.05
  -4   8  -1    2.16    0.09
   4  -8   1    2.32    0.10
   4  -8   1    2.07    0.11
   5  -8   1    0.05    0.06
  -6   8  -1    8.78    0.19
   6  -8   1    8.31    0.19
   7  -8   1    0.28    0.08
   6   7  -1    0.77    0.08
  -6  -7   1    0.74    0.07
   5   7  -1    7.13    0.16
  -5  -7   1    6.82    0.14
   4   7  -1    6.70    0.15
  -4  -7   1    6.89    0.13
   3   7  -1    2.61    0.10
  -3  -7   1    2.67    0.08
   2   7  -1    2.57    0.10
  -2  -7   1    2.65    0.08
   1   7  -1    6.90    0.13
  -1  -7   1    6.90    0.12
   0   7  -1   11.78    0.18
   0   7  -1   12.09    0.17
   0  -7   1   11.86    0.17
   0  -7   1   11.91    0.16
  -1   7  -1    0.00    0.04
   1  -7   1    0.03    0.04
   1  -7   1    0.01    0.03
   1  -7   1    0.04    0.03
  -2   7  -1    0.27    0.04
  -2   7  -1    0.31    0.04
   2  -7   1    0.18    0.04
   2  -7   1    0.26    0.04
  -3   7  -1    4.90    0.10
   3  -7   1    4.94    0.12
   3  -7   1    5.13    0.12
  -4   7  -1    0.28    0.04
   4  -7   1    0.23    0.05
   4  -7   1    0.21    0.06
  -5   7  -1    2.33    0.09
   5  -7   1    2.59    0.11
  -6   7  -1    4.67    0.14
   6  -7   1    4.68    0.14
  -7   7  -1    5.53    0.17
   7  -7   1    5.24    0.16
   7   6  -1    8.07    0.19
   6   6  -1    0.72    0.07
  -6  -6   1    0.77    0.07
   5   6  -1    1.01    0.07
  -5  -6   1    1.11    0.08
   4   6  -1    0.22    0.05
  -4  -6   1    0.19    0.04
   3   6  -1    5.34    0.12
  -3  -6   1    5.32    0.10
   2   6  -1   25.90    0.31
   2   6  -1   26.34    0.32
  -2  -6   1   25.93    0.29
   1   6  -1    0.27    0.04
   1   6  -1    0.33    0.04
  -1  -6   1    0.31    0.03
  -1  -6   1    0.36    0.03
   0   6  -1   11.94    0.16
   0   6  -1   11.76    0.17
   0  -6   1   11.91    0.15
   0  -6   1   11.54    0.16
  -1   6  -1   19.05    0.24
   1  -6   1   19.43    0.22
   1  -6   1   19.32    0.24
   1  -6   1   19.51    0.24
  -2   6  -1    0.04    0.03
   2  -6   1   -0.01    0.03
   2  -6   1   -0.01    0.04
  -3   6  -1   16.89    0.21
   3  -6   1   16.95    0.23
   3  -6   1   17.05    0.23
  -4   6  -1    5.00    0.10
   4  -6   1    5.00    0.12
   4  -6   1    5.05    0.12
  -5   6  -1    0.73    0.05
  -5   6  -1    0.75    0.07
   5  -6   1    0.73    0.06
  -6   6  -1   46.23    0.54
   6  -6   1   45.93    0.57
  -7   6  -1    3.38    0.14
   7  -6   1    3.40    0.13
  -8   6  -1   -0.01    0.09
   7   5  -1   -0.01    0.06
  -7  -5   1    0.08    0.05
   6   5  -1    0.75    0.07
  -6  -5   1    0.83    0.06
   5   5  -1    1.28    0.08
   5   5  -1    1.14    0.08
  -5  -5   1    1.00    0.07
   4   5  -1   37.63    0.44
   4   5  -1   37.46    0.44
  -4  -5   1   37.05    0.41
   3   5  -1   54.44    0.61
   3   5  -1   54.41    0.61
  -3  -5   1   54.42    0.56
   2   5  -1    4.00    0.08
   2   5  -1    3.88    0.09
  -2  -5   1    3.87    0.08
  -2  -5   1    3.80    0.07
   1   5  -1    3.67    0.08
   1   5  -1    3.64    0.07
  -1  -5   1    3.72    0.07
  -1  -5   1    3.59    0.07
   0   5  -1   11.82    0.15
   0  -5   1   11.54    0.14
   0  -5   1   11.59    0.15
   1  -5   1   34.73    0.36
   1  -5   1   34.01    0.38
   1  -5   1   34.98    0.38
   1  -5   1   34.53    0.40
  -2   5  -1    5.73    0.09
   2  -5   1    5.92    0.09
   2  -5   1    5.93    0.10
   2  -5   1    5.91    0.11
  -3   5  -1    0.17    0.03
   3  -5   1    0.11    0.04
   3  -5   1    0.14    0.03
   3  -5   1    0.16    0.02
  -4   5  -1    0.19    0.03
   4  -5   1    0.15    0.04
  -5   5  -1   13.59    0.20
  -5   5  -1   13.63    0.17
   5  -5   1   13.47    0.21
  -6   5  -1   31.33    0.39
  -6   5  -1   31.04    0.35
   6  -5   1   31.35    0.41
  -7   5  -1   19.80    0.29
   7  -5   1   19.65    0.30
  -8   5  -1   -0.01    0.07
   8  -5   1    0.07    0.07
  -8  -4   1   21.15    0.29
   7   4  -1    2.95    0.11
   7   4  -1    2.92    0.11
  -7  -4   1    3.19    0.11
   6   4  -1    6.43    0.13
   6   4  -1    6.73    0.13
  -6  -4   1    6.38    0.13
   5   4  -1    3.55    0.10
   5   4  -1    3.50    0.10
  -5  -4   1    3.63    0.09
   4   4  -1   18.92    0.24
   4   4  -1   19.07    0.25
  -4  -4   1   18.64    0.22
   3   4  -1    0.03    0.03
   3   4  -1    0.08    0.03
  -3  -4   1    0.00    0.02
   2   4  -1    7.26    0.12
   2   4  -1    7.50    0.11
  -2  -4   1    7.37    0.10
   1   4  -1  180.11    1.90
  -1  -4   1  177.43    1.78
  -1  -4   1  176.27    1.81
   0  -4   1    1.18    0.04
   0  -4   1    1.16    0.04
   0  -4   1    1.17    0.04
   1  -4   1    8.09    0.12
   1  -4   1    8.20    0.11
   1  -4   1    8.08    0.10
   1  -4   1    8.19    0.11
  -2   4  -1   67.71    0.68
   2  -4   1   68.90    0.72
   2  -4   1   69.78    0.72
   2  -4   1   67.30    0.75
  -3   4  -1    9.09    0.12
   3  -4   1    9.07    0.11
   3  -4   1    9.03    0.14
   3  -4   1    8.96    0.14
  -4   4  -1   11.79    0.15
  -4   4  -1   12.16    0.17
   4  -4   1   11.86    0.18
  -5   4  -1    8.66    0.12
  -5   4  -1    8.47    0.15
   5  -4   1    8.47    0.15
  -6   4  -1    0.13    0.05
  -6   4  -1    0.16    0.04
   6  -4   1    0.13    0.05
  -7   4  -1    0.09    0.06
   7  -4   1    0.14    0.06
  -8   4  -1    5.46    0.16
   8  -4   1    5.47    0.16
   8   3  -1    9.74    0.20
  -8  -3   1    9.79    0.17
   7   3  -1    0.57    0.06
  -7  -3   1    0.65    0.06
   6   3  -1    8.90    0.14
   6   3  -1    8.59    0.16
  -6  -3   1    8.65    0.14
   5   3  -1   85.23    0.94
   5   3  -1   85.56    0.92
  -5  -3   1   83.98    0.85
   4   3  -1    0.75    0.05
   4   3  -1    0.89    0.06
  -4  -3   1    0.84    0.05
   3   3  -1   17.98    0.22
   3   3  -1   18.25    0.22
  -3  -3   1   17.92    0.20
   2   3  -1   12.49    0.16
   2   3  -1   12.46    0.16
  -2  -3   1   12.54    0.14
   1   3  -1   27.90    0.31
  -1  -3   1   26.53    0.29
  -1  -3   1   27.45    0.28
  -1  -3   1   28.02    0.30
   0  -3   1   19.24    0.21
   0  -3   1   19.68    0.22
   0  -3   1   19.57    0.22
   0  -3   1   18.88    0.20
   1  -3   1    3.93    0.07
   1  -3   1    3.83    0.07
   1  -3   1    3.91    0.05
   1  -3   1    3.90    0.06
  -2   3  -1    0.06    0.02
   2  -3   1    0.06    0.02
   2  -3   1    0.04    0.03
   2  -3   1    0.05    0.01
  -3   3  -1   61.58    0.60
   3  -3   1   60.63    0.68
  -4   3  -1   44.86    0.45
  -4   3  -1   44.54    0.49
   4  -3   1   44.27    0.51
  -5   3  -1   11.27    0.17
  -5   3  -1   11.23    0.14
   5  -3   1   11.10    0.17
  -6   3  -1    5.01    0.12
  -6   3  -1    4.89    0.09
   6  -3   1    4.82    0.12
  -7   3  -1    0.33    0.06
  -7   3  -1    0.31    0.04
   7  -3   1    0.32    0.06
  -8   3  -1    1.33    0.09
   8  -3   1    1.65    0.11
   9   2  -1    0.50    0.08
  -9  -2   1    0.46    0.07
   8   2  -1    0.13    0.06
  -8  -2   1   -0.02    0.05
   7   2  -1    0.20    0.06
  -7  -2   1    0.25    0.04
   6   2  -1    3.22    0.08
   6   2  -1    3.31    0.10
  -6  -2   1    3.34    0.08
   5   2  -1  120.74    1.33
   5   2  -1  122.21    1.30
  -5  -2   1  126.09    1.25
  -5  -2   1  122.00    1.21
   4   2  -1    3.17    0.08
   4   2  -1    3.01    0.07
  -4  -2   1    3.19    0.07
  -4  -2   1    3.06    0.05
   3   2  -1    1.57    0.05
   3   2  -1    1.63    0.05
  -3  -2   1    1.54    0.04
   2   2  -1   55.62    0.60
  -2  -2   1   55.61    0.55
   1   2  -1    4.42    0.07
  -1  -2   1    4.36    0.06
   0  -2   1   18.74    0.21
   0  -2   1   18.61    0.20
   0  -2   1   18.60    0.19
  -1   2  -1   28.25    0.28
   1  -2   1   28.84    0.30
   1  -2   1   27.73    0.30
   1  -2   1   28.47    0.32
  -2   2  -1   16.57    0.19
  -2   2  -1   17.04    0.18
   2  -2   1   17.08    0.18
   2  -2   1   17.02    0.20
  -3   2  -1   99.26    1.03
  -3   2  -1  101.09    0.99
   3  -2   1  101.80    1.08
   3  -2   1   99.27    1.06
  -4   2  -1   23.04    0.27
  -4   2  -1   22.90    0.24
   4  -2   1   22.36    0.25
   4  -2   1   23.14    0.28
  -5   2  -1    9.30    0.12
  -5   2  -1    9.24    0.14
   5  -2   1    8.96    0.15
  -6   2  -1    1.22    0.06
  -6   2  -1    1.16    0.08
   6  -2   1    1.13    0.08
  -7   2  -1    0.07    0.04
  -7   2  -1   -0.03    0.05
   7  -2   1    0.01    0.05
  -8   2  -1    1.24    0.08
   8  -2   1    1.24    0.10
   9   1  -1   22.62    0.35
  -9  -1   1   22.44    0.30
   8   1  -1    0.98    0.08
  -8  -1   1    0.89    0.06
   7   1  -1    2.34    0.10
  -7  -1   1    2.32    0.08
   6   1  -1   11.50    0.18
  -6  -1   1   11.66    0.16
   5   1  -1   15.94    0.22
   5   1  -1   16.12    0.19
  -5  -1   1   15.94    0.19
  -5  -1   1   15.76    0.19
   4   1  -1    1.16    0.04
   4   1  -1    1.24    0.05
  -4  -1   1    1.07    0.04
  -4  -1   1    1.14    0.04
   3   1  -1    0.06    0.02
   3   1  -1   -0.03    0.02
  -3  -1   1    0.00    0.02
  -3  -1   1   -0.01    0.02
   2   1  -1   67.15    0.72
  -2  -1   1   68.66    0.71
  -2  -1   1   66.42    0.66
   1   1  -1   16.39    0.19
   0   1  -1  268.77    2.70
   0  -1   1  268.78    2.73
   0  -1   1  261.44    3.17
  -1   1  -1  267.13    2.76
  -1   1  -1  270.68    2.78
   1  -1   1  273.85    3.20
  -2   1  -1   52.80    0.55
  -2   1  -1   53.55    0.52
   2  -1   1   53.92    0.58
   2  -1   1   52.26    0.57
  -3   1  -1   79.28    0.77
  -3   1  -1   78.96    0.82
   3  -1   1   77.94    0.84
   3  -1   1   80.67    0.86
  -4   1  -1   25.13    0.29
  -4   1  -1   25.20    0.27
   4  -1   1   24.88    0.28
   4  -1   1   25.29    0.30
  -5   1  -1    5.65    0.11
  -5   1  -1    5.74    0.09
   5  -1   1    5.67    0.11
   5  -1   1    5.72    0.09
  -6   1  -1   71.81    0.73
  -6   1  -1   71.68    0.77
   6  -1   1   71.74    0.82
  -7   1  -1    0.26    0.05
  -7   1  -1    0.28    0.04
   7  -1   1    0.33    0.06
  -8   1  -1    7.54    0.14
   8  -1   1    7.44    0.17
   9  -1   1    8.54    0.20
   9   0  -1    0.74    0.08
  -9   0   1    0.58    0.06
   8   0  -1    4.76    0.14
  -8   0   1    4.60    0.11
   7   0  -1    3.88    0.11
  -7   0   1    3.93    0.10
   6   0  -1   66.00    0.76
  -6   0   1   66.21    0.70
  -6   0   1   66.78    0.68
   5   0  -1   23.07    0.26
   5   0  -1   22.54    0.29
  -5   0   1   22.67    0.25
  -5   0   1   22.75    0.26
   4   0  -1  129.25    1.37
   4   0  -1  125.83    1.33
  -4   0   1  126.43    1.29
  -4   0   1  126.06    1.24
   3   0  -1   12.92    0.16
   3   0  -1   12.89    0.14
  -3   0   1   12.73    0.14
   2   0  -1  202.24    2.88
   2   0  -1  205.53    2.10
  -2   0   1  207.31    2.14
   1   0  -1  190.42    1.94
   1   0  -1  192.79    2.04
  -1   0   1  188.73    1.98
  -1   0   1  187.18    1.85
   0   0  -1    8.54    0.09
   0   0  -1    8.48    0.09
   0   0   1    8.32    0.09
   0   0   1    8.68    0.09
  -1   0  -1   40.00    0.42
  -1   0  -1   41.18    0.40
   1   0   1   41.41    0.44
   1   0   1   40.89    0.45
  -2   0  -1  219.18    2.29
  -2   0  -1  224.69    2.19
   2   0   1  223.61    2.43
   2   0   1  227.10    2.38
  -3   0  -1  131.92    1.30
  -3   0  -1  128.62    1.35
   3   0   1  132.06    1.42
   3   0   1  130.14    1.69
  -4   0  -1   25.11    0.28
  -4   0  -1   25.60    0.27
   4   0   1   25.20    0.29
   4   0   1   25.06    0.30
  -5   0  -1   24.56    0.29
  -5   0  -1   25.13    0.27
   5   0   1   24.90    0.31
   5   0   1   25.10    0.29
  -6   0  -1    2.55    0.07
  -6   0  -1    2.69    0.08
   6   0   1    2.65    0.09
  -7   0  -1    4.49    0.10
   7   0   1    4.39    0.12
  -8   0  -1    0.28    0.05
   8   0   1    0.32    0.07
   9   0   1    9.07    0.21
   9  -1  -1    0.23    0.07
  -9   1   1    0.25    0.06
   8  -1  -1    4.08    0.13
  -8   1   1    4.12    0.11
   7  -1  -1    4.45    0.12
  -7   1   1    4.54    0.11
  -7   1   1    4.45    0.10
   6  -1  -1    6.83    0.14
  -6   1   1    7.12    0.12
  -6   1   1    7.22    0.12
   5  -1  -1    0.30    0.04
  -5   1   1    0.28    0.04
  -5   1   1    0.26    0.03
   4  -1  -1   45.47    0.51
  -4   1   1   44.55    0.46
   3  -1  -1    1.48    0.05
   3  -1  -1    1.15    0.04
  -3   1   1    1.14    0.04
   2  -1  -1   18.53    0.21
   2  -1  -1   18.31    0.20
   1  -1  -1  985.15   11.07
   1  -1  -1 1000.00   10.81
  -1   1   1  994.53   10.24
  -1   1   1  998.96   10.64
   0  -1  -1  233.13    2.40
   0   1   1  233.94    2.46
  -1  -1  -1    5.56    0.07
  -1  -1  -1    5.62    0.07
   1   1   1    5.77    0.08
   1   1   1    5.88    0.07
  -2  -1  -1    7.57    0.09
  -2  -1  -1    7.51    0.09
   2   1   1    7.71    0.10
   2   1   1    7.47    0.10
  -3  -1  -1    7.05    0.10
  -3  -1  -1    7.04    0.09
   3   1   1    7.21    0.10
   3   1   1    6.97    0.10
  -4  -1  -1    2.00    0.06
  -4  -1  -1    2.00    0.06
   4   1   1    2.05    0.06
   4   1   1    2.01    0.06
  -5  -1  -1    0.30    0.04
  -5  -1  -1    0.27    0.03
   5   1   1    0.20    0.04
   5   1   1    0.27    0.03
  -6  -1  -1    0.13    0.04
  -6  -1  -1    0.10    0.04
   6   1   1    0.02    0.03
   6   1   1    0.06    0.04
  -7  -1  -1   13.06    0.18
   7   1   1   13.26    0.21
  -8  -1  -1    3.27    0.11
   8   1   1    3.57    0.13
   9   1   1    5.71    0.18
   9  -2  -1    2.40    0.13
  -9   2   1    2.43    0.11
   8  -2  -1    8.54    0.18
  -8   2   1    8.77    0.17
  -8   2   1    8.61    0.15
   7  -2  -1    0.12    0.05
  -7   2   1    0.12    0.04
  -7   2   1    0.05    0.05
   6  -2  -1    0.05    0.04
  -6   2   1    0.09    0.03
  -6   2   1    0.05    0.04
   5  -2  -1    6.09    0.12
  -5   2   1    6.38    0.10
   4  -2  -1   38.25    0.44
   4  -2  -1   38.70    0.42
  -4   2   1   38.02    0.40
   3  -2  -1   26.20    0.29
   3  -2  -1   25.83    0.30
  -3   2   1   26.05    0.27
   2  -2  -1    3.11    0.06
   2  -2  -1    3.15    0.06
  -2   2   1    3.17    0.05
   1  -2  -1  239.97    2.55
   1  -2  -1  235.61    2.46
  -1   2   1  238.37    2.50
   0  -2  -1   57.92    0.59
   0  -2  -1   57.59    0.57
   0   2   1   57.20    0.61
  -1  -2  -1    0.06    0.02
  -1  -2  -1    0.08    0.02
   1   2   1    0.09    0.02
  -2  -2  -1   31.33    0.32
  -2  -2  -1   31.30    0.33
   2   2   1   31.83    0.35
   2   2   1   31.52    0.35
  -3  -2  -1    8.48    0.11
  -3  -2  -1    8.51    0.11
   3   2   1    8.59    0.12
   3   2   1    8.52    0.12
  -4  -2  -1    7.25    0.11
  -4  -2  -1    7.26    0.11
   4   2   1    7.38    0.12
   4   2   1    7.35    0.12
  -5  -2  -1   23.18    0.27
  -5  -2  -1   23.33    0.27
   5   2   1   23.37    0.29
   5   2   1   23.63    0.29
  -6  -2  -1    0.57    0.05
   6   2   1    0.58    0.05
   6   2   1    0.59    0.05
  -7  -2  -1    5.45    0.12
   7   2   1    5.49    0.14
  -8  -2  -1    4.46    0.12
   9  -3  -1    4.95    0.17
  -9   3   1    5.14    0.14
   8  -3  -1   23.14    0.35
  -8   3   1   23.93    0.30
  -8   3   1   24.16    0.32
   7  -3  -1    1.63    0.09
  -7   3   1    1.56    0.10
  -7   3   1    1.60    0.08
   6  -3  -1    0.83    0.06
  -6   3   1    0.81    0.06
  -6   3   1    0.80    0.06
   5  -3  -1   18.41    0.24
   5  -3  -1   18.22    0.25
  -5   3   1   18.18    0.22
   4  -3  -1    1.01    0.06
   4  -3  -1    1.06    0.06
  -4   3   1    1.04    0.05
   3  -3  -1   12.75    0.17
   3  -3  -1   12.66    0.17
  -3   3   1   12.64    0.15
   2  -3  -1    5.21    0.08
   2  -3  -1    5.22    0.09
  -2   3   1    5.23    0.07
  -2   3   1    5.21    0.08
   1  -3  -1    0.98    0.04
   1  -3  -1    1.06    0.04
   1  -3  -1    0.98    0.03
  -1   3   1    1.01    0.03
   0  -3  -1   94.21    0.96
   0  -3  -1   93.21    0.91
   0   3   1   92.58    0.98
  -1  -3  -1    2.36    0.05
   1   3   1    2.31    0.06
  -2  -3  -1    8.14    0.11
  -2  -3  -1    7.90    0.11
   2   3   1    8.08    0.12
   2   3   1    8.10    0.10
  -3  -3  -1    5.75    0.09
  -3  -3  -1    5.76    0.09
   3   3   1    5.90    0.09
   3   3   1    5.92    0.10
  -4  -3  -1   26.06    0.29
  -4  -3  -1   26.27    0.29
   4   3   1   26.36    0.31
   4   3   1   26.20    0.32
  -5  -3  -1   12.73    0.18
   5   3   1   13.16    0.19
   5   3   1   12.79    0.19
  -6  -3  -1    2.09    0.09
   6   3   1    2.06    0.09
  -7  -3  -1    2.67    0.10
   7   3   1    2.38    0.10
  -8  -3  -1    2.61    0.12
  -9   4   1    0.79    0.10
   8  -4  -1    3.25    0.13
  -8   4   1    3.30    0.14
  -8   4   1    3.30    0.11
   7  -4  -1    0.15    0.05
  -7   4   1    0.14    0.05
  -7   4   1    0.16    0.06
   6  -4  -1   12.61    0.20
  -6   4   1   12.90    0.18
   5  -4  -1    0.68    0.05
   5  -4  -1    0.71    0.06
  -5   4   1    0.59    0.04
   4  -4  -1   11.31    0.17
   4  -4  -1   11.23    0.17
  -4   4   1   11.43    0.15
   3  -4  -1   15.53    0.20
   3  -4  -1   15.37    0.20
  -3   4   1   15.37    0.18
   2  -4  -1   14.40    0.18
   2  -4  -1   14.03    0.18
  -2   4   1   14.02    0.17
  -2   4   1   14.31    0.17
   1  -4  -1    9.09    0.13
   1  -4  -1    9.27    0.12
  -1   4   1    9.12    0.12
   0  -4  -1   12.23    0.15
   0  -4  -1   12.35    0.16
   0   4   1   12.19    0.16
  -1  -4  -1   17.43    0.20
  -1  -4  -1   17.73    0.21
   1   4   1   17.69    0.22
  -2  -4  -1   20.28    0.23
   2   4   1   19.94    0.25
  -3  -4  -1  100.89    1.05
  -3  -4  -1  100.91    1.02
   3   4   1  107.27    1.11
   3   4   1  101.12    1.10
  -4  -4  -1   19.74    0.24
   4   4   1   19.24    0.26
  -5  -4  -1    4.17    0.10
   5   4   1    4.31    0.11
  -6  -4  -1    0.36    0.05
   6   4   1    0.29    0.06
  -7  -4  -1    1.13    0.07
   7   4   1    0.94    0.08
   8  -5  -1    0.07    0.07
  -8   5   1    0.11    0.07
  -8   5   1    0.01    0.06
   7  -5  -1    7.30    0.17
  -7   5   1    6.98    0.14
  -7   5   1    7.49    0.17
   6  -5  -1    2.73    0.11
   6  -5  -1    2.96    0.11
  -6   5   1    2.90    0.09
   5  -5  -1    3.76    0.10
   5  -5  -1    3.75    0.11
  -5   5   1    3.86    0.09
   4  -5  -1   10.87    0.17
   4  -5  -1   10.52    0.17
  -4   5   1   10.69    0.15
   3  -5  -1    0.38    0.04
   3  -5  -1    0.31    0.04
  -3   5   1    0.39    0.04
   2  -5  -1   12.96    0.18
   2  -5  -1   13.14    0.17
  -2   5   1   12.70    0.16
  -2   5   1   12.96    0.17
   1  -5  -1   45.98    0.48
   1  -5  -1   47.28    0.51
   1  -5  -1   46.80    0.51
  -1   5   1   46.71    0.51
   0  -5  -1   17.28    0.21
   0  -5  -1   17.52    0.22
   0   5   1   17.75    0.22
  -1  -5  -1    4.67    0.09
  -1  -5  -1    4.70    0.09
   1   5   1    4.86    0.10
  -2  -5  -1    2.80    0.07
   2   5   1    2.91    0.09
  -3  -5  -1   59.48    0.62
   3   5   1   60.35    0.68
  -4  -5  -1    7.27    0.13
   4   5   1    7.34    0.14
  -5  -5  -1    1.32    0.08
   5   5   1    1.20    0.09
  -6  -5  -1    4.96    0.13
   6   5   1    4.76    0.14
  -7  -5  -1   11.94    0.21
   7   5   1   11.78    0.22
   8  -6  -1    4.34    0.16
  -8   6   1    4.61    0.17
   7  -6  -1    5.71    0.15
  -7   6   1    5.37    0.16
  -7   6   1    5.54    0.14
   6  -6  -1    5.20    0.15
   6  -6  -1    5.50    0.14
  -6   6   1    5.36    0.12
   5  -6  -1    6.82    0.14
   5  -6  -1    6.60    0.15
  -5   6   1    6.75    0.13
   4  -6  -1   36.67    0.44
   4  -6  -1   37.13    0.45
  -4   6   1   37.41    0.41
   3  -6  -1   29.81    0.36
   3  -6  -1   28.82    0.36
  -3   6   1   29.66    0.33
   2  -6  -1    3.51    0.10
  -2   6   1    3.56    0.09
  -2   6   1    3.51    0.08
   1  -6  -1    0.07    0.03
   1  -6  -1    0.11    0.04
  -1   6   1    0.06    0.04
   0  -6  -1   33.88    0.37
   0  -6  -1   33.88    0.39
   0   6   1   33.92    0.40
  -1  -6  -1   15.69    0.20
  -1  -6  -1   15.57    0.20
   1   6   1   15.90    0.22
  -2  -6  -1    0.50    0.04
   2   6   1    0.39    0.05
  -3  -6  -1   49.13    0.53
   3   6   1   49.09    0.57
  -4  -6  -1    1.57    0.08
   4   6   1    1.57    0.10
  -5  -6  -1    7.07    0.15
   5   6   1    6.75    0.16
  -6  -6  -1    0.38    0.06
   6   6   1    0.30    0.07
   7  -7  -1   40.25    0.53
  -7   7   1   41.08    0.47
   6  -7  -1    0.17    0.07
   6  -7  -1    0.19    0.06
  -6   7   1    0.10    0.05
   5  -7  -1    3.92    0.13
   5  -7  -1    4.04    0.13
  -5   7   1    3.94    0.11
   4  -7  -1    3.27    0.12
  -4   7   1    3.32    0.10
   3  -7  -1    0.04    0.05
  -3   7   1    0.00    0.04
   2  -7  -1    0.06    0.05
  -2   7   1    0.07    0.04
   1  -7  -1    0.54    0.05
   1  -7  -1    0.49    0.05
  -1   7   1    0.56    0.05
   0  -7  -1    3.35    0.09
   0  -7  -1    3.38    0.10
   0   7   1    3.39    0.10
  -1  -7  -1    2.22    0.08
  -1  -7  -1    2.28    0.08
   1   7   1    2.13    0.09
  -2  -7  -1    0.58    0.05
   2   7   1    0.61    0.06
  -3  -7  -1    2.26    0.09
   3   7   1    2.28    0.11
  -4  -7  -1    3.69    0.11
   4   7   1    3.30    0.13
  -5  -7  -1    0.04    0.05
   5   7   1   -0.13    0.07
   6  -8  -1   13.86    0.26
  -6   8   1   13.66    0.22
   5  -8  -1    1.97    0.13
  -5   8   1    1.82    0.11
   4  -8  -1    3.28    0.13
  -4   8   1    3.28    0.11
   3  -8  -1    1.30    0.10
  -3   8   1    1.25    0.09
   2  -8  -1    1.73    0.10
  -2   8   1    1.66    0.09
   1  -8  -1    1.71    0.10
  -1   8   1    1.38    0.08
   0  -8  -1    6.94    0.14
   0  -8  -1    6.92    0.13
   0   8   1    6.94    0.14
  -1  -8  -1    2.47    0.09
   1   8   1    2.38    0.11
  -2  -8  -1    6.57    0.14
   2   8   1    6.62    0.16
  -3  -8  -1    1.03    0.07
   3   8   1    1.06    0.08
   4   8   1    1.57    0.11
  -5   9   1    0.71    0.08
   4  -9  -1    6.77    0.18
  -4   9   1    6.84    0.16
   3  -9  -1    0.29    0.07
  -3   9   1    0.27    0.06
   2  -9  -1    1.79    0.12
  -2   9   1    1.97    0.11
   1  -9  -1    0.62    0.07
   0  -9  -1    7.91    0.15
   0   9   1    7.64    0.17
  -1  -9  -1    4.47    0.13
   1   9   1    4.22    0.14
  -2  -9  -1    2.52    0.11
   2   9   1    2.28    0.13
   3 -10  -1    3.50    0.18
   0 -11   2    3.94    0.13
  -1  11  -2    4.47    0.14
   2  10  -2    1.43    0.12
  -2 -10   2    1.31    0.10
   1  10  -2    5.54    0.15
  -1 -10   2    5.61    0.13
   0  10  -2    1.79    0.11
   0 -10   2    1.84    0.10
  -2  10  -2    8.08    0.16
  -4  10  -2    1.96    0.13
   4   9  -2    4.16    0.15
  -4  -9   2    4.46    0.13
   3   9  -2    0.22    0.07
  -3  -9   2    0.22    0.05
   2   9  -2    5.72    0.15
  -2  -9   2    5.95    0.13
   1   9  -2    0.36    0.06
  -1  -9   2    0.39    0.05
   0   9  -2    4.74    0.13
   0  -9   2    4.78    0.11
  -1   9  -2   44.91    0.53
  -2   9  -2    7.65    0.14
   2  -9   2    7.50    0.16
  -3   9  -2    0.68    0.06
  -4   9  -2    0.68    0.08
   4  -9   2    0.84    0.08
  -5   9  -2    1.85    0.13
   5  -9   2    1.85    0.12
   6  -9   2    0.76    0.09
   5   8  -2    0.20    0.07
  -5  -8   2    0.20    0.05
   4   8  -2    3.39    0.13
  -4  -8   2    3.49    0.11
   3   8  -2    1.08    0.08
  -3  -8   2    1.11    0.08
   2   8  -2   13.22    0.21
  -2  -8   2   13.10    0.19
   1   8  -2    1.17    0.09
  -1  -8   2    1.27    0.07
   0   8  -2    3.67    0.11
   0  -8   2    3.57    0.09
  -1   8  -2   58.04    0.66
   1  -8   2   58.36    0.64
   1  -8   2   59.09    0.61
  -2   8  -2   10.92    0.16
   2  -8   2   10.90    0.18
   2  -8   2   10.93    0.18
  -3   8  -2    0.40    0.05
   3  -8   2    0.38    0.05
  -4   8  -2    2.31    0.11
   4  -8   2    2.37    0.11
  -5   8  -2    0.45    0.07
   5  -8   2    0.55    0.07
  -6   8  -2    0.90    0.09
   6  -8   2    0.70    0.08
   6   7  -2   15.33    0.25
  -6  -7   2   15.34    0.23
   5   7  -2    9.74    0.19
  -5  -7   2    9.79    0.17
   4   7  -2    0.06    0.05
  -4  -7   2    0.08    0.04
   3   7  -2    0.20    0.05
  -3  -7   2    0.26    0.04
   2   7  -2    8.19    0.15
   2   7  -2    8.50    0.14
  -2  -7   2    8.24    0.13
   1   7  -2    6.51    0.12
   1   7  -2    6.52    0.13
  -1  -7   2    6.40    0.11
   0   7  -2    7.54    0.13
   0  -7   2    7.31    0.12
   0  -7   2    7.42    0.12
   1  -7   2   15.48    0.21
   1  -7   2   15.10    0.21
   1  -7   2   15.23    0.19
  -2   7  -2    3.39    0.08
   2  -7   2    3.43    0.10
   2  -7   2    3.51    0.09
   2  -7   2    3.61    0.08
  -3   7  -2    5.19    0.10
   3  -7   2    5.19    0.12
  -4   7  -2    9.29    0.17
  -4   7  -2    9.53    0.14
   4  -7   2    9.22    0.17
  -5   7  -2    0.04    0.06
   5  -7   2    0.04    0.05
  -6   7  -2    4.87    0.15
   6  -7   2    5.02    0.15
  -7   7  -2   12.86    0.24
   7  -7   2   13.20    0.25
   7   6  -2    2.67    0.13
  -7  -6   2    2.69    0.11
   6   6  -2   21.95    0.31
  -6  -6   2   21.83    0.28
   5   6  -2    0.06    0.05
  -5  -6   2    0.03    0.04
   4   6  -2   19.44    0.26
   4   6  -2   19.18    0.26
  -4  -6   2   18.84    0.24
   3   6  -2    8.58    0.15
   3   6  -2    8.87    0.14
  -3  -6   2    8.70    0.13
   2   6  -2   -0.02    0.04
   2   6  -2    0.10    0.04
  -2  -6   2    0.00    0.03
   1   6  -2    1.85    0.07
  -1  -6   2    1.73    0.06
  -1  -6   2    1.84    0.06
   0   6  -2   14.12    0.19
   0  -6   2   14.01    0.17
   0  -6   2   14.05    0.18
   0  -6   2   14.10    0.18
   1  -6   2   11.74    0.17
   1  -6   2   11.66    0.16
   1  -6   2   11.99    0.16
   1  -6   2   11.76    0.15
  -2   6  -2   10.95    0.14
   2  -6   2   11.01    0.17
   2  -6   2   10.94    0.17
   2  -6   2   11.25    0.15
  -3   6  -2   17.35    0.20
   3  -6   2   17.02    0.24
  -4   6  -2    3.46    0.08
  -4   6  -2    3.27    0.10
   4  -6   2    3.34    0.10
  -5   6  -2    4.18    0.12
   5  -6   2    4.27    0.12
  -6   6  -2   35.65    0.44
   6  -6   2   35.83    0.46
  -7   6  -2   -0.09    0.07
   7  -6   2    0.01    0.06
   7   5  -2    6.06    0.15
  -7  -5   2    5.79    0.14
   6   5  -2    0.00    0.05
   6   5  -2    0.09    0.05
  -6  -5   2    0.07    0.04
   5   5  -2    0.68    0.06
   5   5  -2    0.66    0.06
  -5  -5   2    0.74    0.05
   4   5  -2    7.51    0.13
   4   5  -2    7.38    0.14
  -4  -5   2    7.15    0.12
   3   5  -2   10.04    0.16
   3   5  -2   10.37    0.15
  -3  -5   2   10.36    0.14
   2   5  -2   22.63    0.28
  -2  -5   2   22.59    0.25
   1   5  -2  122.08    1.30
  -1  -5   2  121.79    1.23
  -1  -5   2  118.60    1.18
  -1  -5   2  121.38    1.28
   0  -5   2   31.39    0.33
   0  -5   2   31.53    0.34
   0  -5   2   31.15    0.35
   1  -5   2   61.47    0.65
   1  -5   2   61.84    0.66
   1  -5   2   62.16    0.69
   1  -5   2   62.39    0.62
  -2   5  -2   72.75    0.73
   2  -5   2   73.38    0.78
   2  -5   2   74.88    0.78
   2  -5   2   73.55    0.81
  -3   5  -2   19.56    0.25
  -3   5  -2   19.62    0.22
   3  -5   2   20.63    0.23
   3  -5   2   19.04    0.26
  -4   5  -2   22.19    0.28
  -4   5  -2   22.69    0.25
   4  -5   2   22.32    0.29
  -5   5  -2   79.17    0.79
  -5   5  -2   78.64    0.85
   5  -5   2   78.47    0.89
  -6   5  -2    8.37    0.16
   6  -5   2    8.02    0.16
  -7   5  -2    0.79    0.08
   7  -5   2    0.74    0.07
  -8   5  -2   -0.05    0.07
   8  -5   2    0.11    0.07
   8   4  -2    0.44    0.08
  -8  -4   2    0.54    0.06
   7   4  -2    2.09    0.10
   7   4  -2    2.00    0.09
  -7  -4   2    2.16    0.09
   6   4  -2    0.52    0.05
   6   4  -2    0.63    0.06
  -6  -4   2    0.48    0.05
   5   4  -2   53.68    0.60
   5   4  -2   53.67    0.61
  -5  -4   2   52.76    0.56
   4   4  -2    1.04    0.07
   4   4  -2    0.96    0.07
  -4  -4   2    0.94    0.05
   3   4  -2   34.71    0.40
   3   4  -2   34.62    0.40
  -3  -4   2   34.69    0.37
   2   4  -2    1.96    0.06
  -2  -4   2    2.09    0.05
  -2  -4   2    2.01    0.05
   1   4  -2    2.18    0.06
  -1  -4   2    2.16    0.05
  -1  -4   2    2.20    0.04
   0  -4   2   47.72    0.50
   0  -4   2   46.92    0.51
   0  -4   2   47.65    0.53
   0  -4   2   47.88    0.47
   1  -4   2   13.09    0.17
   1  -4   2   13.07    0.14
   1  -4   2   12.72    0.16
   1  -4   2   12.91    0.16
  -2   4  -2    6.94    0.11
  -2   4  -2    7.09    0.09
   2  -4   2    7.20    0.09
   2  -4   2    6.74    0.11
  -3   4  -2   12.05    0.17
  -3   4  -2   12.22    0.14
   3  -4   2   12.70    0.15
   3  -4   2   11.97    0.17
  -4   4  -2   26.60    0.28
  -4   4  -2   26.08    0.31
   4  -4   2   26.19    0.33
  -5   4  -2   82.95    0.88
  -5   4  -2   83.21    0.82
   5  -4   2   81.94    0.93
  -6   4  -2    6.03    0.14
   6  -4   2    5.98    0.14
  -7   4  -2    0.29    0.06
   7  -4   2    0.44    0.06
  -8   4  -2   11.37    0.21
   8  -4   2   11.28    0.22
   9   3  -2    2.96    0.15
   8   3  -2    0.58    0.07
  -8  -3   2    0.60    0.06
   7   3  -2    0.15    0.05
  -7  -3   2    0.22    0.05
   6   3  -2    0.22    0.04
   6   3  -2    0.30    0.05
  -6  -3   2    0.24    0.04
   5   3  -2   55.98    0.62
   5   3  -2   55.03    0.64
  -5  -3   2   55.77    0.58
   4   3  -2    0.04    0.03
   4   3  -2    0.08    0.03
  -4  -3   2    0.07    0.03
   3   3  -2    1.79    0.06
  -3  -3   2    1.72    0.05
  -3  -3   2    1.71    0.05
   2   3  -2  356.09    3.87
  -2  -3   2  362.49    3.81
  -2  -3   2  357.67    3.51
   1   3  -2    9.77    0.13
  -1  -3   2    9.73    0.11
   0  -3   2   13.64    0.16
   0  -3   2   13.75    0.14
   0  -3   2   13.73    0.17
  -1   3  -2   94.40    0.98
   1  -3   2   96.58    1.03
   1  -3   2   98.55    1.04
  -2   3  -2    0.69    0.05
  -2   3  -2    0.67    0.03
   2  -3   2    0.64    0.03
   2  -3   2    0.62    0.04
  -3   3  -2    1.05    0.06
  -3   3  -2    1.08    0.04
   3  -3   2    1.13    0.05
   3  -3   2    1.07    0.03
  -4   3  -2   27.18    0.29
   4  -3   2   27.18    0.34
   4  -3   2   27.60    0.30
  -5   3  -2   16.94    0.19
  -5   3  -2   16.94    0.22
   5  -3   2   16.61    0.24
  -6   3  -2    6.27    0.13
  -6   3  -2    6.38    0.10
   6  -3   2    6.33    0.14
  -7   3  -2    0.00    0.05
   7  -3   2   -0.02    0.05
  -8   3  -2    2.32    0.13
   8  -3   2    2.29    0.12
   9   2  -2    6.60    0.18
  -9  -2   2    6.71    0.15
   8   2  -2    3.23    0.12
  -8  -2   2    3.21    0.11
   7   2  -2    1.45    0.09
  -7  -2   2    1.52    0.08
   6   2  -2   16.45    0.21
   6   2  -2   16.41    0.23
  -6  -2   2   16.08    0.20
   5   2  -2   14.30    0.19
   5   2  -2   14.44    0.21
  -5  -2   2   14.58    0.18
   4   2  -2   20.86    0.24
   4   2  -2   20.87    0.26
  -4  -2   2   20.45    0.23
   3   2  -2  116.10    1.24
  -3  -2   2  114.38    1.16
  -3  -2   2  116.98    1.21
   2   2  -2  197.35    2.16
  -2  -2   2  199.70    2.10
  -2  -2   2  196.49    1.95
   1   2  -2  166.65    1.81
  -1  -2   2  163.69    1.62
  -1  -2   2  165.57    1.77
   0   2  -2  685.92    7.41
   0  -2   2  689.47    6.92
   0  -2   2  679.47    8.00
   0  -2   2  695.02    8.30
  -1   2  -2   16.84    0.19
   1  -2   2   17.52    0.20
   1  -2   2   17.25    0.19
  -2   2  -2    2.98    0.06
  -2   2  -2    3.06    0.04
   2  -2   2    3.02    0.06
   2  -2   2    3.10    0.05
  -3   2  -2   16.45    0.20
  -3   2  -2   16.58    0.17
   3  -2   2   16.30    0.19
   3  -2   2   16.37    0.21
  -4   2  -2   45.87    0.50
  -4   2  -2   45.83    0.46
   4  -2   2   44.93    0.49
   4  -2   2   46.45    0.53
  -5   2  -2    1.49    0.06
  -5   2  -2    1.57    0.08
   5  -2   2    1.64    0.07
  -6   2  -2    2.44    0.07
  -6   2  -2    2.52    0.09
   6  -2   2    2.51    0.09
  -7   2  -2    1.11    0.09
   7  -2   2    1.10    0.09
  -8   2  -2    8.39    0.17
   8  -2   2    8.14    0.18
   9   1  -2    0.90    0.09
  -9  -1   2    0.93    0.07
   8   1  -2    0.11    0.06
  -8  -1   2    0.10    0.05
   7   1  -2   13.69    0.22
  -7  -1   2   13.64    0.19
   6   1  -2   42.03    0.50
  -6  -1   2   41.72    0.45
   5   1  -2    5.37    0.09
   5   1  -2    5.28    0.11
  -5  -1   2    5.35    0.09
  -5  -1   2    5.43    0.09
   4   1  -2    3.47    0.08
   4   1  -2    3.52    0.06
  -4  -1   2    3.45    0.06
   3   1  -2    0.84    0.04
  -3  -1   2    0.65    0.03
  -3  -1   2    0.73    0.03
   2   1  -2   87.12    0.94
  -2  -1   2   87.95    0.92
   1   1  -2  107.76    1.18
   1   1  -2  110.99    1.11
  -1  -1   2  106.67    1.07
  -1  -1   2  107.72    1.15
   0   1  -2   92.46    0.96
   0  -1   2   91.85    1.01
   0  -1   2   91.70    1.00
  -1   1  -2   67.88    0.71
   1  -1   2   69.21    0.75
   1  -1   2   69.51    0.74
  -2   1  -2  158.75    1.65
  -2   1  -2  162.49    1.57
   2  -1   2  157.22    1.72
   2  -1   2  162.68    1.74
  -3   1  -2  146.44    1.54
  -3   1  -2  149.83    1.46
   3  -1   2  148.07    1.60
   3  -1   2  148.21    1.61
  -4   1  -2    1.95    0.06
  -4   1  -2    1.94    0.05
   4  -1   2    1.83    0.06
   4  -1   2    1.91    0.05
  -5   1  -2    0.26    0.03
  -5   1  -2    0.26    0.04
   5  -1   2    0.27    0.04
   5  -1   2    0.24    0.03
  -6   1  -2    1.17    0.06
  -6   1  -2    1.14    0.07
   6  -1   2    1.19    0.08
  -7   1  -2    2.57    0.10
   7  -1   2    2.59    0.10
   8  -1   2    3.61    0.13
   9   0  -2    0.06    0.07
  -9   0   2    0.11    0.06
   8   0  -2    2.57    0.11
  -8   0   2    2.40    0.09
   7   0  -2    5.58    0.13
  -7   0   2    5.57    0.11
   6   0  -2   13.95    0.21
  -6   0   2   14.02    0.18
  -6   0   2   13.82    0.18
   5   0  -2   21.45    0.24
   5   0  -2   22.02    0.28
  -5   0   2   21.57    0.24
  -5   0   2   21.82    0.25
   4   0  -2   27.29    0.30
   4   0  -2   27.01    0.32
   4   0  -2   27.13    0.29
  -4   0   2   27.19    0.29
   3   0  -2    7.05    0.10
   3   0  -2    7.07    0.09
  -3   0   2    6.84    0.09
  -3   0   2    7.06    0.08
   2   0  -2  173.29    1.77
   2   0  -2  171.33    1.88
  -2   0   2  173.20    1.72
  -2   0   2  174.04    1.82
   1   0  -2  292.48    3.08
   1   0  -2  283.82    2.94
  -1   0   2  285.56    2.81
  -1   0   2  289.32    3.38
   0   0  -2   33.47    0.35
   0   0  -2   33.21    0.33
   0   0   2   33.85    0.36
  -1   0  -2   27.85    0.29
  -1   0  -2   27.61    0.27
   1   0   2   27.57    0.30
   1   0   2   28.05    0.30
  -2   0  -2   35.70    0.36
  -2   0  -2   35.69    0.38
   2   0   2   36.46    0.39
   2   0   2   36.21    0.40
  -3   0  -2   19.97    0.23
  -3   0  -2   20.27    0.21
   3   0   2   20.42    0.24
   3   0   2   20.22    0.23
  -4   0  -2    0.13    0.02
  -4   0  -2    0.19    0.03
   4   0   2    0.15    0.03
   4   0   2    0.15    0.03
  -5   0  -2    6.72    0.10
  -5   0  -2    6.74    0.12
   5   0   2    6.92    0.11
   5   0   2    6.58    0.12
  -6   0  -2   26.41    0.32
  -6   0  -2   25.63    0.29
   6   0   2   25.76    0.34
   6   0   2   26.60    0.32
  -7   0  -2    0.71    0.05
  -7   0  -2    0.69    0.07
   7   0   2    0.77    0.07
   8   0   2    3.22    0.13
   9  -1  -2    5.90    0.17
  -9   1   2    6.16    0.14
   8  -1  -2    3.07    0.12
  -8   1   2    3.34    0.10
   7  -1  -2    2.58    0.10
  -7   1   2    2.63    0.09
  -7   1   2    2.80    0.09
   6  -1  -2    0.22    0.04
  -6   1   2    0.21    0.04
  -6   1   2    0.15    0.04
   5  -1  -2   38.37    0.45
   5  -1  -2   38.92    0.43
  -5   1   2   38.44    0.41
   4  -1  -2    1.03    0.05
   4  -1  -2    1.04    0.05
  -4   1   2    0.99    0.04
   3  -1  -2   95.12    1.03
   3  -1  -2   96.45    0.98
  -3   1   2   94.73    0.95
   2  -1  -2   22.88    0.25
   2  -1  -2   22.78    0.26
  -2   1   2   23.02    0.24
  -2   1   2   22.53    0.24
   1  -1  -2  395.68    4.06
   1  -1  -2  393.98    4.54
  -1   1   2  393.18    3.87
  -1   1   2  405.34    4.48
   0  -1  -2   -0.09    0.02
   0  -1  -2   -0.04    0.01
  -1  -1  -2   19.71    0.22
  -1  -1  -2   20.04    0.21
   1   1   2   20.21    0.23
  -2  -1  -2   39.81    0.42
  -2  -1  -2   39.03    0.40
   2   1   2   39.55    0.43
   2   1   2   39.73    0.43
  -3  -1  -2    6.49    0.09
  -3  -1  -2    6.61    0.10
   3   1   2    6.51    0.10
   3   1   2    6.60    0.10
  -4  -1  -2    0.18    0.03
  -4  -1  -2    0.17    0.03
   4   1   2    0.21    0.03
   4   1   2    0.22    0.03
  -5  -1  -2    0.75    0.05
  -5  -1  -2    0.66    0.05
   5   1   2    0.71    0.06
   5   1   2    0.74    0.06
  -6  -1  -2    1.30    0.07
  -6  -1  -2    1.26    0.08
   6   1   2    1.14    0.07
   6   1   2    1.33    0.08
  -7  -1  -2    1.66    0.08
   7   1   2    1.74    0.10
   9  -2  -2    0.62    0.09
  -9   2   2    0.67    0.07
   8  -2  -2    0.08    0.06
  -8   2   2    0.05    0.06
  -8   2   2    0.07    0.05
   7  -2  -2    2.56    0.10
  -7   2   2    2.66    0.09
  -7   2   2    2.77    0.10
   6  -2  -2    3.98    0.11
  -6   2   2    4.15    0.09
   5  -2  -2   12.43    0.18
   5  -2  -2   12.88    0.18
  -5   2   2   12.47    0.16
   4  -2  -2    0.69    0.05
   4  -2  -2    0.70    0.05
  -4   2   2    0.74    0.05
   3  -2  -2    5.38    0.09
   3  -2  -2    5.32    0.09
  -3   2   2    5.23    0.08
   2  -2  -2  117.32    1.28
   2  -2  -2  118.45    1.20
  -2   2   2  118.57    1.17
  -2   2   2  116.73    1.24
   1  -2  -2   38.69    0.41
  -1   2   2   39.65    0.42
  -1   2   2   38.66    0.39
   0  -2  -2   88.28    0.85
   0  -2  -2   86.20    0.89
   0   2   2   86.75    0.93
  -1  -2  -2   20.53    0.23
  -1  -2  -2   20.10    0.22
   1   2   2   20.39    0.24
  -2  -2  -2   40.78    0.43
  -2  -2  -2   40.87    0.42
   2   2   2   41.17    0.44
   2   2   2   40.55    0.45
  -3  -2  -2    3.07    0.06
  -3  -2  -2    3.06    0.07
   3   2   2    3.08    0.06
   3   2   2    3.06    0.07
  -4  -2  -2    6.89    0.11
  -4  -2  -2    6.85    0.11
   4   2   2    6.80    0.12
   4   2   2    6.94    0.11
  -5  -2  -2    4.45    0.09
  -5  -2  -2    4.51    0.09
   5   2   2    4.68    0.10
   5   2   2    4.64    0.10
  -6  -2  -2   14.97    0.20
   6   2   2   15.15    0.22
  -7  -2  -2    3.45    0.10
   9  -3  -2    6.15    0.18
  -9   3   2    6.57    0.15
   8  -3  -2    1.64    0.11
  -8   3   2    1.69    0.10
  -8   3   2    1.69    0.12
   7  -3  -2    0.28    0.06
  -7   3   2    0.31    0.05
  -7   3   2    0.30    0.06
   6  -3  -2   10.96    0.18
   6  -3  -2   10.59    0.18
  -6   3   2   10.45    0.16
   5  -3  -2   12.80    0.19
   5  -3  -2   13.08    0.19
  -5   3   2   12.87    0.17
   4  -3  -2    1.33    0.06
   4  -3  -2    1.29    0.06
  -4   3   2    1.36    0.06
   3  -3  -2   33.01    0.37
   3  -3  -2   33.28    0.38
  -3   3   2   32.47    0.35
   2  -3  -2   51.57    0.56
   2  -3  -2   50.73    0.55
  -2   3   2   51.33    0.52
  -2   3   2   51.46    0.54
   1  -3  -2    5.25    0.09
  -1   3   2    5.24    0.08
   0  -3  -2    0.72    0.04
   0  -3  -2    0.68    0.04
   0   3   2    0.89    0.04
  -1  -3  -2    1.35    0.04
  -1  -3  -2    1.41    0.05
   1   3   2    1.45    0.05
  -2  -3  -2   25.76    0.28
  -2  -3  -2   26.07    0.29
   2   3   2   25.81    0.31
  -3  -3  -2    3.93    0.08
  -3  -3  -2    3.94    0.08
   3   3   2    3.96    0.09
   3   3   2    4.09    0.07
  -4  -3  -2    0.10    0.03
  -4  -3  -2    0.08    0.03
   4   3   2    0.11    0.04
  -5  -3  -2   10.11    0.15
   5   3   2   10.29    0.17
  -6  -3  -2    1.80    0.08
   6   3   2    1.73    0.09
  -7  -3  -2    2.56    0.10
   7   3   2    2.47    0.11
  -9   4   2    7.76    0.17
  -9   4   2    7.65    0.20
   8  -4  -2    2.53    0.13
  -8   4   2    2.68    0.13
  -8   4   2    2.55    0.11
   7  -4  -2    2.32    0.11
  -7   4   2    2.27    0.09
   6  -4  -2    1.23    0.09
   6  -4  -2    1.36    0.09
  -6   4   2    1.27    0.08
   5  -4  -2    6.03    0.13
   5  -4  -2    6.07    0.12
  -5   4   2    5.93    0.11
   4  -4  -2    1.64    0.08
   4  -4  -2    1.79    0.07
  -4   4   2    1.86    0.07
   3  -4  -2    0.26    0.03
   3  -4  -2    0.37    0.04
  -3   4   2    0.34    0.02
  -3   4   2    0.31    0.03
   2  -4  -2    6.77    0.10
   2  -4  -2    6.84    0.11
  -2   4   2    6.87    0.10
  -2   4   2    6.80    0.11
   1  -4  -2   53.04    0.54
   1  -4  -2   53.17    0.57
  -1   4   2   53.35    0.58
   0  -4  -2    5.22    0.09
   0   4   2    5.10    0.09
  -1  -4  -2   38.68    0.42
  -1  -4  -2   38.41    0.41
   1   4   2   38.72    0.44
  -2  -4  -2    2.77    0.07
  -2  -4  -2    2.89    0.07
   2   4   2    2.88    0.08
  -3  -4  -2    0.05    0.03
  -3  -4  -2    0.00    0.03
   3   4   2    0.03    0.04
  -4  -4  -2    6.17    0.11
   4   4   2    6.23    0.13
  -5  -4  -2   11.15    0.17
   5   4   2   11.44    0.19
  -6  -4  -2    2.98    0.10
   6   4   2    2.82    0.11
  -7  -4  -2    5.40    0.14
   7   4   2    5.36    0.15
   8  -5  -2    1.87    0.13
  -8   5   2    1.71    0.11
  -8   5   2    2.03    0.13
   7  -5  -2    0.01    0.05
  -7   5   2   -0.01    0.05
   6  -5  -2    3.73    0.11
   6  -5  -2    3.67    0.12
  -6   5   2    3.76    0.10
   5  -5  -2   16.51    0.24
   5  -5  -2   16.65    0.24
  -5   5   2   16.70    0.22
   4  -5  -2    0.03    0.04
   4  -5  -2    0.06    0.04
  -4   5   2    0.05    0.04
   3  -5  -2    0.74    0.05
   3  -5  -2    0.80    0.06
  -3   5   2    0.73    0.05
   2  -5  -2    5.01    0.11
   2  -5  -2    5.27    0.09
  -2   5   2    4.92    0.10
  -2   5   2    5.05    0.09
   1  -5  -2    0.48    0.04
   1  -5  -2    0.70    0.05
  -1   5   2    0.51    0.04
   0  -5  -2   -0.02    0.03
   0  -5  -2    0.00    0.03
   0   5   2    0.00    0.03
  -1  -5  -2    0.51    0.04
  -1  -5  -2    0.46    0.04
   1   5   2    0.48    0.05
  -2  -5  -2   46.80    0.51
  -2  -5  -2   46.55    0.49
   2   5   2   46.14    0.53
  -3  -5  -2   97.75    0.99
   3   5   2   98.41    1.07
  -4  -5  -2   14.83    0.20
   4   5   2   14.70    0.22
  -5  -5  -2    0.00    0.04
   5   5   2   -0.02    0.05
  -6  -5  -2    0.50    0.06
   6   5   2    0.37    0.07
   8  -6  -2    8.22    0.20
  -8   6   2    8.03    0.17
   7  -6  -2    6.43    0.17
   7  -6  -2    6.34    0.16
  -7   6   2    6.38    0.15
   6  -6  -2   10.30    0.19
   6  -6  -2   10.08    0.20
  -6   6   2   10.15    0.17
   5  -6  -2    5.34    0.14
   5  -6  -2    5.57    0.13
  -5   6   2    5.54    0.12
   4  -6  -2    2.17    0.10
  -4   6   2    2.31    0.09
   3  -6  -2   28.68    0.36
  -3   6   2   28.84    0.33
   2  -6  -2   17.65    0.24
  -2   6   2   17.96    0.23
  -2   6   2   17.96    0.23
   1  -6  -2   69.87    0.72
   1  -6  -2   71.00    0.76
  -1   6   2   69.69    0.77
   0  -6  -2    4.80    0.11
   0  -6  -2    4.80    0.10
   0   6   2    4.91    0.11
  -1  -6  -2    3.36    0.09
  -1  -6  -2    3.26    0.09
   1   6   2    3.18    0.10
  -2  -6  -2    0.90    0.07
  -2  -6  -2    0.99    0.07
   2   6   2    1.05    0.08
  -3  -6  -2    7.48    0.14
   3   6   2    7.49    0.15
  -4  -6  -2    3.59    0.11
   4   6   2    3.81    0.12
  -5  -6  -2    1.32    0.10
   5   6   2    1.02    0.08
  -7   7   2    0.05    0.06
   6  -7  -2    0.47    0.08
  -6   7   2    0.55    0.06
   5  -7  -2    5.87    0.15
  -5   7   2    6.25    0.14
   4  -7  -2   10.64    0.19
  -4   7   2   10.57    0.17
   3  -7  -2    0.08    0.05
  -3   7   2    0.12    0.05
   2  -7  -2    1.75    0.09
  -2   7   2    1.51    0.09
   1  -7  -2   24.15    0.31
  -1   7   2   24.13    0.31
   0  -7  -2    6.01    0.13
   0  -7  -2    5.56    0.12
   0   7   2    6.00    0.13
  -1  -7  -2    0.06    0.04
  -1  -7  -2    0.06    0.04
   1   7   2    0.04    0.05
  -2  -7  -2   19.12    0.25
   2   7   2   19.31    0.28
  -3  -7  -2    6.94    0.14
   3   7   2    6.93    0.16
  -4  -7  -2    0.10    0.05
   4   7   2    0.03    0.07
  -6   8   2    0.07    0.07
   5  -8  -2    4.21    0.15
  -5   8   2    3.70    0.13
   4  -8  -2    0.09    0.07
  -4   8   2    0.14    0.06
   3  -8  -2    0.13    0.06
  -3   8   2    0.10    0.06
   2  -8  -2    0.05    0.06
  -2   8   2    0.09    0.05
   1  -8  -2    3.46    0.12
  -1   8   2    3.64    0.11
   0  -8  -2    1.92    0.10
   0  -8  -2    1.86    0.09
   0   8   2    1.83    0.10
  -1  -8  -2    0.00    0.04
   1   8   2   -0.01    0.06
  -2  -8  -2   19.76    0.27
   2   8   2   20.00    0.30
  -3  -8  -2    2.09    0.11
   3   8   2    2.26    0.13
   4  -9  -2    5.30    0.17
  -4   9   2    5.04    0.15
   3  -9  -2    4.12    0.15
  -3   9   2    3.81    0.14
   2  -9  -2   20.25    0.30
  -2   9   2   19.77    0.28
   1  -9  -2    2.43    0.13
  -1   9   2    2.55    0.12
   0  -9  -2    2.81    0.11
   0   9   2    2.96    0.13
   1   9   2   -0.05    0.07
   1  11  -3    1.96    0.13
  -1 -11   3    2.15    0.11
   0  11  -3    6.44    0.17
   0 -11   3    6.85    0.17
   3  10  -3    0.07    0.08
  -3 -10   3    0.12    0.05
   2  10  -3    2.44    0.13
  -2 -10   3    2.55    0.10
   1  10  -3    0.20    0.07
  -1 -10   3    0.25    0.05
   0  10  -3    0.40    0.07
   0 -10   3    0.34    0.05
  -3  10  -3    0.04    0.07
  -4  10  -3    0.44    0.08
   5 -10   3    2.27    0.14
   4   9  -3    8.28    0.19
  -4  -9   3    8.19    0.16
   3   9  -3    4.61    0.14
  -3  -9   3    4.59    0.12
   2   9  -3    0.04    0.06
  -2  -9   3    0.12    0.04
   1   9  -3    1.32    0.10
  -1  -9   3    1.27    0.08
   0   9  -3    0.12    0.05
   0  -9   3    0.07    0.04
  -1   9  -3   22.18    0.30
  -1   9  -3   21.76    0.30
  -2   9  -3    2.00    0.10
   2  -9   3    1.82    0.10
  -3   9  -3    0.26    0.06
   3  -9   3    0.21    0.06
  -4   9  -3    4.02    0.14
   4  -9   3    4.35    0.14
  -5   9  -3    2.53    0.13
   5  -9   3    2.40    0.13
   6  -9   3    0.16    0.08
   6   8  -3    1.59    0.13
   5   8  -3    8.27    0.18
  -5  -8   3    8.21    0.16
   4   8  -3    0.63    0.07
  -4  -8   3    0.88    0.06
   3   8  -3   14.83    0.23
  -3  -8   3   14.59    0.20
   2   8  -3    1.35    0.09
  -2  -8   3    1.25    0.07
   1   8  -3   11.77    0.19
  -1  -8   3   12.03    0.17
   0   8  -3    5.41    0.12
   0  -8   3    5.55    0.11
   0  -8   3    5.39    0.10
   1  -8   3   50.49    0.57
   1  -8   3   50.03    0.52
  -2   8  -3    0.76    0.06
  -2   8  -3    0.89    0.07
   2  -8   3    0.75    0.06
   2  -8   3    0.86    0.08
  -3   8  -3    0.31    0.06
   3  -8   3    0.23    0.05
  -4   8  -3    0.84    0.08
   4  -8   3    0.81    0.07
  -5   8  -3    2.95    0.13
   5  -8   3    2.86    0.12
  -6   8  -3    2.29    0.13
   6  -8   3    2.58    0.13
   7   7  -3   -0.20    0.07
   6   7  -3   11.67    0.21
  -6  -7   3   11.58    0.19
   5   7  -3    1.31    0.10
  -5  -7   3    1.14    0.08
   4   7  -3    4.98    0.13
   4   7  -3    4.69    0.12
  -4  -7   3    4.87    0.11
   3   7  -3   38.25    0.47
   3   7  -3   39.04    0.46
  -3  -7   3   38.93    0.42
   2   7  -3    3.00    0.09
  -2  -7   3    2.97    0.08
   1   7  -3    2.67    0.09
  -1  -7   3    2.64    0.07
  -1  -7   3    2.71    0.08
   0   7  -3   41.72    0.49
   0  -7   3   42.59    0.48
   0  -7   3   42.50    0.44
   1  -7   3    0.30    0.03
   1  -7   3    0.26    0.03
   1  -7   3    0.32    0.04
  -2   7  -3    0.04    0.04
  -2   7  -3    0.17    0.03
   2  -7   3    0.09    0.03
   2  -7   3    0.10    0.04
  -3   7  -3    3.67    0.09
  -3   7  -3    3.42    0.10
   3  -7   3    3.81    0.10
  -4   7  -3    0.14    0.05
   4  -7   3    0.11    0.05
  -5   7  -3   16.66    0.25
   5  -7   3   16.41    0.26
  -6   7  -3    0.20    0.07
   6  -7   3    0.27    0.07
  -7   7  -3    0.42    0.08
   7  -7   3    0.59    0.08
   7   6  -3    3.82    0.14
  -7  -6   3    4.08    0.12
   6   6  -3    0.13    0.06
   6   6  -3    0.04    0.06
  -6  -6   3    0.05    0.04
   5   6  -3   16.64    0.24
   5   6  -3   16.77    0.24
  -5  -6   3   16.64    0.22
   4   6  -3    7.42    0.14
   4   6  -3    7.38    0.14
  -4  -6   3    7.53    0.12
   3   6  -3    0.94    0.07
  -3  -6   3    0.96    0.06
   2   6  -3    0.06    0.04
  -2  -6   3    0.07    0.03
  -2  -6   3    0.09    0.03
   1   6  -3   89.11    0.97
  -1  -6   3   88.39    0.95
  -1  -6   3   87.36    0.87
   0   6  -3   28.83    0.35
   0  -6   3   28.98    0.31
   0  -6   3   29.05    0.34
   1  -6   3    3.79    0.08
   1  -6   3    3.74    0.07
   1  -6   3    3.63    0.09
  -2   6  -3    4.90    0.10
  -2   6  -3    4.92    0.08
   2  -6   3    4.82    0.08
   2  -6   3    4.84    0.11
  -3   6  -3    7.65    0.14
  -3   6  -3    7.50    0.11
   3  -6   3    7.81    0.11
   3  -6   3    7.45    0.14
  -4   6  -3    0.99    0.08
   4  -6   3    0.91    0.08
  -5   6  -3   14.19    0.22
   5  -6   3   13.65    0.22
  -6   6  -3    6.03    0.15
   6  -6   3    6.17    0.15
  -7   6  -3   18.21    0.28
   7  -6   3   18.38    0.30
   8   5  -3    1.12    0.09
  -8  -5   3    1.36    0.11
   7   5  -3   33.40    0.44
   7   5  -3   33.68    0.42
  -7  -5   3   33.77    0.40
   6   5  -3    0.21    0.06
   6   5  -3    0.10    0.05
  -6  -5   3    0.17    0.04
   5   5  -3   42.93    0.52
   5   5  -3   44.19    0.51
  -5  -5   3   43.63    0.47
   4   5  -3   16.37    0.23
   4   5  -3   16.39    0.23
  -4  -5   3   16.36    0.20
   3   5  -3    4.54    0.10
  -3  -5   3    4.61    0.08
   2   5  -3   12.18    0.17
  -2  -5   3   12.25    0.15
  -2  -5   3   12.25    0.17
   1   5  -3    8.17    0.13
   1   5  -3    8.28    0.10
  -1  -5   3    7.98    0.12
  -1  -5   3    8.07    0.10
   0   5  -3    0.51    0.04
   0  -5   3    0.50    0.04
   0  -5   3    0.53    0.03
  -1   5  -3   30.32    0.34
   1  -5   3   30.59    0.35
   1  -5   3   30.93    0.36
   1  -5   3   31.51    0.32
  -2   5  -3    0.22    0.04
  -2   5  -3    0.14    0.02
   2  -5   3    0.12    0.02
   2  -5   3    0.15    0.03
  -3   5  -3   55.42    0.56
  -3   5  -3   55.41    0.61
   3  -5   3   57.37    0.60
   3  -5   3   55.52    0.64
  -4   5  -3    0.66    0.06
   4  -5   3    0.84    0.07
  -5   5  -3   20.39    0.27
   5  -5   3   20.58    0.29
  -6   5  -3    3.81    0.13
   6  -5   3    3.90    0.12
  -7   5  -3    0.11    0.07
   7  -5   3    0.13    0.06
  -8   5  -3    8.13    0.19
   8   4  -3    3.33    0.13
  -8  -4   3    3.36    0.12
   7   4  -3    1.72    0.10
  -7  -4   3    1.66    0.09
   6   4  -3    1.36    0.08
   6   4  -3    1.48    0.09
  -6  -4   3    1.43    0.07
   5   4  -3   30.46    0.36
   5   4  -3   30.30    0.37
  -5  -4   3   29.97    0.34
   4   4  -3    3.11    0.09
  -4  -4   3    3.12    0.07
   3   4  -3   11.42    0.16
  -3  -4   3   11.44    0.14
  -3  -4   3   11.60    0.16
   2   4  -3   18.19    0.23
  -2  -4   3   18.31    0.20
  -2  -4   3   18.03    0.22
   1   4  -3   37.11    0.42
  -1  -4   3   37.19    0.37
  -1  -4   3   36.94    0.41
   0   4  -3    4.06    0.07
   0  -4   3    4.38    0.08
   0  -4   3    4.14    0.07
   0  -4   3    4.10    0.06
  -1   4  -3   50.13    0.53
   1  -4   3   50.89    0.57
   1  -4   3   51.09    0.55
  -2   4  -3   24.82    0.29
  -2   4  -3   25.01    0.25
   2  -4   3   25.46    0.28
  -3   4  -3   12.79    0.17
  -3   4  -3   12.45    0.14
   3  -4   3   13.24    0.16
   3  -4   3   12.39    0.18
  -4   4  -3   51.78    0.52
  -4   4  -3   51.05    0.57
   4  -4   3   51.32    0.60
   4  -4   3   52.48    0.56
  -5   4  -3   24.55    0.31
   5  -4   3   24.26    0.32
  -6   4  -3    1.95    0.10
   6  -4   3    1.87    0.09
  -7   4  -3    3.29    0.13
   7  -4   3    3.32    0.12
  -8   4  -3    5.81    0.17
   8  -4   3    5.76    0.17
   9   3  -3    5.28    0.17
   8   3  -3    3.75    0.13
  -8  -3   3    3.87    0.12
   7   3  -3    5.41    0.14
  -7  -3   3    5.33    0.12
   6   3  -3   13.75    0.21
   6   3  -3   14.20    0.19
  -6  -3   3   13.74    0.19
   5   3  -3    1.71    0.08
   5   3  -3    1.41    0.07
  -5  -3   3    1.49    0.06
   4   3  -3   11.81    0.17
  -4  -3   3   11.88    0.15
  -4  -3   3   12.10    0.16
   3   3  -3    1.23    0.05
  -3  -3   3    1.24    0.04
  -3  -3   3    1.22    0.04
   2   3  -3  134.36    1.42
  -2  -3   3  132.70    1.42
  -2  -3   3  131.37    1.31
   1   3  -3    4.76    0.08
   1   3  -3    4.89    0.06
  -1  -3   3    4.71    0.07
  -1  -3   3    4.71    0.06
   0   3  -3    3.88    0.06
   0  -3   3    3.95    0.07
   0  -3   3    3.80    0.05
   0  -3   3    3.80    0.06
  -1   3  -3  165.81    1.71
   1  -3   3  166.26    1.78
   1  -3   3  166.92    1.79
  -2   3  -3   23.04    0.26
   2  -3   3   22.84    0.28
   2  -3   3   23.55    0.26
  -3   3  -3   45.96    0.46
  -3   3  -3   45.68    0.50
   3  -3   3   47.27    0.50
   3  -3   3   46.53    0.53
  -4   3  -3   82.76    0.87
  -4   3  -3   82.16    0.81
   4  -3   3   82.60    0.87
   4  -3   3   82.12    0.92
  -5   3  -3   14.23    0.20
   5  -3   3   13.87    0.21
  -6   3  -3   15.20    0.22
   6  -3   3   15.20    0.23
  -7   3  -3    1.88    0.11
   7  -3   3    1.98    0.10
  -8   3  -3    0.21    0.07
   8  -3   3    0.21    0.07
   9   2  -3    0.22    0.08
  -9  -2   3    0.26    0.06
   8   2  -3    6.61    0.16
  -8  -2   3    6.80    0.14
   7   2  -3    0.88    0.07
  -7  -2   3    0.92    0.07
   6   2  -3  171.41    1.77
   6   2  -3  168.37    1.83
  -6  -2   3  167.03    1.66
   5   2  -3    0.21    0.04
   5   2  -3    0.30    0.04
  -5  -2   3    0.27    0.03
   4   2  -3   27.09    0.33
  -4  -2   3   27.15    0.29
  -4  -2   3   27.63    0.31
   3   2  -3   82.04    0.90
  -3  -2   3   83.38    0.87
  -3  -2   3   83.21    0.81
   2   2  -3    2.05    0.05
  -2  -2   3    1.69    0.04
   1   2  -3    4.71    0.08
   1   2  -3    4.74    0.06
  -1  -2   3    4.64    0.06
   0   2  -3    9.15    0.11
   0  -2   3    9.15    0.12
   0  -2   3    8.97    0.11
  -1   2  -3   85.71    0.88
   1  -2   3   86.17    0.93
   1  -2   3   87.80    0.93
  -2   2  -3   72.81    0.76
   2  -2   3   73.32    0.79
   2  -2   3   73.67    0.80
  -3   2  -3   17.30    0.21
  -3   2  -3   17.37    0.18
   3  -2   3   17.07    0.20
   3  -2   3   17.24    0.22
  -4   2  -3    2.11    0.07
  -4   2  -3    1.96    0.05
   4  -2   3    2.05    0.07
   4  -2   3    2.00    0.05
  -5   2  -3    3.00    0.06
  -5   2  -3    2.98    0.09
   5  -2   3    2.88    0.07
   5  -2   3    2.89    0.09
  -6   2  -3    5.45    0.12
   6  -2   3    5.24    0.13
  -7   2  -3    4.88    0.13
   7  -2   3    5.05    0.14
  -8   2  -3    0.21    0.07
   8  -2   3    0.27    0.07
   9   1  -3    0.23    0.08
  -9  -1   3    0.28    0.06
   8   1  -3    5.64    0.15
  -8  -1   3    5.58    0.13
   7   1  -3    0.38    0.06
  -7  -1   3    0.25    0.04
   6   1  -3   42.48    0.50
  -6  -1   3   41.43    0.45
   5   1  -3   14.77    0.21
   5   1  -3   15.08    0.18
  -5  -1   3   15.03    0.18
  -5  -1   3   14.77    0.18
   4   1  -3   28.20    0.34
   4   1  -3   28.57    0.31
  -4  -1   3   28.67    0.31
  -4  -1   3   28.33    0.30
   3   1  -3   32.42    0.37
   3   1  -3   32.45    0.34
  -3  -1   3   32.25    0.35
  -3  -1   3   31.90    0.33
   2   1  -3   21.37    0.22
   2   1  -3   21.10    0.25
  -2  -1   3   20.67    0.22
  -2  -1   3   20.91    0.23
   1   1  -3  156.17    1.60
   1   1  -3  154.41    1.69
  -1  -1   3  155.90    1.67
  -1  -1   3  155.59    1.53
   0   1  -3   71.63    0.73
   0  -1   3   71.03    0.78
   0  -1   3   71.15    0.76
  -1   1  -3    0.31    0.02
   1  -1   3    0.30    0.02
   1  -1   3    0.30    0.02
  -2   1  -3   30.80    0.31
  -2   1  -3   31.22    0.34
   2  -1   3   31.27    0.35
   2  -1   3   31.55    0.35
  -3   1  -3   15.74    0.17
  -3   1  -3   15.81    0.19
   3  -1   3   15.74    0.19
   3  -1   3   16.23    0.20
  -4   1  -3   25.83    0.27
  -4   1  -3   25.60    0.30
   4  -1   3   26.03    0.32
   4  -1   3   26.09    0.30
  -5   1  -3   19.22    0.24
  -5   1  -3   18.82    0.22
   5  -1   3   18.97    0.24
   5  -1   3   19.03    0.26
  -6   1  -3    0.80    0.06
   6  -1   3    0.89    0.08
  -7   1  -3   14.01    0.22
   7  -1   3   14.16    0.23
   8  -1   3    1.68    0.12
   9   0  -3    0.18    0.07
  -9   0   3    0.26    0.06
   8   0  -3   13.97    0.24
  -8   0   3   14.23    0.21
   7   0  -3    3.99    0.12
  -7   0   3    3.99    0.10
   6   0  -3    2.78    0.09
  -6   0   3    2.75    0.08
  -6   0   3    2.81    0.08
   5   0  -3    1.94    0.06
   5   0  -3    1.90    0.07
  -5   0   3    2.09    0.06
   4   0  -3    3.12    0.08
   4   0  -3    3.25    0.07
  -4   0   3    3.22    0.06
  -4   0   3    3.09    0.05
   3   0  -3   44.41    0.46
   3   0  -3   43.84    0.49
  -3   0   3   43.80    0.47
  -3   0   3   44.25    0.45
   2   0  -3   27.66    0.30
   2   0  -3   27.56    0.31
  -2   0   3   27.55    0.30
  -2   0   3   27.70    0.28
   1   0  -3   90.84    0.97
   1   0  -3   90.48    0.93
  -1   0   3   89.32    0.90
  -1   0   3   90.78    0.98
   0   0  -3  258.94    2.67
   0   0  -3  256.45    2.76
   0   0   3  259.24    2.76
  -1   0  -3   40.30    0.40
  -1   0  -3   40.32    0.43
   1   0   3   39.94    0.44
   1   0   3   40.36    0.44
  -2   0  -3   53.16    0.56
  -2   0  -3   52.29    0.52
   2   0   3   53.40    0.58
   2   0   3   52.99    0.57
  -3   0  -3    0.07    0.02
  -3   0  -3    0.02    0.03
   3   0   3    0.09    0.02
   3   0   3    0.06    0.02
  -4   0  -3    0.68    0.04
  -4   0  -3    0.73    0.06
   4   0   3    0.66    0.05
   4   0   3    0.76    0.05
  -5   0  -3   12.50    0.16
  -5   0  -3   12.49    0.18
   5   0   3   12.59    0.19
   5   0   3   12.57    0.18
  -6   0  -3    6.14    0.13
  -6   0  -3    5.91    0.11
   6   0   3    5.81    0.13
   6   0   3    6.22    0.12
  -7   0  -3    0.24    0.06
   7   0   3    0.23    0.06
   9  -1  -3    0.06    0.07
  -9   1   3    0.13    0.06
   8  -1  -3   11.63    0.21
  -8   1   3   11.91    0.18
   7  -1  -3    2.56    0.10
  -7   1   3    2.92    0.09
  -7   1   3    2.64    0.09
   6  -1  -3   18.94    0.26
   6  -1  -3   18.84    0.24
  -6   1   3   18.89    0.23
   5  -1  -3    2.60    0.07
   5  -1  -3    2.52    0.08
  -5   1   3    2.61    0.07
   4  -1  -3   13.82    0.17
   4  -1  -3   13.55    0.18
   3  -1  -3   16.38    0.19
   3  -1  -3   16.57    0.20
  -3   1   3   16.34    0.18
  -3   1   3   16.20    0.18
   2  -1  -3    7.09    0.10
  -2   1   3    7.00    0.09
  -2   1   3    6.99    0.09
   1  -1  -3  106.83    1.14
  -1   1   3  108.31    1.15
  -1   1   3  104.50    1.06
   0  -1  -3   12.75    0.16
   0  -1  -3   13.25    0.14
   0   1   3   12.93    0.16
  -1  -1  -3   74.69    0.77
  -1  -1  -3   75.07    0.73
   1   1   3   74.40    0.79
  -2  -1  -3   71.11    0.69
  -2  -1  -3   70.10    0.73
   2   1   3   71.01    0.76
   2   1   3   69.69    0.76
  -3  -1  -3    2.36    0.07
  -3  -1  -3    2.50    0.06
   3   1   3    2.32    0.06
   3   1   3    2.40    0.06
  -4  -1  -3    0.81    0.06
  -4  -1  -3    0.71    0.05
   4   1   3    0.76    0.05
   4   1   3    0.77    0.06
  -5  -1  -3   23.70    0.29
  -5  -1  -3   23.72    0.27
   5   1   3   23.68    0.30
   5   1   3   23.58    0.30
  -6  -1  -3    8.58    0.14
  -6  -1  -3    8.77    0.15
   6   1   3    8.84    0.16
   6   1   3    8.71    0.15
   9  -2  -3    0.80    0.09
  -9   2   3    0.79    0.07
   8  -2  -3    3.47    0.13
  -8   2   3    3.50    0.11
   7  -2  -3   -0.02    0.05
  -7   2   3    0.04    0.04
   6  -2  -3    0.04    0.04
   6  -2  -3    0.04    0.04
  -6   2   3    0.03    0.04
   5  -2  -3    3.67    0.09
   5  -2  -3    3.68    0.09
  -5   2   3    3.79    0.08
   4  -2  -3    2.18    0.07
   4  -2  -3    2.14    0.07
  -4   2   3    2.28    0.06
   3  -2  -3   31.45    0.35
   3  -2  -3   31.20    0.36
  -3   2   3   31.10    0.33
  -3   2   3   31.14    0.33
   2  -2  -3  199.66    2.32
   2  -2  -3  200.76    2.11
  -2   2   3  204.18    2.14
  -2   2   3  205.18    2.02
   1  -2  -3    9.02    0.12
  -1   2   3    8.80    0.11
  -1   2   3    8.81    0.11
   0  -2  -3   16.76    0.18
   0  -2  -3   16.36    0.20
   0   2   3   16.37    0.20
  -1  -2  -3   50.63    0.54
  -1  -2  -3   50.94    0.51
   1   2   3   49.70    0.55
  -2  -2  -3   15.73    0.18
  -2  -2  -3   15.78    0.19
   2   2   3   15.86    0.20
  -3  -2  -3    7.66    0.11
  -3  -2  -3    7.39    0.12
   3   2   3    7.77    0.12
   3   2   3    7.79    0.11
  -4  -2  -3    3.70    0.08
  -4  -2  -3    3.66    0.09
   4   2   3    3.69    0.09
  -5  -2  -3    0.12    0.04
  -5  -2  -3    0.07    0.03
   5   2   3    0.14    0.04
  -6  -2  -3    0.72    0.05
   6   2   3    0.77    0.06
   9  -3  -3    2.78    0.15
  -9   3   3    3.32    0.13
   8  -3  -3    0.92    0.08
  -8   3   3    0.78    0.07
  -8   3   3    0.77    0.07
   7  -3  -3    3.31    0.11
   7  -3  -3    3.44    0.12
  -7   3   3    3.26    0.10
   6  -3  -3    0.99    0.07
   6  -3  -3    0.93    0.08
  -6   3   3    0.91    0.06
   5  -3  -3    0.15    0.05
   5  -3  -3    0.21    0.04
  -5   3   3    0.18    0.04
   4  -3  -3   13.09    0.18
   4  -3  -3   13.08    0.18
  -4   3   3   13.16    0.17
   3  -3  -3    7.65    0.11
   3  -3  -3    7.61    0.12
  -3   3   3    7.71    0.10
  -3   3   3    7.60    0.11
   2  -3  -3  180.47    1.84
   2  -3  -3  180.10    1.94
  -2   3   3  181.70    1.91
  -2   3   3  180.63    1.77
   1  -3  -3    0.58    0.05
  -1   3   3    0.82    0.04
   0  -3  -3    4.38    0.08
   0  -3  -3    4.53    0.08
   0   3   3    4.53    0.08
  -1  -3  -3    5.11    0.09
  -1  -3  -3    5.14    0.08
   1   3   3    5.23    0.10
  -2  -3  -3   10.87    0.15
  -2  -3  -3   10.85    0.14
   2   3   3   10.83    0.16
  -3  -3  -3    3.83    0.08
  -3  -3  -3    3.65    0.08
   3   3   3    3.66    0.09
  -4  -3  -3    0.78    0.06
  -4  -3  -3    0.77    0.05
   4   3   3    0.70    0.05
  -5  -3  -3    5.19    0.11
   5   3   3    5.31    0.12
  -6  -3  -3    0.30    0.05
   6   3   3    0.24    0.06
   7   3   3    2.51    0.12
  -9   4   3    6.06    0.18
   8  -4  -3    0.31    0.07
  -8   4   3    0.25    0.06
  -8   4   3    0.30    0.07
   7  -4  -3    3.79    0.13
   7  -4  -3    3.78    0.13
  -7   4   3    3.77    0.11
   6  -4  -3   19.96    0.28
   6  -4  -3   19.61    0.28
  -6   4   3   20.14    0.25
   5  -4  -3   14.36    0.21
   5  -4  -3   13.90    0.21
  -5   4   3   14.21    0.19
   4  -4  -3    5.00    0.10
   4  -4  -3    4.86    0.11
  -4   4   3    5.17    0.10
   3  -4  -3   18.30    0.24
   3  -4  -3   18.08    0.23
  -3   4   3   18.17    0.22
  -3   4   3   19.57    0.22
   2  -4  -3    0.38    0.04
  -2   4   3    0.34    0.03
  -2   4   3    0.30    0.04
   1  -4  -3   26.85    0.31
  -1   4   3   26.25    0.31
   0  -4  -3    1.97    0.07
   0  -4  -3    1.90    0.06
   0   4   3    1.90    0.07
  -1  -4  -3   39.87    0.44
  -1  -4  -3   39.90    0.42
   1   4   3   39.72    0.46
  -2  -4  -3    2.94    0.08
  -2  -4  -3    2.92    0.07
   2   4   3    2.86    0.09
  -3  -4  -3   13.41    0.18
  -3  -4  -3   13.62    0.18
   3   4   3   13.31    0.20
  -4  -4  -3   10.08    0.16
   4   4   3   10.04    0.17
  -5  -4  -3    3.43    0.10
   5   4   3    3.31    0.11
  -6  -4  -3    5.12    0.13
   6   4   3    5.12    0.14
   8  -5  -3    2.41    0.13
  -8   5   3    2.38    0.12
   7  -5  -3   10.07    0.20
   7  -5  -3   10.12    0.20
  -7   5   3   10.38    0.18
   6  -5  -3    0.21    0.06
   6  -5  -3    0.33    0.06
  -6   5   3    0.31    0.05
   5  -5  -3    2.42    0.09
   5  -5  -3    2.38    0.10
  -5   5   3    2.28    0.09
   4  -5  -3    0.03    0.05
  -4   5   3    0.00    0.04
   3  -5  -3   19.26    0.26
  -3   5   3   18.96    0.24
   2  -5  -3   35.96    0.42
  -2   5   3   35.81    0.41
  -2   5   3   35.74    0.39
   1  -5  -3    3.84    0.10
  -1   5   3    3.80    0.09
   0  -5  -3   15.75    0.20
   0  -5  -3   15.87    0.21
   0   5   3   15.67    0.21
  -1  -5  -3    5.58    0.11
  -1  -5  -3    5.41    0.10
   1   5   3    5.57    0.12
  -2  -5  -3    2.15    0.08
  -2  -5  -3    2.25    0.08
   2   5   3    2.17    0.09
  -3  -5  -3    0.11    0.04
  -3  -5  -3    0.13    0.04
   3   5   3    0.05    0.05
  -4  -5  -3    6.51    0.13
   4   5   3    6.34    0.15
  -5  -5  -3    1.21    0.09
   5   5   3    0.89    0.08
  -6  -5  -3   23.76    0.31
   7  -6  -3    7.75    0.19
  -7   6   3    7.54    0.16
   6  -6  -3   17.93    0.28
  -6   6   3   17.82    0.25
   5  -6  -3    1.85    0.11
  -5   6   3    1.75    0.09
   4  -6  -3    5.40    0.13
  -4   6   3    5.33    0.12
   3  -6  -3   -0.02    0.04
  -3   6   3   -0.07    0.04
   2  -6  -3    0.17    0.05
  -2   6   3    0.20    0.04
  -2   6   3    0.18    0.04
   1  -6  -3    0.47    0.05
  -1   6   3    0.45    0.05
   0  -6  -3    1.07    0.08
   0  -6  -3    1.02    0.07
   0   6   3    1.07    0.07
  -1  -6  -3    1.09    0.07
  -1  -6  -3    1.21    0.08
   1   6   3    1.23    0.08
  -2  -6  -3   73.45    0.76
  -2  -6  -3   71.34    0.79
   2   6   3   73.76    0.82
  -3  -6  -3    1.21    0.08
   3   6   3    1.22    0.10
  -4  -6  -3    0.12    0.05
   4   6   3    0.01    0.06
  -5  -6  -3    0.87    0.07
   6  -7  -3    0.22    0.08
  -6   7   3    0.11    0.06
   5  -7  -3    0.26    0.07
  -5   7   3    0.17    0.06
   4  -7  -3    0.08    0.06
  -4   7   3    0.04    0.05
   3  -7  -3    9.43    0.18
  -3   7   3    9.45    0.17
   2  -7  -3    5.12    0.13
  -2   7   3    5.13    0.13
   1  -7  -3    1.72    0.10
  -1   7   3    1.69    0.09
   0  -7  -3    0.18    0.05
   0  -7  -3    0.15    0.04
   0   7   3    0.12    0.05
  -1  -7  -3    0.07    0.04
  -1  -7  -3    0.03    0.05
   1   7   3    0.07    0.05
  -2  -7  -3    8.56    0.16
   2   7   3    8.77    0.18
  -3  -7  -3    1.28    0.10
   3   7   3    1.43    0.11
   5  -8  -3    3.13    0.15
  -5   8   3    2.96    0.13
   4  -8  -3    1.71    0.13
  -4   8   3    1.64    0.11
   3  -8  -3    2.82    0.13
  -3   8   3    2.66    0.12
   2  -8  -3   11.35    0.21
  -2   8   3   11.03    0.19
   1  -8  -3    1.88    0.11
  -1   8   3    1.85    0.11
   0  -8  -3    0.24    0.06
   0  -8  -3    0.20    0.05
   0   8   3    0.09    0.06
  -1  -8  -3    1.88    0.10
   1   8   3    1.77    0.11
  -2  -8  -3    2.94    0.12
   2   8   3    3.05    0.14
   3  -9  -3    0.88    0.10
   2  -9  -3    0.27    0.08
   1  -9  -3    2.32    0.14
   0   9   3    1.68    0.14
  -2 -11   4    0.10    0.06
   1  11  -4    7.64    0.19
   0  11  -4    1.04    0.09
   3  10  -4    3.40    0.14
  -3 -10   4    3.38    0.11
   2  10  -4    4.61    0.15
  -2 -10   4    4.60    0.12
   1  10  -4    1.42    0.11
  -1 -10   4    1.23    0.08
   0  10  -4   17.02    0.26
  -3  10  -4    0.04    0.07
   3 -10   4    0.04    0.06
  -4  10  -4    6.45    0.17
   4 -10   4    6.74    0.18
   5   9  -4   -0.02    0.08
  -5  -9   4    0.05    0.05
   4   9  -4    0.10    0.07
  -4  -9   4    0.23    0.05
   3   9  -4    0.06    0.06
  -3  -9   4    0.01    0.04
   2   9  -4    2.25    0.11
  -2  -9   4    2.20    0.08
   1   9  -4    0.03    0.06
  -1  -9   4   -0.07    0.04
   0   9  -4    0.04    0.06
   0  -9   4   -0.02    0.04
   0  -9   4   -0.01    0.04
  -1   9  -4    0.08    0.06
   1  -9   4    0.04    0.04
  -2   9  -4    2.41    0.10
   2  -9   4    2.16    0.10
  -3   9  -4    2.47    0.11
   3  -9   4    2.27    0.11
  -4   9  -4   20.55    0.30
   4  -9   4   20.57    0.31
  -5   9  -4    1.12    0.10
   5  -9   4    1.33    0.12
   6   8  -4   10.51    0.21
  -6  -8   4   10.76    0.19
   5   8  -4   -0.06    0.06
  -5  -8   4    0.06    0.04
   4   8  -4    2.51    0.12
  -4  -8   4    2.73    0.09
   3   8  -4    0.56    0.07
   3   8  -4    0.47    0.06
  -3  -8   4    0.59    0.05
   2   8  -4    0.42    0.06
  -2  -8   4    0.39    0.05
  -2  -8   4    0.40    0.04
   1   8  -4    0.44    0.06
  -1  -8   4    0.53    0.04
  -1  -8   4    0.49    0.05
   0   8  -4   56.32    0.66
   0  -8   4   57.27    0.64
   0  -8   4   58.04    0.59
  -1   8  -4    1.97    0.08
   1  -8   4    2.04    0.07
   1  -8   4    2.16    0.07
  -2   8  -4    6.60    0.13
   2  -8   4    6.67    0.14
   2  -8   4    6.84    0.12
  -3   8  -4    0.29    0.06
   3  -8   4    0.23    0.05
  -4   8  -4    1.03    0.08
   4  -8   4    0.98    0.07
  -5   8  -4    8.63    0.18
   5  -8   4    8.31    0.18
  -6   8  -4    1.78    0.13
   6  -8   4    1.88    0.13
   7   7  -4    1.72    0.13
   6   7  -4    1.63    0.11
   6   7  -4    1.51    0.11
  -6  -7   4    1.55    0.09
   5   7  -4    3.36    0.12
   5   7  -4    3.30    0.12
  -5  -7   4    3.40    0.10
   4   7  -4    7.21    0.15
   4   7  -4    7.13    0.15
  -4  -7   4    7.35    0.13
   3   7  -4    2.34    0.09
  -3  -7   4    2.36    0.07
  -3  -7   4    2.37    0.08
   2   7  -4   28.92    0.36
  -2  -7   4   28.82    0.32
  -2  -7   4   28.45    0.35
   1   7  -4    8.94    0.15
  -1  -7   4    8.70    0.14
  -1  -7   4    9.03    0.13
   0   7  -4   52.69    0.56
   0   7  -4   52.61    0.61
   0  -7   4   53.22    0.54
   0  -7   4   52.78    0.59
  -1   7  -4   51.71    0.56
   1  -7   4   51.85    0.52
   1  -7   4   52.16    0.58
   1  -7   4   51.06    0.60
  -2   7  -4    6.00    0.12
   2  -7   4    6.01    0.10
   2  -7   4    5.86    0.13
  -3   7  -4   49.20    0.55
   3  -7   4   49.05    0.59
  -4   7  -4    0.19    0.06
   4  -7   4    0.27    0.05
  -5   7  -4   15.00    0.24
   5  -7   4   15.00    0.25
  -6   7  -4    0.03    0.07
   6  -7   4    0.00    0.06
   7   6  -4   24.39    0.35
   7   6  -4   25.06    0.34
  -7  -6   4   24.66    0.32
   6   6  -4    0.47    0.07
   6   6  -4    0.60    0.06
  -6  -6   4    0.52    0.05
   5   6  -4    3.63    0.11
   5   6  -4    3.55    0.11
  -5  -6   4    3.72    0.09
   4   6  -4    2.92    0.10
  -4  -6   4    2.97    0.08
   3   6  -4   19.81    0.27
  -3  -6   4   19.84    0.26
  -3  -6   4   20.52    0.23
   2   6  -4    0.87    0.07
  -2  -6   4    0.81    0.05
  -2  -6   4    0.96    0.06
   1   6  -4   31.99    0.34
   1   6  -4   32.04    0.38
  -1  -6   4   31.84    0.37
  -1  -6   4   31.86    0.34
   0   6  -4    0.62    0.05
   0   6  -4    0.69    0.05
   0  -6   4    0.72    0.04
   0  -6   4    0.63    0.05
  -1   6  -4   15.06    0.19
   1  -6   4   14.87    0.17
   1  -6   4   14.96    0.21
   1  -6   4   14.88    0.19
  -2   6  -4   31.29    0.36
  -2   6  -4   31.76    0.33
   2  -6   4   31.18    0.39
   2  -6   4   31.64    0.36
  -3   6  -4    0.71    0.06
   3  -6   4    0.42    0.05
   3  -6   4    0.53    0.04
  -4   6  -4   62.69    0.69
   4  -6   4   63.45    0.73
  -5   6  -4    1.75    0.10
   5  -6   4    1.93    0.10
  -6   6  -4    0.09    0.06
   6  -6   4    0.10    0.06
  -7   6  -4    2.66    0.14
   7  -6   4    2.98    0.14
   8   5  -4    0.84    0.09
  -8  -5   4    0.85    0.07
   7   5  -4    2.62    0.12
   7   5  -4    2.75    0.11
  -7  -5   4    2.77    0.10
   6   5  -4    5.61    0.14
   6   5  -4    5.69    0.13
  -6  -5   4    5.63    0.12
   5   5  -4    8.95    0.16
   5   5  -4    9.08    0.16
  -5  -5   4    8.93    0.14
   4   5  -4    0.78    0.06
  -4  -5   4    0.83    0.06
  -4  -5   4    0.77    0.06
   3   5  -4   36.83    0.44
  -3  -5   4   37.00    0.43
  -3  -5   4   37.41    0.39
   2   5  -4  124.26    1.34
  -2  -5   4  123.17    1.31
  -2  -5   4  124.56    1.21
   1   5  -4    1.00    0.04
   1   5  -4    0.97    0.06
  -1  -5   4    0.95    0.05
  -1  -5   4    0.99    0.04
   0   5  -4    7.64    0.11
   0  -5   4    7.68    0.11
   0  -5   4    7.67    0.09
  -1   5  -4    3.01    0.07
   1  -5   4    3.00    0.08
   1  -5   4    2.89    0.06
  -2   5  -4    0.77    0.05
   2  -5   4    0.70    0.04
   2  -5   4    0.66    0.06
  -3   5  -4    1.34    0.08
   3  -5   4    1.35    0.07
   3  -5   4    1.30    0.05
  -4   5  -4    1.34    0.08
   4  -5   4    1.38    0.08
  -5   5  -4    1.43    0.09
   5  -5   4    1.64    0.09
  -6   5  -4    3.20    0.12
   6  -5   4    3.31    0.12
  -7   5  -4    0.68    0.08
   7  -5   4    0.63    0.08
   8   4  -4    0.05    0.07
  -8  -4   4    0.23    0.05
   7   4  -4    0.03    0.06
  -7  -4   4    0.06    0.04
   6   4  -4    3.28    0.11
   6   4  -4    3.39    0.10
  -6  -4   4    3.31    0.09
   5   4  -4    0.00    0.04
  -5  -4   4    0.02    0.03
   4   4  -4    1.91    0.08
  -4  -4   4    1.65    0.06
  -4  -4   4    1.75    0.06
   3   4  -4   58.62    0.66
  -3  -4   4   58.72    0.59
  -3  -4   4   58.31    0.64
   2   4  -4    1.49    0.06
  -2  -4   4    1.45    0.05
  -2  -4   4    1.49    0.04
   1   4  -4    0.09    0.02
   1   4  -4    0.05    0.03
  -1  -4   4    0.01    0.02
  -1  -4   4    0.03    0.02
   0   4  -4   24.74    0.27
   0  -4   4   24.66    0.25
   0  -4   4   24.29    0.28
  -1   4  -4    4.86    0.08
   1  -4   4    4.89    0.09
   1  -4   4    4.76    0.08
  -2   4  -4    9.41    0.14
   2  -4   4    9.25    0.13
   2  -4   4    9.34    0.14
  -3   4  -4    2.65    0.08
   3  -4   4    2.58    0.08
   3  -4   4    2.58    0.06
  -4   4  -4   71.96    0.78
   4  -4   4   71.81    0.82
   4  -4   4   73.70    0.78
  -5   4  -4    1.20    0.09
   5  -4   4    1.27    0.08
  -6   4  -4    0.38    0.06
   6  -4   4    0.53    0.06
  -7   4  -4    0.08    0.07
   7  -4   4    0.05    0.06
  -8   4  -4    1.13    0.09
   9   3  -4    0.10    0.08
   8   3  -4    0.24    0.07
  -8  -3   4    0.21    0.05
   7   3  -4    1.29    0.10
  -7  -3   4    1.24    0.08
   6   3  -4   18.10    0.26
   6   3  -4   18.35    0.24
  -6  -3   4   17.78    0.22
   5   3  -4    2.22    0.08
  -5  -3   4    2.04    0.06
  -5  -3   4    2.07    0.07
   4   3  -4    0.36    0.04
  -4  -3   4    0.33    0.03
  -4  -3   4    0.30    0.03
   3   3  -4   15.97    0.21
  -3  -3   4   15.87    0.18
  -3  -3   4   15.94    0.20
   2   3  -4   38.01    0.43
  -2  -3   4   37.93    0.38
  -2  -3   4   38.21    0.42
   1   3  -4    0.72    0.04
   1   3  -4    0.76    0.03
  -1  -3   4    0.78    0.03
  -1  -3   4    0.75    0.04
   0   3  -4  225.51    2.33
   0  -3   4  222.96    2.47
   0  -3   4  229.25    2.42
  -1   3  -4   17.46    0.20
   1  -3   4   17.34    0.21
   1  -3   4   17.62    0.22
  -2   3  -4   49.99    0.54
   2  -3   4   50.41    0.57
   2  -3   4   51.27    0.55
  -3   3  -4    1.59    0.07
   3  -3   4    1.54    0.06
   3  -3   4    1.57    0.05
  -4   3  -4   47.63    0.53
   4  -3   4   48.61    0.53
   4  -3   4   48.78    0.56
  -5   3  -4    1.00    0.07
   5  -3   4    0.85    0.07
  -6   3  -4    2.42    0.10
   6  -3   4    2.43    0.10
  -7   3  -4    5.69    0.15
   7  -3   4    5.63    0.15
  -8   3  -4    9.97    0.21
   8  -3   4    9.74    0.21
   9   2  -4    1.24    0.10
  -9  -2   4    1.44    0.10
   8   2  -4    2.93    0.12
  -8  -2   4    2.94    0.10
   7   2  -4   12.59    0.21
  -7  -2   4   12.41    0.18
   6   2  -4    1.22    0.08
  -6  -2   4    1.06    0.06
   5   2  -4   50.95    0.59
  -5  -2   4   51.29    0.56
  -5  -2   4   51.37    0.53
   4   2  -4   14.47    0.20
  -4  -2   4   14.51    0.17
  -4  -2   4   14.89    0.18
   3   2  -4   70.40    0.78
  -3  -2   4   70.95    0.70
  -3  -2   4   72.36    0.76
   2   2  -4   42.86    0.48
   2   2  -4   43.03    0.44
  -2  -2   4   42.92    0.46
  -2  -2   4   42.06    0.43
   1   2  -4    0.80    0.04
   1   2  -4    0.83    0.03
  -1  -2   4    0.73    0.02
   0   2  -4   97.84    1.01
   0  -2   4   98.08    1.06
  -1   2  -4   52.84    0.56
   1  -2   4   53.28    0.59
   1  -2   4   53.06    0.57
  -2   2  -4    7.83    0.11
   2  -2   4    7.74    0.11
   2  -2   4    7.69    0.12
   3  -2   4    4.24    0.09
   3  -2   4    4.27    0.08
  -4   2  -4   25.09    0.30
   4  -2   4   24.93    0.29
   4  -2   4   24.69    0.31
  -5   2  -4    1.05    0.08
   5  -2   4    1.07    0.06
   5  -2   4    0.98    0.07
  -6   2  -4    1.60    0.09
   6  -2   4    1.59    0.09
  -7   2  -4    1.32    0.09
   7  -2   4    1.24    0.10
  -8   2  -4    3.54    0.14
   8  -2   4    3.69    0.14
   9   1  -4    0.20    0.07
  -9  -1   4    0.19    0.06
   8   1  -4   -0.02    0.06
  -8  -1   4    0.01    0.05
   7   1  -4   42.98    0.53
  -7  -1   4   42.07    0.46
   6   1  -4   29.77    0.38
  -6  -1   4   29.34    0.33
   5   1  -4    1.74    0.08
   5   1  -4    1.68    0.06
  -5  -1   4    1.72    0.06
  -5  -1   4    1.71    0.05
   4   1  -4   33.06    0.35
   4   1  -4   31.90    0.38
  -4  -1   4   32.86    0.36
  -4  -1   4   32.28    0.34
   3   1  -4    5.38    0.09
   3   1  -4    5.33    0.08
  -3  -1   4    5.33    0.08
  -3  -1   4    5.36    0.08
   2   1  -4   12.93    0.16
   2   1  -4   12.85    0.15
  -2  -1   4   12.94    0.14
  -2  -1   4   12.86    0.15
   1   1  -4    1.37    0.04
   1   1  -4    1.46    0.04
  -1  -1   4    1.35    0.04
  -1  -1   4    1.36    0.03
   0   1  -4   81.05    0.83
   0  -1   4   81.71    0.89
   0  -1   4   80.92    0.80
   1  -1   4   40.39    0.45
   1  -1   4   40.03    0.44
  -2   1  -4    0.41    0.03
   2  -1   4    0.43    0.04
   2  -1   4    0.46    0.04
  -3   1  -4   21.88    0.23
   3  -1   4   22.16    0.26
   3  -1   4   22.26    0.27
  -4   1  -4   10.30    0.16
  -4   1  -4   10.28    0.13
   4  -1   4   10.42    0.16
   4  -1   4   10.18    0.15
  -5   1  -4    1.54    0.08
   5  -1   4    1.72    0.08
   5  -1   4    1.62    0.07
  -6   1  -4   14.28    0.21
   6  -1   4   14.26    0.22
  -7   1  -4    0.18    0.06
   7  -1   4    0.16    0.06
   9   0  -4    0.49    0.08
  -9   0   4    0.53    0.07
   8   0  -4    8.43    0.18
  -8   0   4    8.54    0.15
   7   0  -4   48.38    0.59
  -7   0   4   49.11    0.52
   6   0  -4    1.48    0.07
   6   0  -4    1.32    0.08
  -6   0   4    1.43    0.07
   5   0  -4   10.19    0.14
   5   0  -4   10.22    0.16
  -5   0   4    9.90    0.14
   4   0  -4    0.08    0.03
   4   0  -4    0.11    0.03
  -4   0   4    0.03    0.02
  -4   0   4    0.05    0.03
   3   0  -4    5.56    0.09
   3   0  -4    5.78    0.09
  -3   0   4    5.85    0.08
  -3   0   4    5.81    0.08
   2   0  -4    3.02    0.06
   2   0  -4    3.10    0.06
  -2   0   4    2.96    0.05
  -2   0   4    2.95    0.05
   1   0  -4    0.91    0.04
   1   0  -4    0.86    0.03
  -1   0   4    0.97    0.03
  -1   0   4    0.92    0.03
   0   0  -4   42.96    0.47
   0   0  -4   43.93    0.46
   0   0   4   43.92    0.43
   0   0   4   44.04    0.48
  -1   0  -4   17.19    0.20
  -1   0  -4   17.41    0.18
   1   0   4   17.16    0.21
   1   0   4   17.34    0.20
  -2   0  -4   36.04    0.36
  -2   0  -4   36.06    0.39
   2   0   4   36.15    0.40
   2   0   4   35.63    0.40
  -3   0  -4   28.38    0.30
  -3   0  -4   28.59    0.33
   3   0   4   28.66    0.34
   3   0   4   28.91    0.34
  -4   0  -4    0.55    0.05
  -4   0  -4    0.56    0.05
   4   0   4    0.73    0.06
   4   0   4    0.54    0.04
  -5   0  -4   16.98    0.23
   5   0   4   16.73    0.23
   5   0   4   17.02    0.24
  -6   0  -4    4.70    0.12
   6   0   4    4.58    0.12
   6   0   4    4.74    0.11
  -7   0  -4   13.37    0.22
   9  -1  -4    7.01    0.18
  -9   1   4    7.25    0.16
   8  -1  -4    2.23    0.12
  -8   1   4    2.21    0.10
   7  -1  -4    9.41    0.18
  -7   1   4    9.27    0.15
   6  -1  -4    1.23    0.07
   6  -1  -4    1.21    0.08
  -6   1   4    1.16    0.07
   5  -1  -4    5.39    0.11
   5  -1  -4    5.56    0.11
  -5   1   4    5.27    0.10
   4  -1  -4    4.53    0.09
   4  -1  -4    4.41    0.09
  -4   1   4    4.64    0.08
   3  -1  -4    2.56    0.06
   3  -1  -4    2.40    0.06
  -3   1   4    2.26    0.04
  -3   1   4    2.31    0.06
   2  -1  -4   93.46    0.96
   2  -1  -4   91.95    1.00
  -2   1   4   93.20    0.97
  -2   1   4   91.72    0.91
   1  -1  -4  177.41    1.87
  -1   1   4  178.79    1.77
  -1   1   4  182.92    1.93
   0  -1  -4   10.90    0.14
   0  -1  -4   11.02    0.13
   0   1   4   10.86    0.14
  -1  -1  -4    7.02    0.09
  -1  -1  -4    6.97    0.11
   1   1   4    6.92    0.11
  -2  -1  -4    0.01    0.03
  -2  -1  -4    0.04    0.02
   2   1   4    0.07    0.02
   2   1   4    0.06    0.03
  -3  -1  -4   19.40    0.24
  -3  -1  -4   19.15    0.22
   3   1   4   19.40    0.25
   3   1   4   19.86    0.24
  -4  -1  -4   13.74    0.19
  -4  -1  -4   13.79    0.17
   4   1   4   13.90    0.20
   4   1   4   14.12    0.19
  -5  -1  -4    5.65    0.10
  -5  -1  -4    5.88    0.12
   5   1   4    5.96    0.12
  -6  -1  -4    0.00    0.05
   6   1   4    0.02    0.05
   9  -2  -4    2.56    0.14
  -9   2   4    2.35    0.12
   8  -2  -4    0.33    0.07
  -8   2   4    0.46    0.06
   7  -2  -4    4.00    0.12
   7  -2  -4    3.65    0.11
  -7   2   4    3.71    0.11
   6  -2  -4    2.45    0.09
   6  -2  -4    2.54    0.09
   5  -2  -4    2.43    0.08
   5  -2  -4    2.66    0.08
  -5   2   4    2.36    0.08
   4  -2  -4    0.01    0.03
   4  -2  -4    0.05    0.03
  -4   2   4    0.05    0.03
   3  -2  -4   27.83    0.32
   3  -2  -4   27.75    0.32
  -3   2   4   28.20    0.31
  -3   2   4   27.30    0.30
   2  -2  -4   62.84    0.66
   2  -2  -4   61.99    0.67
  -2   2   4   62.23    0.63
  -2   2   4   62.80    0.67
   1  -2  -4   15.01    0.19
  -1   2   4   15.06    0.18
  -1   2   4   14.78    0.18
   0  -2  -4   44.01    0.48
   0  -2  -4   44.53    0.45
   0   2   4   44.50    0.49
  -1  -2  -4   40.88    0.42
  -1  -2  -4   41.14    0.45
   1   2   4   40.21    0.46
  -2  -2  -4   21.12    0.23
  -2  -2  -4   20.84    0.25
   2   2   4   20.77    0.26
  -3  -2  -4    0.48    0.04
  -3  -2  -4    0.53    0.04
   3   2   4    0.56    0.05
  -4  -2  -4   42.02    0.47
  -4  -2  -4   41.66    0.44
   4   2   4   41.60    0.49
  -5  -2  -4    0.11    0.04
  -5  -2  -4    0.11    0.04
   5   2   4    0.08    0.04
   6   2   4    0.01    0.05
   8  -3  -4    7.80    0.18
  -8   3   4    7.96    0.16
   7  -3  -4    4.79    0.13
   7  -3  -4    4.96    0.14
  -7   3   4    4.87    0.12
   6  -3  -4    7.01    0.14
   6  -3  -4    7.21    0.14
  -6   3   4    7.14    0.13
   5  -3  -4    1.48    0.07
   5  -3  -4    1.14    0.08
  -5   3   4    1.08    0.07
   4  -3  -4    5.90    0.11
   4  -3  -4    5.71    0.12
  -4   3   4    5.71    0.11
   3  -3  -4  103.36    1.07
   3  -3  -4  103.54    1.10
  -3   3   4   98.85    1.01
  -3   3   4  102.81    1.07
   2  -3  -4    7.69    0.13
  -2   3   4    7.61    0.11
   1  -3  -4   14.85    0.20
  -1   3   4   14.98    0.19
  -1   3   4   14.78    0.18
   0  -3  -4    0.16    0.03
   0  -3  -4    0.13    0.03
   0   3   4    0.19    0.03
  -1  -3  -4   52.11    0.57
  -1  -3  -4   52.38    0.54
   1   3   4   51.95    0.58
  -2  -3  -4    4.74    0.09
  -2  -3  -4    4.82    0.10
   2   3   4    4.78    0.10
  -3  -3  -4   45.49    0.48
  -3  -3  -4   45.84    0.51
   3   3   4   45.29    0.53
  -4  -3  -4   12.53    0.17
  -4  -3  -4   12.09    0.18
   4   3   4   12.38    0.19
  -5  -3  -4    0.45    0.05
   5   3   4    0.37    0.06
   6   3   4    0.41    0.06
   8  -4  -4    0.19    0.08
   8  -4  -4    0.17    0.07
  -8   4   4    0.20    0.06
   7  -4  -4    2.89    0.12
   7  -4  -4    3.33    0.12
  -7   4   4    2.87    0.11
   6  -4  -4    6.41    0.14
   6  -4  -4    6.39    0.15
  -6   4   4    6.56    0.13
   5  -4  -4   11.89    0.18
   5  -4  -4   12.18    0.19
  -5   4   4   12.24    0.18
   4  -4  -4    1.63    0.08
   4  -4  -4    1.80    0.07
  -4   4   4    1.89    0.08
   3  -4  -4  149.32    1.54
  -3   4   4  147.89    1.47
   2  -4  -4    0.37    0.04
  -2   4   4    0.32    0.04
  -2   4   4    0.40    0.04
   1  -4  -4   23.78    0.29
  -1   4   4   23.58    0.29
   0  -4  -4    0.01    0.04
   0  -4  -4    0.00    0.03
   0   4   4    0.00    0.03
  -1  -4  -4    5.29    0.11
  -1  -4  -4    5.26    0.10
   1   4   4    5.52    0.11
  -2  -4  -4    4.13    0.10
  -2  -4  -4    4.21    0.09
   2   4   4    4.11    0.10
  -3  -4  -4    5.36    0.11
  -3  -4  -4    5.32    0.11
   3   4   4    5.26    0.12
  -4  -4  -4    4.21    0.10
   4   4   4    4.20    0.12
  -5  -4  -4    0.31    0.05
   5   4   4    0.17    0.06
  -6  -4  -4    9.44    0.19
   6   4   4    8.53    0.19
   8  -5  -4    1.12    0.10
   8  -5  -4    1.21    0.10
  -8   5   4    1.33    0.09
   7  -5  -4    3.78    0.14
  -7   5   4    3.75    0.13
   6  -5  -4    0.23    0.06
  -6   5   4    0.20    0.05
   5  -5  -4    0.54    0.06
  -5   5   4    0.69    0.06
   4  -5  -4    7.65    0.15
  -4   5   4    7.62    0.14
   3  -5  -4    1.56    0.09
  -3   5   4    1.47    0.08
   2  -5  -4   10.49    0.17
  -2   5   4   10.14    0.16
  -2   5   4   10.33    0.15
   1  -5  -4    0.61    0.05
  -1   5   4    0.57    0.05
   0  -5  -4   36.81    0.43
   0  -5  -4   36.40    0.40
   0   5   4   36.40    0.43
  -1  -5  -4    0.24    0.04
  -1  -5  -4    0.26    0.04
   1   5   4    0.21    0.05
  -2  -5  -4   34.97    0.39
  -2  -5  -4   35.00    0.41
   2   5   4   34.78    0.43
  -3  -5  -4   17.20    0.23
  -3  -5  -4   17.33    0.24
   3   5   4   17.59    0.26
  -4  -5  -4    4.43    0.12
   4   5   4    4.44    0.13
  -5  -5  -4    2.85    0.11
   5   5   4    2.97    0.13
   7  -6  -4    0.06    0.08
  -7   6   4    0.10    0.07
   6  -6  -4    0.59    0.08
  -6   6   4    0.54    0.07
   5  -6  -4    8.10    0.18
  -5   6   4    8.41    0.16
   4  -6  -4   12.65    0.21
  -4   6   4   12.15    0.19
   3  -6  -4    2.22    0.10
  -3   6   4    2.20    0.10
   2  -6  -4    5.06    0.13
  -2   6   4    4.93    0.12
   1  -6  -4    2.54    0.10
  -1   6   4    2.52    0.09
  -1   6   4    2.36    0.10
   0  -6  -4    3.97    0.10
   0  -6  -4    4.16    0.12
   0   6   4    4.10    0.11
  -1  -6  -4    4.02    0.11
  -1  -6  -4    4.18    0.12
   1   6   4    4.13    0.12
  -2  -6  -4   25.16    0.31
  -2  -6  -4   24.62    0.32
   2   6   4   25.51    0.34
  -3  -6  -4    0.20    0.05
   3   6   4    0.12    0.06
  -4  -6  -4    0.59    0.06
   4   6   4    0.55    0.08
  -6   7   4    0.43    0.07
   5  -7  -4    3.41    0.14
  -5   7   4    3.23    0.13
   4  -7  -4    0.79    0.08
  -4   7   4    0.82    0.07
   3  -7  -4    0.03    0.06
  -3   7   4   -0.05    0.05
   2  -7  -4    8.03    0.17
  -2   7   4    7.82    0.16
   1  -7  -4    0.22    0.06
  -1   7   4    0.19    0.06
  -1   7   4    0.04    0.05
   0  -7  -4    4.88    0.12
   0  -7  -4    5.13    0.14
   0   7   4    4.67    0.13
  -1  -7  -4   24.99    0.33
  -1  -7  -4   25.19    0.32
   1   7   4   25.22    0.34
  -2  -7  -4    2.64    0.11
   4  -8  -4    6.60    0.19
  -4   8   4    6.46    0.17
   3  -8  -4    0.01    0.07
  -3   8   4    0.06    0.06
   2  -8  -4    0.12    0.07
  -2   8   4    0.01    0.06
   1  -8  -4    7.12    0.18
  -1   8   4    7.08    0.16
   0  -8  -4    4.77    0.15
   0   8   4    4.65    0.15
   1   8   4   28.05    0.39
   1  11  -5   11.54    0.23
   0  11  -5    4.89    0.16
  -4 -10   5   20.15    0.28
   3  10  -5    1.07    0.09
  -3 -10   5    1.07    0.07
   2  10  -5    5.95    0.16
  -2 -10   5    6.11    0.13
   0  10  -5    0.94    0.09
   0 -10   5    0.92    0.07
  -1  10  -5    1.83    0.12
   1 -10   5    1.96    0.09
  -3  10  -5    4.61    0.15
   3 -10   5    4.91    0.15
  -4  10  -5    0.04    0.08
   4 -10   5    0.05    0.07
   5   9  -5    8.00    0.19
  -5  -9   5    8.10    0.16
   4   9  -5    4.65    0.15
  -4  -9   5    4.66    0.12
   3   9  -5    1.51    0.11
  -3  -9   5    1.87    0.08
   2   9  -5   10.25    0.19
  -2  -9   5   10.48    0.16
  -2  -9   5    9.85    0.17
   1   9  -5    1.05    0.08
  -1  -9   5    1.08    0.07
  -1  -9   5    0.98    0.08
   0   9  -5   14.71    0.23
   0  -9   5   14.89    0.22
  -1   9  -5    0.61    0.07
   1  -9   5    0.74    0.06
  -2   9  -5    0.42    0.06
   2  -9   5    0.50    0.06
  -3   9  -5    0.00    0.06
   3  -9   5   -0.07    0.05
  -4   9  -5   -0.02    0.07
   4  -9   5    0.05    0.06
  -5   9  -5    0.10    0.08
   5  -9   5    0.22    0.07
   6   8  -5    1.37    0.10
  -6  -8   5    1.45    0.09
   5   8  -5    2.01    0.12
   5   8  -5    1.95    0.12
  -5  -8   5    1.97    0.09
   4   8  -5   11.66    0.20
  -4  -8   5   11.53    0.17
   3   8  -5    1.09    0.10
  -3  -8   5    1.37    0.07
  -3  -8   5    1.30    0.08
   2   8  -5    0.18    0.06
  -2  -8   5    0.17    0.04
  -2  -8   5    0.22    0.04
   1   8  -5   11.09    0.19
  -1  -8   5   10.89    0.17
  -1  -8   5   11.09    0.15
   0   8  -5   18.74    0.27
   0  -8   5   18.79    0.25
  -1   8  -5    2.24    0.09
   1  -8   5    2.40    0.08
  -2   8  -5    0.71    0.06
   2  -8   5    0.67    0.06
   2  -8   5    0.69    0.06
  -3   8  -5   23.83    0.31
   3  -8   5   23.55    0.33
  -4   8  -5    0.88    0.08
   4  -8   5    1.05    0.08
  -5   8  -5    3.02    0.13
   5  -8   5    3.33    0.13
  -6   8  -5    7.19    0.20
   6  -8   5    7.12    0.19
   7   7  -5   28.94    0.39
   7   7  -5   28.33    0.40
  -7  -7   5   28.98    0.36
   6   7  -5    0.06    0.07
   6   7  -5    0.10    0.07
  -6  -7   5    0.06    0.05
   5   7  -5    7.05    0.16
   5   7  -5    7.09    0.16
  -5  -7   5    6.98    0.13
   4   7  -5    5.16    0.13
  -4  -7   5    5.09    0.12
  -4  -7   5    5.27    0.11
   3   7  -5   15.62    0.23
  -3  -7   5   15.17    0.22
  -3  -7   5   15.88    0.20
   2   7  -5    5.71    0.13
  -2  -7   5    5.72    0.11
  -2  -7   5    5.94    0.10
   1   7  -5   70.22    0.80
  -1  -7   5   71.47    0.71
  -1  -7   5   70.58    0.78
   0   7  -5   27.01    0.35
   0   7  -5   26.94    0.31
   0  -7   5   27.24    0.29
   0  -7   5   26.76    0.33
  -1   7  -5    9.32    0.15
   1  -7   5    9.38    0.16
   1  -7   5    9.78    0.15
  -2   7  -5    0.36    0.05
   2  -7   5    0.31    0.03
   2  -7   5    0.35    0.05
  -3   7  -5   -0.03    0.05
   3  -7   5    0.04    0.04
   3  -7   5    0.01    0.03
  -4   7  -5    0.37    0.06
   4  -7   5    0.33    0.06
  -5   7  -5    0.06    0.06
   5  -7   5    0.08    0.06
  -6   7  -5   -0.08    0.07
   6  -7   5    0.08    0.06
   8   6  -5    0.38    0.09
   7   6  -5    1.19    0.09
   7   6  -5    1.00    0.08
  -7  -6   5    1.02    0.07
   6   6  -5    0.68    0.07
   6   6  -5    0.52    0.07
  -6  -6   5    0.62    0.06
   5   6  -5    3.19    0.11
  -5  -6   5    3.18    0.09
   4   6  -5    0.29    0.05
  -4  -6   5    0.29    0.04
  -4  -6   5    0.21    0.04
   3   6  -5    5.79    0.13
  -3  -6   5    5.88    0.10
  -3  -6   5    5.86    0.11
   2   6  -5    6.60    0.13
  -2  -6   5    6.64    0.12
  -2  -6   5    6.52    0.10
   1   6  -5   79.10    0.81
   1   6  -5   77.92    0.88
  -1  -6   5   79.28    0.78
  -1  -6   5   79.93    0.86
   0   6  -5   38.52    0.46
   0   6  -5   38.78    0.42
   0  -6   5   38.66    0.39
   0  -6   5   38.46    0.44
  -1   6  -5   16.74    0.21
   1  -6   5   16.49    0.23
   1  -6   5   16.36    0.21
  -2   6  -5   17.21    0.23
   2  -6   5   17.10    0.24
   2  -6   5   17.73    0.22
  -3   6  -5   22.96    0.29
   3  -6   5   23.26    0.31
   3  -6   5   23.79    0.28
  -4   6  -5   15.53    0.23
   4  -6   5   15.57    0.24
  -5   6  -5   10.03    0.18
   5  -6   5    9.80    0.19
  -6   6  -5   12.11    0.21
   6  -6   5   11.68    0.22
  -7   6  -5    4.23    0.17
   7  -6   5    4.27    0.16
   8   5  -5   26.06    0.38
  -8  -5   5   26.41    0.34
   7   5  -5    3.69    0.12
   7   5  -5    3.53    0.13
  -7  -5   5    3.62    0.11
   6   5  -5    0.50    0.06
   6   5  -5    0.56    0.06
  -6  -5   5    0.49    0.05
   5   5  -5    1.37    0.09
  -5  -5   5    1.48    0.07
  -5  -5   5    1.47    0.07
   4   5  -5    4.04    0.11
  -4  -5   5    3.91    0.08
  -4  -5   5    3.97    0.09
   3   5  -5    5.09    0.11
  -3  -5   5    5.04    0.08
  -3  -5   5    4.90    0.10
   2   5  -5   19.67    0.26
  -2  -5   5   19.51    0.24
  -2  -5   5   19.89    0.22
   1   5  -5   52.24    0.54
   1   5  -5   51.41    0.59
  -1  -5   5   51.63    0.57
  -1  -5   5   51.70    0.51
   0   5  -5    1.77    0.06
   0  -5   5    1.71    0.05
   0  -5   5    1.69    0.04
  -1   5  -5    0.63    0.04
   1  -5   5    0.46    0.04
   1  -5   5    0.56    0.04
  -2   5  -5    2.07    0.08
   2  -5   5    2.01    0.06
   2  -5   5    1.89    0.07
  -3   5  -5   25.02    0.31
   3  -5   5   25.75    0.30
   3  -5   5   25.06    0.33
  -4   5  -5    0.50    0.06
   4  -5   5    0.54    0.05
   4  -5   5    0.54    0.05
  -5   5  -5    0.15    0.06
   5  -5   5    0.12    0.05
  -6   5  -5    1.38    0.11
   6  -5   5    1.45    0.10
  -7   5  -5    3.03    0.14
   7  -5   5    3.08    0.14
   8   4  -5   15.81    0.27
  -8  -4   5   15.95    0.23
   7   4  -5    8.99    0.18
  -7  -4   5    9.32    0.16
   6   4  -5    6.27    0.14
  -6  -4   5    6.35    0.12
   5   4  -5    1.46    0.08
  -5  -4   5    1.47    0.06
  -5  -4   5    1.43    0.06
   4   4  -5    0.35    0.05
  -4  -4   5    0.32    0.03
  -4  -4   5    0.30    0.03
   3   4  -5   22.57    0.29
  -3  -4   5   22.56    0.25
  -3  -4   5   22.93    0.27
   2   4  -5    6.10    0.11
  -2  -4   5    5.88    0.10
  -2  -4   5    5.94    0.08
   1   4  -5    0.02    0.03
   1   4  -5    0.04    0.02
  -1  -4   5    0.04    0.02
  -1  -4   5    0.00    0.01
   0   4  -5    2.20    0.06
   0  -4   5    2.35    0.06
  -1   4  -5    1.83    0.06
   1  -4   5    1.74    0.05
   1  -4   5    1.73    0.06
  -2   4  -5    0.09    0.04
   2  -4   5    0.04    0.02
   2  -4   5    0.07    0.03
  -3   4  -5    0.15    0.04
   3  -4   5    0.11    0.03
   3  -4   5    0.13    0.04
  -4   4  -5   14.46    0.21
   4  -4   5   14.78    0.19
   4  -4   5   14.55    0.22
  -5   4  -5    2.08    0.09
   5  -4   5    1.99    0.09
  -6   4  -5    2.41    0.11
   6  -4   5    2.52    0.11
  -7   4  -5   17.25    0.27
   7  -4   5   16.87    0.28
   8   3  -5    1.77    0.11
  -8  -3   5    1.79    0.09
   7   3  -5    0.70    0.07
  -7  -3   5    0.71    0.05
   6   3  -5    1.13    0.08
  -6  -3   5    1.07    0.06
   5   3  -5    2.66    0.09
  -5  -3   5    2.70    0.07
  -5  -3   5    2.77    0.07
   4   3  -5   36.92    0.44
  -4  -3   5   37.70    0.42
  -4  -3   5   37.25    0.39
   3   3  -5   24.17    0.30
  -3  -3   5   24.16    0.28
  -3  -3   5   24.30    0.26
   2   3  -5    8.67    0.10
   2   3  -5    8.51    0.13
  -2  -3   5    8.51    0.10
  -2  -3   5    8.59    0.12
   1   3  -5   10.16    0.15
   1   3  -5   10.42    0.13
  -1  -3   5   10.30    0.11
  -1  -3   5   10.33    0.14
   0   3  -5    0.04    0.02
   0  -3   5   -0.02    0.02
  -1   3  -5   28.77    0.32
   1  -3   5   29.23    0.33
   1  -3   5   28.98    0.34
  -2   3  -5    1.77    0.06
   2  -3   5    1.73    0.06
   2  -3   5    1.81    0.05
  -3   3  -5   42.58    0.48
   3  -3   5   43.53    0.48
   3  -3   5   43.51    0.50
  -4   3  -5   70.33    0.77
   4  -3   5   72.61    0.81
   4  -3   5   71.15    0.78
  -5   3  -5    1.74    0.09
   5  -3   5    1.79    0.09
   5  -3   5    1.82    0.06
  -6   3  -5    0.25    0.06
   6  -3   5    0.20    0.06
  -7   3  -5    2.47    0.13
   7  -3   5    2.52    0.12
   9   2  -5    0.30    0.08
  -9  -2   5    0.25    0.06
   8   2  -5    0.01    0.06
  -8  -2   5    0.04    0.05
   7   2  -5    7.90    0.17
  -7  -2   5    8.06    0.14
   6   2  -5    1.88    0.09
  -6  -2   5    1.78    0.07
   5   2  -5    1.94    0.08
  -5  -2   5    1.76    0.06
  -5  -2   5    1.84    0.06
   4   2  -5    2.93    0.08
  -4  -2   5    2.91    0.06
  -4  -2   5    2.85    0.06
   3   2  -5   38.60    0.40
   3   2  -5   37.76    0.44
  -3  -2   5   37.64    0.42
  -3  -2   5   37.03    0.39
   2   2  -5    9.31    0.11
   2   2  -5    9.09    0.13
  -2  -2   5    9.00    0.11
   1   2  -5    6.66    0.09
   1   2  -5    6.71    0.10
  -1  -2   5    6.64    0.10
  -1  -2   5    6.61    0.08
   0   2  -5  127.33    1.28
   0  -2   5  123.95    1.36
  -1   2  -5    2.75    0.07
   1  -2   5    2.71    0.06
   1  -2   5    2.74    0.06
  -2   2  -5    0.08    0.03
   2  -2   5    0.02    0.02
   2  -2   5    0.04    0.03
  -3   2  -5   40.75    0.46
   3  -2   5   41.07    0.46
   3  -2   5   41.12    0.48
  -4   2  -5    1.47    0.08
   4  -2   5    1.56    0.06
   4  -2   5    1.49    0.07
  -5   2  -5    3.06    0.10
   5  -2   5    3.13    0.10
   5  -2   5    3.14    0.08
  -6   2  -5    5.37    0.14
   6  -2   5    5.53    0.14
  -7   2  -5   11.21    0.21
   7  -2   5   11.25    0.21
   9   1  -5    0.62    0.08
  -9  -1   5    1.07    0.08
   8   1  -5    3.21    0.13
  -8  -1   5    3.33    0.11
   7   1  -5   25.14    0.35
  -7  -1   5   26.42    0.31
   6   1  -5   28.71    0.37
  -6  -1   5   28.72    0.33
   5   1  -5    2.83    0.07
   5   1  -5    2.72    0.09
  -5  -1   5    2.83    0.07
  -5  -1   5    2.83    0.06
   4   1  -5    1.27    0.05
   4   1  -5    1.38    0.06
  -4  -1   5    1.33    0.04
  -4  -1   5    1.28    0.05
   3   1  -5   11.04    0.14
   3   1  -5   10.96    0.15
  -3  -1   5   11.03    0.13
  -3  -1   5   10.99    0.14
   2   1  -5   85.02    0.87
   2   1  -5   84.96    0.92
  -2  -1   5   85.64    0.90
  -2  -1   5   84.46    0.84
   1   1  -5    1.71    0.05
   1   1  -5    1.72    0.05
  -1  -1   5    1.61    0.05
  -1  -1   5    1.73    0.04
   0   1  -5   11.57    0.15
   0   1  -5   11.22    0.14
   0  -1   5   11.36    0.12
   0  -1   5   11.15    0.15
  -1   1  -5   27.10    0.31
   1  -1   5   26.97    0.31
   1  -1   5   26.94    0.31
  -2   1  -5   46.49    0.51
   2  -1   5   46.89    0.52
   2  -1   5   46.57    0.52
  -3   1  -5   45.86    0.46
  -3   1  -5   46.04    0.51
   3  -1   5   45.20    0.51
   3  -1   5   45.96    0.52
  -4   1  -5    3.25    0.09
   4  -1   5    3.23    0.09
   4  -1   5    3.23    0.08
  -5   1  -5    0.15    0.05
   5  -1   5    0.07    0.04
   5  -1   5    0.06    0.04
  -6   1  -5   15.08    0.23
   6  -1   5   15.26    0.24
  -7   1  -5    4.43    0.14
   9   0  -5    4.13    0.15
  -9   0   5    4.20    0.13
   8   0  -5    3.14    0.13
  -8   0   5    3.24    0.11
   7   0  -5   12.95    0.22
  -7   0   5   13.12    0.19
   6   0  -5   14.10    0.22
   6   0  -5   14.46    0.19
  -6   0   5   14.11    0.19
   5   0  -5    0.09    0.04
   5   0  -5    0.08    0.03
  -5   0   5    0.14    0.03
   4   0  -5   51.15    0.55
   4   0  -5   51.43    0.59
  -4   0   5   52.22    0.53
  -4   0   5   51.81    0.55
   3   0  -5   10.04    0.14
   3   0  -5   10.06    0.13
  -3   0   5    9.98    0.13
  -3   0   5   10.11    0.13
   2   0  -5   25.54    0.29
   2   0  -5   25.42    0.29
  -2   0   5   25.28    0.27
  -2   0   5   25.05    0.29
   1   0  -5   95.21    0.98
   1   0  -5   95.88    1.01
  -1   0   5   94.06    0.92
  -1   0   5   93.42    1.00
   0   0  -5   41.76    0.46
   0   0  -5   41.46    0.45
   0   0   5   41.91    0.46
   0   0   5   41.86    0.42
  -1   0  -5    2.23    0.06
  -1   0  -5    2.35    0.05
   1   0   5    2.40    0.05
   1   0   5    2.52    0.06
  -2   0  -5    2.35    0.05
   2   0   5    2.36    0.06
   2   0   5    2.46    0.07
  -3   0  -5    2.77    0.06
  -3   0  -5    2.89    0.08
   3   0   5    2.78    0.07
   3   0   5    2.75    0.08
  -4   0  -5    0.32    0.04
   4   0   5    0.33    0.04
   4   0   5    0.34    0.04
  -5   0  -5   18.74    0.25
   5   0   5   18.19    0.25
  -6   0  -5    5.70    0.14
   6   0   5    5.93    0.13
  -7   0  -5    7.03    0.17
   9  -1  -5    0.13    0.08
  -9   1   5    0.12    0.06
   8  -1  -5   36.93    0.49
  -8   1   5   37.29    0.43
   7  -1  -5    3.15    0.10
   7  -1  -5    3.08    0.11
  -7   1   5    2.96    0.10
   6  -1  -5    0.10    0.04
   6  -1  -5    0.09    0.05
  -6   1   5    0.14    0.04
   5  -1  -5   16.82    0.23
   5  -1  -5   16.57    0.22
  -5   1   5   17.10    0.21
   4  -1  -5    3.56    0.09
   4  -1  -5    3.57    0.08
  -4   1   5    3.61    0.06
  -4   1   5    3.59    0.08
   3  -1  -5   10.21    0.14
   3  -1  -5   10.35    0.14
  -3   1   5   10.27    0.14
  -3   1   5   10.40    0.13
   2  -1  -5   16.73    0.20
  -2   1   5   16.01    0.19
  -2   1   5   16.34    0.20
   1  -1  -5    2.48    0.07
  -1   1   5    2.33    0.06
  -1   1   5    2.44    0.06
   0  -1  -5   24.32    0.29
   0   1   5   24.82    0.29
  -1  -1  -5   18.15    0.23
  -1  -1  -5   18.78    0.20
   1   1   5   18.42    0.23
  -2  -1  -5    4.43    0.08
  -2  -1  -5    4.44    0.09
   2   1   5    4.37    0.09
  -3  -1  -5    1.70    0.06
  -3  -1  -5    1.77    0.07
   3   1   5    1.74    0.07
  -4  -1  -5    5.70    0.10
  -4  -1  -5    5.83    0.12
   4   1   5    5.78    0.12
  -5  -1  -5    0.10    0.05
   5   1   5    0.11    0.05
  -6  -1  -5    7.01    0.15
   6   1   5    6.84    0.15
   9  -2  -5    4.56    0.17
   8  -2  -5    3.80    0.14
  -8   2   5    3.99    0.12
   7  -2  -5    3.63    0.12
   7  -2  -5    3.82    0.12
  -7   2   5    3.80    0.11
   6  -2  -5   10.01    0.17
   6  -2  -5    9.95    0.17
  -6   2   5   10.02    0.16
   5  -2  -5    0.44    0.05
   5  -2  -5    0.44    0.05
  -5   2   5    0.54    0.05
   4  -2  -5   14.76    0.20
   4  -2  -5   15.00    0.20
  -4   2   5   14.67    0.19
   3  -2  -5    0.14    0.03
   3  -2  -5    0.15    0.03
  -3   2   5    0.18    0.03
  -3   2   5    0.16    0.03
   2  -2  -5   34.69    0.39
   2  -2  -5   33.93    0.38
  -2   2   5   34.45    0.37
  -2   2   5   34.10    0.38
   1  -2  -5    4.69    0.09
  -1   2   5    4.65    0.08
  -1   2   5    4.66    0.09
   0  -2  -5    0.58    0.04
   0  -2  -5    0.51    0.03
   0   2   5    0.48    0.04
  -1  -2  -5   19.99    0.23
  -1  -2  -5   20.07    0.25
   1   2   5   19.93    0.25
  -2  -2  -5    6.78    0.10
  -2  -2  -5    6.54    0.12
   2   2   5    6.66    0.12
  -3  -2  -5    6.01    0.10
  -3  -2  -5    5.86    0.12
   3   2   5    5.89    0.12
  -4  -2  -5    9.59    0.14
  -4  -2  -5    9.31    0.16
   4   2   5    9.45    0.17
  -5  -2  -5    1.14    0.09
   5   2   5    1.11    0.09
   6   2   5    2.97    0.12
   8  -3  -5    7.02    0.17
   8  -3  -5    7.09    0.18
  -8   3   5    7.16    0.16
   7  -3  -5    0.19    0.06
   7  -3  -5    0.10    0.06
  -7   3   5    0.15    0.05
   6  -3  -5    0.21    0.05
   6  -3  -5    0.19    0.05
  -6   3   5    0.13    0.05
   5  -3  -5    2.39    0.09
   5  -3  -5    2.29    0.08
  -5   3   5    2.23    0.09
   4  -3  -5   19.63    0.26
   4  -3  -5   19.68    0.25
  -4   3   5   19.63    0.24
   3  -3  -5  110.86    1.16
  -3   3   5  111.19    1.10
  -3   3   5  110.47    1.17
   2  -3  -5   36.18    0.42
  -2   3   5   36.03    0.39
  -2   3   5   36.78    0.41
   1  -3  -5    7.17    0.13
  -1   3   5    6.89    0.12
  -1   3   5    6.97    0.12
   0  -3  -5    3.17    0.07
   0   3   5    3.17    0.08
  -1  -3  -5    2.89    0.09
  -1  -3  -5    2.69    0.07
   1   3   5    2.82    0.09
  -2  -3  -5    2.12    0.08
  -2  -3  -5    1.88    0.07
   2   3   5    2.01    0.08
  -3  -3  -5   22.51    0.29
  -3  -3  -5   22.17    0.27
   3   3   5   22.65    0.30
  -4  -3  -5    0.38    0.05
  -4  -3  -5    0.41    0.05
   4   3   5    0.35    0.05
   5   3   5    9.00    0.18
   6   3   5    5.98    0.16
   8  -4  -5    2.32    0.13
   8  -4  -5    2.32    0.13
  -8   4   5    2.46    0.12
   7  -4  -5   27.26    0.37
   7  -4  -5   27.30    0.37
  -7   4   5   27.55    0.34
   6  -4  -5    1.61    0.10
  -6   4   5    1.63    0.09
   5  -4  -5   19.52    0.27
  -5   4   5   19.50    0.25
   4  -4  -5   10.90    0.18
  -4   4   5   11.03    0.17
   3  -4  -5   18.11    0.25
  -3   4   5   17.70    0.23
   2  -4  -5    6.29    0.13
  -2   4   5    6.13    0.12
  -2   4   5    6.19    0.11
   1  -4  -5    2.93    0.09
  -1   4   5    2.96    0.08
  -1   4   5    2.94    0.09
   0  -4  -5   14.22    0.20
   0  -4  -5   13.84    0.18
   0   4   5   14.13    0.20
  -1  -4  -5    1.87    0.07
  -1  -4  -5    1.88    0.08
   1   4   5    1.90    0.08
  -2  -4  -5   15.50    0.20
  -2  -4  -5   15.32    0.22
   2   4   5   15.14    0.23
  -3  -4  -5    0.12    0.04
  -3  -4  -5    0.10    0.04
   3   4   5    0.09    0.05
  -4  -4  -5    0.04    0.04
   4   4   5    0.03    0.06
   5   4   5    0.05    0.06
   7  -5  -5    5.74    0.16
  -7   5   5    5.51    0.15
   6  -5  -5    8.37    0.18
  -6   5   5    8.40    0.17
   5  -5  -5    0.04    0.06
  -5   5   5    0.08    0.05
   4  -5  -5   37.90    0.46
  -4   5   5   38.46    0.43
   3  -5  -5    0.15    0.05
  -3   5   5    0.23    0.05
   2  -5  -5    0.76    0.06
  -2   5   5    0.83    0.06
  -2   5   5    0.78    0.07
   1  -5  -5    3.65    0.11
  -1   5   5    3.71    0.10
  -1   5   5    3.46    0.10
   0  -5  -5    0.87    0.07
   0  -5  -5    0.91    0.06
   0   5   5    0.85    0.06
  -1  -5  -5    0.01    0.04
  -1  -5  -5    0.04    0.04
   1   5   5    0.00    0.05
  -2  -5  -5    6.78    0.14
  -2  -5  -5    6.59    0.13
   2   5   5    6.92    0.15
  -3  -5  -5    3.50    0.11
  -3  -5  -5    3.51    0.12
   3   5   5    3.65    0.13
  -4  -5  -5    8.36    0.16
   4   5   5    8.66    0.19
   6  -6  -5    1.94    0.13
  -6   6   5    1.87    0.12
   5  -6  -5    1.24    0.09
  -5   6   5    1.13    0.08
   4  -6  -5    6.90    0.16
  -4   6   5    6.97    0.15
   3  -6  -5    8.20    0.17
  -3   6   5    8.06    0.16
   2  -6  -5    0.81    0.07
  -2   6   5    0.78    0.07
   1  -6  -5    0.28    0.05
  -1   6   5    0.34    0.06
  -1   6   5    0.28    0.05
   0  -6  -5    0.06    0.05
   0   6   5   -0.06    0.05
  -1  -6  -5    6.65    0.14
  -1  -6  -5    6.88    0.15
   1   6   5    6.75    0.15
  -2  -6  -5    3.53    0.11
  -2  -6  -5    3.51    0.12
   2   6   5    3.37    0.13
  -3  -6  -5    3.40    0.12
   3   6   5    3.20    0.14
   5  -7  -5    0.01    0.08
  -5   7   5   -0.08    0.07
   4  -7  -5   -0.01    0.07
  -4   7   5   -0.03    0.06
   3  -7  -5    0.15    0.07
  -3   7   5    0.12    0.06
   2  -7  -5    2.15    0.12
  -2   7   5    2.08    0.12
   1  -7  -5    3.15    0.13
  -1   7   5    3.24    0.13
   0  -7  -5   10.25    0.20
   0   7   5   10.43    0.20
  -1  -7  -5   26.35    0.34
  -1  -7  -5   26.30    0.36
   1   7   5   26.68    0.37
   1  -8  -5    0.30    0.08
   0  -8  -5   24.35    0.37
   0   8   5   24.89    0.36
   0  11  -6    0.37    0.09
   0 -11   6    0.43    0.06
  -1  11  -6   13.27    0.25
  -4 -10   6    5.15    0.13
   2  10  -6    3.03    0.14
  -2 -10   6    3.04    0.11
   1  10  -6   10.15    0.20
  -1 -10   6   10.18    0.18
   0  10  -6    0.24    0.07
   0 -10   6    0.29    0.05
  -1  10  -6    0.24    0.08
   1 -10   6    0.19    0.05
  -3  10  -6    1.02    0.09
   3 -10   6    1.00    0.09
  -4  10  -6    0.14    0.08
   4 -10   6    0.37    0.09
   5   9  -6   10.36    0.22
   5   9  -6   10.62    0.22
  -5  -9   6   10.49    0.18
   4   9  -6    0.03    0.07
  -4  -9   6    0.05    0.04
   3   9  -6    0.09    0.07
  -3  -9   6   -0.02    0.04
  -3  -9   6    0.02    0.04
   2   9  -6    1.13    0.08
  -2  -9   6    1.21    0.08
   1   9  -6    0.44    0.07
  -1  -9   6    0.40    0.05
   0   9  -6    0.08    0.06
   0  -9   6    0.06    0.04
  -1   9  -6    0.83    0.08
   1  -9   6    0.63    0.05
  -2   9  -6   23.66    0.31
   2  -9   6   22.99    0.33
   2  -9   6   23.67    0.31
  -3   9  -6    9.59    0.18
   3  -9   6    9.46    0.19
  -4   9  -6    0.49    0.08
   4  -9   6    0.65    0.08
  -5   9  -6    1.54    0.13
   6   8  -6    9.13    0.20
   6   8  -6    8.93    0.20
  -6  -8   6    8.96    0.17
   5   8  -6    0.42    0.08
  -5  -8   6    0.63    0.06
   4   8  -6    0.93    0.08
  -4  -8   6    0.95    0.07
  -4  -8   6    0.88    0.06
   3   8  -6    5.62    0.14
  -3  -8   6    5.68    0.13
  -3  -8   6    5.71    0.11
   2   8  -6    1.84    0.10
  -2  -8   6    1.95    0.07
  -2  -8   6    1.78    0.08
   1   8  -6   18.63    0.27
  -1  -8   6   18.78    0.25
   0   8  -6    0.05    0.06
   0  -8   6    0.12    0.04
  -1   8  -6   33.30    0.39
   1  -8   6   33.90    0.40
  -2   8  -6   14.48    0.21
   2  -8   6   14.28    0.20
   2  -8   6   14.04    0.23
  -3   8  -6    0.47    0.06
   3  -8   6    0.54    0.06
  -4   8  -6    8.72    0.17
   4  -8   6    8.32    0.18
  -5   8  -6    9.06    0.19
   5  -8   6    9.22    0.20
   7   7  -6    0.20    0.08
   7   7  -6    0.12    0.07
  -7  -7   6    0.20    0.06
   6   7  -6    0.14    0.07
   6   7  -6    0.26    0.07
  -6  -7   6    0.15    0.05
   5   7  -6   27.47    0.37
  -5  -7   6   27.26    0.35
  -5  -7   6   28.06    0.33
   4   7  -6    3.47    0.12
  -4  -7   6    3.61    0.10
  -4  -7   6    3.52    0.09
   3   7  -6   17.40    0.26
  -3  -7   6   17.66    0.21
  -3  -7   6   17.44    0.24
   2   7  -6    1.48    0.09
  -2  -7   6    1.51    0.07
  -2  -7   6    1.52    0.06
   1   7  -6    3.36    0.10
  -1  -7   6    3.24    0.09
   0   7  -6    0.19    0.04
   0   7  -6    0.12    0.05
   0  -7   6    0.19    0.03
  -1   7  -6    0.26    0.04
   1  -7   6    0.28    0.04
   1  -7   6    0.20    0.05
  -2   7  -6   20.12    0.26
   2  -7   6   20.33    0.26
   2  -7   6   20.36    0.29
  -3   7  -6    0.34    0.06
   3  -7   6    0.34    0.04
   3  -7   6    0.25    0.05
  -4   7  -6   -0.01    0.06
   4  -7   6    0.02    0.05
  -5   7  -6    6.79    0.16
   5  -7   6    6.72    0.17
  -6   7  -6   16.93    0.27
   6  -7   6   16.45    0.29
   8   6  -6    2.67    0.15
   7   6  -6    0.29    0.07
   7   6  -6    0.16    0.07
  -7  -6   6    0.20    0.05
   6   6  -6   -0.06    0.06
  -6  -6   6    0.03    0.04
   5   6  -6    0.34    0.06
  -5  -6   6    0.33    0.04
  -5  -6   6    0.29    0.04
   4   6  -6   10.55    0.18
  -4  -6   6   10.61    0.17
  -4  -6   6   10.29    0.15
   3   6  -6    2.00    0.09
  -3  -6   6    1.99    0.07
  -3  -6   6    1.97    0.06
   2   6  -6   66.32    0.76
  -2  -6   6   67.63    0.67
  -2  -6   6   67.51    0.74
   1   6  -6   94.41    1.05
   1   6  -6   95.52    0.98
  -1  -6   6   95.05    0.93
  -1  -6   6   95.58    1.03
   0   6  -6   13.27    0.17
   0   6  -6   13.30    0.20
   0  -6   6   13.42    0.18
  -1   6  -6    0.91    0.07
   1  -6   6    0.85    0.07
   1  -6   6    0.80    0.05
  -2   6  -6    2.28    0.09
   2  -6   6    2.48    0.07
   2  -6   6    2.22    0.09
  -3   6  -6    1.45    0.09
   3  -6   6    1.40    0.06
   3  -6   6    1.46    0.08
  -4   6  -6    5.29    0.13
   4  -6   6    5.31    0.14
  -5   6  -6    7.75    0.17
   5  -6   6    7.74    0.17
  -6   6  -6    0.24    0.07
   6  -6   6    0.26    0.07
   8   5  -6    5.78    0.17
  -8  -5   6    5.87    0.14
   7   5  -6   10.05    0.20
  -7  -5   6    9.92    0.17
   6   5  -6    0.08    0.06
  -6  -5   6    0.13    0.04
  -6  -5   6    0.17    0.04
   5   5  -6   13.05    0.21
  -5  -5   6   13.00    0.19
  -5  -5   6   13.13    0.18
   4   5  -6    0.48    0.05
  -4  -5   6    0.39    0.04
  -4  -5   6    0.51    0.04
   3   5  -6    0.55    0.05
  -3  -5   6    0.65    0.05
  -3  -5   6    0.53    0.04
   2   5  -6   56.84    0.65
  -2  -5   6   56.64    0.63
  -2  -5   6   56.73    0.57
   1   5  -6   59.36    0.61
   1   5  -6   57.29    0.66
  -1  -5   6   58.68    0.58
  -1  -5   6   58.00    0.64
   0   5  -6    0.72    0.05
   0   5  -6    0.64    0.05
  -1   5  -6    1.40    0.06
   1  -5   6    1.23    0.07
   1  -5   6    1.32    0.06
  -2   5  -6    4.94    0.10
   2  -5   6    4.54    0.11
   2  -5   6    4.84    0.09
  -3   5  -6    5.26    0.12
   3  -5   6    5.33    0.12
   3  -5   6    5.35    0.10
  -4   5  -6   12.51    0.19
   4  -5   6   12.70    0.18
   4  -5   6   12.37    0.21
  -5   5  -6    1.43    0.10
   5  -5   6    1.48    0.09
  -6   5  -6    0.30    0.07
   6  -5   6    0.37    0.07
   7  -5   6    1.35    0.12
   8   4  -6    9.43    0.21
  -8  -4   6   10.05    0.17
   7   4  -6    0.20    0.07
  -7  -4   6    0.21    0.04
   6   4  -6    0.39    0.06
  -6  -4   6    0.37    0.04
  -6  -4   6    0.34    0.04
   5   4  -6   17.08    0.25
  -5  -4   6   17.55    0.21
  -5  -4   6   17.35    0.23
   4   4  -6    0.01    0.04
  -4  -4   6    0.11    0.03
  -4  -4   6    0.07    0.03
   3   4  -6   28.71    0.35
  -3  -4   6   28.43    0.30
  -3  -4   6   28.83    0.34
   2   4  -6   22.70    0.29
   2   4  -6   23.19    0.25
  -2  -4   6   22.67    0.27
  -2  -4   6   22.74    0.24
   1   4  -6    0.12    0.03
   1   4  -6    0.20    0.04
  -1  -4   6    0.08    0.02
  -1  -4   6    0.18    0.02
   0   4  -6    0.95    0.05
   0   4  -6    0.94    0.06
   0  -4   6    1.06    0.05
  -1   4  -6   18.65    0.23
   1  -4   6   18.86    0.25
   1  -4   6   19.16    0.24
  -2   4  -6    3.17    0.09
   2  -4   6    3.20    0.09
   2  -4   6    3.16    0.07
  -3   4  -6    2.16    0.08
   3  -4   6    1.97    0.06
   3  -4   6    1.90    0.08
  -4   4  -6    2.89    0.10
   4  -4   6    3.02    0.08
   4  -4   6    2.80    0.10
  -5   4  -6    4.75    0.13
   5  -4   6    5.03    0.13
  -6   4  -6    0.13    0.07
   6  -4   6    0.10    0.06
  -7   4  -6    5.44    0.17
   7  -4   6    5.21    0.16
   8   3  -6    1.75    0.12
  -8  -3   6    1.93    0.10
   7   3  -6    0.42    0.07
  -7  -3   6    0.46    0.05
   6   3  -6    1.81    0.09
  -6  -3   6    1.70    0.07
  -6  -3   6    1.74    0.07
   5   3  -6    1.50    0.08
  -5  -3   6    1.45    0.06
  -5  -3   6    1.43    0.06
   4   3  -6   12.59    0.19
  -4  -3   6   12.60    0.17
  -4  -3   6   12.21    0.16
   3   3  -6    6.01    0.11
   3   3  -6    6.08    0.08
  -3  -3   6    5.80    0.09
  -3  -3   6    5.90    0.10
   2   3  -6   22.26    0.24
   2   3  -6   22.01    0.28
  -2  -3   6   21.56    0.23
  -2  -3   6   22.18    0.26
   1   3  -6    4.48    0.09
   1   3  -6    4.63    0.08
  -1  -3   6    4.62    0.08
  -1  -3   6    4.48    0.06
   0   3  -6    0.91    0.05
   0   3  -6    0.88    0.06
   0  -3   6    0.92    0.04
  -1   3  -6    0.16    0.03
   1  -3   6    0.06    0.02
   1  -3   6    0.13    0.03
  -2   3  -6    4.05    0.09
   2  -3   6    3.96    0.09
   2  -3   6    3.90    0.08
  -3   3  -6   86.01    0.91
   3  -3   6   86.56    0.95
   3  -3   6   83.91    0.92
  -4   3  -6   10.33    0.17
   4  -3   6   10.40    0.17
   4  -3   6   10.42    0.16
  -5   3  -6    2.24    0.10
   5  -3   6    2.06    0.07
   5  -3   6    2.01    0.09
  -6   3  -6    0.17    0.06
   6  -3   6    0.17    0.06
  -7   3  -6    0.15    0.07
   7  -3   6    0.09    0.07
   8   2  -6    3.62    0.13
  -8  -2   6    3.93    0.11
   7   2  -6   21.68    0.31
  -7  -2   6   21.74    0.27
   6   2  -6    8.33    0.16
  -6  -2   6    8.30    0.13
   5   2  -6   10.16    0.17
  -5  -2   6    9.84    0.14
  -5  -2   6    9.88    0.14
   4   2  -6    0.86    0.06
   4   2  -6    0.94    0.04
  -4  -2   6    0.85    0.05
  -4  -2   6    0.91    0.05
   3   2  -6    6.96    0.10
   3   2  -6    7.00    0.12
  -3  -2   6    7.06    0.11
  -3  -2   6    6.89    0.10
   2   2  -6    5.51    0.09
   2   2  -6    5.39    0.10
  -2  -2   6    5.42    0.09
  -2  -2   6    5.54    0.08
   1   2  -6   11.03    0.16
   1   2  -6   11.13    0.14
  -1  -2   6   11.38    0.15
  -1  -2   6   11.32    0.12
   0   2  -6    3.47    0.07
   0   2  -6    3.41    0.08
   0  -2   6    3.42    0.07
  -1   2  -6    6.64    0.11
   1  -2   6    6.42    0.11
   1  -2   6    6.60    0.11
  -2   2  -6    0.21    0.04
   2  -2   6    0.21    0.04
   2  -2   6    0.21    0.03
  -3   2  -6  117.92    1.23
   3  -2   6  118.12    1.29
   3  -2   6  118.36    1.26
  -4   2  -6    9.40    0.16
   4  -2   6    9.35    0.15
   4  -2   6    9.17    0.16
  -5   2  -6    6.71    0.14
   5  -2   6    6.97    0.13
   5  -2   6    6.86    0.14
  -6   2  -6   20.68    0.29
   6  -2   6   20.92    0.30
  -7   2  -6    6.36    0.17
   9   1  -6    0.07    0.07
  -9  -1   6    0.07    0.06
   8   1  -6    1.09    0.09
  -8  -1   6    1.17    0.09
   7   1  -6    6.83    0.16
  -7  -1   6    6.94    0.13
   6   1  -6    1.00    0.08
  -6  -1   6    1.13    0.07
   5   1  -6    4.42    0.11
   5   1  -6    4.24    0.09
  -5  -1   6    4.31    0.09
  -5  -1   6    4.40    0.08
   4   1  -6   71.82    0.80
   4   1  -6   71.04    0.75
  -4  -1   6   72.20    0.73
  -4  -1   6   73.73    0.77
   3   1  -6    5.98    0.10
   3   1  -6    5.91    0.11
  -3  -1   6    5.71    0.09
  -3  -1   6    5.78    0.09
   2   1  -6   16.14    0.20
   2   1  -6   16.17    0.21
  -2  -1   6   16.05    0.20
  -2  -1   6   16.06    0.18
   1   1  -6  108.60    1.17
   1   1  -6  108.31    1.12
  -1  -1   6  110.96    1.07
  -1  -1   6  106.96    1.15
   0   1  -6   57.82    0.64
   0   1  -6   58.71    0.62
   0  -1   6   58.33    0.64
   0  -1   6   58.86    0.57
  -1   1  -6    1.28    0.06
   1  -1   6    1.19    0.05
   1  -1   6    1.25    0.05
  -2   1  -6   99.22    1.04
   2  -1   6   98.19    1.06
   2  -1   6   99.17    1.07
  -3   1  -6    0.05    0.04
   3  -1   6    0.05    0.03
   3  -1   6    0.05    0.03
  -4   1  -6    1.88    0.09
   4  -1   6    2.07    0.08
   4  -1   6    1.95    0.08
  -5   1  -6    0.75    0.07
   5  -1   6    0.68    0.06
  -6   1  -6   14.11    0.23
   6  -1   6   14.38    0.23
  -7   1  -6    9.85    0.20
   9   0  -6    4.30    0.16
  -9   0   6    4.73    0.15
   8   0  -6   25.79    0.37
  -8   0   6   26.16    0.32
   7   0  -6    3.17    0.12
   6   0  -6    0.51    0.06
   6   0  -6    0.53    0.05
  -6   0   6    0.49    0.05
   5   0  -6    6.46    0.11
   5   0  -6    6.37    0.13
  -5   0   6    6.35    0.11
   4   0  -6    8.28    0.14
   4   0  -6    8.32    0.13
  -4   0   6    8.38    0.12
  -4   0   6    8.58    0.12
   3   0  -6   14.18    0.19
   3   0  -6   14.20    0.18
  -3   0   6   13.92    0.17
  -3   0   6   14.17    0.18
   2   0  -6    0.82    0.05
   2   0  -6    0.79    0.05
  -2   0   6    0.79    0.04
  -2   0   6    0.84    0.04
   1   0  -6    4.19    0.08
   1   0  -6    4.15    0.07
  -1   0   6    4.16    0.08
  -1   0   6    4.44    0.07
   0   0  -6    5.47    0.10
   0   0  -6    5.66    0.09
   0   0   6    5.70    0.10
   0   0   6    5.78    0.08
  -1   0  -6  125.67    1.30
   1   0   6  126.52    1.34
  -2   0  -6   63.35    0.68
  -2   0  -6   62.37    0.62
   2   0   6   61.95    0.69
   2   0   6   62.00    0.69
  -3   0  -6   12.38    0.18
   3   0   6   12.39    0.18
  -4   0  -6    2.63    0.10
   4   0   6    2.61    0.09
  -5   0  -6    6.67    0.15
   5   0   6    6.69    0.14
  -6   0  -6    0.16    0.06
   6   0   6    0.25    0.06
   9  -1  -6    0.23    0.08
   8  -1  -6   30.55    0.42
  -8   1   6   30.83    0.37
   7  -1  -6    2.09    0.10
   7  -1  -6    2.11    0.11
  -7   1   6    2.23    0.10
   6  -1  -6    4.04    0.11
   6  -1  -6    4.04    0.11
  -6   1   6    4.03    0.10
   5  -1  -6   13.92    0.20
   5  -1  -6   13.84    0.20
  -5   1   6   14.00    0.19
   4  -1  -6    2.00    0.07
   4  -1  -6    1.98    0.07
  -4   1   6    2.03    0.07
  -4   1   6    2.05    0.06
   3  -1  -6   18.03    0.23
   3  -1  -6   18.00    0.23
  -3   1   6   18.24    0.22
  -3   1   6   18.18    0.21
   2  -1  -6    3.31    0.08
   2  -1  -6    3.44    0.07
  -2   1   6    3.38    0.07
  -2   1   6    3.46    0.07
   1  -1  -6    4.48    0.09
  -1   1   6    4.52    0.09
  -1   1   6    4.60    0.08
   0  -1  -6    6.57    0.12
   0   1   6    6.58    0.10
   0   1   6    6.88    0.12
  -1  -1  -6    5.11    0.11
  -1  -1  -6    5.27    0.08
   1   1   6    5.19    0.10
  -2  -1  -6    0.01    0.03
  -2  -1  -6    0.03    0.02
   2   1   6    0.02    0.03
  -3  -1  -6    7.24    0.14
   3   1   6    6.99    0.13
  -4  -1  -6    2.50    0.10
   4   1   6    2.59    0.10
  -5  -1  -6    0.07    0.05
   5   1   6    0.05    0.05
  -6  -1  -6    0.97    0.08
   6   1   6    0.88    0.08
   8  -2  -6    0.45    0.08
  -8   2   6    0.43    0.07
   7  -2  -6    5.76    0.14
   7  -2  -6    5.98    0.15
  -7   2   6    5.98    0.13
   6  -2  -6    2.73    0.10
   6  -2  -6    2.84    0.10
  -6   2   6    2.81    0.10
   5  -2  -6    3.21    0.10
   5  -2  -6    3.15    0.09
  -5   2   6    3.21    0.09
   4  -2  -6    7.65    0.14
   4  -2  -6    7.51    0.13
  -4   2   6    7.67    0.13
   3  -2  -6   19.65    0.25
  -3   2   6   19.45    0.23
  -3   2   6   19.59    0.24
   2  -2  -6    0.10    0.04
  -2   2   6    0.24    0.03
  -2   2   6    0.08    0.03
   1  -2  -6   -0.01    0.03
  -1   2   6    0.06    0.03
  -1   2   6    0.06    0.03
   0  -2  -6   10.44    0.16
   0   2   6   10.40    0.16
  -1  -2  -6   19.01    0.25
  -1  -2  -6   19.12    0.22
   1   2   6   18.76    0.25
  -2  -2  -6    7.89    0.12
  -2  -2  -6    7.73    0.14
   2   2   6    7.74    0.14
  -3  -2  -6   17.63    0.22
  -3  -2  -6   18.04    0.25
   3   2   6   17.94    0.25
  -4  -2  -6    1.67    0.09
   4   2   6    1.58    0.09
  -5  -2  -6    2.55    0.11
   5   2   6    2.42    0.12
   6   2   6    0.17    0.07
   8  -3  -6   11.25    0.22
   8  -3  -6   11.26    0.22
  -8   3   6   11.25    0.20
   7  -3  -6    2.03    0.11
   7  -3  -6    2.27    0.11
  -7   3   6    2.05    0.11
   6  -3  -6    0.53    0.06
   6  -3  -6    0.47    0.06
  -6   3   6    0.51    0.06
   5  -3  -6    6.00    0.13
  -5   3   6    6.02    0.13
   4  -3  -6    0.17    0.05
  -4   3   6    0.16    0.04
   3  -3  -6   10.88    0.17
  -3   3   6   10.75    0.15
  -3   3   6   10.93    0.16
   2  -3  -6    0.55    0.05
  -2   3   6    0.55    0.05
  -2   3   6    0.56    0.04
   1  -3  -6    5.40    0.12
  -1   3   6    5.42    0.11
  -1   3   6    5.48    0.11
   0  -3  -6   75.19    0.81
   0   3   6   75.75    0.83
  -1  -3  -6    5.14    0.10
  -1  -3  -6    5.37    0.12
   1   3   6    5.38    0.12
  -2  -3  -6    3.35    0.09
  -2  -3  -6    3.63    0.10
   2   3   6    3.37    0.11
  -3  -3  -6   10.94    0.18
  -3  -3  -6   10.95    0.16
   3   3   6   11.19    0.19
  -4  -3  -6    8.74    0.17
   4   3   6    8.70    0.18
   5   3   6    3.30    0.13
   8  -4  -6    2.78    0.15
   7  -4  -6    0.01    0.06
  -7   4   6    0.02    0.06
   6  -4  -6    0.92    0.08
  -6   4   6    0.95    0.07
   5  -4  -6    0.07    0.05
  -5   4   6   -0.06    0.05
   4  -4  -6   55.10    0.63
  -4   4   6   55.19    0.59
   3  -4  -6    1.64    0.09
  -3   4   6    1.61    0.08
   2  -4  -6    4.16    0.12
  -2   4   6    4.38    0.10
  -2   4   6    4.35    0.11
   1  -4  -6    4.75    0.12
  -1   4   6    5.02    0.11
  -1   4   6    4.84    0.11
   0  -4  -6    0.26    0.05
   0   4   6    0.25    0.05
  -1  -4  -6    1.31    0.07
  -1  -4  -6    1.23    0.08
   1   4   6    1.10    0.08
  -2  -4  -6    0.16    0.05
  -2  -4  -6    0.15    0.04
   2   4   6    0.14    0.05
  -3  -4  -6   -0.01    0.05
  -3  -4  -6    0.02    0.04
   3   4   6   -0.04    0.05
   4   4   6    1.76    0.12
   7  -5  -6    3.20    0.15
   6  -5  -6    6.40    0.17
  -6   5   6    6.60    0.16
   5  -5  -6    7.37    0.17
  -5   5   6    7.49    0.16
   4  -5  -6    9.13    0.18
  -4   5   6    9.18    0.17
   3  -5  -6    0.75    0.07
  -3   5   6    0.80    0.06
   2  -5  -6    7.71    0.16
  -2   5   6    7.80    0.15
   1  -5  -6    5.70    0.14
  -1   5   6    6.04    0.13
  -1   5   6    5.93    0.13
   0  -5  -6    1.36    0.09
   0   5   6    1.45    0.09
  -1  -5  -6    0.09    0.05
  -1  -5  -6    0.07    0.04
   1   5   6    0.12    0.05
  -2  -5  -6    0.05    0.05
  -2  -5  -6    0.05    0.05
   2   5   6    0.01    0.06
  -3  -5  -6    6.99    0.15
   3   5   6    7.09    0.17
   5  -6  -6    2.63    0.14
  -5   6   6    2.61    0.13
   4  -6  -6    0.02    0.06
  -4   6   6    0.01    0.06
   3  -6  -6   -0.01    0.06
  -3   6   6   -0.06    0.06
   2  -6  -6    0.48    0.07
  -2   6   6    0.53    0.07
   1  -6  -6    2.42    0.12
  -1   6   6    2.28    0.11
  -1   6   6    2.24    0.11
   0  -6  -6    2.42    0.12
   0   6   6    2.71    0.12
   0   6   6    2.48    0.11
  -1  -6  -6    1.31    0.09
  -1  -6  -6    1.38    0.11
   1   6   6    1.24    0.09
  -2  -6  -6    7.41    0.16
  -2  -6  -6    8.03    0.18
   2   6   6    7.80    0.19
   3  -7  -6    1.30    0.10
   2  -7  -6    0.51    0.08
  -2   7   6    0.44    0.07
   1  -7  -6    5.61    0.17
  -1   7   6    6.02    0.16
   0  -7  -6    0.59    0.08
   0   7   6    0.46    0.08
   1  11  -7    1.48    0.11
  -1 -11   7    1.46    0.10
   0  11  -7    0.08    0.08
   0 -11   7    0.05    0.05
  -1  11  -7    0.98    0.10
   4  10  -7    4.80    0.17
   3  10  -7    1.21    0.10
  -3 -10   7    1.25    0.10
   2  10  -7    7.39    0.18
  -2 -10   7    7.35    0.16
   1  10  -7    4.92    0.16
  -1 -10   7    5.07    0.13
   0  10  -7    0.16    0.07
   0 -10   7    0.08    0.05
  -1  10  -7    8.83    0.20
   1 -10   7    9.08    0.17
  -3  10  -7    6.34    0.17
   3 -10   7    6.17    0.17
   6   9  -7   12.09    0.26
   5   9  -7    3.59    0.15
  -5  -9   7    3.85    0.12
   4   9  -7    1.50    0.12
  -4  -9   7    1.52    0.09
  -4  -9   7    1.82    0.09
   3   9  -7   19.09    0.29
  -3  -9   7   18.61    0.27
   2   9  -7    3.33    0.13
  -2  -9   7    3.17    0.10
   1   9  -7    1.33    0.11
  -1  -9   7    1.31    0.08
   0   9  -7    0.74    0.08
   0  -9   7    0.87    0.07
  -1   9  -7    0.72    0.08
   1  -9   7    0.75    0.06
  -2   9  -7   -0.08    0.06
   2  -9   7    0.00    0.04
   2  -9   7   -0.06    0.05
  -3   9  -7    3.08    0.13
   3  -9   7    3.37    0.13
  -4   9  -7    4.53    0.15
   4  -9   7    4.35    0.15
   6   8  -7   10.99    0.23
   6   8  -7   11.45    0.22
  -6  -8   7   11.10    0.18
   5   8  -7    0.45    0.08
  -5  -8   7    0.48    0.06
  -5  -8   7    0.42    0.05
   4   8  -7   13.70    0.23
  -4  -8   7   13.40    0.21
  -4  -8   7   13.90    0.19
   3   8  -7   -0.02    0.06
  -3  -8   7    0.02    0.04
   2   8  -7    7.44    0.16
  -2  -8   7    7.57    0.14
   1   8  -7    3.80    0.12
  -1  -8   7    4.01    0.10
   0   8  -7    0.48    0.07
   0  -8   7    0.45    0.05
  -1   8  -7   25.56    0.31
   1  -8   7   25.58    0.33
  -2   8  -7    0.38    0.06
   2  -8   7    0.39    0.06
   2  -8   7    0.44    0.05
  -3   8  -7    9.24    0.17
   3  -8   7    9.21    0.19
  -4   8  -7    1.88    0.12
   4  -8   7    2.11    0.12
  -5   8  -7    1.53    0.13
   5  -8   7    1.66    0.12
   7   7  -7   -0.03    0.08
   7   7  -7    0.15    0.08
  -7  -7   7    0.01    0.05
   6   7  -7   -0.01    0.07
  -6  -7   7    0.06    0.05
   5   7  -7   -0.02    0.06
  -5  -7   7    0.04    0.04
  -5  -7   7    0.03    0.04
   4   7  -7    0.22    0.06
  -4  -7   7    0.22    0.04
  -4  -7   7    0.21    0.04
   3   7  -7    0.72    0.07
  -3  -7   7    0.73    0.05
  -3  -7   7    0.79    0.05
   2   7  -7    3.79    0.11
  -2  -7   7    3.53    0.09
   1   7  -7    7.27    0.15
  -1  -7   7    7.17    0.13
   0   7  -7   10.50    0.15
   0   7  -7   10.20    0.18
   0  -7   7   10.14    0.16
  -1   7  -7    0.01    0.04
   1  -7   7    0.03    0.03
  -2   7  -7    2.22    0.09
   2  -7   7    1.96    0.09
   2  -7   7    2.06    0.07
  -3   7  -7    0.11    0.05
   3  -7   7    0.08    0.03
   3  -7   7    0.07    0.05
  -4   7  -7   16.13    0.25
   4  -7   7   16.33    0.26
  -5   7  -7    7.18    0.17
   5  -7   7    7.05    0.18
   7   6  -7    0.10    0.07
   7   6  -7    0.20    0.08
  -7  -6   7    0.17    0.05
   6   6  -7   10.94    0.21
  -6  -6   7   10.55    0.18
  -6  -6   7   11.01    0.17
   5   6  -7    6.67    0.15
  -5  -6   7    6.82    0.12
  -5  -6   7    6.50    0.13
   4   6  -7    0.73    0.07
  -4  -6   7    0.80    0.07
  -4  -6   7    0.89    0.06
   3   6  -7   10.88    0.18
  -3  -6   7   10.41    0.17
  -3  -6   7   10.93    0.14
   2   6  -7    8.39    0.16
  -2  -6   7    8.61    0.12
  -2  -6   7    8.29    0.14
   1   6  -7   10.57    0.18
   1   6  -7   10.57    0.14
  -1  -6   7   10.25    0.16
   0   6  -7    0.17    0.05
   0   6  -7    0.18    0.04
   0  -6   7    0.27    0.04
  -1   6  -7    3.16    0.09
   1  -6   7    3.09    0.09
   1  -6   7    2.94    0.08
  -2   6  -7   24.01    0.30
   2  -6   7   24.37    0.30
   2  -6   7   24.00    0.32
  -3   6  -7    1.88    0.09
   3  -6   7    2.12    0.07
   3  -6   7    2.07    0.10
  -4   6  -7    0.02    0.05
   4  -6   7    0.12    0.05
  -5   6  -7    8.26    0.18
   5  -6   7    8.38    0.18
  -6   6  -7    0.05    0.08
   6  -6   7    0.09    0.07
   8   5  -7    1.91    0.14
  -8  -5   7    1.79    0.10
   7   5  -7    1.12    0.09
  -7  -5   7    1.34    0.08
   6   5  -7    7.59    0.17
  -6  -5   7    7.60    0.13
  -6  -5   7    7.59    0.14
   5   5  -7    0.48    0.06
  -5  -5   7    0.59    0.05
  -5  -5   7    0.62    0.04
   4   5  -7    7.68    0.15
  -4  -5   7    7.94    0.12
  -4  -5   7    7.75    0.13
   3   5  -7    1.21    0.08
  -3  -5   7    1.16    0.06
  -3  -5   7    1.15    0.05
   2   5  -7  147.56    1.61
  -2  -5   7  148.25    1.57
  -2  -5   7  147.93    1.45
   1   5  -7   -0.01    0.03
   1   5  -7    0.01    0.04
  -1  -5   7   -0.03    0.03
   0   5  -7    0.79    0.06
   0   5  -7    0.94    0.06
   0  -5   7    0.70    0.05
  -1   5  -7    1.05    0.07
   1  -5   7    1.13    0.07
   1  -5   7    1.05    0.06
  -2   5  -7    0.05    0.04
   2  -5   7    0.08    0.03
   2  -5   7    0.08    0.04
  -3   5  -7    0.20    0.05
   3  -5   7    0.22    0.03
   3  -5   7    0.24    0.05
  -4   5  -7    0.38    0.06
   4  -5   7    0.47    0.04
   4  -5   7    0.37    0.06
  -5   5  -7    0.17    0.06
   5  -5   7    0.07    0.06
  -6   5  -7    5.95    0.16
   6  -5   7    5.54    0.16
   8   4  -7    2.70    0.13
  -8  -4   7    2.59    0.11
   7   4  -7    0.44    0.07
  -7  -4   7    0.48    0.05
   6   4  -7   17.56    0.27
  -6  -4   7   18.12    0.24
  -6  -4   7   17.99    0.23
   5   4  -7    2.22    0.09
  -5  -4   7    2.18    0.07
  -5  -4   7    2.30    0.07
   4   4  -7    5.27    0.12
  -4  -4   7    5.32    0.09
  -4  -4   7    5.20    0.10
   3   4  -7    1.87    0.08
  -3  -4   7    1.83    0.07
  -3  -4   7    1.85    0.05
   2   4  -7   23.18    0.26
   2   4  -7   22.98    0.30
  -2  -4   7   22.79    0.24
  -2  -4   7   22.91    0.28
   1   4  -7    1.28    0.05
   1   4  -7    1.32    0.07
  -1  -4   7    1.26    0.05
   0   4  -7    0.01    0.03
   0   4  -7   -0.03    0.04
   0  -4   7    0.05    0.03
  -1   4  -7   13.22    0.18
   1  -4   7   13.46    0.19
   1  -4   7   13.17    0.18
  -2   4  -7    0.95    0.06
   2  -4   7    0.88    0.07
   2  -4   7    0.89    0.05
  -3   4  -7    0.94    0.08
   3  -4   7    1.11    0.06
   3  -4   7    1.05    0.08
  -4   4  -7    4.70    0.13
   4  -4   7    4.54    0.12
   4  -4   7    4.76    0.10
  -5   4  -7    4.99    0.14
   5  -4   7    4.94    0.14
  -6   4  -7    0.78    0.08
   6  -4   7    0.70    0.08
   8   3  -7    0.11    0.07
  -8  -3   7    0.18    0.05
   7   3  -7    1.50    0.10
  -7  -3   7    1.56    0.08
   6   3  -7   15.35    0.24
  -6  -3   7   15.75    0.21
   5   3  -7    5.33    0.12
  -5  -3   7    5.33    0.10
  -5  -3   7    5.40    0.10
   4   3  -7    4.90    0.11
  -4  -3   7    4.82    0.09
  -4  -3   7    5.07    0.10
   3   3  -7   30.27    0.33
   3   3  -7   30.37    0.37
  -3  -3   7   29.46    0.32
  -3  -3   7   29.81    0.35
   2   3  -7   27.72    0.31
   2   3  -7   27.15    0.34
  -2  -3   7   27.56    0.32
  -2  -3   7   27.13    0.28
   1   3  -7   11.25    0.17
   1   3  -7   11.41    0.15
  -1  -3   7   11.27    0.16
   0   3  -7   16.38    0.21
   0   3  -7   16.44    0.22
   0  -3   7   16.27    0.21
  -1   3  -7    1.53    0.07
   1  -3   7    1.65    0.07
   1  -3   7    1.52    0.06
  -2   3  -7   11.99    0.18
   2  -3   7   11.74    0.17
   2  -3   7   11.90    0.18
  -3   3  -7    1.91    0.09
   3  -3   7    2.00    0.07
   3  -3   7    1.92    0.08
  -4   3  -7    4.77    0.12
   4  -3   7    4.95    0.11
   4  -3   7    4.74    0.12
  -5   3  -7    2.43    0.11
   5  -3   7    2.34    0.09
   5  -3   7    2.49    0.11
  -6   3  -7   14.52    0.25
   6  -3   7   15.07    0.25
   8   2  -7    0.28    0.07
  -8  -2   7    0.24    0.06
   7   2  -7    0.08    0.06
  -7  -2   7    0.17    0.05
   6   2  -7    8.09    0.16
  -6  -2   7    7.69    0.13
   5   2  -7    3.04    0.10
  -5  -2   7    3.07    0.08
  -5  -2   7    3.11    0.08
   4   2  -7   53.63    0.57
   4   2  -7   52.61    0.62
  -4  -2   7   54.39    0.59
  -4  -2   7   53.53    0.55
   3   2  -7   24.17    0.30
   3   2  -7   24.18    0.28
  -3  -2   7   24.10    0.29
  -3  -2   7   24.03    0.26
   2   2  -7    2.47    0.08
   2   2  -7    2.56    0.07
  -2  -2   7    2.53    0.07
  -2  -2   7    2.67    0.05
   1   2  -7   46.86    0.53
   1   2  -7   47.03    0.51
  -1  -2   7   46.24    0.52
  -1  -2   7   47.61    0.47
   0   2  -7    0.09    0.03
   0   2  -7    0.09    0.03
   0  -2   7    0.07    0.03
  -1   2  -7   49.10    0.54
   1  -2   7   48.73    0.55
  -2   2  -7   74.38    0.80
   2  -2   7   74.87    0.82
   2  -2   7   75.87    0.83
   3  -2   7    2.59    0.09
   3  -2   7    2.65    0.08
   4  -2   7   10.93    0.18
   4  -2   7   10.78    0.17
  -5   2  -7    5.63    0.14
   5  -2   7    5.74    0.13
  -6   2  -7    1.39    0.12
   8   1  -7   37.36    0.49
  -8  -1   7   37.06    0.43
   7   1  -7    6.65    0.16
  -7  -1   7    6.79    0.13
   6   1  -7    5.24    0.13
  -6  -1   7    5.38    0.11
   5   1  -7    5.37    0.10
   5   1  -7    5.42    0.12
  -5  -1   7    5.41    0.10
   4   1  -7   11.99    0.18
   4   1  -7   11.87    0.16
  -4  -1   7   12.16    0.16
  -4  -1   7   12.13    0.16
   3   1  -7   17.96    0.22
   3   1  -7   17.70    0.23
  -3  -1   7   18.02    0.21
  -3  -1   7   18.04    0.22
   2   1  -7   16.72    0.21
   2   1  -7   17.02    0.22
  -2  -1   7   16.75    0.21
  -2  -1   7   16.65    0.19
   1   1  -7    0.25    0.03
   1   1  -7    0.23    0.03
  -1  -1   7    0.26    0.03
  -1  -1   7    0.18    0.03
   0   1  -7    9.20    0.13
   0   1  -7    8.97    0.14
   0  -1   7    9.25    0.11
   0  -1   7    9.13    0.14
  -1   1  -7    0.48    0.05
   1  -1   7    0.55    0.04
  -2   1  -7   88.35    0.95
   2  -1   7   89.36    0.97
   2  -1   7   89.93    0.98
  -3   1  -7    4.26    0.11
   3  -1   7    4.26    0.10
  -4   1  -7    0.13    0.05
   4  -1   7    0.17    0.05
  -5   1  -7   22.67    0.31
   5  -1   7   23.12    0.31
  -6   1  -7    0.12    0.06
   6  -1   7    0.15    0.06
  -8   0   7    6.32    0.14
   7   0  -7    0.02    0.06
  -7   0   7    0.03    0.05
   6   0  -7    4.08    0.12
   6   0  -7    4.19    0.11
  -6   0   7    4.24    0.10
   5   0  -7   52.61    0.58
   5   0  -7   52.56    0.61
  -5   0   7   52.70    0.55
   4   0  -7    8.13    0.13
   4   0  -7    8.10    0.14
  -4   0   7    8.02    0.12
  -4   0   7    8.10    0.13
   3   0  -7    1.53    0.07
   3   0  -7    1.52    0.07
  -3   0   7    1.60    0.06
  -3   0   7    1.49    0.06
   2   0  -7   60.04    0.65
   2   0  -7   60.42    0.67
  -2   0   7   60.47    0.66
  -2   0   7   60.23    0.61
   1   0  -7   18.00    0.22
   1   0  -7   17.87    0.23
  -1   0   7   18.24    0.20
  -1   0   7   17.99    0.23
   0   0  -7    0.37    0.04
   0   0   7    0.36    0.03
   0   0   7    0.31    0.04
  -1   0  -7   17.50    0.23
   1   0   7   17.28    0.23
  -2   0  -7   14.95    0.21
   2   0   7   14.72    0.21
  -3   0  -7    8.22    0.15
   3   0   7    8.16    0.15
  -4   0  -7    0.04    0.05
   4   0   7    0.03    0.04
  -5   0  -7    3.72    0.13
   5   0   7    3.65    0.12
  -6   0  -7   11.73    0.22
   6   0   7   11.56    0.21
   8  -1  -7    0.89    0.09
  -8   1   7    0.84    0.07
   7  -1  -7    0.33    0.06
  -7   1   7    0.18    0.05
   6  -1  -7    1.36    0.09
   6  -1  -7    1.56    0.09
  -6   1   7    1.47    0.08
   5  -1  -7   27.14    0.34
   5  -1  -7   26.97    0.33
  -5   1   7   27.47    0.32
   4  -1  -7    0.16    0.04
   4  -1  -7    0.11    0.04
  -4   1   7    0.07    0.04
   3  -1  -7   13.31    0.18
   3  -1  -7   13.50    0.19
  -3   1   7   13.04    0.17
  -3   1   7   13.33    0.18
   2  -1  -7   21.66    0.27
  -2   1   7   21.83    0.27
  -2   1   7   21.69    0.25
   1  -1  -7    0.98    0.07
  -1   1   7    1.11    0.06
  -1   1   7    1.06    0.06
   0  -1  -7    8.80    0.15
   0   1   7    9.08    0.15
   0   1   7    8.97    0.13
  -1  -1  -7   22.29    0.28
   1   1   7   22.25    0.29
  -2  -1  -7    0.40    0.05
   2   1   7    0.40    0.05
  -3  -1  -7    2.13    0.09
   3   1   7    2.16    0.09
  -4  -1  -7    0.54    0.06
   4   1   7    0.67    0.06
  -5  -1  -7    4.17    0.14
   5   1   7    4.23    0.13
   8  -2  -7    3.21    0.14
  -8   2   7    3.40    0.13
   7  -2  -7    0.60    0.07
   7  -2  -7    0.53    0.07
  -7   2   7    0.51    0.06
   6  -2  -7    2.65    0.11
   6  -2  -7    2.76    0.10
  -6   2   7    2.62    0.10
   5  -2  -7    1.81    0.09
  -5   2   7    1.98    0.09
   4  -2  -7    0.03    0.04
  -4   2   7    0.03    0.04
   3  -2  -7    1.07    0.08
  -3   2   7    1.16    0.06
  -3   2   7    1.09    0.07
   2  -2  -7    2.95    0.09
  -2   2   7    3.07    0.08
  -2   2   7    3.07    0.08
   1  -2  -7    2.83    0.09
  -1   2   7    2.95    0.08
  -1   2   7    2.89    0.09
   0  -2  -7    4.17    0.11
   0   2   7    4.11    0.09
   0   2   7    4.02    0.10
  -1  -2  -7    5.04    0.12
   1   2   7    5.11    0.12
  -2  -2  -7    0.04    0.04
   2   2   7    0.01    0.04
  -3  -2  -7    0.50    0.06
   3   2   7    0.48    0.06
  -4  -2  -7    0.17    0.06
   4   2   7    0.15    0.06
  -5  -2  -7    1.46    0.11
   5   2   7    1.19    0.09
   8  -3  -7    3.15    0.14
   7  -3  -7    3.40    0.13
  -7   3   7    3.16    0.12
   6  -3  -7   11.03    0.20
  -6   3   7   11.19    0.19
   5  -3  -7    0.80    0.07
  -5   3   7    0.84    0.06
   4  -3  -7   18.60    0.26
  -4   3   7   18.46    0.24
   3  -3  -7    1.09    0.08
  -3   3   7    1.11    0.08
   2  -3  -7    0.28    0.05
  -2   3   7    0.26    0.04
  -2   3   7    0.27    0.05
   1  -3  -7   12.47    0.20
  -1   3   7   12.54    0.19
  -1   3   7   12.87    0.18
   0  -3  -7    1.45    0.09
   0   3   7    1.52    0.08
   0   3   7    1.52    0.09
  -1  -3  -7    1.86    0.09
   1   3   7    1.70    0.09
  -2  -3  -7   19.22    0.27
  -2  -3  -7   19.01    0.24
   2   3   7   19.08    0.28
  -3  -3  -7   15.23    0.24
   3   3   7   15.21    0.24
  -4  -3  -7    5.49    0.15
   4   3   7    5.42    0.16
   7  -4  -7    0.10    0.07
  -7   4   7   -0.01    0.06
   6  -4  -7    0.42    0.07
  -6   4   7    0.48    0.07
   5  -4  -7    0.97    0.08
  -5   4   7    1.12    0.08
   4  -4  -7    9.74    0.19
  -4   4   7   10.00    0.17
   3  -4  -7   10.70    0.19
  -3   4   7   10.59    0.17
   2  -4  -7    0.12    0.06
  -2   4   7    0.05    0.05
  -2   4   7    0.05    0.04
   1  -4  -7    8.94    0.17
  -1   4   7    8.83    0.16
  -1   4   7    9.30    0.16
   0  -4  -7    2.29    0.10
   0   4   7    2.46    0.10
   0   4   7    2.38    0.10
  -1  -4  -7    0.75    0.07
   1   4   7    0.66    0.07
  -2  -4  -7    0.68    0.06
  -2  -4  -7    0.62    0.07
   2   4   7    0.69    0.07
  -3  -4  -7    7.27    0.16
   3   4   7    7.37    0.18
   6  -5  -7    1.42    0.10
   5  -5  -7    7.47    0.18
  -5   5   7    7.19    0.17
   4  -5  -7   12.25    0.22
  -4   5   7   12.51    0.21
   3  -5  -7    5.65    0.15
  -3   5   7    5.52    0.14
   2  -5  -7   11.89    0.21
  -2   5   7   11.99    0.20
   1  -5  -7   10.51    0.20
  -1   5   7   10.08    0.18
  -1   5   7   10.27    0.18
   0  -5  -7    5.08    0.14
   0   5   7    5.15    0.14
   0   5   7    5.06    0.14
  -1  -5  -7    3.41    0.13
   1   5   7    3.55    0.13
  -2  -5  -7    2.74    0.11
  -2  -5  -7    3.04    0.13
   2   5   7    2.95    0.13
  -4   6   7    0.03    0.07
   3  -6  -7    3.70    0.15
  -3   6   7    3.51    0.14
   2  -6  -7    0.72    0.08
  -2   6   7    0.83    0.08
   1  -6  -7    5.20    0.16
  -1   6   7    5.16    0.15
   0  -6  -7    0.03    0.07
   0   6   7    0.04    0.07
   0   6   7    0.15    0.07
   2  11  -8    0.48    0.10
   1  11  -8    6.57    0.19
   0  11  -8    2.72    0.15
   0 -11   8    2.69    0.12
   4  10  -8    0.36    0.09
   3  10  -8    4.54    0.17
  -3 -10   8    4.52    0.14
   2  10  -8    0.89    0.09
  -2 -10   8    0.87    0.07
   1  10  -8    0.69    0.09
  -1 -10   8    0.75    0.07
   0  10  -8    2.40    0.14
   0 -10   8    2.20    0.10
  -1  10  -8   21.46    0.34
   1 -10   8   21.61    0.30
  -2  10  -8    1.11    0.10
   5   9  -8    4.92    0.17
  -5  -9   8    4.65    0.14
   4   9  -8    4.65    0.16
  -4  -9   8    4.92    0.13
   3   9  -8   10.38    0.21
  -3  -9   8   10.35    0.19
   2   9  -8    0.78    0.08
  -2  -9   8    0.85    0.07
   1   9  -8    1.17    0.09
  -1  -9   8    1.23    0.08
   0   9  -8    4.93    0.15
   0  -9   8    4.43    0.12
  -1   9  -8    1.83    0.12
   1  -9   8    1.97    0.09
  -2   9  -8   17.94    0.26
   2  -9   8   18.22    0.26
  -3   9  -8    2.71    0.13
   3  -9   8    2.80    0.13
  -4   9  -8   12.25    0.23
   6   8  -8    4.45    0.16
  -6  -8   8    4.46    0.12
  -6  -8   8    4.41    0.13
   5   8  -8    6.50    0.17
  -5  -8   8    6.36    0.15
  -5  -8   8    6.61    0.13
   4   8  -8    5.45    0.16
  -4  -8   8    5.50    0.13
   3   8  -8   22.96    0.33
  -3  -8   8   22.13    0.30
   2   8  -8    3.78    0.13
  -2  -8   8    3.92    0.11
   1   8  -8   21.45    0.31
  -1  -8   8   20.97    0.29
   0   8  -8    4.09    0.13
   0  -8   8    4.07    0.11
  -1   8  -8    1.09    0.07
  -1   8  -8    1.00    0.08
   1  -8   8    1.04    0.07
  -2   8  -8    7.57    0.15
   2  -8   8    7.62    0.17
   2  -8   8    7.48    0.14
  -3   8  -8    8.42    0.17
   3  -8   8    8.01    0.18
  -4   8  -8    2.64    0.13
   4  -8   8    2.57    0.13
   7   7  -8   34.55    0.50
  -7  -7   8   35.25    0.41
   6   7  -8    1.67    0.12
  -6  -7   8    1.62    0.10
  -6  -7   8    1.79    0.09
   5   7  -8    0.14    0.07
  -5  -7   8    0.25    0.04
  -5  -7   8    0.28    0.05
   4   7  -8    0.17    0.06
  -4  -7   8    0.19    0.04
  -4  -7   8    0.16    0.05
   3   7  -8    0.56    0.07
  -3  -7   8    0.56    0.05
   2   7  -8    2.61    0.11
  -2  -7   8    2.60    0.09
   1   7  -8    2.29    0.10
  -1  -7   8    2.17    0.08
   0   7  -8    2.94    0.09
   0   7  -8    3.00    0.11
   0  -7   8    2.96    0.09
  -1   7  -8    2.15    0.09
   1  -7   8    2.25    0.08
  -2   7  -8    5.23    0.13
   2  -7   8    4.84    0.13
   2  -7   8    4.94    0.11
  -3   7  -8    1.20    0.10
   3  -7   8    1.37    0.10
   3  -7   8    1.42    0.08
  -4   7  -8    0.36    0.07
   4  -7   8    0.35    0.07
  -5   7  -8   -0.11    0.07
   5  -7   8    0.11    0.07
   7   6  -8    4.39    0.15
  -7  -6   8    4.37    0.12
   6   6  -8    0.64    0.08
  -6  -6   8    0.68    0.05
  -6  -6   8    0.59    0.06
   5   6  -8    2.36    0.11
  -5  -6   8    2.41    0.09
  -5  -6   8    2.40    0.08
   4   6  -8    4.77    0.13
  -4  -6   8    4.59    0.11
  -4  -6   8    4.88    0.09
   3   6  -8    9.27    0.17
  -3  -6   8    9.46    0.16
   2   6  -8   14.72    0.23
  -2  -6   8   14.91    0.21
   1   6  -8    1.55    0.09
  -1  -6   8    1.61    0.07
   0   6  -8    0.17    0.04
   0   6  -8    0.13    0.05
   0  -6   8    0.18    0.04
  -1   6  -8   36.77    0.42
   1  -6   8   36.03    0.43
  -2   6  -8    0.17    0.05
   2  -6   8    0.08    0.03
   2  -6   8    0.08    0.05
  -3   6  -8    0.11    0.06
   3  -6   8    0.20    0.04
   3  -6   8    0.08    0.05
  -4   6  -8   30.83    0.39
   4  -6   8   30.45    0.42
  -5   6  -8   10.17    0.20
   5  -6   8   10.33    0.21
   7   5  -8    6.95    0.17
  -7  -5   8    6.74    0.14
   6   5  -8    4.63    0.14
  -6  -5   8    4.64    0.11
  -6  -5   8    4.67    0.11
   5   5  -8    0.90    0.07
  -5  -5   8    0.80    0.07
  -5  -5   8    0.76    0.06
   4   5  -8    3.31    0.11
  -4  -5   8    3.20    0.09
  -4  -5   8    3.39    0.08
   3   5  -8    8.46    0.16
  -3  -5   8    8.46    0.12
  -3  -5   8    8.56    0.14
   2   5  -8    9.65    0.17
  -2  -5   8    9.58    0.15
   1   5  -8    2.36    0.07
   1   5  -8    2.21    0.09
  -1  -5   8    2.27    0.07
   0   5  -8    7.79    0.15
   0   5  -8    7.88    0.13
   0  -5   8    7.98    0.13
  -1   5  -8   22.07    0.27
   1  -5   8   21.61    0.28
  -2   5  -8    9.04    0.16
   2  -5   8    9.02    0.16
   2  -5   8    8.93    0.15
  -3   5  -8   11.88    0.20
   3  -5   8   12.21    0.20
   3  -5   8   11.92    0.18
  -4   5  -8    1.97    0.11
   4  -5   8    1.88    0.10
   4  -5   8    2.04    0.08
  -5   5  -8    6.96    0.17
   5  -5   8    7.05    0.17
   6  -5   8    2.49    0.14
   8   4  -8    0.14    0.07
  -8  -4   8    0.18    0.05
   7   4  -8    0.08    0.06
  -7  -4   8    0.10    0.05
   6   4  -8    3.22    0.12
  -6  -4   8    3.36    0.09
  -6  -4   8    3.41    0.10
   5   4  -8    2.98    0.11
  -5  -4   8    2.99    0.09
  -5  -4   8    3.10    0.08
   4   4  -8    1.38    0.08
  -4  -4   8    1.39    0.06
  -4  -4   8    1.38    0.07
   3   4  -8   74.19    0.84
  -3  -4   8   73.66    0.74
  -3  -4   8   73.88    0.81
   2   4  -8   10.11    0.14
   2   4  -8   10.18    0.17
  -2  -4   8    9.90    0.15
   1   4  -8    1.60    0.07
   1   4  -8    1.56    0.08
  -1  -4   8    1.61    0.06
   0   4  -8    0.01    0.04
   0   4  -8    0.06    0.04
   0  -4   8   -0.04    0.03
  -1   4  -8    0.38    0.05
   1  -4   8    0.48    0.04
  -2   4  -8    3.76    0.11
   2  -4   8    3.91    0.10
   2  -4   8    3.55    0.09
  -3   4  -8    4.50    0.12
   3  -4   8    4.60    0.12
   3  -4   8    4.42    0.10
  -4   4  -8    8.08    0.17
   4  -4   8    8.09    0.15
   4  -4   8    8.05    0.17
  -5   4  -8    2.38    0.12
   5  -4   8    2.25    0.12
   6  -4   8   21.75    0.33
   8   3  -8    9.24    0.21
  -8  -3   8    9.18    0.17
   7   3  -8    2.84    0.12
  -7  -3   8    2.65    0.10
   6   3  -8    0.40    0.06
  -6  -3   8    0.42    0.05
   5   3  -8    0.22    0.05
  -5  -3   8    0.15    0.04
  -5  -3   8    0.20    0.04
   4   3  -8   17.71    0.25
  -4  -3   8   18.04    0.23
  -4  -3   8   18.30    0.21
   3   3  -8   23.75    0.31
   3   3  -8   23.53    0.27
  -3  -3   8   23.10    0.26
  -3  -3   8   23.30    0.29
   2   3  -8    7.06    0.11
   2   3  -8    7.02    0.13
  -2  -3   8    7.04    0.12
  -2  -3   8    6.88    0.09
   1   3  -8    6.99    0.12
   1   3  -8    6.94    0.13
  -1  -3   8    6.86    0.12
   0   3  -8   36.50    0.44
   0   3  -8   36.78    0.41
   0  -3   8   36.30    0.43
  -1   3  -8   10.20    0.16
   1  -3   8    9.99    0.16
  -2   3  -8   17.75    0.24
   2  -3   8   17.88    0.25
   2  -3   8   17.77    0.24
  -3   3  -8    8.67    0.16
   3  -3   8    8.74    0.16
   3  -3   8    8.67    0.15
  -4   3  -8    2.27    0.11
   4  -3   8    2.21    0.09
   4  -3   8    2.06    0.10
  -5   3  -8    7.28    0.17
   5  -3   8    7.13    0.15
   8   2  -8    2.40    0.13
  -8  -2   8    2.56    0.11
   7   2  -8   12.79    0.23
  -7  -2   8   12.88    0.19
   6   2  -8    1.36    0.09
  -6  -2   8    1.54    0.08
   5   2  -8    0.59    0.06
  -5  -2   8    0.60    0.05
  -5  -2   8    0.58    0.04
   4   2  -8    4.54    0.11
   4   2  -8    4.36    0.09
  -4  -2   8    4.41    0.09
  -4  -2   8    4.42    0.09
   3   2  -8   10.53    0.17
   3   2  -8   10.49    0.15
  -3  -2   8   10.23    0.15
  -3  -2   8   10.36    0.14
   2   2  -8   20.38    0.25
   2   2  -8   20.53    0.27
  -2  -2   8   20.47    0.22
  -2  -2   8   20.52    0.26
   1   2  -8   25.02    0.31
   1   2  -8   24.73    0.29
  -1  -2   8   24.45    0.30
   0   2  -8   10.30    0.16
   0   2  -8   10.33    0.16
   0  -2   8   10.06    0.16
  -1   2  -8   61.36    0.68
  -1   2  -8   59.45    0.66
   1  -2   8   59.31    0.67
  -2   2  -8    3.01    0.10
   2  -2   8    2.86    0.09
   2  -2   8    2.85    0.09
  -3   2  -8    2.32    0.10
   3  -2   8    2.59    0.09
  -4   2  -8    0.46    0.07
   4  -2   8    0.38    0.05
  -5   2  -8   24.76    0.34
   5  -2   8   24.78    0.34
   8   1  -8    0.79    0.09
  -8  -1   8    0.88    0.07
   7   1  -8    0.10    0.07
  -7  -1   8    0.13    0.05
   6   1  -8   14.70    0.23
  -6  -1   8   14.84    0.20
   5   1  -8   12.64    0.18
   5   1  -8   12.64    0.20
  -5  -1   8   13.14    0.18
   4   1  -8    0.64    0.05
   4   1  -8    0.49    0.04
  -4  -1   8    0.47    0.04
  -4  -1   8    0.47    0.04
   3   1  -8    0.03    0.04
   3   1  -8    0.04    0.03
  -3  -1   8    0.00    0.03
  -3  -1   8   -0.05    0.03
   2   1  -8    2.57    0.08
   2   1  -8    2.58    0.08
  -2  -1   8    2.45    0.07
  -2  -1   8    2.63    0.06
   1   1  -8    1.67    0.07
   1   1  -8    1.66    0.07
  -1  -1   8    1.69    0.05
  -1  -1   8    1.66    0.07
   0   1  -8   27.77    0.33
   0  -1   8   27.50    0.34
  -1   1  -8   44.44    0.50
   1  -1   8   43.49    0.51
  -2   1  -8    2.08    0.09
   2  -1   8    2.05    0.08
  -3   1  -8    1.52    0.09
   3  -1   8    1.24    0.08
  -4   1  -8    8.14    0.17
   4  -1   8    8.54    0.16
  -5   1  -8    4.07    0.14
   5  -1   8    4.28    0.13
   6  -1   8    0.41    0.07
   8   0  -8    0.40    0.08
  -8   0   8    0.25    0.06
   7   0  -8    0.49    0.07
  -7   0   8    0.45    0.06
   6   0  -8    0.34    0.06
  -6   0   8    0.30    0.05
   5   0  -8    0.47    0.05
   5   0  -8    0.36    0.05
  -5   0   8    0.51    0.05
   4   0  -8    0.07    0.04
   4   0  -8    0.00    0.04
  -4   0   8    0.03    0.03
  -4   0   8    0.05    0.04
   3   0  -8   20.71    0.26
   3   0  -8   20.80    0.26
  -3   0   8   20.67    0.26
  -3   0   8   20.59    0.24
   2   0  -8    3.53    0.09
  -2   0   8    3.44    0.08
  -2   0   8    3.67    0.09
   1   0  -8    8.05    0.14
  -1   0   8    8.38    0.12
  -1   0   8    8.38    0.14
   0   0  -8    0.15    0.04
   0   0   8    0.22    0.04
  -1   0  -8   69.26    0.75
   1   0   8   68.21    0.77
  -2   0  -8    1.23    0.08
   2   0   8    1.39    0.08
  -3   0  -8    0.28    0.05
   3   0   8    0.31    0.05
  -4   0  -8    0.24    0.06
   4   0   8    0.29    0.06
  -5   0  -8    2.54    0.13
   5   0   8    2.77    0.12
   8  -1  -8    9.08    0.20
  -8   1   8    9.21    0.18
   7  -1  -8    1.57    0.11
  -7   1   8    1.37    0.10
   6  -1  -8    8.62    0.17
   6  -1  -8    8.64    0.16
  -6   1   8    8.45    0.15
   5  -1  -8    0.12    0.05
  -5   1   8    0.12    0.05
   4  -1  -8    0.27    0.05
  -4   1   8    0.34    0.05
   3  -1  -8   22.84    0.29
  -3   1   8   22.94    0.27
  -3   1   8   22.86    0.28
   2  -1  -8   11.30    0.18
  -2   1   8   11.42    0.16
  -2   1   8   11.51    0.17
   1  -1  -8    3.88    0.10
  -1   1   8    3.94    0.09
  -1   1   8    3.74    0.10
   0  -1  -8    5.97    0.13
   0   1   8    6.11    0.13
   0   1   8    6.09    0.11
  -1  -1  -8    5.97    0.13
   1   1   8    5.95    0.13
  -2  -1  -8    0.37    0.05
   2   1   8    0.29    0.05
  -3  -1  -8    0.24    0.06
   3   1   8    0.23    0.05
  -4  -1  -8    8.74    0.18
   4   1   8    9.02    0.18
   7  -2  -8    0.33    0.07
  -7   2   8    0.36    0.06
   6  -2  -8    6.23    0.15
  -6   2   8    6.29    0.14
   5  -2  -8    0.46    0.06
  -5   2   8    0.44    0.06
   4  -2  -8    2.02    0.09
  -4   2   8    2.13    0.09
   3  -2  -8    0.36    0.05
  -3   2   8    0.37    0.04
  -3   2   8    0.33    0.05
   2  -2  -8    1.11    0.08
  -2   2   8    1.00    0.07
  -2   2   8    1.19    0.07
   1  -2  -8    2.12    0.09
  -1   2   8    1.99    0.09
  -1   2   8    2.07    0.08
   0  -2  -8   10.19    0.18
   0   2   8   10.34    0.18
   0   2   8   10.56    0.16
  -1  -2  -8    0.09    0.05
   1   2   8    0.09    0.05
  -2  -2  -8    3.16    0.11
   2   2   8    2.99    0.11
  -3  -2  -8    1.92    0.11
   3   2   8    2.03    0.11
  -4  -2  -8    4.17    0.14
   7  -3  -8    4.66    0.16
  -7   3   8    4.53    0.14
   6  -3  -8    0.26    0.07
  -6   3   8    0.14    0.06
   5  -3  -8    6.64    0.16
  -5   3   8    6.68    0.14
   4  -3  -8   -0.05    0.05
  -4   3   8    0.03    0.05
   3  -3  -8    4.83    0.13
  -3   3   8    4.74    0.12
   2  -3  -8   15.78    0.24
  -2   3   8   15.93    0.23
  -2   3   8   16.24    0.22
   1  -3  -8    0.43    0.06
  -1   3   8    0.40    0.05
  -1   3   8    0.51    0.06
   0  -3  -8    2.42    0.10
   0   3   8    2.36    0.10
   0   3   8    2.34    0.10
  -1  -3  -8    6.27    0.15
   1   3   8    6.31    0.15
  -2  -3  -8    1.35    0.10
   2   3   8    1.14    0.08
  -3  -3  -8    5.00    0.15
   3   3   8    4.92    0.15
   6  -4  -8    0.32    0.08
  -6   4   8    0.30    0.07
   5  -4  -8    1.39    0.11
  -5   4   8    1.27    0.09
   4  -4  -8    0.11    0.06
  -4   4   8    0.05    0.06
   3  -4  -8    1.75    0.11
  -3   4   8    1.82    0.10
   2  -4  -8    2.58    0.12
  -2   4   8    2.81    0.11
   1  -4  -8    2.33    0.11
  -1   4   8    2.20    0.11
  -1   4   8    2.34    0.11
   0  -4  -8    1.02    0.08
   0   4   8    1.08    0.08
   0   4   8    1.39    0.10
  -1  -4  -8    3.22    0.13
   1   4   8    2.91    0.13
  -2  -4  -8   26.56    0.36
   4  -5  -8    6.74    0.18
  -4   5   8    6.59    0.16
   3  -5  -8    2.70    0.13
  -3   5   8    2.84    0.13
   2  -5  -8    3.35    0.14
  -2   5   8    3.32    0.13
   1  -5  -8    1.46    0.10
  -1   5   8    1.35    0.09
  -1   5   8    1.29    0.11
   0  -5  -8    3.00    0.14
   0   5   8    2.93    0.13
   0   5   8    3.07    0.13
   3  10  -9    0.28    0.09
   2  10  -9    0.09    0.08
  -2 -10   9    0.09    0.05
   1  10  -9    0.73    0.09
  -1 -10   9    0.60    0.06
   0  10  -9    3.60    0.15
   0 -10   9    3.63    0.12
  -1  10  -9    2.23    0.14
   1 -10   9    2.16    0.11
   4   9  -9    2.41    0.14
  -4  -9   9    2.56    0.11
   3   9  -9    0.05    0.07
  -3  -9   9    0.11    0.05
   2   9  -9    0.93    0.09
  -2  -9   9    1.07    0.09
   1   9  -9    5.45    0.16
  -1  -9   9    5.41    0.13
   0   9  -9   11.72    0.22
   0  -9   9   11.29    0.20
  -1   9  -9    0.35    0.08
   1  -9   9    0.41    0.06
   2  -9   9   -0.04    0.04
  -3   9  -9   33.24    0.43
  -6  -8   9    3.11    0.12
   5   8  -9    4.27    0.15
  -5  -8   9    4.13    0.13
   4   8  -9   23.75    0.35
  -4  -8   9   24.08    0.33
   3   8  -9    1.38    0.11
  -3  -8   9    1.35    0.09
   2   8  -9    1.16    0.09
  -2  -8   9    1.25    0.08
   1   8  -9   30.39    0.41
  -1  -8   9   30.50    0.39
   0   8  -9    4.60    0.14
   0  -8   9    4.49    0.12
  -1   8  -9    1.78    0.11
   1  -8   9    1.95    0.09
  -2   8  -9    4.03    0.13
   2  -8   9    3.76    0.11
  -3   8  -9    2.50    0.13
   3  -8   9    2.26    0.12
  -4   8  -9    0.41    0.08
  -7  -7   9    7.25    0.17
  -7  -7   9    7.79    0.16
   6   7  -9   -0.03    0.07
  -6  -7   9   -0.01    0.05
  -6  -7   9    0.02    0.05
   5   7  -9    2.07    0.12
  -5  -7   9    2.20    0.10
   4   7  -9    6.92    0.17
  -4  -7   9    6.85    0.14
   3   7  -9    4.08    0.13
  -3  -7   9    4.37    0.11
   2   7  -9   38.03    0.49
  -2  -7   9   38.59    0.46
   1   7  -9    0.98    0.08
  -1  -7   9    1.04    0.07
   0   7  -9    1.11    0.10
   0  -7   9    1.11    0.07
  -1   7  -9    3.93    0.13
  -1   7  -9    4.14    0.11
   1  -7   9    4.13    0.11
  -2   7  -9   18.94    0.26
   2  -7   9   18.68    0.26
   2  -7   9   18.52    0.28
  -3   7  -9    0.45    0.07
   3  -7   9    0.43    0.07
   3  -7   9    0.58    0.05
  -4   7  -9    3.33    0.14
   4  -7   9    3.50    0.14
   7   6  -9    8.53    0.20
  -7  -6   9    8.52    0.16
   6   6  -9    0.04    0.07
  -6  -6   9    0.21    0.05
  -6  -6   9    0.19    0.05
   5   6  -9   10.25    0.20
  -5  -6   9   10.19    0.15
  -5  -6   9   10.09    0.18
   4   6  -9    4.86    0.14
  -4  -6   9    4.89    0.12
   3   6  -9    5.54    0.14
  -3  -6   9    5.57    0.12
   2   6  -9    0.74    0.07
  -2  -6   9    0.62    0.05
   1   6  -9    0.32    0.06
  -1  -6   9    0.35    0.04
   0   6  -9   10.92    0.19
   0   6  -9   10.88    0.17
   0  -6   9   10.83    0.17
  -1   6  -9   11.64    0.18
  -1   6  -9   11.47    0.20
   1  -6   9   11.64    0.18
  -2   6  -9    0.09    0.06
   2  -6   9    0.10    0.04
   2  -6   9    0.10    0.05
  -3   6  -9    2.02    0.11
   3  -6   9    2.23    0.09
   3  -6   9    1.88    0.11
  -4   6  -9    4.93    0.15
   4  -6   9    5.00    0.13
   4  -6   9    4.96    0.15
   5  -6   9    0.14    0.07
   7   5  -9    1.42    0.12
  -7  -5   9    1.64    0.09
   6   5  -9    1.17    0.09
  -6  -5   9    1.27    0.08
  -6  -5   9    1.08    0.08
   5   5  -9    5.49    0.14
  -5  -5   9    5.49    0.12
  -5  -5   9    5.37    0.10
   4   5  -9    3.94    0.12
  -4  -5   9    4.18    0.11
   3   5  -9   44.27    0.54
  -3  -5   9   43.96    0.52
   2   5  -9    3.58    0.11
   1   5  -9   17.88    0.26
   1   5  -9   18.47    0.23
  -1  -5   9   18.14    0.25
   0   5  -9    4.46    0.12
   0   5  -9    4.34    0.10
   0  -5   9    4.20    0.10
  -1   5  -9    1.10    0.09
  -1   5  -9    1.18    0.08
   1  -5   9    1.08    0.07
  -2   5  -9    0.49    0.06
   2  -5   9    0.53    0.05
   2  -5   9    0.54    0.06
  -3   5  -9    9.18    0.18
   3  -5   9    9.20    0.18
   3  -5   9    9.12    0.16
  -4   5  -9   26.41    0.35
   4  -5   9   25.52    0.34
   4  -5   9   25.96    0.37
   5  -5   9    0.31    0.07
  -8  -4   9    1.29    0.10
   7   4  -9    6.43    0.17
  -7  -4   9    6.57    0.14
   6   4  -9    0.10    0.06
  -6  -4   9    0.26    0.04
   5   4  -9   10.04    0.19
  -5  -4   9    9.82    0.16
  -5  -4   9    9.97    0.15
   4   4  -9    0.12    0.05
  -4  -4   9    0.13    0.03
  -4  -4   9    0.20    0.04
   3   4  -9   47.93    0.57
  -3  -4   9   48.41    0.55
   2   4  -9    4.49    0.11
   2   4  -9    4.60    0.09
  -2  -4   9    4.52    0.10
   1   4  -9    1.04    0.07
   1   4  -9    1.02    0.08
  -1  -4   9    1.06    0.06
   0   4  -9   44.62    0.50
   0   4  -9   44.47    0.53
   0  -4   9   44.26    0.52
  -1   4  -9    3.35    0.11
  -1   4  -9    3.25    0.10
   1  -4   9    3.21    0.09
  -2   4  -9   15.31    0.23
   2  -4   9   15.19    0.23
   2  -4   9   15.54    0.22
  -3   4  -9    3.42    0.12
   3  -4   9    3.51    0.10
   3  -4   9    3.22    0.11
  -4   4  -9   11.55    0.21
   4  -4   9   11.53    0.21
   4  -4   9   11.44    0.19
  -5   4  -9    0.03    0.06
   8   3  -9    3.18    0.15
  -8  -3   9    3.27    0.12
   7   3  -9    1.32    0.11
  -7  -3   9    1.26    0.09
   6   3  -9   10.03    0.19
  -6  -3   9   10.48    0.16
   5   3  -9    2.90    0.11
  -5  -3   9    2.74    0.09
  -5  -3   9    2.78    0.08
   4   3  -9   74.05    0.85
  -4  -3   9   74.55    0.82
  -4  -3   9   75.38    0.75
   3   3  -9    8.14    0.13
   3   3  -9    7.82    0.15
  -3  -3   9    8.19    0.14
   2   3  -9    0.13    0.04
   2   3  -9    0.19    0.04
  -2  -3   9    0.14    0.03
   1   3  -9    4.39    0.11
   1   3  -9    4.46    0.10
  -1  -3   9    4.58    0.10
   0   3  -9    7.38    0.13
   0   3  -9    7.37    0.14
   0  -3   9    7.27    0.13
  -1   3  -9    2.92    0.10
  -1   3  -9    2.94    0.10
   1  -3   9    3.08    0.09
  -2   3  -9   11.84    0.19
   2  -3   9   11.70    0.19
  -3   3  -9    1.00    0.07
   3  -3   9    1.13    0.08
  -4   3  -9    6.28    0.16
   4  -3   9    6.60    0.14
  -5   3  -9   19.13    0.31
   5  -3   9   18.63    0.28
   8   2  -9    2.97    0.15
  -8  -2   9    3.15    0.12
   7   2  -9    0.45    0.07
  -7  -2   9    0.40    0.06
   6   2  -9    0.53    0.07
  -6  -2   9    0.42    0.05
   5   2  -9   46.61    0.56
  -5  -2   9   47.23    0.50
   4   2  -9   15.70    0.23
   4   2  -9   16.08    0.21
  -4  -2   9   16.00    0.22
  -4  -2   9   15.91    0.20
   3   2  -9   12.26    0.19
   3   2  -9   12.71    0.18
  -3  -2   9   12.48    0.16
  -3  -2   9   12.29    0.18
   2   2  -9    0.69    0.05
   2   2  -9    0.72    0.05
  -2  -2   9    0.72    0.06
   1   2  -9   20.17    0.26
   1   2  -9   20.05    0.26
  -1  -2   9   20.22    0.27
   0   2  -9   12.12    0.18
   0   2  -9   12.40    0.18
   0  -2   9   12.32    0.19
  -1   2  -9    2.35    0.09
   1  -2   9    2.23    0.08
  -2   2  -9    4.15    0.12
   2  -2   9    4.21    0.11
  -3   2  -9   16.34    0.25
   3  -2   9   16.26    0.24
  -4   2  -9   -0.01    0.06
   4  -2   9    0.10    0.05
   5  -2   9    1.38    0.10
   8   1  -9    0.06    0.07
  -8  -1   9    0.02    0.06
   7   1  -9    1.13    0.09
  -7  -1   9    1.27    0.09
   6   1  -9    0.03    0.06
  -6  -1   9   -0.01    0.04
   5   1  -9    5.33    0.13
   5   1  -9    5.44    0.13
  -5  -1   9    5.40    0.11
   4   1  -9    0.10    0.04
   4   1  -9    0.00    0.04
  -4  -1   9    0.02    0.03
  -4  -1   9    0.01    0.04
   3   1  -9    0.93    0.07
   3   1  -9    1.09    0.07
  -3  -1   9    1.01    0.06
  -3  -1   9    1.12    0.07
   2   1  -9    0.09    0.04
  -2  -1   9    0.17    0.04
   1   1  -9    0.18    0.04
  -1  -1   9    0.28    0.04
   0   1  -9    0.60    0.05
   0  -1   9    0.83    0.07
  -1   1  -9    6.71    0.14
   1  -1   9    6.77    0.14
  -2   1  -9    0.05    0.05
   2  -1   9    0.11    0.04
  -3   1  -9    0.79    0.07
   3  -1   9    0.88    0.07
  -4   1  -9   10.76    0.21
   4  -1   9   10.53    0.20
   8   0  -9    0.31    0.08
   7   0  -9    4.02    0.14
  -7   0   9    4.16    0.12
   6   0  -9    1.42    0.10
  -6   0   9    1.26    0.09
   5   0  -9    1.15    0.08
   5   0  -9    1.07    0.09
  -5   0   9    1.12    0.08
   4   0  -9    5.53    0.12
  -4   0   9    5.50    0.11
   3   0  -9    0.26    0.05
  -3   0   9    0.26    0.04
  -3   0   9    0.27    0.04
   2   0  -9    3.32    0.10
  -2   0   9    3.35    0.09
  -2   0   9    3.26    0.08
   1   0  -9    1.24    0.08
  -1   0   9    1.30    0.07
   0   0  -9    5.66    0.13
   0   0   9    5.50    0.12
  -1   0  -9   60.85    0.68
   1   0   9   60.86    0.70
  -2   0  -9    0.04    0.05
   2   0   9    0.03    0.05
  -3   0  -9    1.21    0.08
   3   0   9    1.26    0.10
  -4   0  -9    9.28    0.20
   4   0   9    9.07    0.19
  -7   1   9    3.02    0.12
   6  -1  -9   10.99    0.20
  -6   1   9   11.26    0.18
   5  -1  -9    0.00    0.05
  -5   1   9    0.01    0.05
   4  -1  -9    1.06    0.09
  -4   1   9    1.06    0.08
   3  -1  -9    9.25    0.17
  -3   1   9    9.46    0.16
  -3   1   9    9.43    0.15
   2  -1  -9    0.07    0.04
  -2   1   9   -0.01    0.04
  -2   1   9    0.00    0.04
   1  -1  -9    0.03    0.04
  -1   1   9    0.02    0.04
   0  -1  -9   10.37    0.18
   0   1   9   10.50    0.18
  -1  -1  -9   17.47    0.26
   1   1   9   17.68    0.26
  -2  -1  -9    0.41    0.06
   2   1   9    0.41    0.06
  -3  -1  -9    3.60    0.13
   3   1   9    3.56    0.13
   7  -2  -9    2.78    0.16
  -7   2   9    2.99    0.13
   6  -2  -9    1.70    0.11
  -6   2   9    1.33    0.11
   5  -2  -9    1.95    0.11
  -5   2   9    1.79    0.10
   4  -2  -9    0.63    0.06
  -4   2   9    0.67    0.06
   3  -2  -9    8.38    0.17
  -3   2   9    8.66    0.15
   2  -2  -9    0.06    0.05
  -2   2   9    0.18    0.05
  -2   2   9    0.14    0.05
   1  -2  -9    1.73    0.10
  -1   2   9    1.78    0.09
  -1   2   9    1.64    0.09
   0  -2  -9    4.07    0.12
   0   2   9    3.99    0.12
  -1  -2  -9    2.04    0.11
   1   2   9    2.20    0.11
  -2  -2  -9    6.81    0.16
   2   2   9    6.79    0.17
   6  -3  -9    0.03    0.07
  -6   3   9   -0.07    0.06
   5  -3  -9    2.98    0.13
  -5   3   9    2.59    0.12
   4  -3  -9    0.08    0.06
  -4   3   9   -0.03    0.05
   3  -3  -9   11.70    0.21
  -3   3   9   11.80    0.19
   2  -3  -9    1.30    0.11
  -2   3   9    1.32    0.08
  -2   3   9    1.38    0.10
   1  -3  -9    8.80    0.18
  -1   3   9    8.55    0.17
  -1   3   9    8.58    0.16
   0  -3  -9    9.08    0.19
   0   3   9    9.02    0.18
  -1  -3  -9    0.08    0.07
   1   3   9    0.11    0.06
   4  -4  -9   10.51    0.22
  -4   4   9   10.75    0.19
   3  -4  -9    2.58    0.13
  -3   4   9    2.46    0.12
   2  -4  -9    4.94    0.15
  -2   4   9    4.63    0.14
   1  -4  -9    0.04    0.06
  -1   4   9   -0.05    0.06
  -1   4   9    0.02    0.06
   0   4   9   14.72    0.25
  -1 -10  10    0.04    0.06
   0 -10  10    0.02    0.05
   1 -10  10    6.36    0.16
   4   9 -10    0.64    0.10
  -4  -9  10    0.83    0.08
   3   9 -10    1.44    0.13
  -3  -9  10    1.59    0.10
   2   9 -10    3.04    0.14
  -2  -9  10    3.11    0.12
   1   9 -10    3.42    0.15
  -1  -9  10    3.75    0.12
   0   9 -10    0.33    0.08
   0  -9  10    0.27    0.06
  -1   9 -10    8.08    0.20
   1  -9  10    8.55    0.17
   2  -9  10    8.91    0.18
   5   8 -10    2.22    0.14
  -5  -8  10    2.26    0.11
   4   8 -10   10.27    0.22
  -4  -8  10   10.29    0.19
   3   8 -10    6.02    0.17
  -3  -8  10    6.04    0.14
   2   8 -10    2.69    0.13
  -2  -8  10    2.73    0.10
   1   8 -10    5.22    0.15
  -1  -8  10    4.91    0.13
   0   8 -10    0.30    0.07
   0  -8  10    0.19    0.05
  -1   8 -10   16.03    0.27
   1  -8  10   15.64    0.24
  -2   8 -10   16.42    0.26
  -2   8 -10   16.86    0.29
   2  -8  10   16.52    0.25
  -3   8 -10   13.13    0.24
   3  -8  10   13.41    0.27
   6   7 -10    5.52    0.17
  -6  -7  10    5.31    0.14
   5   7 -10    9.59    0.21
  -5  -7  10    9.61    0.18
   4   7 -10    0.12    0.07
  -4  -7  10    0.11    0.05
   3   7 -10    0.24    0.06
  -3  -7  10    0.27    0.05
   2   7 -10    6.28    0.16
  -2  -7  10    6.17    0.14
   1   7 -10   11.68    0.21
  -1  -7  10   11.72    0.19
   0   7 -10   12.01    0.22
   0  -7  10   11.91    0.20
  -1   7 -10    2.95    0.11
  -1   7 -10    3.13    0.13
   1  -7  10    3.11    0.10
  -2   7 -10    1.55    0.11
   2  -7  10    1.60    0.09
  -3   7 -10    0.15    0.07
   3  -7  10    0.11    0.05
   3  -7  10    0.16    0.07
  -7  -6  10    0.27    0.06
   6   6 -10    3.24    0.14
  -6  -6  10    2.94    0.11
   5   6 -10    1.77    0.12
  -5  -6  10    1.84    0.10
   4   6 -10    0.55    0.07
  -4  -6  10    0.55    0.06
   3   6 -10    5.75    0.15
  -3  -6  10    5.72    0.13
   2   6 -10    2.28    0.11
  -2  -6  10    2.22    0.09
   1   6 -10    3.05    0.12
  -1  -6  10    2.97    0.10
   0   6 -10    1.14    0.08
   0   6 -10    1.06    0.10
   0  -6  10    1.18    0.08
  -1   6 -10    3.17    0.11
  -1   6 -10    3.45    0.13
   1  -6  10    3.20    0.10
  -2   6 -10    0.73    0.07
   2  -6  10    0.76    0.06
  -3   6 -10    8.18    0.18
   3  -6  10    8.17    0.16
   3  -6  10    7.90    0.18
   4  -6  10    2.40    0.13
   4  -6  10    2.61    0.11
   7   5 -10    0.57    0.09
  -7  -5  10    0.59    0.06
   6   5 -10   -0.03    0.07
  -6  -5  10    0.07    0.05
  -6  -5  10    0.03    0.05
   5   5 -10    0.25    0.06
  -5  -5  10    0.31    0.05
   4   5 -10   -0.03    0.05
  -4  -5  10    0.03    0.04
   3   5 -10    1.13    0.09
  -3  -5  10    1.19    0.08
   2   5 -10    7.88    0.16
  -2  -5  10    8.13    0.15
   1   5 -10   16.25    0.22
   1   5 -10   16.03    0.25
  -1  -5  10   15.86    0.23
   0   5 -10    8.91    0.17
   0   5 -10    8.79    0.15
   0  -5  10    8.61    0.16
  -1   5 -10    1.16    0.09
  -1   5 -10    1.12    0.10
   1  -5  10    1.04    0.07
  -2   5 -10    0.35    0.06
   2  -5  10    0.45    0.05
  -3   5 -10   14.63    0.24
   3  -5  10   14.28    0.24
   3  -5  10   14.35    0.23
  -4   5 -10    4.99    0.16
   4  -5  10    4.86    0.13
   4  -5  10    4.81    0.15
   7   4 -10    4.49    0.16
  -7  -4  10    4.84    0.12
   6   4 -10    2.29    0.12
  -6  -4  10    2.50    0.09
   5   4 -10    2.83    0.12
  -5  -4  10    2.87    0.10
   4   4 -10   20.52    0.30
  -4  -4  10   20.47    0.28
   3   4 -10    0.25    0.06
  -3  -4  10    0.28    0.04
   2   4 -10   34.46    0.40
   2   4 -10   34.55    0.44
  -2  -4  10   35.01    0.42
   1   4 -10    0.02    0.05
   1   4 -10    0.02    0.04
  -1  -4  10    0.04    0.04
   0   4 -10    1.03    0.07
   0   4 -10    0.97    0.09
   0  -4  10    0.93    0.07
  -1   4 -10    6.93    0.15
  -1   4 -10    6.86    0.14
   1  -4  10    6.68    0.14
  -2   4 -10   19.26    0.27
   2  -4  10   18.90    0.27
  -3   4 -10    4.23    0.14
   3  -4  10    4.37    0.12
  -4   4 -10    0.06    0.06
   4  -4  10    0.10    0.05
   7   3 -10    0.59    0.08
  -7  -3  10    0.65    0.06
   6   3 -10    5.48    0.15
  -6  -3  10    5.55    0.12
   5   3 -10    2.58    0.11
  -5  -3  10    2.61    0.09
  -5  -3  10    2.72    0.09
   4   3 -10   35.54    0.45
  -4  -3  10   36.35    0.43
   3   3 -10    1.91    0.08
   3   3 -10    1.89    0.09
  -3  -3  10    1.83    0.08
   2   3 -10    1.52    0.09
   2   3 -10    1.53    0.08
  -2  -3  10    1.55    0.08
   1   3 -10   29.56    0.36
   1   3 -10   29.93    0.37
  -1  -3  10   29.10    0.37
   0   3 -10    0.13    0.05
   0   3 -10    0.13    0.05
   0  -3  10    0.14    0.04
  -1   3 -10   21.77    0.29
   1  -3  10   22.01    0.30
  -2   3 -10    1.06    0.08
   2  -3  10    1.25    0.08
  -3   3 -10   12.27    0.22
   3  -3  10   12.00    0.21
  -4   3 -10    6.18    0.17
   4  -3  10    6.13    0.15
   7   2 -10    4.49    0.15
  -7  -2  10    4.72    0.13
   6   2 -10    0.29    0.07
  -6  -2  10    0.27    0.05
   5   2 -10   19.38    0.28
  -5  -2  10   19.51    0.24
   4   2 -10   49.76    0.59
  -4  -2  10   49.62    0.57
   3   2 -10    5.19    0.12
   3   2 -10    5.22    0.12
  -3  -2  10    5.31    0.12
   2   2 -10   -0.03    0.04
  -2  -2  10    0.04    0.04
   1   2 -10    0.02    0.04
  -1  -2  10    0.09    0.04
   0   2 -10    0.53    0.06
   0  -2  10    0.65    0.05
  -1   2 -10    4.32    0.12
   1  -2  10    4.34    0.11
  -2   2 -10    0.42    0.06
   2  -2  10    0.42    0.06
  -3   2 -10    0.67    0.08
   3  -2  10    0.63    0.06
   4  -2  10    0.08    0.06
   7   1 -10    0.39    0.08
  -7  -1  10    0.42    0.06
   6   1 -10    4.32    0.14
  -6  -1  10    4.53    0.12
   5   1 -10    1.00    0.07
  -5  -1  10    0.99    0.06
   4   1 -10    0.88    0.06
  -4  -1  10    0.90    0.07
  -4  -1  10    0.85    0.07
   3   1 -10    0.54    0.05
  -3  -1  10    0.50    0.05
   2   1 -10    6.47    0.13
  -2  -1  10    6.66    0.13
   1   1 -10    2.29    0.09
  -1  -1  10    2.43    0.09
   0   1 -10    0.12    0.05
   0  -1  10    0.13    0.04
  -1   1 -10    2.99    0.11
   1  -1  10    2.90    0.10
  -2   1 -10    7.06    0.16
   2  -1  10    7.02    0.15
  -3   1 -10    0.22    0.07
   3  -1  10    0.14    0.05
  -7   0  10    1.42    0.11
  -6   0  10    7.18    0.15
   5   0 -10    5.19    0.13
  -5   0  10    5.23    0.12
   4   0 -10    2.07    0.10
  -4   0  10    2.21    0.09
   3   0 -10    0.29    0.05
  -3   0  10    0.25    0.05
   2   0 -10    0.20    0.05
  -2   0  10    0.28    0.05
   1   0 -10    2.02    0.10
  -1   0  10    2.03    0.09
   0   0 -10   25.00    0.33
   0   0  10   24.50    0.33
  -1   0 -10    0.06    0.05
   1   0  10    0.04    0.05
   2   0  10    5.22    0.14
   3   0  10    0.07    0.06
   6  -1 -10    0.75    0.08
  -6   1  10    0.69    0.07
   5  -1 -10    1.81    0.11
  -5   1  10    1.72    0.10
   4  -1 -10    0.95    0.08
  -4   1  10    1.01    0.07
   3  -1 -10    3.84    0.12
  -3   1  10    3.99    0.11
  -3   1  10    3.89    0.11
   2  -1 -10    3.06    0.11
  -2   1  10    3.25    0.11
   1  -1 -10    6.23    0.15
  -1   1  10    6.07    0.14
   0  -1 -10   56.52    0.65
   0   1  10   56.11    0.66
  -1  -1 -10    0.34    0.07
   1   1  10    0.39    0.07
  -2  -1 -10    0.78    0.08
   2   1  10    0.81    0.08
   6  -2 -10    0.22    0.07
  -6   2  10    0.08    0.06
   5  -2 -10    4.09    0.14
  -5   2  10    4.10    0.13
   4  -2 -10    0.10    0.06
  -4   2  10    0.20    0.06
   3  -2 -10    1.55    0.11
  -3   2  10    1.56    0.10
   2  -2 -10    2.43    0.12
  -2   2  10    2.71    0.11
   1  -2 -10    0.46    0.07
  -1   2  10    0.59    0.07
   0  -2 -10   27.83    0.38
   0   2  10   27.97    0.38
  -1  -2 -10    2.80    0.13
   1   2  10    2.64    0.13
  -5   3  10    1.12    0.09
   4  -3 -10    6.91    0.18
  -4   3  10    6.77    0.16
   3  -3 -10    2.48    0.13
  -3   3  10    2.16    0.12
   2  -3 -10    1.69    0.12
  -1   3  10    8.31    0.18
   0   3  10    0.84    0.08
   2   9 -11    0.10    0.08
  -2  -9  11    0.02    0.05
   1   9 -11    5.28    0.17
  -1  -9  11    5.13    0.14
   0   9 -11   -0.01    0.08
   0  -9  11    0.05    0.05
   1  -9  11    0.21    0.06
   4   8 -11    1.49    0.11
  -4  -8  11    1.54    0.10
   3   8 -11    2.00    0.13
  -3  -8  11    1.99    0.11
   2   8 -11   13.70    0.26
  -2  -8  11   14.45    0.23
   1   8 -11    3.96    0.15
  -1  -8  11    3.93    0.12
   0   8 -11   13.99    0.26
   0  -8  11   14.02    0.23
  -1   8 -11    0.72    0.09
   1  -8  11    0.72    0.07
  -2   8 -11   21.38    0.31
   2  -8  11   21.07    0.31
  -6  -7  11    4.57    0.14
   5   7 -11   12.83    0.25
  -5  -7  11   12.98    0.22
   4   7 -11   15.73    0.27
  -4  -7  11   15.49    0.25
   3   7 -11   -0.05    0.06
  -3  -7  11    0.05    0.05
   2   7 -11    0.40    0.07
  -2  -7  11    0.28    0.05
   1   7 -11    8.89    0.20
  -1  -7  11    9.10    0.17
   0   7 -11   11.60    0.22
   0  -7  11   11.71    0.20
  -1   7 -11    1.79    0.13
  -1   7 -11    1.97    0.11
   1  -7  11    1.98    0.10
  -2   7 -11   15.54    0.28
  -2   7 -11   15.36    0.25
   2  -7  11   15.93    0.25
   3  -7  11   -0.01    0.05
   6   6 -11    3.95    0.16
  -6  -6  11    3.94    0.13
   5   6 -11    0.54    0.08
  -5  -6  11    0.63    0.06
   4   6 -11    0.85    0.09
  -4  -6  11    0.89    0.07
   3   6 -11    0.02    0.06
  -3  -6  11    0.09    0.05
   2   6 -11   -0.06    0.06
  -2  -6  11    0.00    0.04
   1   6 -11    2.83    0.12
  -1  -6  11    2.71    0.10
   0   6 -11   20.78    0.31
   0   6 -11   20.29    0.28
   0  -6  11   20.15    0.29
  -1   6 -11    2.59    0.13
  -1   6 -11    2.42    0.11
   1  -6  11    2.37    0.10
  -2   6 -11    0.87    0.09
  -2   6 -11    0.85    0.08
   2  -6  11    0.77    0.06
  -3   6 -11    2.67    0.14
   3  -6  11    2.78    0.11
   6   5 -11    4.55    0.16
   5   5 -11    0.36    0.07
  -5  -5  11    0.45    0.06
   4   5 -11    7.66    0.17
  -4  -5  11    7.73    0.15
   3   5 -11    0.43    0.07
  -3  -5  11    0.31    0.05
   2   5 -11    0.53    0.07
  -2  -5  11    0.60    0.06
   1   5 -11   11.14    0.18
   1   5 -11   10.81    0.20
  -1  -5  11   10.43    0.18
   0   5 -11    4.74    0.13
   0   5 -11    4.67    0.14
   0  -5  11    4.79    0.12
  -1   5 -11    0.04    0.06
  -1   5 -11    0.14    0.06
   1  -5  11    0.10    0.05
  -2   5 -11    0.34    0.08
  -2   5 -11    0.33    0.07
   2  -5  11    0.40    0.06
  -3   5 -11    0.64    0.08
   3  -5  11    0.56    0.06
   6   4 -11    2.67    0.13
   5   4 -11    7.43    0.17
  -5  -4  11    7.18    0.15
   4   4 -11    0.81    0.07
  -4  -4  11    0.94    0.08
   3   4 -11   -0.03    0.06
  -3  -4  11    0.12    0.04
   2   4 -11    3.20    0.12
   2   4 -11    3.08    0.10
  -2  -4  11    3.09    0.10
   1   4 -11    7.00    0.14
   1   4 -11    6.96    0.15
  -1  -4  11    7.02    0.14
   0   4 -11    3.49    0.12
   0   4 -11    3.50    0.12
   0  -4  11    3.56    0.11
  -1   4 -11    4.15    0.13
   1  -4  11    4.14    0.12
  -2   4 -11    2.97    0.13
   2  -4  11    2.97    0.11
  -3   4 -11    7.96    0.19
   3  -4  11    8.05    0.17
   7   3 -11    1.61    0.13
  -7  -3  11    1.84    0.10
   6   3 -11    3.87    0.14
   5   3 -11    7.02    0.17
   4   3 -11    1.54    0.10
  -4  -3  11    1.58    0.09
   3   3 -11   10.54    0.19
  -3  -3  11   10.29    0.18
   2   3 -11    0.08    0.05
   2   3 -11    0.06    0.06
  -2  -3  11    0.05    0.04
   1   3 -11    6.33    0.14
  -1  -3  11    6.43    0.14
   0   3 -11    0.04    0.05
   0  -3  11    0.01    0.04
  -1   3 -11    8.76    0.17
   1  -3  11    8.32    0.17
  -2   3 -11   11.32    0.21
   2  -3  11   11.35    0.20
   3  -3  11    1.37    0.10
   7   2 -11    3.06    0.15
  -7  -2  11    3.08    0.12
   6   2 -11    7.14    0.17
  -6  -2  11    7.30    0.15
   5   2 -11   27.68    0.38
  -4  -2  11    0.05    0.04
   3   2 -11    0.54    0.06
  -3  -2  11    0.69    0.06
   2   2 -11    1.38    0.09
  -2  -2  11    1.31    0.08
   1   2 -11    5.79    0.14
  -1  -2  11    6.01    0.14
   0   2 -11    0.58    0.07
   0  -2  11    0.67    0.06
  -1   2 -11   12.52    0.21
   1  -2  11   12.29    0.21
  -2   2 -11    0.73    0.08
   2  -2  11    0.71    0.07
  -7  -1  11    0.32    0.06
  -6  -1  11    0.15    0.06
   4   1 -11    0.40    0.06
   3   1 -11    1.76    0.10
  -3  -1  11    1.77    0.09
   2   1 -11    1.63    0.10
  -2  -1  11    1.66    0.09
   1   1 -11    2.48    0.11
  -1  -1  11    2.51    0.10
   0   1 -11    0.68    0.07
   0  -1  11    0.62    0.06
  -1   1 -11    1.91    0.11
   1  -1  11    2.12    0.10
  -2   1 -11    2.62    0.14
   2  -1  11    2.27    0.11
  -6   0  11    0.21    0.06
   5   0 -11    0.54    0.07
   4   0 -11    0.71    0.07
   3   0 -11    0.15    0.06
  -3   0  11    0.21    0.05
   2   0 -11    2.02    0.11
  -2   0  11    2.28    0.10
   1   0 -11    0.06    0.06
  -1   0  11    0.08    0.05
   0   0  11    4.40    0.13
  -1   0 -11   15.44    0.26
   1   0  11   15.72    0.25
  -6   1  11    4.88    0.14
   5  -1 -11    5.47    0.16
  -5   1  11    5.21    0.14
   4  -1 -11    4.96    0.15
   3  -1 -11    4.24    0.14
   2  -1 -11    7.88    0.18
  -2   1  11    8.26    0.17
   1  -1 -11    0.72    0.08
  -1   1  11    0.90    0.07
   0  -1 -11    9.79    0.20
   0   1  11    9.29    0.19
  -5   2  11    0.17    0.07
  -2   2  11   24.46    0.34
  -1   2  11   38.50    0.49
   2   8 -12    0.20    0.08
   1   8 -12    1.56    0.14
  -1  -8  12    1.68    0.11
   4   7 -12    2.41    0.14
  -4  -7  12    2.47    0.12
   3   7 -12    1.68    0.13
  -3  -7  12    1.84    0.10
   2   7 -12   21.73    0.34
  -2  -7  12   21.50    0.31
   1   7 -12    1.74    0.13
  -1  -7  12    1.63    0.10
   0   7 -12    2.65    0.14
   0  -7  12    2.58    0.11
  -1   7 -12   22.57    0.35
  -1   7 -12   22.91    0.33
   1  -7  12   22.48    0.33
   5   6 -12    0.52    0.08
  -5  -6  12    0.55    0.07
   4   6 -12   -0.13    0.07
  -4  -6  12    0.11    0.05
   3   6 -12    0.91    0.09
  -3  -6  12    0.75    0.07
   2   6 -12   13.00    0.24
  -2  -6  12   12.58    0.22
   1   6 -12    6.88    0.17
  -1  -6  12    6.76    0.15
   0   6 -12    0.06    0.07
   0   6 -12    0.02    0.06
   0  -6  12    0.01    0.05
  -1   6 -12   15.70    0.27
  -1   6 -12   15.83    0.25
   1  -6  12   15.50    0.25
  -2   6 -12    1.58    0.14
   5   5 -12   -0.04    0.07
  -5  -5  12    0.04    0.05
   4   5 -12    5.33    0.16
  -4  -5  12    5.22    0.14
   3   5 -12   -0.13    0.06
  -3  -5  12    0.04    0.05
   2   5 -12    2.41    0.12
  -2  -5  12    2.31    0.10
   1   5 -12   14.87    0.25
  -1  -5  12   14.07    0.23
   0   5 -12    0.05    0.07
   0   5 -12    0.04    0.06
   0  -5  12    0.05    0.05
  -1   5 -12   11.02    0.21
   1  -5  12   10.59    0.20
   6   4 -12    2.77    0.14
   5   4 -12    0.45    0.08
  -5  -4  12    0.45    0.06
   4   4 -12   17.31    0.27
  -4  -4  12   16.67    0.25
   3   4 -12    0.51    0.07
  -3  -4  12    0.46    0.06
   2   4 -12    0.88    0.09
  -2  -4  12    0.93    0.07
   1   4 -12    2.20    0.11
  -1  -4  12    2.31    0.10
   0   4 -12    1.28    0.10
   0  -4  12    1.23    0.09
  -1   4 -12    1.59    0.12
   1  -4  12    1.50    0.10
   6   3 -12    0.34    0.08
   5   3 -12   -0.04    0.07
  -4  -3  12    1.41    0.10
  -3  -3  12    2.14    0.10
   2   3 -12    2.68    0.11
  -2  -3  12    2.55    0.11
   1   3 -12   13.84    0.22
  -1  -3  12   13.63    0.23
   0   3 -12    0.98    0.08
   0  -3  12    1.12    0.09
  -1   3 -12    1.32    0.09
   1  -3  12    1.27    0.10
  -4  -2  12    1.11    0.10
   3   2 -12    0.97    0.08
  -3  -2  12    0.84    0.07
   2   2 -12   12.45    0.21
  -2  -2  12   12.11    0.21
   1   2 -12   -0.01    0.06
  -1  -2  12    0.06    0.05
   0   2 -12    0.56    0.08
   0  -2  12    0.51    0.07
   4   1 -12    2.37    0.12
   3   1 -12    0.84    0.08
  -3  -1  12    1.14    0.09
   2   1 -12    6.95    0.16
  -2  -1  12    6.67    0.16
   1   1 -12    2.00    0.12
  -1  -1  12    2.31    0.11
   0   1 -12    9.74    0.20
   0  -1  12    9.87    0.20
   4   0 -12    1.38    0.10
   3   0 -12    0.03    0.07
   2   0 -12    1.56    0.12
  -2   0  12    1.50    0.11
  -1   0  12    1.93    0.12
  -2   1  12    0.17    0.06
   3   6 -13    7.10    0.19
   2   6 -13    0.90    0.10
   1   6 -13    0.19    0.08
  -5  -5  13    0.75    0.08
   4   5 -13    1.77    0.13
  -4  -5  13    1.91    0.11
   3   5 -13   10.41    0.22
  -3  -5  13   10.26    0.20
  -2  -5  13    0.02    0.05
   0   5 -13   14.14    0.24
  -4  -4  13    0.36    0.06
  -3  -4  13   -0.02    0.05
  -2  -4  13    1.73    0.11
   1   4 -13    0.28    0.07
  -1  -4  13    0.23    0.06
   0   4 -13    0.18    0.07
  -4  -3  13    0.33    0.06
  -3  -3  13    0.78    0.07
   2   3 -13    8.08    0.18
  -2  -3  13    8.27    0.18
   1   3 -13   14.81    0.25
   3   2 -13    0.91    0.08
  -3  -2  13    0.88    0.08
   2   2 -13   13.16    0.23
  -2  -2  13   13.08    0.23
  -3  -1  13    7.09    0.17
   0   0   0    0.00    0.00
;
_shelx_hkl_checksum              9421
loop_
_space_group_symop_operation_xyz
'x, y, z'
'-x, -y, -z'
loop_
_atom_site_label
_atom_site_type_symbol
_atom_site_fract_x
_atom_site_fract_y
_atom_site_fract_z
_atom_site_U_iso_or_equiv
_atom_site_adp_type
_atom_site_occupancy
_atom_site_site_symmetry_order
_atom_site_calc_flag
_atom_site_refinement_flags_posn
_atom_site_refinement_flags_adp
_atom_site_refinement_flags_occupancy
_atom_site_disorder_assembly
_atom_site_disorder_group
O1 O 0.10803(8) 0.39012(8) 0.80891(7) 0.01306(13) Uani 1 1 d . . . . .
O2 O -0.23263(9) 0.14960(8) 0.55807(7) 0.01378(14) Uani 1 1 d . . . . .
C3 C 0.30349(11) 0.44332(10) 0.90405(9) 0.01024(15) Uani 1 1 d . . . . .
C4 C 0.42036(11) 0.57609(10) 0.88943(9) 0.01008(15) Uani 1 1 d . . . . .
C5 C 0.38305(11) 0.37027(10) 1.01117(9) 0.01065(15) Uani 1 1 d . . . . .
H5A H 0.3015 0.2818 1.0167 0.013 Uiso 1 1 calc R U . . .
C6 C -0.01991(12) 0.26637(11) 0.82961(9) 0.01255(16) Uani 1 1 d . . . . .
H6A H -0.0289 0.3136 0.9370 0.015 Uiso 1 1 calc R U . . .
H6B H 0.0339 0.1521 0.8060 0.015 Uiso 1 1 calc R U . . .
C7 C 0.28174(13) 0.50578(11) 0.60219(9) 0.01489(16) Uani 1 1 d . . . . .
H7A H 0.2329 0.5572 0.5285 0.022 Uiso 1 1 calc R U . . .
H7B H 0.3977 0.4471 0.5802 0.022 Uiso 1 1 calc R U . . .
H7C H 0.1773 0.4195 0.5937 0.022 Uiso 1 1 calc R U . . .
C9 C 0.34172(12) 0.65620(10) 0.76980(9) 0.01131(15) Uani 1 1 d . . . . .
C10 C 0.15695(13) 0.75439(11) 0.80268(10) 0.01594(17) Uani 1 1 d . . . . .
H10A H 0.1102 0.8034 0.7268 0.024 Uiso 1 1 calc R U . . .
H10B H 0.0507 0.6708 0.7959 0.024 Uiso 1 1 calc R U . . .
H10C H 0.1948 0.8501 0.9058 0.024 Uiso 1 1 calc R U . . .
C11 C 0.50308(13) 0.79339(12) 0.77473(10) 0.01644(17) Uani 1 1 d . . . . .
H11A H 0.4484 0.8402 0.6986 0.025 Uiso 1 1 calc R U . . .
H11B H 0.5426 0.8902 0.8772 0.025 Uiso 1 1 calc R U . . .
H11C H 0.6190 0.7354 0.7514 0.025 Uiso 1 1 calc R U . . .
C12 C -0.24152(13) -0.04048(11) 0.50783(10) 0.01688(17) Uani 1 1 d . . . . .
H12A H -0.2450 -0.0954 0.3988 0.025 Uiso 1 1 calc R U . . .
H12B H -0.1243 -0.0681 0.5679 0.025 Uiso 1 1 calc R U . . .
H12C H -0.3613 -0.0861 0.5229 0.025 Uiso 1 1 calc R U . . .
C8 C -0.22696(12) 0.24126(11) 0.71863(9) 0.01396(16) Uani 1 1 d . . . . .
H8A H -0.3223 0.1743 0.7429 0.017 Uiso 1 1 calc R U . . .
H8B H -0.2707 0.3586 0.7362 0.017 Uiso 1 1 calc R U . . .
loop_
_atom_site_aniso_label
_atom_site_aniso_U_11
_atom_site_aniso_U_22
_atom_site_aniso_U_33
_atom_site_aniso_U_23
_atom_site_aniso_U_13
_atom_site_aniso_U_12
O1 0.0088(3) 0.0162(3) 0.0138(3) 0.0090(2) -0.0022(2) -0.0028(2)
O2 0.0150(3) 0.0132(3) 0.0113(3) 0.0049(2) 0.0005(2) -0.0002(2)
C3 0.0086(3) 0.0116(3) 0.0089(3) 0.0038(3) 0.0004(3) 0.0003(3)
C4 0.0109(3) 0.0106(3) 0.0085(3) 0.0044(3) 0.0015(3) 0.0014(2)
C5 0.0108(3) 0.0110(3) 0.0101(3) 0.0050(3) 0.0015(3) 0.0000(3)
C6 0.0104(3) 0.0152(4) 0.0116(3) 0.0063(3) 0.0010(3) -0.0018(3)
C7 0.0179(4) 0.0159(4) 0.0096(3) 0.0055(3) 0.0009(3) 0.0004(3)
C9 0.0121(3) 0.0120(3) 0.0098(3) 0.0061(3) 0.0003(3) 0.0006(3)
C10 0.0164(4) 0.0151(4) 0.0170(4) 0.0084(3) 0.0023(3) 0.0047(3)
C11 0.0172(4) 0.0175(4) 0.0156(4) 0.0107(3) -0.0002(3) -0.0026(3)
C12 0.0147(4) 0.0133(4) 0.0186(4) 0.0039(3) 0.0019(3) 0.0005(3)
C8 0.0095(3) 0.0168(4) 0.0127(3) 0.0041(3) 0.0014(3) 0.0005(3)
loop_
_atom_type_symbol
_atom_type_description
_atom_type_scat_dispersion_real
_atom_type_scat_dispersion_imag
_atom_type_scat_source
C C 0.0033 0.0016 'International Tables Vol C Tables 4.2.6.8 and 6.1.1.4'
H H 0.0000 0.0000 'International Tables Vol C Tables 4.2.6.8 and 6.1.1.4'
O O 0.0106 0.0060 'International Tables Vol C Tables 4.2.6.8 and 6.1.1.4'
loop_
_geom_angle_atom_site_label_1
_geom_angle_atom_site_label_2
_geom_angle_atom_site_label_3
_geom_angle
_geom_angle_site_symmetry_1
_geom_angle_site_symmetry_3
_geom_angle_publ_flag
C3 O1 C6 118.43(6) . . ?
C8 O2 C12 113.01(6) . . ?
O1 C3 C5 122.04(7) . . ?
O1 C3 C4 117.03(6) . . ?
C5 C3 C4 120.93(7) . . ?
C5 C4 C3 115.95(7) 2_667 . ?
C5 C4 C9 121.23(7) 2_667 . ?
C3 C4 C9 122.81(7) . . ?
C3 C5 C4 123.12(7) . 2_667 ?
O1 C6 C8 107.25(6) . . ?
C4 C9 C11 111.97(6) . . ?
C4 C9 C10 110.77(6) . . ?
C11 C9 C10 107.36(7) . . ?
C4 C9 C7 110.14(6) . . ?
C11 C9 C7 107.16(6) . . ?
C10 C9 C7 109.32(6) . . ?
O2 C8 C6 113.88(6) . . ?
loop_
_geom_bond_atom_site_label_1
_geom_bond_atom_site_label_2
_geom_bond_distance
_geom_bond_site_symmetry_2
_geom_bond_publ_flag
O1 C3 1.3804(9) . ?
O1 C6 1.4269(9) . ?
O2 C8 1.4191(10) . ?
O2 C12 1.4239(10) . ?
C3 C5 1.3967(10) . ?
C3 C4 1.4052(10) . ?
C4 C5 1.3999(10) 2_667 ?
C4 C9 1.5369(10) . ?
C5 C4 1.3999(10) 2_667 ?
C6 C8 1.5156(11) . ?
C7 C9 1.5438(11) . ?
C9 C11 1.5372(11) . ?
C9 C10 1.5419(11) . ?
