#------------------------------------------------------------------------------
#$Date: 2020-09-26 01:56:06 +0300 (Sat, 26 Sep 2020) $
#$Revision: 256772 $
#$URL: file:///home/coder/svn-repositories/cod/cif/1/55/92/1559201.cif $
#------------------------------------------------------------------------------
#
# This file is available in the Crystallography Open Database (COD),
# http://www.crystallography.net/
#
# All data on this site have been placed in the public domain by the
# contributors.
#
data_1559201
loop_
_publ_author_name
'Fang, Zhuangjie'
'Jiang, Xiaodong'
'Zhang, Qingbo'
'Zhang, Liping'
'Zhang, Wenjun'
'Yang, Chunfang'
'Zhang, Haibo'
'Zhu, Yiguang'
'Zhang, Changsheng'
_publ_section_title
;
 <i>S</i>-Bridged Thioether and Structure-Diversified Angucyclinone
 Derivatives from the South China Sea-Derived <i>Micromonospora
 echinospora</i> SCSIO 04089.
;
_journal_name_full               'Journal of natural products'
_journal_paper_doi               10.1021/acs.jnatprod.0c00719
_journal_year                    2020
_chemical_formula_moiety         'C18 H14 O5'
_chemical_formula_sum            'C18 H14 O5'
_chemical_formula_weight         310.29
_space_group_crystal_system      triclinic
_space_group_IT_number           2
_space_group_name_Hall           '-P 1'
_space_group_name_H-M_alt        'P -1'
_atom_sites_solution_hydrogens   mixed
_atom_sites_solution_primary     dual
_audit_creation_date             2020-04-16
_audit_creation_method
;
Olex2 1.2
(compiled 2018.05.29 svn.r3508 for OlexSys, GUI svn.r5506)
;
_cell_angle_alpha                80.099(3)
_cell_angle_beta                 84.102(2)
_cell_angle_gamma                82.308(3)
_cell_formula_units_Z            2
_cell_length_a                   5.0126(2)
_cell_length_b                   9.6467(4)
_cell_length_c                   14.7488(3)
_cell_measurement_reflns_used    3527
_cell_measurement_temperature    100.0(3)
_cell_measurement_theta_max      73.4260
_cell_measurement_theta_min      5.1640
_cell_volume                     693.91(4)
_computing_cell_refinement       'CrysAlisPro 1.171.39.33c (Rigaku OD, 2017)'
_computing_data_collection       'CrysAlisPro 1.171.39.33c (Rigaku OD, 2017)'
_computing_data_reduction        'CrysAlisPro 1.171.39.33c (Rigaku OD, 2017)'
_computing_molecular_graphics    'Olex2 (Dolomanov et al., 2009)'
_computing_publication_material  'Olex2 (Dolomanov et al., 2009)'
_computing_structure_refinement  'ShelXL (Sheldrick, 2015)'
_computing_structure_solution    'ShelXT (Sheldrick, 2015)'
_diffrn_ambient_environment      N~2~
_diffrn_ambient_temperature      100.0(3)
_diffrn_detector                 'CCD plate'
_diffrn_measured_fraction_theta_full 0.990
_diffrn_measured_fraction_theta_max 0.959
_diffrn_measurement_details
;
List of Runs (angles in degrees, time in seconds):

  # Type    Start    End  Width  t~exp~   \w     \q     \k     \f   Frames
--------------------------------------------------------------------------
  1  \w    -40.00  15.00   0.50    1.50    --    0.00 -55.00-138.00  110
  2  \w     20.00  49.00   0.50    1.50    --    0.00  55.00   4.00   58
  3  \w     35.00  76.00   0.50    9.00    --   94.60 -55.00-138.00   82
  4  \w     72.00 169.00   0.50    9.00    --   94.60  55.00   4.00  194
  5  \w    -33.00  15.00   0.50    1.50    --    0.00 -82.00 -30.00   96
  6  \w    -26.00  30.00   0.50    1.50    --    0.00 -82.00   0.00  112
  7  \w    -30.00  31.00   0.50    1.50    --    0.00 -82.00-180.00  122
  8  \w     78.00 111.00   0.50    9.00    --   94.60 -30.00  60.00   66
  9  \w      5.00 123.00   0.50    9.00    --   94.60 -77.00-150.00  236
 10  \w     11.00 119.00   0.50    9.00    --   94.60 -82.00  60.00  216
 11  \w     81.00 107.00   0.50    9.00    --   94.60 -82.00 -60.00   52
 12  \w    120.00 167.00   0.50    9.00    --   94.60  15.00 150.00   94
 13  \w     71.00 173.00   0.50    9.00    --   94.60  61.00  60.00  204
 14  \w     87.00 178.00   0.50    9.00    --   94.60  82.00 -90.00  182
 15  \w     87.00 113.00   0.50    9.00    --   94.60  45.00  30.00   52
 16  \w    142.00 168.00   0.50    9.00    --   94.60  45.00  30.00   52
 17  \w     47.00 126.00   0.50    9.00    --   94.60 -82.00-180.00  158
 18  \w     11.00 104.00   0.50    9.00    --   94.60 -82.00   0.00  186
 19  \w     93.00 119.00   0.50    9.00    --   94.60  15.00 150.00   52
 20  \w     36.00  61.00   0.50    9.00    --   94.60 -82.00 -60.00   50
 21  \w     32.00  58.00   0.50    9.00    --   94.60 -82.00-120.00   52
 22  \w     89.00 114.00   0.50    9.00    --   94.60 -82.00-120.00   50
 23  \w      6.00  59.00   0.50    9.00    --   94.60 -30.00  60.00  106
 24  \w     77.00 102.00   0.50    9.00    --   94.60 -82.00 -90.00   50
 25  \w     23.00  97.00   0.50    9.00    --   94.60 -61.00  60.00  148
;
_diffrn_measurement_device       'four-circle diffractometer'
_diffrn_measurement_device_type  'XtaLAB AFC12 (RINC): Kappa single'
_diffrn_measurement_method       '\w scans'
_diffrn_orient_matrix_type
'CrysAlisPro convention (1999,Acta A55,543-557)'
_diffrn_orient_matrix_UB_11      0.0269712000
_diffrn_orient_matrix_UB_12      -0.1489813000
_diffrn_orient_matrix_UB_13      -0.0268524000
_diffrn_orient_matrix_UB_21      0.2257228000
_diffrn_orient_matrix_UB_22      -0.0502677000
_diffrn_orient_matrix_UB_23      0.0657730000
_diffrn_orient_matrix_UB_31      -0.2124777000
_diffrn_orient_matrix_UB_32      -0.0439635000
_diffrn_orient_matrix_UB_33      0.0791913000
_diffrn_radiation_monochromator  mirror
_diffrn_radiation_probe          x-ray
_diffrn_radiation_type           CuK\a
_diffrn_radiation_wavelength     1.54184
_diffrn_reflns_av_R_equivalents  0.0381
_diffrn_reflns_av_unetI/netI     0.0444
_diffrn_reflns_Laue_measured_fraction_full 0.990
_diffrn_reflns_Laue_measured_fraction_max 0.959
_diffrn_reflns_limit_h_max       6
_diffrn_reflns_limit_h_min       -6
_diffrn_reflns_limit_k_max       11
_diffrn_reflns_limit_k_min       -11
_diffrn_reflns_limit_l_max       18
_diffrn_reflns_limit_l_min       -16
_diffrn_reflns_number            7210
_diffrn_reflns_point_group_measured_fraction_full 0.990
_diffrn_reflns_point_group_measured_fraction_max 0.959
_diffrn_reflns_theta_full        67.684
_diffrn_reflns_theta_max         73.744
_diffrn_reflns_theta_min         4.686
_diffrn_source                   'Rotating-anode X-ray tube'
_diffrn_source_type              'Rigaku (Cu) X-ray Source'
_exptl_absorpt_coefficient_mu    0.907
_exptl_absorpt_correction_T_max  1.00000
_exptl_absorpt_correction_T_min  0.74911
_exptl_absorpt_correction_type   multi-scan
_exptl_absorpt_process_details
;
CrysAlisPro 1.171.39.33c (Rigaku Oxford Diffraction, 2017)
Empirical absorption correction using spherical harmonics,
 implemented in SCALE3 ABSPACK scaling algorithm.
;
_exptl_crystal_colour            'clear brownish red'
_exptl_crystal_colour_lustre     clear
_exptl_crystal_colour_modifier   brownish
_exptl_crystal_colour_primary    red
_exptl_crystal_density_diffrn    1.485
_exptl_crystal_description       block
_exptl_crystal_F_000             324
_exptl_crystal_size_max          0.1
_exptl_crystal_size_mid          0.05
_exptl_crystal_size_min          0.05
_refine_diff_density_max         0.607
_refine_diff_density_min         -0.241
_refine_diff_density_rms         0.067
_refine_ls_extinction_method     none
_refine_ls_goodness_of_fit_ref   1.045
_refine_ls_hydrogen_treatment    mixed
_refine_ls_matrix_type           full
_refine_ls_number_parameters     215
_refine_ls_number_reflns         2691
_refine_ls_number_restraints     0
_refine_ls_restrained_S_all      1.045
_refine_ls_R_factor_all          0.0664
_refine_ls_R_factor_gt           0.0595
_refine_ls_shift/su_max          0.000
_refine_ls_shift/su_mean         0.000
_refine_ls_structure_factor_coef Fsqd
_refine_ls_weighting_details
'w=1/[\s^2^(Fo^2^)+(0.1035P)^2^+0.1921P] where P=(Fo^2^+2Fc^2^)/3'
_refine_ls_weighting_scheme      calc
_refine_ls_wR_factor_gt          0.1653
_refine_ls_wR_factor_ref         0.1711
_reflns_Friedel_coverage         0.000
_reflns_number_gt                2287
_reflns_number_total             2691
_reflns_threshold_expression     'I > 2\s(I)'
_cod_data_source_file            np0c00719_si_007.cif
_cod_data_source_block           fangzhuangjie_29t-4_collect
_cod_database_code               1559201
_shelx_shelxl_version_number     2018/1
_chemical_oxdiff_formula         'C36 H28 O10 '
_shelx_space_group_comment
;
The symmetry employed for this shelxl refinement is uniquely defined
by the following loop, which should always be used as a source of
symmetry information in preference to the above space-group names.
They are only intended as comments.
;
_reflns_odcompleteness_completeness 99.15
_reflns_odcompleteness_iscentric 1
_reflns_odcompleteness_theta     66.97
_olex2_refinement_description
;
1. Fixed Uiso
 At 1.2 times of:
  All C(H) groups, All C(H,H) groups
 At 1.5 times of:
  All C(H,H,H) groups, All O(H) groups
2.a Secondary CH2 refined with riding coordinates:
 C22(H22A,H22B)
2.b Aromatic/amide H refined with riding coordinates:
 C5(H5), C11(H11), C13(H13), C12(H12)
2.c Idealised Me refined as rotating group:
 C18(H18A,H18B,H18C), C23(H23A,H23B,H23C)
2.d Idealised tetrahedral OH refined as rotating group:
 O15(H15)
;
_shelx_res_file
;
TITL fangzhuangjie_29t-4_collect_a.res in P-1
    fangzhuangjie_29t-4_collect.res
    created by SHELXL-2018/1 at 09:36:53 on 16-Apr-2020
REM Old TITL fangzhuangjie_29T-4_collect in P-1
REM SHELXT solution in P-1
REM R1 0.147, Rweak 0.003, Alpha 0.037, Orientation as input
REM Formula found by SHELXT: C18 O5
CELL 1.54184 5.0126 9.6467 14.7488 80.099 84.102 82.308
ZERR 2 0.0002 0.0004 0.0003 0.003 0.002 0.003
LATT 1
SFAC C H O
UNIT 36 28 10

L.S. 4
PLAN  5
BOND $H
LIST 6
MORE -1
CONF
fmap 2
ACTA
REM <olex2.extras>
REM <HklSrc "%.\\fangzhuangjie_29T-4_collect.hkl">
REM </olex2.extras>

WGHT    0.103500    0.192100
FVAR       0.51798
O21   3    0.944365    0.459281    0.407908    11.00000    0.03017    0.04231 =
         0.02469   -0.00141   -0.00768   -0.00514
O20   3    0.612595    0.644368    0.482574    11.00000    0.03252    0.04306 =
         0.02158   -0.00366   -0.00852   -0.00254
O19   3    0.440380    0.593868    0.094015    11.00000    0.03949    0.04083 =
         0.02653   -0.00419   -0.01049   -0.01043
O15   3    1.298154    0.277986    0.333471    11.00000    0.03435    0.04105 =
         0.03560   -0.00497   -0.00814   -0.00130
AFIX 147
H15   2    1.232245    0.323582    0.374081    11.00000   -1.50000
AFIX   0
O17   3   -0.092213    0.773891    0.131003    11.00000    0.03117    0.04826 =
         0.03405   -0.00035   -0.00957   -0.01280
C4    1    0.495407    0.670504    0.402074    11.00000    0.02789    0.03509 =
         0.02129    0.00197   -0.00646   -0.01063
C8    1    0.463846    0.636852    0.244998    11.00000    0.02653    0.03159 =
         0.02288   -0.00004   -0.00425   -0.01216
C2    1    0.826685    0.489641    0.334679    11.00000    0.02795    0.03329 =
         0.02338    0.00281   -0.00422   -0.01240
C3    1    0.591653    0.597644    0.328143    11.00000    0.02638    0.03306 =
         0.02288    0.00054   -0.00393   -0.01085
C9    1    0.558023    0.563226    0.165061    11.00000    0.03144    0.03329 =
         0.02325   -0.00089   -0.00419   -0.01446
C1    1    0.927164    0.418972    0.255505    11.00000    0.03081    0.03217 =
         0.02589   -0.00111   -0.00237   -0.01251
C5    1    0.274684    0.775118    0.393258    11.00000    0.02722    0.03546 =
         0.02491   -0.00134   -0.00321   -0.00693
AFIX  43
H5    2    0.209098    0.819365    0.443690    11.00000   -1.20000
AFIX   0
C10   1    0.795914    0.453866    0.172204    11.00000    0.03132    0.03050 =
         0.02600   -0.00165   -0.00251   -0.01357
C16   1    0.130166    0.796914    0.143633    11.00000    0.02717    0.03454 =
         0.02936   -0.00221   -0.00679   -0.00568
C7    1    0.250021    0.745084    0.235817    11.00000    0.02671    0.03196 =
         0.02520    0.00021   -0.00507   -0.01109
C6    1    0.150487    0.814982    0.311718    11.00000    0.02693    0.03139 =
         0.02707    0.00083   -0.00370   -0.01064
C14   1    1.156609    0.317973    0.258291    11.00000    0.03184    0.03076 =
         0.03247    0.00125   -0.00442   -0.01215
C11   1    0.889053    0.389358    0.096255    11.00000    0.03885    0.03530 =
         0.02735   -0.00342   -0.00347   -0.01477
AFIX  43
H11   2    0.798764    0.411764    0.042663    11.00000   -1.20000
AFIX   0
C22   1   -0.083385    0.931573    0.302122    11.00000    0.02720    0.03486 =
         0.03041    0.00073   -0.00549   -0.00708
AFIX  23
H22A  2   -0.237251    0.892278    0.286101    11.00000   -1.20000
H22B  2   -0.035162    1.003702    0.250852    11.00000   -1.20000
AFIX   0
C13   1    1.250151    0.254909    0.180676    11.00000    0.03516    0.02926 =
         0.04184   -0.00461    0.00026   -0.00814
AFIX  43
H13   2    1.402428    0.188135    0.182914    11.00000   -1.20000
AFIX   0
C12   1    1.118191    0.290971    0.100615    11.00000    0.04212    0.03403 =
         0.03405   -0.00680    0.00196   -0.01157
AFIX  43
H12   2    1.183489    0.248955    0.049231    11.00000   -1.20000
AFIX   0
C18   1    0.288514    0.895180    0.073830    11.00000    0.03380    0.04057 =
         0.02897    0.00376   -0.00756   -0.01003
AFIX 137
H18A  2    0.241996    0.891372    0.012841    11.00000   -1.50000
H18B  2    0.478334    0.866217    0.077834    11.00000   -1.50000
H18C  2    0.245743    0.990339    0.086497    11.00000   -1.50000
AFIX   0
C23   1   -0.171552    1.003269    0.386584    11.00000    0.03631    0.04099 =
         0.03934   -0.00623   -0.00738   -0.00017
AFIX 137
H23A  2   -0.320373    1.075128    0.373020    11.00000   -1.50000
H23B  2   -0.023520    1.045773    0.402271    11.00000   -1.50000
H23C  2   -0.226249    0.934027    0.437619    11.00000   -1.50000
AFIX   0
H20   2    0.753240    0.572435    0.476327    11.00000    0.09145
HKLF 4




REM  fangzhuangjie_29t-4_collect_a.res in P-1
REM R1 =  0.0595 for    2287 Fo > 4sig(Fo)  and  0.0664 for all    2691 data
REM    215 parameters refined using      0 restraints

END

WGHT      0.1035      0.1922

REM Highest difference peak  0.607,  deepest hole -0.241,  1-sigma level  0.067
Q1    1   0.8266  0.3795  0.0320  11.00000  0.05    0.61
Q2    1   0.9613  0.3383  0.1249  11.00000  0.05    0.28
Q3    1   0.6762  0.4954  0.1801  11.00000  0.05    0.28
Q4    1   0.9061  0.4294  0.2767  11.00000  0.05    0.27
Q5    1   0.1960  0.7710  0.2805  11.00000  0.05    0.26
;
_shelx_res_checksum              65328
_shelx_hkl_file
;
   0   0   2  758.93   40.80
   0   0   3    0.38    0.37
   0   0   4  852.64   46.00
   0   0   5  204.67   11.38
   0   0   6   45.37    3.00
   0   0   7    0.54    0.10
   0   0   7    0.49    0.11
   0   0   8   21.79    1.25
   0   0   8   19.62    1.10
   0   0   8   19.17    1.79
   0   0   8   17.95    1.10
   0   0   8   19.65    1.11
   0   0   9    4.20    0.32
   0   0   9    4.23    0.32
   0   0   9    4.26    0.59
   0   0   9    4.12    0.31
   0   0  10   24.07    1.41
   0   0  10   25.84    1.60
   0   0  10   24.88    1.41
   0   0  10   23.96    1.40
   0   0  11   30.84    1.76
   0   0  11   31.42    1.76
   0   0  11   29.14    1.74
   0   0  11   33.69    1.97
   0   0  12  216.74   11.48
   0   0  12  205.81   11.46
   0   0  12  214.93   11.48
   0   0  12  210.95   11.63
   0   0  13   14.92    0.92
   0   0  13   14.87    0.92
   0   0  13   13.98    0.89
   0   0  13   14.11    1.20
   0   0  14  100.80    6.40
   0   0  14  111.19    6.22
   0   0  14  121.61    6.26
   0   0  14  117.87    6.25
   0   0  15    3.56    0.29
   0   0  15    3.07    0.65
   0   0  15    4.14    0.35
   0   0  15    4.10    0.36
   0   0  16    3.44    0.31
   0   0  16    3.28    0.29
   0   0  17    0.51    0.13
   0   0  17    0.54    0.15
   0   0  18    0.37    0.09
   0  -1  17    7.41    0.47
   0  -1  17    7.53    0.48
   0  -1  16   17.17    1.01
   0  -1  16   17.27    1.02
   0  -1  15    2.13    0.26
   0  -1  15    2.29    0.26
   0  -1  14   26.69    1.58
   0  -1  14   27.77    1.59
   0  -1  13   42.73    2.29
   0  -1  13   37.91    2.24
   0  -1  13   40.48    2.27
   0  -1  12    0.04    0.54
   0  -1  12    0.28    0.19
   0  -1  12    0.29    0.19
   0  -1  12    0.14    0.13
   0  -1  11   24.05    1.36
   0  -1  11   22.65    1.34
   0  -1  11   21.59    1.53
   0  -1  11   23.40    1.35
   0  -1  10    3.68    0.58
   0  -1  10    3.33    0.28
   0  -1  10    3.34    0.30
   0  -1  10    3.75    0.30
   0  -1  10    2.87    0.36
   0  -1   9   32.50    1.75
   0  -1   9   30.01    1.81
   0  -1   9   30.53    1.69
   0  -1   9   26.86    1.67
   0  -1   9   30.71    1.69
   0  -1   8   25.71    1.44
   0  -1   8   24.12    1.31
   0  -1   8   21.61    1.37
   0   1  -8   21.22    1.64
   0  -1   8   18.90    1.26
   0  -1   8   25.45    1.29
   0  -1   8   21.17    1.27
   0  -1   7   62.83    3.61
   0  -1   7   58.59    3.52
   0   1  -7   53.23    3.81
   0   1  -6   84.36    4.89
   0  -1   3    1.17    0.55
   0   1  -3    1.32    0.30
   0   1  -2   50.09    2.93
   0   1  -2   54.12    2.87
   0  -1   2   50.54    2.96
   0  -1   1  149.91    8.47
   0   1  -1  165.10    8.49
   0   1   0 1450.75   75.78
   0  -1   0 1393.75   75.76
   0   1   0 1396.83   75.77
   0  -1  -1  240.75   13.02
   0  -1  -3  460.42   25.50
   0   1   3  508.64   25.70
   0   1   4    8.61    0.91
   0   1   5   17.11    1.40
   0   1   6   68.51    4.27
   0   1   7    1.63    0.21
   0   1   7    1.67    0.42
   0   1   7    1.26    0.59
   0   1   7    1.65    0.15
   0   1   7    1.48    0.15
   0   1   8    0.04    0.09
   0   1   8    0.21    0.43
   0   1   8    0.15    0.16
   0   1   8    0.01    0.09
   0   1   8    0.05    0.51
   0   1   9    3.00    0.33
   0   1   9    3.42    0.26
   0   1   9    3.85    0.90
   0   1   9    3.07    0.26
   0   1   9    2.83    0.57
   0   1  10   10.90    0.76
   0   1  10   11.75    0.95
   0   1  10   10.57    0.68
   0   1  10   11.24    0.68
   0   1  11    8.99    0.60
   0   1  11   10.59    0.96
   0   1  12  683.45   36.38
   0   1  12  688.79   36.20
   0   1  12  655.13   36.19
   0   1  13   11.55    0.76
   0   1  13   13.32    1.17
   0   1  13   12.23    0.78
   0   1  14   78.96    4.31
   0   1  14   80.16    4.33
   0   1  14   72.01    4.55
   0   1  15    3.87    0.78
   0   1  15    3.96    0.34
   0   1  15    3.47    0.30
   0   1  16   28.48    1.51
   0   1  16   20.33    1.67
   0   1  17    5.05    0.35
   0   1  18    0.40    0.10
   0  -2  17    1.36    0.14
   0  -2  17    1.36    0.14
   0  -2  16   18.28    1.06
   0  -2  16   18.21    1.06
   0  -2  15   -0.08    0.15
   0  -2  15   -0.02    0.15
   0  -2  14    1.04    0.22
   0  -2  14    1.05    0.22
   0  -2  13   10.91    0.84
   0  -2  13   11.34    0.74
   0  -2  13   11.34    0.74
   0  -2  12    2.38    0.27
   0  -2  12    1.86    0.20
   0  -2  12    1.80    0.27
   0  -2  12    2.09    0.37
   0  -2  11   31.22    1.89
   0  -2  11   33.99    1.92
   0  -2  11   34.32    1.92
   0  -2  11   36.83    2.01
   0   2 -10    1.18    0.49
   0  -2  10    1.15    0.17
   0  -2  10    1.36    0.25
   0  -2  10    1.25    0.20
   0  -2  10    1.18    0.21
   0  -2   9    1.43    0.24
   0  -2   9    1.32    0.21
   0  -2   9    1.25    0.19
   0   2  -9    1.29    0.46
   0  -2   9    1.13    0.16
   0  -2   8  201.13   12.11
   0  -2   8  195.26   11.99
   0   2  -7    4.43    0.61
   0  -2   7    5.24    0.39
   0  -2   6    0.70    0.13
   0   2  -6    0.62    0.27
   0   2  -6    0.12    0.35
   0  -2   6    1.00    0.33
   0   2  -5   20.39    1.44
   0  -2   4  131.54    7.46
   0   2  -4  135.87    7.48
   0   2  -3   67.30    3.78
   0  -2   3   63.81    3.84
   0   2  -2    5.53    0.53
   0  -2   2    6.06    0.51
   0  -2   2    5.65    0.95
   0  -2   1  478.72   24.36
   0   2  -1  431.74   24.39
   0  -2   1  432.04   24.50
   0  -2   0  126.13    6.92
   0   2   0  125.78    6.97
   0   2   1   57.94    3.57
   0  -2  -1   66.09    3.53
   0  -2  -2  149.45    8.63
   0   2   2  133.62    8.59
   0  -2  -3  119.01    6.70
   0  -2  -4  135.43    7.63
   0   2   4  140.11    7.84
   0   2   5   34.16    2.47
   0  -2  -5   37.14    2.27
   0   2   6   47.52    3.21
   0   2   7    9.32    0.54
   0   2   7    9.22    0.55
   0   2   7    9.38    0.55
   0   2   8    0.58    0.12
   0   2   8    0.99    0.62
   0   2   8    0.70    0.45
   0   2   8    0.69    0.13
   0   2   8    0.76    0.13
   0  -2  -8    0.74    0.11
   0  -2  -9   71.41    4.14
   0   2   9   78.62    4.30
   0   2   9   67.39    5.06
   0   2   9   79.80    4.16
   0   2   9   77.16    4.16
   0   2   9   77.09    4.16
   0   2  10   21.58    1.24
   0   2  10   21.81    1.23
   0   2  10   21.00    1.47
   0  -2 -10   19.46    1.20
   0   2  10   22.29    1.23
   0   2  11    7.93    0.53
   0   2  11    8.02    0.53
   0   2  11    7.21    0.54
   0   2  11    7.54    0.92
   0   2  12   31.46    2.04
   0   2  12   30.45    1.75
   0   2  12   29.75    1.74
   0   2  13   12.82    0.81
   0   2  13   11.00    1.22
   0   2  13   13.13    0.83
   0   2  14    1.31    0.21
   0   2  14    1.37    0.24
   0   2  14    0.54    0.83
   0   2  15   13.64    0.84
   0   2  15   11.41    1.24
   0   2  16    0.23    0.15
   0   2  16    0.07    0.63
   0   2  17    2.56    0.22
   0   2  17    2.59    0.53
   0  -3  16    0.34    0.10
   0  -3  16    0.36    0.11
   0  -3  15    4.60    0.34
   0  -3  15    4.58    0.35
   0  -3  14   25.31    1.42
   0  -3  14   24.63    1.41
   0  -3  14   22.29    1.46
   0  -3  13   15.08    0.92
   0  -3  13   14.20    0.98
   0  -3  13   14.68    0.91
   0  -3  12    3.27    0.33
   0  -3  12    3.62    0.41
   0  -3  12    3.00    0.33
   0  -3  11   25.01    1.44
   0  -3  11   23.56    1.38
   0  -3  11   23.04    1.38
   0  -3  10   43.13    2.33
   0  -3  10   46.72    2.39
   0   3 -10   41.53    2.64
   0  -3  10   36.69    2.30
   0  -3   9   48.22    2.73
   0  -3   8  378.27   20.66
   0  -3   8  396.95   20.84
   0  -3   7  439.08   24.41
   0  -3   7  493.49   24.57
   0  -3   6   37.87    2.05
   0   3  -6   35.21    2.46
   0   3  -5   10.89    0.96
   0  -3   5   10.87    0.62
   0  -3   5    9.67    0.60
   0  -3   4   26.56    1.96
   0   3  -4   27.28    1.84
   0   3  -3    4.30    0.53
   0  -3   3    4.86    0.88
   0   3  -2    0.24    0.26
   0   3  -2    0.18    0.21
   0  -3   2    0.34    0.19
   0   3  -1  120.09    6.95
   0  -3   1  136.63    7.26
   0  -3   1  122.66    6.98
   0   3  -1  134.66    7.08
   0   3  -1  124.06    7.11
   0  -3   0   61.92    3.41
   0   3   0   54.86    3.42
   0   3   0   58.35    3.51
   0  -3   0   60.49    3.70
   0   3   1   19.05    1.39
   0  -3  -1   22.05    1.32
   0   3   2   36.73    2.53
   0  -3  -2   41.66    2.41
   0  -3  -2   40.35    2.69
   0  -3  -3    0.64    0.36
   0   3   3    0.59    0.48
   0  -3  -3    0.72    0.81
   0  -3  -4  806.86   43.53
   0  -3  -4  801.11   43.51
   0  -3  -5   48.97    3.12
   0  -3  -6  214.08   11.69
   0   3   6  214.05   11.99
   0   3   6  206.09   11.24
   0   3   6  209.41   11.24
   0   3   6  210.68   11.31
   0   3   7   33.89    2.01
   0   3   7   35.69    1.90
   0   3   7   33.54    1.90
   0   3   7   35.11    2.70
   0   3   7   34.06    1.90
   0  -3  -7   33.56    1.89
   0   3   8    4.17    0.31
   0   3   8    4.45    0.32
   0   3   8    4.28    0.59
   0   3   8    3.74    0.87
   0  -3  -8    3.96    0.29
   0   3   8    3.94    0.31
   0  -3  -9   47.47    2.74
   0   3   9   49.40    2.76
   0   3   9   54.30    2.76
   0   3   9   48.60    2.76
   0   3  10    3.95    0.33
   0   3  10    4.07    0.33
   0  -3 -10    3.58    0.29
   0   3  10    4.07    0.32
   0   3  11    0.95    0.20
   0   3  11    1.26    0.21
   0  -3 -11    1.16    0.16
   0   3  11    1.16    0.22
   0   3  12   24.01    1.41
   0   3  12   21.45    1.74
   0   3  12   24.01    1.42
   0   3  12   24.40    1.41
   0   3  13    4.71    1.01
   0   3  13    5.26    0.46
   0   3  13    4.87    0.43
   0   3  13    5.10    0.42
   0   3  14    3.25    0.98
   0   3  14    3.94    0.39
   0   3  14    3.10    0.32
   0   3  15    0.19    0.17
   0   3  15   -0.54    0.85
   0   3  15    0.18    0.23
   0   3  16    1.76    0.25
   0   3  16    1.78    0.21
   0   3  17    1.00    0.14
   0   3  17    1.45    0.19
   0   3  17    1.16    0.53
   0   3  18    5.04    0.33
   0  -4  15    0.49    0.12
   0  -4  15    0.59    0.13
   0  -4  14    0.77    0.16
   0  -4  14    0.78    0.17
   0  -4  14    1.00    0.23
   0  -4  13    3.44    0.37
   0  -4  13    3.10    0.29
   0  -4  13    3.10    0.31
   0   4 -12    1.07    0.50
   0  -4  12    1.04    0.20
   0  -4  12    0.96    0.29
   0  -4  11   25.99    1.51
   0   4 -11   22.09    1.81
   0  -4  11   26.90    1.58
   0  -4  10    1.10    0.21
   0  -4  10    1.09    0.26
   0   4 -10    0.65    0.61
   0  -4   9    8.79    0.63
   0  -4   8   14.85    0.94
   0  -4   8   16.55    1.21
   0  -4   7   33.67    1.89
   0  -4   7   33.17    1.90
   0  -4   6    1.22    0.17
   0  -4   6    1.21    0.17
   0   4  -6    1.34    0.39
   0  -4   5    1.75    0.19
   0   4  -5    1.88    0.45
   0  -4   5    2.26    0.42
   0   4  -4   32.52    2.42
   0  -4   4   35.17    1.92
   0  -4   4   30.62    1.77
   0  -4   4   31.82    2.40
   0   4  -4   31.38    2.23
   0   4  -3    9.97    0.95
   0   4  -3    9.06    1.03
   0  -4   3    9.69    0.58
   0  -4   3    9.63    1.21
   0  -4   3   10.05    0.71
   0  -4   2    1.10    0.27
   0  -4   2    2.10    0.87
   0   4  -2    0.89    0.43
   0   4  -2    0.91    0.33
   0   4  -2    1.01    0.27
   0   4  -1    6.73    0.68
   0   4  -1    7.87    0.89
   0  -4   1    9.57    1.23
   0  -4   1    7.86    0.68
   0   4   0   32.80    2.35
   0  -4   0   37.61    2.20
   0  -4   0   38.66    2.61
   0   4   0   31.44    2.21
   0   4   1  105.68    6.18
   0   4   1   97.33    6.21
   0  -4  -1  115.58    6.11
   0  -4  -2  351.69   18.20
   0  -4  -2  329.09   17.90
   0   4   2  306.09   18.02
   0   4   3    7.21    0.91
   0  -4  -3    7.33    1.16
   0  -4  -3    6.43    0.64
   0   4   4  505.04   27.61
   0  -4  -4  545.63   27.33
   0  -4  -4  569.86   27.61
   0  -4  -4  491.27   26.95
   0  -4  -5  731.30   39.31
   0   4   5  714.01   40.06
   0  -4  -5  825.10   39.82
   0  -4  -5  800.59   39.96
   0   4   5  719.07   39.32
   0   4   5  733.46   39.32
   0   4   6  210.38   11.41
   0  -4  -6  227.89   12.08
   0   4   6  213.38   11.42
   0   4   6  204.09   11.48
   0  -4  -6  237.95   12.07
   0   4   7   16.00    0.93
   0  -4  -7   15.53    0.91
   0   4   7   15.63    0.92
   0   4   7   15.19    1.06
   0  -4  -7   15.02    1.43
   0   4   7   15.32    0.92
   0   4   8   27.15    1.51
   0   4   8   25.19    1.65
   0   4   8   27.06    1.51
   0   4   8   26.91    1.52
   0  -4  -8   25.31    1.50
   0   4   9    9.52    0.89
   0   4   9    9.82    0.63
   0   4   9    9.72    0.63
   0   4   9   10.21    0.64
   0  -4  -9    9.13    0.60
   0  -4 -10   25.61    1.57
   0   4  10   28.86    1.60
   0   4  10   28.54    1.61
   0   4  10   26.17    1.82
   0   4  10   29.23    1.61
   0   4  11   11.54    0.73
   0   4  11   10.54    0.70
   0   4  11   10.87    1.11
   0   4  11   10.05    0.71
   0   4  12   16.40    0.98
   0  -4 -12   14.61    0.93
   0   4  12   17.11    1.02
   0   4  13    0.17    0.18
   0   4  13    0.25    0.25
   0   4  14   11.79    0.76
   0   4  14   10.60    0.72
   0   4  15   13.89    0.88
   0   4  15   15.82    0.93
   0   4  15   13.14    1.36
   0   4  16   10.00    0.63
   0   4  16    9.08    0.58
   0   4  16    8.44    1.00
   0   4  17    8.60    0.53
   0   4  17    7.55    0.79
   0  -5  15    1.16    0.12
   0  -5  14   29.45    1.64
   0  -5  13   61.73    3.28
   0  -5  13   56.65    3.31
   0  -5  12    3.26    0.29
   0  -5  12    3.48    0.36
   0  -5  11    4.17    0.36
   0  -5  11    4.31    0.41
   0   5 -11    3.95    0.74
   0  -5  10    1.06    0.21
   0   5 -10    0.88    0.69
   0  -5  10    1.22    0.26
   0  -5   9    8.90    0.64
   0  -5   9    5.50    0.51
   0  -5   8   17.13    1.16
   0  -5   8   22.71    1.21
   0  -5   7   39.36    2.09
   0  -5   7   34.21    2.09
   0  -5   7   36.38    2.33
   0  -5   6    8.83    0.57
   0   5  -6    7.44    0.78
   0  -5   6    8.53    0.55
   0  -5   6    7.94    0.79
   0   5  -5    0.79    0.45
   0  -5   5    0.34    0.13
   0  -5   5    0.59    0.40
   0  -5   4   62.56    3.24
   0   5  -4   49.07    3.10
   0  -5   4   59.33    3.06
   0  -5   4   42.20    3.67
   0   5  -3   10.98    0.82
   0  -5   3   12.85    0.86
   0  -5   3   10.42    1.44
   0   5  -3   10.07    1.23
   0  -5   3   11.52    0.69
   0  -5   2   59.42    3.29
   0   5  -2   48.20    3.76
   0  -5   2   60.46    4.00
   0  -5   2   57.62    3.17
   0  -5   2   55.34    3.50
   0   5  -2   59.76    3.25
   0   5  -1   73.07    4.09
   0  -5   1   79.03    4.37
   0  -5   1   68.98    4.06
   0  -5   1   70.41    4.10
   0  -5   1   74.91    4.81
   0   5  -1   68.60    4.33
   0   5  -1   62.79    4.59
   0  -5   1   79.79    4.02
   0  -5   0   67.37    3.75
   0   5   0   60.36    3.35
   0  -5   0   65.59    4.22
   0  -5   0   59.90    3.39
   0   5   0   59.94    4.01
   0   5   0   66.01    3.45
   0   5   0   60.40    3.78
   0   5   1    0.63    0.13
   0  -5  -1    0.56    0.15
   0   5   1    0.65    0.45
   0  -5  -1    0.42    0.25
   0   5   1    0.30    0.39
   0   5   2   68.75    3.69
   0   5   2   60.83    4.14
   0  -5  -2   68.47    4.43
   0   5   2   65.33    3.60
   0  -5  -2   66.94    4.01
   0  -5  -3  107.79    6.00
   0   5   3   94.35    6.13
   0  -5  -3  110.97    6.38
   0  -5  -3   98.79    5.52
   0   5   3  101.73    5.51
   0   5   3  105.32    5.59
   0   5   4    1.26    0.57
   0  -5  -4    0.97    0.16
   0  -5  -4    0.87    0.81
   0   5   4    0.89    0.43
   0  -5  -4    1.21    0.39
   0  -5  -5   18.36    1.07
   0   5   5   18.62    1.78
   0   5   5   20.75    1.19
   0   5   5   16.73    1.14
   0  -5  -5   20.08    1.87
   0   5   6   19.12    1.16
   0   5   6   21.23    1.25
   0  -5  -6   20.17    1.90
   0   5   6   19.14    1.26
   0  -5  -6   20.19    1.15
   0   5   6   20.35    1.16
   0   5   7    3.73    0.52
   0   5   7    3.52    0.44
   0   5   7    2.90    0.28
   0   5   7    2.71    0.26
   0  -5  -7    3.11    0.26
   0   5   8   32.32    2.07
   0   5   8   35.13    1.94
   0   5   8   35.72    1.93
   0  -5  -8   32.54    1.91
   0   5   9    1.58    0.61
   0  -5  -9    1.54    0.19
   0   5   9    1.62    0.23
   0   5   9    1.73    0.22
   0   5  10    9.92    0.64
   0   5  10   10.31    0.67
   0   5  10    8.83    0.98
   0  -5 -10    8.76    0.60
   0   5  11    0.15    0.18
   0   5  11    0.15    0.20
   0  -5 -11    0.15    0.13
   0  -5 -12    0.67    0.16
   0   5  12    1.41    0.85
   0   5  12    0.94    0.22
   0   5  12    0.87    0.26
   0   5  13   10.23    1.19
   0   5  13   11.31    0.73
   0   5  13    9.81    0.68
   0   5  14    7.92    1.10
   0   5  14    7.77    0.55
   0   5  14    8.74    0.60
   0   5  15    2.42    0.28
   0   5  15    2.22    0.23
   0   5  16    3.93    0.29
   0   5  17   14.61    0.83
   0  -6  13   21.03    1.10
   0  -6  13   17.45    1.12
   0  -6  12    0.85    0.19
   0   6 -12    0.64    0.41
   0  -6  12    0.78    0.14
   0  -6  11    6.01    0.49
   0  -6  11    6.56    0.47
   0  -6  11    6.55    0.45
   0  -6  10    8.03    0.57
   0  -6  10    7.91    0.60
   0   6 -10    6.49    0.99
   0   6  -9    9.80    1.24
   0  -6   9   10.05    0.78
   0  -6   8    3.42    0.35
   0  -6   8    4.87    0.43
   0   6  -7    1.25    0.53
   0  -6   7    0.91    0.22
   0  -6   7    0.70    0.19
   0  -6   6   25.99    1.43
   0  -6   6   24.46    1.43
   0  -6   6   24.71    1.69
   0  -6   5   48.58    2.44
   0  -6   5   47.79    2.65
   0   6  -5   39.74    2.65
   0   6  -5   35.18    2.48
   0  -6   4    8.94    0.59
   0  -6   4   10.24    0.81
   0   6  -4    8.22    0.78
   0  -6   3    0.98    0.38
   0   6  -3    0.50    0.49
   0  -6   3    0.61    0.14
   0  -6   2   68.40    3.89
   0   6  -2   71.49    3.85
   0  -6   2   67.07    3.75
   0  -6   1  527.79   29.73
   0  -6   1  548.48   29.63
   0   6  -1  579.65   29.71
   0  -6   0   69.85    3.78
   0   6   0   77.13    3.83
   0  -6   0   70.70    3.71
   0   6   0   63.16    3.70
   0  -6   0   57.50    4.05
   0   6   1   16.12    0.95
   0  -6  -1   15.77    1.30
   0  -6  -1   16.86    1.01
   0  -6  -2    0.16    0.18
   0   6   2    0.25    0.41
   0   6   2    0.19    0.13
   0   6   2    0.48    0.47
   0   6   3   27.49    1.58
   0  -6  -3   26.28    2.01
   0   6   3   24.85    2.21
   0  -6  -3   28.60    1.61
   0   6   3   29.30    1.70
   0  -6  -4    7.47    0.52
   0   6   4    8.25    0.71
   0   6   4    7.57    0.50
   0   6   5    1.58    0.49
   0  -6  -5    1.19    0.19
   0   6   5    1.05    0.19
   0  -6  -6   19.54    1.16
   0   6   6   20.16    1.29
   0   6   7    0.91    0.49
   0   6   7    0.64    0.45
   0  -6  -7    0.71    0.18
   0   6   8   11.40    0.95
   0  -6  -8   11.80    0.74
   0  -6  -9    1.19    0.21
   0   6   9    0.76    0.61
   0   6  10   12.88    0.81
   0  -6 -10   12.66    0.79
   0   6  10   11.13    1.13
   0  -6 -11    5.48    0.41
   0   6  11    4.82    0.88
   0   6  11    5.61    0.44
   0  -6 -12   24.25    1.40
   0   6  12   23.75    1.76
   0   6  13   15.54    1.35
   0   6  14    5.34    0.89
   0   6  14    6.23    0.45
   0   6  15    3.44    0.29
   0   6  15    3.03    0.70
   0   6  16    0.36    0.12
   0   6  16    1.12    0.49
   0   7 -12    1.85    0.33
   0  -7  12    2.66    0.23
   0  -7  11    2.87    0.27
   0  -7  11    3.70    0.28
   0   7 -11    3.33    0.57
   0  -7  11    3.06    0.24
   0  -7  10    0.21    0.17
   0   7 -10    0.22    0.56
   0  -7  10    0.12    0.12
   0  -7  10    0.31    0.16
   0  -7   9    1.46    0.23
   0   7  -9    1.01    0.70
   0  -7   9    1.66    0.21
   0  -7   9    2.10    0.33
   0  -7   8   12.53    0.93
   0  -7   8   20.87    1.06
   0   7  -7   23.10    2.16
   0  -7   7   33.03    2.00
   0  -7   6    0.38    0.20
   0  -7   6    0.35    0.16
   0   7  -6    0.91    0.61
   0   7  -5   18.09    1.46
   0  -7   5   21.25    1.13
   0  -7   5   19.27    1.37
   0  -7   5   19.73    1.12
   0  -7   4    1.59    0.50
   0   7  -4    1.64    0.70
   0  -7   4    0.80    0.17
   0   7  -4    0.75    0.52
   0   7  -3    6.06    0.87
   0  -7   3    5.44    0.40
   0  -7   3    5.55    0.63
   0   7  -3    5.33    0.70
   0  -7   2    2.90    0.26
   0   7  -2    3.82    0.65
   0  -7   2    2.69    0.45
   0  -7   1   54.54    2.91
   0   7  -1   59.31    3.07
   0   7   0    0.01    0.56
   0  -7   0    0.20    0.11
   0  -7   0    0.12    0.23
   0   7   1    0.20    0.14
   0  -7  -1    0.19    0.23
   0  -7  -1    0.47    0.12
   0   7   2    3.73    0.31
   0   7   3   -0.01    0.58
   0   7   3    0.18    0.16
   0   7   4    8.61    0.56
   0   7   4    8.78    0.84
   0  -7  -4    8.30    0.61
   0  -7  -5    1.10    0.24
   0   7   5    1.08    0.22
   0   7   5    1.08    0.58
   0   7   6   14.02    0.86
   0  -7  -6   13.85    0.88
   0   7   6   13.12    1.06
   0   7   7    6.82    0.78
   0   7   7    8.15    0.54
   0  -7  -7    6.90    0.54
   0   7   8    0.57    0.50
   0   7   8    0.84    0.24
   0   7   8    1.18    0.52
   0  -7  -8    0.91    0.22
   0   7   9    0.29    0.54
   0  -7  -9    0.05    0.18
   0   7  10    0.04    0.59
   0  -7 -11   49.11    2.69
   0   7  11   44.28    2.89
   0  -7 -12   14.19    0.95
   0   7  12   13.65    1.24
   0   7  13    9.15    0.59
   0   7  13    6.26    0.89
   0   7  14    4.77    0.35
   0   7  14    2.52    0.64
   0   7  15    2.71    0.54
   0   7  15    4.52    0.31
   0   7  16    3.07    0.22
   0  -8  11    1.69    0.15
   0  -8  10    3.32    0.26
   0   8 -10    2.42    0.53
   0  -8   9   25.53    1.68
   0   8  -9   26.91    1.98
   0  -8   9   29.89    1.67
   0   8  -8    3.87    0.85
   0  -8   8    4.96    0.38
   0  -8   8    4.70    0.38
   0  -8   7  121.79    5.20
   0  -8   7   79.70    5.11
   0  -8   6    5.94    0.45
   0   8  -6    3.67    0.76
   0  -8   5    1.33    0.19
   0  -8   5    1.72    0.23
   0   8  -5    1.33    0.68
   0   8  -5    0.28    0.50
   0  -8   4    0.68    0.19
   0   8  -4    1.15    0.72
   0  -8   4    0.64    0.16
   0   8  -4    0.88    0.56
   0   8  -3    4.48    0.87
   0  -8   3    3.35    0.30
   0   8  -3    3.21    0.70
   0  -8   2   14.27    0.87
   0   8  -2   13.14    1.13
   0   8  -2   16.16    1.37
   0   8  -1   14.23    1.13
   0  -8   1   12.60    0.80
   0  -8   0   -0.03    0.12
   0   8   0    1.03    0.72
   0  -8  -1    9.75    0.62
   0  -8  -2    0.58    0.14
   0  -8  -2    0.56    0.30
   0   8   3    4.39    0.81
   0  -8  -3    4.53    0.34
   0   8   3    4.58    0.37
   0  -8  -4    0.06    0.26
   0   8   4    0.43    0.68
   0   8   4    0.18    0.19
   0   8   5    0.17    0.19
   0   8   5    0.19    0.62
   0  -8  -5    0.24    0.27
   0   8   6    0.38    0.59
   0  -8  -6    0.58    0.26
   0   8   6    0.86    0.23
   0   8   6    0.79    0.53
   0  -8  -7   19.36    1.18
   0   8   7   20.72    1.13
   0   8   7   15.49    1.30
   0   8   7   15.45    1.29
   0   8   8    7.07    0.51
   0  -8  -8    6.93    0.53
   0   8   9    0.41    0.23
   0  -8  -9    0.43    0.21
   0   8  10    0.13    0.22
   0  -8 -10    0.30    0.20
   0  -8 -11    1.98    0.25
   0   8  11    1.70    0.44
   0  -8 -12    3.84    0.32
   0   8  13    0.36    0.38
   0   8  14    0.53    0.14
   0   8  15    0.35    0.09
   0   9  -9   89.76    6.52
   0  -9   9  127.89    6.41
   0  -9   8   31.20    1.75
   0  -9   7  119.27    6.53
   0  -9   6   13.17    0.78
   0   9  -6    7.45    1.05
   0  -9   5    0.06    0.16
   0  -9   5    0.00    0.10
   0  -9   4    0.45    0.12
   0  -9   4    0.76    0.18
   0   9  -4   -0.16    0.54
   0   9  -4    1.09    0.68
   0  -9   3    0.37    0.16
   0  -9   3    0.24    0.11
   0   9  -3    0.37    0.60
   0   9  -3    0.74    0.75
   0   9  -2    2.53    0.83
   0  -9   2    2.31    0.22
   0   9  -2    1.81    0.69
   0  -9   1    0.68    0.13
   0   9  -1    1.35    0.71
   0   9   0    3.21    0.81
   0  -9   0    3.40    0.28
   0   9   1    7.04    0.94
   0  -9  -1    6.65    0.46
   0   9   1    7.49    1.05
   0  -9  -2    3.60    0.29
   0   9   2    4.41    0.88
   0  -9  -3   77.61    4.45
   0   9   3   92.32    4.69
   0   9   3   90.38    4.85
   0   9   4    4.66    0.88
   0   9   4    5.07    0.82
   0  -9  -4    3.95    0.31
   0   9   5  196.70   10.06
   0  -9  -5  176.85   10.03
   0  -9  -5  187.97   10.15
   0   9   5  175.42   10.30
   0   9   5  191.55   10.19
   0  -9  -6    4.95    0.48
   0   9   6    5.48    0.40
   0   9   6    5.32    0.80
   0  -9  -6    4.34    0.34
   0   9   6    4.75    0.72
   0   9   7    2.70    0.57
   0  -9  -7    3.89    0.41
   0   9   7    3.68    0.34
   0   9   7    3.21    0.70
   0  -9  -8    1.26    0.28
   0   9   8    1.46    0.24
   0  -9  -9    3.92    0.40
   0   9   9    4.79    0.37
   0  -9 -10    1.37    0.24
   0   9  10    1.74    0.24
   0  -9 -11    1.49    0.22
   0   9  11    2.18    0.23
   0   9  11    1.51    0.37
   0   9  12    0.25    0.14
   0  10  -7    0.63    0.29
   0  10  -6    4.47    0.62
   0 -10   6    7.53    0.45
   0 -10   5    0.59    0.17
   0  10  -5    0.02    0.42
   0  10  -4    2.54    0.65
   0  10  -4    4.89    0.69
   0  10  -3    4.55    0.79
   0  10  -3    6.11    0.76
   0  10  -3    4.41    0.67
   0  10  -2    0.27    0.63
   0 -10   2    0.15    0.12
   0  10  -2   -0.58    0.58
   0  10  -2    0.36    0.48
   0  10  -1    0.60    0.46
   0  10  -1    0.45    0.60
   0 -10   1    0.82    0.16
   0  10  -1    1.14    0.73
   0  10   0    1.79    0.71
   0  10   0    2.69    0.52
   0  10   1   12.90    1.21
   0  10   1   10.55    1.04
   0  10   2    4.86    0.88
   0  10   3  141.29    7.67
   0  10   3  134.31    7.80
   0  10   4   29.15    1.88
   0  10   4   28.75    1.96
   0  10   5   95.46    5.80
   0  10   5  107.65    5.73
   0  10   6    0.36    0.49
   0  10   6   -0.17    0.63
   0  10   7    0.79    0.61
   0  10   8    0.50    0.46
   0  10   9    1.16    0.17
   0  10  10    1.15    0.33
   0  10  10    1.41    0.17
   0  10  11    0.91    0.23
   0  11  -2    0.87    0.32
   0 -11   2    1.87    0.16
   0  11  -1    0.25    0.42
   0 -11   1    0.75    0.11
   0  11  -1    0.18    0.46
   0 -11   0    1.04    0.12
   0  11   0    1.17    0.50
   0  11   1    3.38    0.60
   0 -11  -1    4.27    0.28
   0  11   1    3.14    0.63
   0  11   2    1.30    0.55
   0 -11  -2    2.01    0.17
   0  11   3    5.01    0.69
   0  11   4   -0.09    0.53
   0  11   4   -0.22    0.45
   0  11   5    0.13    0.38
   0  11   5    0.85    0.50
   0  11   6    5.03    0.58
   0  11   7    0.32    0.34
   0  11   7    0.49    0.33
   0  11   8   -0.02    0.27
   0  11   9    0.21    0.20
  -1  11   6    5.29    0.42
  -1  11   6    3.18    0.41
  -1  11   5   -0.09    0.25
  -1  11   5    0.15    0.39
  -1  11   4    1.15    0.44
  -1  11   4    1.06    0.28
  -1  11   3    0.20    0.23
  -1  11   3    0.16    0.43
  -1  11   2    0.95    0.22
  -1  11   1    0.10    0.43
  -1  11   0    2.45    0.46
   1 -11   0    2.90    0.21
   1 -11   1    4.00    0.25
  -1  11  -1    1.83    0.40
   1 -11   2    0.09    0.07
  -1  10  10    4.19    0.39
  -1  10   9    0.10    0.29
  -1  10   8    2.57    0.45
  -1  10   7    1.07    0.50
  -1  10   6    3.99    0.65
  -1  10   5    0.97    0.60
  -1  10   5    1.75    0.48
  -1  10   4    1.96    0.49
  -1  10   4    1.95    0.65
  -1  10   3    0.56    0.65
  -1  10   3    0.97    0.45
  -1  10   2    5.74    0.61
  -1  10   1    0.38    0.63
  -1  10   1    0.74    0.36
  -1  10   0    1.32    0.61
  -1  10   0    1.23    0.32
  -1  10  -1    5.12    0.72
  -1  10  -2   21.38    1.73
   1 -10   2   31.28    1.61
  -1  10  -3   19.10    1.54
  -1  10  -3   16.87    1.55
  -1  10  -4    3.22    0.49
   1 -10   4    5.86    0.37
  -1  10  -5    0.43    0.28
   1 -10   5    0.63    0.14
   1 -10   6    8.64    0.55
  -1   9  11    1.89    0.19
  -1   9  11    1.32    0.32
  -1   9  10    2.78    0.46
  -1   9  10    3.35    0.28
  -1   9   9    1.66    0.48
  -1   9   8    0.44    0.52
  -1   9   8    0.85    0.50
  -1   9   7    4.33    0.70
  -1   9   6    2.94    0.70
  -1   9   5    2.69    0.78
  -1   9   5    2.28    0.60
  -1   9   4    5.75    0.87
  -1   9   4    7.04    0.94
  -1   9   3    1.48    0.84
  -1   9   3    2.06    0.75
  -1   9   2    5.55    0.92
  -1   9   1    0.07    0.76
  -1   9   0    0.26    0.80
  -1   9   0   -0.05    0.79
  -1   9  -1    3.53    0.62
  -1   9  -1    3.94    0.79
  -1   9  -2   -0.46    0.80
  -1   9  -2    0.36    0.53
  -1   9  -2    0.50    0.67
  -1   9  -3    5.14    0.73
  -1   9  -3    5.10    0.74
  -1   9  -4   10.95    1.08
  -1   9  -4   12.93    1.24
  -1   9  -5    4.75    0.78
   1  -9   5    7.19    0.48
  -1   9  -6    0.82    0.52
   1  -9   6    1.55    0.21
   1  -9   7   13.07    0.74
  -1   9  -7    7.26    0.88
  -1   9  -8    1.91    0.41
   1  -9   8    3.25    0.22
  -1   8  14    2.09    0.16
  -1   8  13    0.70    0.13
  -1   8  12    0.17    0.14
  -1   8  11    1.35    0.41
  -1   8  11    1.82    0.23
  -1   8  10    3.35    0.31
  -1   8  10    2.54    0.54
  -1   8   9    2.18    0.28
  -1   8   9    2.01    0.58
  -1   8   8    0.04    0.56
  -1   8   7    1.49    0.65
  -1   8   6   53.67    3.63
  -1   8   6   71.86    3.66
  -1   8   5   47.89    3.05
  -1   8   5   42.43    3.07
  -1   8   4  215.77   11.25
  -1   8   4  201.06   11.39
  -1   8   4  192.31   11.50
  -1   8   3    1.22    0.82
  -1   8   3    1.58    0.70
  -1   8   2    3.72    0.86
  -1   8   1    0.60    0.79
  -1   8   0    0.69    0.49
  -1   8   0    0.80    0.82
  -1   8   0    0.69    0.78
  -1   8  -1    1.97    0.80
  -1   8  -1    2.54    0.63
  -1   8  -2   16.22    1.32
  -1   8  -2   19.60    1.60
  -1   8  -2   15.52    1.40
  -1   8  -3   10.24    1.02
  -1   8  -3   11.94    1.18
  -1   8  -3   12.81    1.30
  -1   8  -4    0.78    0.60
  -1   8  -4    1.09    0.68
  -1   8  -4    1.03    0.79
  -1   8  -5    1.10    0.72
  -1   8  -5    1.22    0.55
  -1   8  -6    6.33    1.00
  -1   8  -7    6.78    0.94
   1  -8   9    1.01    0.15
   1  -8  10    3.22    0.24
   1  -8  10    3.38    0.25
  -1   7  15    0.13    0.31
  -1   7  14    0.10    0.11
  -1   7  13    1.17    0.18
  -1   7  12   16.14    0.96
  -1   7  11    3.98    0.34
  -1   7  11    2.85    0.53
  -1   7  11    2.64    0.65
  -1   7  10    4.23    0.72
  -1   7  10    5.13    0.71
  -1   7   9    6.28    0.46
  -1   7   9    5.65    0.74
  -1   7   9    4.16    0.68
   1  -7  -9    4.82    0.42
   1  -7  -8    4.34    0.41
  -1   7   8    3.66    0.65
   1  -7  -7    1.25    0.24
  -1   7   7    1.31    0.25
  -1   7   7    1.14    0.62
   1  -7  -6  312.52   17.20
  -1   7   6  326.52   17.28
   1  -7  -5    1.36    0.29
  -1   7   5    1.98    0.72
  -1   7   5    1.48    0.60
  -1   7   4  317.29   16.93
  -1   7   4  309.38   16.79
   1  -7  -4  305.13   16.72
  -1   7   3    4.13    0.75
   1  -7  -3    3.07    0.37
  -1   7   3    3.64    0.33
  -1   7   3    3.49    0.77
  -1   7   2   47.05    2.64
  -1   7   2   46.68    2.83
  -1   7   2   50.07    2.99
  -1   7   1    0.30    0.67
  -1   7   0    1.21    0.70
  -1   7   0    2.06    0.76
  -1   7  -1    6.13    0.84
  -1   7  -2   -0.26    0.63
  -1   7  -2    0.28    0.77
  -1   7  -3    0.28    0.64
  -1   7  -3    0.65    0.78
  -1   7  -4    0.57    0.61
  -1   7  -4    1.50    0.76
  -1   7  -5    1.49    0.80
  -1   7  -5    1.62    0.77
  -1   7  -5    0.75    0.54
  -1   7  -6   65.01    4.08
   1  -7   8  386.33   20.84
  -1   7  -9    0.95    0.68
   1  -7   9    1.91    0.33
   1  -7  10    4.88    0.38
   1  -7  10    4.39    0.35
   1  -7  11    6.87    0.43
   1  -7  11    6.80    0.44
   1  -7  12    0.39    0.09
  -1   7 -12    0.15    0.22
   1  -7  12    0.44    0.09
  -1   6  15    0.18    0.09
  -1   6  14    2.12    0.21
  -1   6  14    2.37    0.65
  -1   6  13    5.42    0.87
  -1   6  13    7.55    0.50
  -1   6  12    3.09    0.30
  -1   6  12    2.36    0.76
  -1   6  11    0.48    0.21
  -1   6  11    0.36    0.41
  -1   6  11    0.75    0.73
  -1   6  10    3.15    0.32
  -1   6  10    2.58    0.56
  -1   6  10    3.12    0.80
  -1   6   9    1.73    0.26
  -1   6   9    2.52    0.57
  -1   6   9    1.52    0.69
   1  -6  -9    1.52    0.21
  -1   6   8   21.16    1.15
  -1   6   8   17.53    1.37
   1  -6  -8   17.50    1.13
  -1   6   7    6.83    0.46
  -1   6   7    4.71    0.68
  -1   6   7    4.98    0.70
   1  -6  -7    5.50    0.44
  -1   6   6   12.08    0.97
  -1   6   6   13.15    0.76
   1  -6  -6   12.02    0.76
  -1   6   5    5.84    0.42
  -1   6   5    4.96    0.66
   1  -6  -5    5.36    0.43
  -1   6   5    5.70    0.72
  -1   6   4    3.63    0.59
  -1   6   4    3.26    0.63
   1  -6  -4    3.06    0.32
  -1   6   3    1.06    0.57
  -1   6   3    1.77    0.57
   1  -6  -3    1.19    0.23
  -1   6   2   21.99    1.40
   1  -6  -2   19.24    1.25
  -1   6   2   21.23    1.49
  -1   6   2   21.63    1.21
  -1   6   1   11.87    0.74
  -1   6   1   12.60    1.07
  -1   6   0    6.20    0.78
  -1   6   0    4.65    0.69
  -1   6  -1    1.88    0.57
  -1   6  -2    2.05    0.67
  -1   6  -2    2.09    0.58
  -1   6  -3   -0.24    0.56
  -1   6  -3    0.35    0.65
  -1   6  -4    0.50    0.67
  -1   6  -4   -0.08    0.53
  -1   6  -5    6.09    0.73
  -1   6  -5    8.11    0.96
  -1   6  -6   91.88    5.59
  -1   6  -6  103.63    5.77
   1  -6   7    6.94    0.51
  -1   6  -8  177.49   10.24
   1  -6   8  155.13    9.78
  -1   6  -9    2.51    0.86
   1  -6   9    3.21    0.37
   1  -6   9    2.16    0.25
   1  -6  10   18.39    1.05
  -1   6 -10    9.02    1.26
   1  -6  11    2.32    0.27
   1  -6  11    2.49    0.26
   1  -6  12    3.01    0.25
   1  -6  12    2.94    0.25
   1  -6  13    7.83    0.42
   1  -6  13    7.39    0.41
  -1   5  15    4.43    0.31
  -1   5  15    4.94    0.35
  -1   5  14    2.40    0.83
  -1   5  14    3.09    0.27
  -1   5  14    3.12    0.30
  -1   5  13    6.34    0.46
  -1   5  13    6.85    0.50
  -1   5  13    6.38    1.03
  -1   5  12   54.09    2.85
  -1   5  12   49.71    2.81
  -1   5  11    4.20    0.36
  -1   5  11    4.99    0.41
  -1   5  11    3.75    0.96
  -1   5  11    3.20    0.51
  -1   5  10   -0.10    0.21
  -1   5  10    0.50    0.77
  -1   5  10    0.21    0.42
  -1   5   9    8.66    0.85
  -1   5   9   10.39    0.66
  -1   5   9    7.35    1.02
  -1   5   8    5.71    0.42
  -1   5   8    6.21    0.45
  -1   5   8    6.29    0.79
   1  -5  -8    5.29    0.40
   1  -5  -7   39.18    2.39
  -1   5   7   44.83    2.59
  -1   5   7   45.83    2.40
  -1   5   7   39.01    2.49
  -1   5   7   46.63    2.42
  -1   5   6    0.45    0.49
  -1   5   6    0.07    0.47
  -1   5   6    0.16    0.15
   1  -5  -6    0.27    0.12
  -1   5   6    0.29    0.15
  -1   5   5    1.47    0.19
  -1   5   5    1.41    0.41
   1  -5  -5    1.34    0.18
  -1   5   5    1.96    0.50
  -1   5   5    1.31    0.46
  -1   5   4   30.13    1.79
  -1   5   4   31.84    1.67
  -1   5   4   27.56    1.83
   1  -5  -4   27.52    1.68
  -1   5   3    4.06    0.93
  -1   5   3    5.97    0.62
   1  -5  -3    5.39    0.40
  -1   5   3    5.86    0.63
  -1   5   2    8.26    1.18
  -1   5   2    9.07    0.84
  -1   5   2   10.47    0.77
   1  -5  -2    9.11    0.61
  -1   5   2    7.89    1.41
   1  -5  -1    4.38    0.38
  -1   5   1    5.04    0.64
   1  -5  -1    4.42    0.46
  -1   5   1    3.29    0.76
  -1   5   1    5.01    0.34
  -1   5   0    7.71    1.38
  -1   5   0    7.51    0.68
  -1   5   0    7.60    0.80
  -1   5   0    7.48    0.48
  -1   5  -1   44.52    2.57
  -1   5  -2    2.68    0.61
  -1   5  -2    2.59    0.51
  -1   5  -3   14.81    1.09
  -1   5  -3   18.02    1.28
  -1   5  -4   17.34    1.23
  -1   5  -4   19.92    1.40
  -1   5  -5    0.26    0.47
   1  -5   5    0.41    0.11
  -1   5  -5    0.35    0.56
   1  -5   6   53.01    2.94
  -1   5  -6   53.96    3.24
  -1   5  -7    3.89    0.86
   1  -5   7    3.55    0.32
   1  -5   7    4.10    0.33
   1  -5   8    3.72    0.35
   1  -5   8    5.14    0.40
  -1   5  -8    4.42    0.93
  -1   5  -9    1.77    0.81
   1  -5   9    2.30    0.31
   1  -5   9    1.76    0.25
  -1   5 -10    8.97    1.23
   1  -5  10   10.21    0.79
  -1   5 -11   20.43    1.67
   1  -5  11   26.63    1.37
   1  -5  11   20.42    1.33
   1  -5  11   19.07    1.33
   1  -5  11   28.47    1.39
  -1   5 -12    0.11    0.49
   1  -5  12    0.29    0.12
   1  -5  12    0.32    0.17
   1  -5  12    0.23    0.17
   1  -5  12    0.16    0.15
   1  -5  13    5.71    0.38
   1  -5  13    5.65    0.37
   1  -5  14    5.44    0.37
   1  -5  14    6.12    0.38
  -1   4  16   12.39    0.74
  -1   4  15    1.39    0.23
  -1   4  15    1.34    0.16
  -1   4  15    1.28    0.75
  -1   4  15    1.59    0.23
  -1   4  14    6.80    0.52
  -1   4  14    7.11    0.51
  -1   4  14    6.40    0.45
  -1   4  13   35.36    2.04
  -1   4  13   35.25    2.02
  -1   4  12   35.35    2.19
  -1   4  12   40.64    2.19
  -1   4  11   15.59    1.06
  -1   4  11   16.38    1.50
  -1   4  11   18.60    1.06
  -1   4  10    6.71    0.48
  -1   4  10    4.54    0.58
  -1   4  10    6.26    0.98
  -1   4   9   12.86    1.02
  -1   4   9   14.57    0.88
  -1   4   9   13.89    1.20
  -1   4   8    0.11    0.58
  -1   4   8    0.11    0.16
  -1   4   7   35.21    1.93
  -1   4   7   31.57    2.10
   1  -4  -6    0.46    0.11
  -1   4   6    0.17    0.36
   1  -4  -6    0.77    0.77
  -1   4   6    0.50    0.15
  -1   4   6   -0.07    0.61
  -1   4   6    0.42    0.47
  -1   4   5   25.78    1.45
   1  -4  -5   22.83    1.34
  -1   4   5   25.87    2.32
  -1   4   5   24.69    2.26
  -1   4   5   23.55    1.50
  -1   4   4   23.56    1.45
  -1   4   4   25.58    1.34
  -1   4   4   22.76    1.46
   1  -4  -4   22.71    1.35
  -1   4   4   22.00    2.12
  -1   4   4   22.14    2.20
  -1   4   3   25.00    1.67
   1  -4  -3   26.05    1.53
  -1   4   3   25.87    2.25
  -1   4   3   28.77    1.52
   1  -4  -3   29.06    1.77
  -1   4   3   26.69    1.62
  -1   4   3   27.00    2.45
   1  -4  -2   32.27    1.82
  -1   4   2   28.10    2.28
  -1   4   2   26.79    1.69
   1  -4  -2   27.53    1.62
  -1   4   2   29.89    1.60
  -1   4   2   28.15    1.76
  -1   4   2   28.18    2.52
  -1   4   1   11.29    1.53
  -1   4   1   12.60    1.29
   1  -4  -1   11.81    0.73
   1  -4  -1   12.86    0.85
  -1   4   1   10.82    0.88
  -1   4   0  970.77   52.09
   1  -4   0 1033.48   51.15
  -1   4   0  979.77   51.05
  -1   4   0  974.25   51.15
  -1   4   0  932.02   51.58
  -1   4  -1  206.85   11.79
  -1   4  -1  187.86   10.98
  -1   4  -1  201.11   10.75
  -1   4  -2    0.47    0.31
  -1   4  -2    0.67    0.73
  -1   4  -2    0.55    0.43
  -1   4  -2    0.75    0.40
  -1   4  -3    5.69    0.57
  -1   4  -3    6.37    0.66
  -1   4  -3    4.55    1.07
  -1   4  -4   37.80    2.39
  -1   4  -4   37.63    2.26
  -1   4  -4   36.31    2.09
  -1   4  -5   23.56    1.55
  -1   4  -5   29.49    1.76
   1  -4   5   27.67    1.48
  -1   4  -5   25.19    1.87
   1  -4   6    2.92    0.24
  -1   4  -6    1.36    0.54
   1  -4   7    9.58    0.60
   1  -4   7    9.11    0.61
  -1   4  -7    9.92    1.06
   1  -4   8   22.45    1.42
  -1   4  -8   23.81    1.86
   1  -4   8   26.53    1.43
  -1   4  -9    7.94    1.12
   1  -4   9    7.56    0.59
   1  -4   9    9.89    0.63
  -1   4 -10    6.39    1.01
   1  -4  10    6.93    0.59
   1  -4  11    4.83    0.44
   1  -4  11    7.16    0.50
   1  -4  11    5.18    0.47
   1  -4  11    6.94    0.49
  -1   4 -11    5.37    0.90
   1  -4  12    7.00    0.57
   1  -4  12    7.78    0.54
   1  -4  12    8.00    0.55
   1  -4  13   25.68    1.33
   1  -4  13   24.48    1.31
   1  -4  13   22.09    1.28
   1  -4  14   30.65    1.67
   1  -4  14   28.26    1.65
   1  -4  15    1.61    0.17
   1  -4  15    1.27    0.14
  -1   3  17    6.76    0.43
  -1   3  16    1.09    0.18
  -1   3  16    0.91    0.19
  -1   3  15   21.75    1.27
  -1   3  15   22.28    1.27
  -1   3  14    1.10    0.91
  -1   3  14    1.38    0.27
  -1   3  14    1.70    0.27
  -1   3  13    0.14    0.23
  -1   3  13    0.01    0.21
  -1   3  13   -0.40    0.95
  -1   3  12    0.49    0.94
  -1   3  12    0.56    0.24
  -1   3  12    0.63    0.23
  -1   3  11    0.16    0.21
  -1   3  11    0.11    0.22
  -1   3  10    2.05    0.27
  -1   3  10    2.30    0.27
  -1   3   9    5.61    0.42
  -1   3   9    5.87    0.42
  -1   3   8    5.32    0.40
  -1   3   8    4.99    0.53
  -1   3   8    5.11    0.39
  -1   3   8    4.24    0.71
  -1   3   7   17.66    1.02
  -1   3   7   16.26    1.21
  -1   3   6    4.95    0.34
   1  -3  -6    3.73    0.46
  -1   3   6    4.40    0.96
  -1   3   5    6.34    0.65
  -1   3   5    6.42    1.11
  -1   3   5    7.42    0.46
  -1   3   4  121.93    7.72
  -1   3   4  128.21    6.93
  -1   3   4  132.93    7.82
  -1   3   3  136.41    8.03
  -1   3   3  132.36    8.08
  -1   3   2   65.53    4.43
   1  -3  -2   65.21    3.79
  -1   3   2   67.21    4.30
   1  -3  -2   73.07    4.22
  -1   3   1  298.72   17.46
   1  -3  -1  318.81   16.77
   1  -3  -1  315.57   17.12
  -1   3   1  278.89   17.19
  -1   3   0  541.29   30.55
   1  -3   0  591.76   30.53
  -1   3   0  556.61   30.94
  -1   3  -1  120.78    7.36
  -1   3  -2    4.93    1.07
  -1   3  -2    4.44    0.47
  -1   3  -3  269.68   14.72
  -1   3  -3  252.66   14.05
  -1   3  -4   44.17    3.42
  -1   3  -4   44.53    2.92
  -1   3  -4   53.25    2.87
  -1   3  -5    2.75    0.44
  -1   3  -5    3.49    0.55
  -1   3  -5    4.23    0.95
   1  -3   5    3.58    0.26
   1  -3   6   28.12    1.56
  -1   3  -6   24.65    1.88
   1  -3   7    1.81    0.19
  -1   3  -7    1.91    0.60
   1  -3   7    2.04    0.21
   1  -3   8    0.99    0.18
  -1   3  -8    1.37    0.59
   1  -3   8    1.13    0.18
   1  -3   9    0.77    0.20
  -1   3  -9    0.78    0.60
   1  -3   9    0.64    0.22
   1  -3  10    3.81    0.41
  -1   3 -10    3.67    0.79
   1  -3  11    8.31    0.64
   1  -3  11    8.08    0.61
   1  -3  11    9.16    0.61
  -1   3 -11    8.71    0.98
   1  -3  12  129.46    6.48
   1  -3  12  115.80    6.51
   1  -3  12  118.51    6.48
   1  -3  13   44.72    2.34
   1  -3  13   46.51    2.35
   1  -3  14    4.78    0.35
   1  -3  15    5.08    0.38
   1  -3  15    5.33    0.36
   1  -3  16    3.63    0.25
   1  -3  16    4.04    0.28
  -1   2  17   29.80    1.62
  -1   2  17   27.92    1.62
  -1   2  16   11.47    0.71
  -1   2  16   11.23    0.72
  -1   2  15    4.72    0.40
  -1   2  15    5.34    0.41
  -1   2  14    8.15    0.60
  -1   2  14    8.51    0.60
  -1   2  13    0.33    0.23
  -1   2  13    0.41    0.25
  -1   2  13    0.21    0.90
  -1   2  12    0.71    0.23
  -1   2  12    0.02    0.89
  -1   2  12    0.47    0.20
  -1   2  11   11.21    0.70
  -1   2  11    8.37    1.15
  -1   2  11    9.70    0.67
  -1   2  10   11.01    0.70
  -1   2  10   10.14    1.11
  -1   2   9    1.94    0.19
  -1   2   9    2.10    0.22
  -1   2   9    2.08    0.69
  -1   2   8   13.19    0.79
  -1   2   8   13.15    0.78
  -1   2   7   50.04    3.82
  -1   2   7   50.16    2.71
  -1   2   7   45.53    2.79
  -1   2   7   50.16    2.72
  -1   2   6  513.01   29.89
  -1   2   6  508.19   29.46
  -1   2   6  541.33   28.85
  -1   2   5  630.66   35.00
   1  -2  -5  659.06   34.81
  -1   2   5  615.59   34.74
  -1   2   4   50.60    3.44
  -1   2   3  216.57   12.64
   1  -2  -3  222.14   12.51
  -1   2   3  228.87   12.65
  -1   2   2  139.05    8.39
   1  -2  -2  150.51    8.31
  -1   2   2  144.30    8.48
  -1   2   1  334.19   17.97
  -1   2   1  313.14   17.81
   1  -2  -1  316.62   17.70
   1  -2  -1  323.16   17.35
   1  -2   0   39.36    2.28
   1  -2   0   34.09    1.91
  -1   2   0   32.73    2.31
   1  -2   1   85.16    4.48
  -1   2  -1   91.94    4.97
  -1   2  -2  369.06   18.11
   1  -2   2  347.73   17.53
  -1   2  -3    4.71    0.92
  -1   2  -3    3.96    0.40
  -1   2  -4    0.61    0.70
  -1   2  -4    0.30    0.20
  -1   2  -5   20.86    1.80
  -1   2  -5   18.54    1.31
  -1   2  -6   12.62    0.97
   1  -2   6   11.64    0.65
  -1   2  -6   10.80    0.89
   1  -2   6    9.71    0.62
  -1   2  -6    9.82    1.19
  -1   2  -7  107.29    5.77
   1  -2   7  104.98    5.48
   1  -2   7   99.20    5.45
   1  -2   8    1.57    0.22
   1  -2   8    1.94    0.21
  -1   2  -8    2.13    0.60
   1  -2   9   14.20    1.00
  -1   2  -9   12.55    1.26
   1  -2  10   30.42    1.93
  -1   2 -10   29.41    2.18
   1  -2  11   12.93    0.86
   1  -2  11   11.36    0.82
   1  -2  11   13.82    0.81
  -1   2 -11   11.25    1.08
  -1   2 -12    1.38    0.48
   1  -2  12    1.85    0.24
   1  -2  12    1.87    0.25
   1  -2  12    2.52    0.35
   1  -2  13   13.78    0.85
   1  -2  13   13.52    0.86
   1  -2  14    4.81    0.37
   1  -2  14    4.66    0.37
   1  -2  15   17.31    1.00
   1  -2  15   16.90    1.00
   1  -2  16    0.19    0.09
  -1   1  17    1.07    0.15
  -1   1  17    1.11    0.15
  -1   1  16    3.65    0.30
  -1   1  16    3.07    0.29
  -1   1  15    0.16    0.19
  -1   1  15    0.31    0.61
  -1   1  15   -0.06    0.20
  -1   1  14    7.77    0.55
  -1   1  14    7.14    0.54
  -1   1  13   44.51    3.04
  -1   1  13   48.77    2.77
  -1   1  13   51.07    2.77
  -1   1  12    8.60    1.08
  -1   1  12    8.15    0.59
  -1   1  11    4.76    0.38
  -1   1  11    4.10    0.43
  -1   1  11    3.53    0.88
  -1   1  11    4.47    0.33
  -1   1  10   18.68    1.10
  -1   1  10   19.68    1.13
  -1   1  10   19.04    1.18
  -1   1  10   17.99    1.44
  -1   1   9    5.80    0.39
  -1   1   9    6.17    0.41
  -1   1   9    5.43    0.45
  -1   1   9    6.34    0.76
  -1   1   8    0.36    0.12
  -1   1   8    0.52    0.10
  -1   1   8    0.43    0.16
  -1   1   8    0.32    0.68
  -1   1   8    0.37    0.53
  -1   1   7  254.04   13.73
  -1   1   7  247.49   13.73
  -1   1   7  241.26   14.81
  -1   1   7  266.73   13.76
  -1   1   7  259.64   13.85
  -1   1   6  236.56   12.69
  -1   1   6  213.45   11.60
  -1   1   6  215.03   11.60
  -1   1   6  215.60   11.70
   1  -1  -6  240.46   12.37
  -1   1   5  910.20   49.59
   1  -1  -5  920.28   49.33
  -1   1   5  897.25   49.20
   1  -1  -4    0.17    0.51
  -1   1   4    0.77    0.70
  -1   1   4    0.52    0.68
  -1   1   3   46.43    3.13
  -1   1   3   48.20    3.25
   1  -1  -2    9.50    1.09
  -1   1   2   12.33    1.31
   1  -1  -2   10.88    0.72
  -1   1   1   33.75    2.47
   1  -1  -1   36.82    2.44
  -1   1   1   38.45    2.66
   1  -1   0  215.22   11.93
   1  -1   1   21.20    1.54
  -1   1  -1   21.18    1.84
  -1   1  -2  235.53   13.22
  -1   1  -3   11.28    1.25
  -1   1  -4    1.19    0.72
  -1   1  -5    2.47    0.74
   1  -1   5    3.22    0.38
   1  -1   6  718.55   38.71
  -1   1  -7  483.23   26.25
   1  -1   7  494.00   26.01
   1  -1   7  471.94   26.03
   1  -1   8   21.85    1.42
   1  -1   8   21.34    1.46
  -1   1  -8   20.57    1.70
  -1   1  -8   22.93    1.64
   1  -1   9    1.57    0.26
  -1   1  -9    1.26    0.48
   1  -1   9    1.66    0.20
   1  -1   9    2.00    0.43
  -1   1 -10   19.23    1.48
   1  -1  10   21.61    1.30
   1  -1  10   18.65    1.26
   1  -1  10   23.55    1.27
   1  -1  10   21.75    1.24
   1  -1  10   21.97    1.38
  -1   1 -11   13.95    1.20
   1  -1  11   17.51    1.06
   1  -1  11   17.04    1.11
   1  -1  11   17.11    1.03
   1  -1  11   17.14    1.21
   1  -1  11   18.59    1.07
   1  -1  12    6.06    0.45
   1  -1  12    5.13    0.41
   1  -1  12    5.11    0.44
   1  -1  13    9.99    0.66
   1  -1  13    9.33    0.64
   1  -1  13    9.28    0.63
   1  -1  14    0.06    0.15
   1  -1  14    0.01    0.19
   1  -1  14    0.06    0.14
   1  -1  15    2.35    0.24
   1  -1  15    2.39    0.24
   1  -1  15    2.36    0.27
   1  -1  16    0.31    0.10
   1  -1  16    0.30    0.15
   1  -1  16    0.34    0.11
   1  -1  17    3.62    0.27
  -1   0  17    0.17    0.11
  -1   0  17    0.21    0.09
  -1   0  16   13.99    0.81
  -1   0  16   12.65    0.80
  -1   0  15    0.19    0.16
  -1   0  15    0.34    0.20
  -1   0  14   12.16    0.74
  -1   0  14    8.22    0.99
  -1   0  13    3.18    0.78
  -1   0  13    3.77    0.35
  -1   0  12   20.43    1.34
  -1   0  12   21.76    1.27
  -1   0  12   21.52    1.59
  -1   0  11   26.84    1.60
  -1   0  11   29.50    1.89
  -1   0  11   28.23    1.67
  -1   0  10    2.83    0.26
  -1   0  10    2.41    0.32
  -1   0  10    2.69    0.71
  -1   0   9    4.21    0.70
  -1   0   9    4.19    0.37
  -1   0   9    3.78    0.31
  -1   0   9    4.05    0.31
  -1   0   8    1.38    0.54
  -1   0   8    0.98    0.19
  -1   0   8    0.84    0.14
  -1   0   8    0.63    0.13
   1   0  -8    0.95    0.30
  -1   0   7   44.21    2.48
  -1   0   7   49.98    2.51
   1   0  -7   43.30    3.06
   1   0  -7   49.38    2.88
  -1   0   7   41.90    2.47
  -1   0   7   47.31    2.63
  -1   0   6    1.77    0.16
   1   0  -6    2.11    0.54
   1   0  -6    1.54    0.32
   1   0  -5   16.80    1.50
   1   0  -5   19.11    1.28
   1   0  -4    0.23    0.42
   1   0  -4    1.32    0.52
   1   0  -4    0.70    0.20
   1   0  -3   -0.22    0.56
   1   0  -3   -0.01    0.16
   1   0  -3    0.30    0.53
  -1   0   2    3.25    0.85
   1   0  -2    2.97    0.78
   1   0  -2    3.29    0.84
   1   0  -2    4.35    0.49
   1   0  -2    3.50    0.33
   1   0  -1  207.41   12.61
   1   0  -1  228.62   12.27
   1   0  -1  240.77   12.42
  -1   0   1  214.89   12.68
  -1   0   0  117.92    6.61
  -1   0   0  146.53    6.85
   1   0   1   31.47    2.22
  -1   0  -1   31.00    2.25
   1   0   2  393.70   22.03
  -1   0  -2  413.12   22.10
   1   0   3   85.53    5.23
  -1   0  -3   94.30    5.33
   1   0   4  290.63   16.01
   1   0   6  152.22    8.55
   1   0   7  428.28   23.46
   1   0   7  440.08   23.44
   1   0   7  443.45   23.82
   1   0   8   54.31    3.11
   1   0   8   58.94    3.12
   1   0   8   58.95    3.16
  -1   0  -8   56.16    3.29
   1   0   8   56.21    3.20
  -1   0  -9   10.04    0.85
   1   0   9   10.62    0.71
   1   0   9   10.40    0.67
   1   0   9   11.93    0.75
   1   0   9   11.85    0.70
   1   0   9   13.43    0.87
   1   0  10    2.02    0.28
   1   0  10    1.58    0.18
   1   0  10    1.82    0.22
   1   0  10    1.90    0.24
   1   0  10    2.60    0.53
   1   0  11    1.15    0.18
   1   0  11    1.26    0.22
   1   0  11    1.00    0.55
   1   0  11    1.42    0.22
   1   0  12   23.48    1.32
   1   0  12   23.32    1.55
   1   0  12   20.88    1.29
   1   0  12   21.85    1.31
   1   0  13    2.02    0.26
   1   0  13    2.17    0.64
   1   0  13    1.58    0.22
   1   0  13    1.84    0.26
   1   0  14    2.44    0.26
   1   0  14    2.94    0.29
   1   0  14    3.05    0.65
   1   0  14    3.03    0.32
   1   0  15    5.43    0.42
   1   0  15    6.58    0.47
   1   0  15    6.10    0.44
   1   0  16    0.01    0.12
   1   0  16    0.26    0.12
   1   0  16    0.14    0.16
   1   0  17    1.28    0.13
   1   0  17    1.60    0.18
   1   0  18   10.15    0.60
  -1  -1  17    5.75    0.37
  -1  -1  16    0.86    0.15
  -1  -1  15    5.08    0.38
  -1  -1  14    4.09    0.35
  -1  -1  13  478.96   25.31
  -1  -1  13  456.26   25.38
  -1  -1  12    0.80    0.31
  -1  -1  12    1.06    0.25
  -1  -1  12    1.55    0.22
  -1  -1  11   58.07    3.17
  -1  -1  11   59.60    3.24
  -1  -1  11   56.98    3.16
  -1  -1  11   49.82    3.34
  -1  -1  10   11.79    0.75
  -1  -1  10    9.67    0.84
  -1  -1  10   10.78    0.68
  -1  -1  10   10.00    0.67
  -1  -1  10   10.92    0.96
  -1  -1   9   21.98    1.44
  -1  -1   9   26.31    1.36
  -1  -1   9   22.23    1.31
  -1  -1   9   22.67    1.51
  -1  -1   9   21.03    1.29
  -1  -1   8   18.32    0.99
  -1  -1   8   15.18    0.94
  -1  -1   8   19.31    1.12
  -1  -1   8   15.28    0.94
  -1  -1   8   14.81    1.16
  -1  -1   7    1.47    0.15
  -1  -1   7    1.23    0.47
   1   1  -7    1.02    0.43
  -1  -1   7    2.10    0.31
  -1  -1   7    1.47    0.16
   1   1  -7    1.83    0.37
  -1  -1   7    2.04    0.20
   1   1  -6    0.80    0.43
   1   1  -6    0.38    0.33
  -1  -1   6    0.38    0.10
   1   1  -6    0.30    0.22
  -1  -1   6    0.30    0.11
   1   1  -5  127.79    6.93
   1   1  -5  120.61    7.23
   1   1  -5  116.79    7.08
   1   1  -5  130.43    7.06
   1   1  -4    1.81    0.55
   1   1  -4    2.77    0.38
   1   1  -4    1.72    0.63
   1   1  -3  154.89    8.54
   1   1  -3  151.43    8.22
   1   1  -3  164.19    8.39
   1   1  -2   12.44    0.97
   1   1  -2   11.21    1.14
   1   1  -2   12.88    0.87
   1   1  -2   10.19    1.16
   1   1  -1  488.33   25.42
  -1  -1   1  451.33   25.37
   1   1  -1  486.91   25.56
  -1  -1   0  129.74    6.75
  -1  -1   0  114.30    6.56
   1   1   0  123.14    6.80
  -1  -1  -1  362.25   19.79
   1   1   2   33.54    2.34
   1   1   3  141.77    8.10
   1   1   4    1.64    0.68
   1   1   5  192.76   10.82
   1   1   6   88.23    5.30
   1   1   6   93.20    5.15
   1   1   7    0.91    0.39
   1   1   7    0.93    0.49
   1   1   7    0.70    0.11
   1   1   8   53.07    3.37
   1   1   8   50.65    2.75
   1   1   8   48.75    2.74
   1   1   8   49.27    2.77
   1   1   8   53.08    2.86
   1   1   9    1.99    0.19
   1   1   9    2.13    0.21
   1   1   9    2.10    0.23
   1   1  10   98.50    5.27
   1   1  10   92.36    5.14
   1   1  10   92.64    5.12
   1   1  10   95.99    5.15
   1   1  11    3.47    0.32
   1   1  11    3.29    0.28
   1   1  11    3.40    0.30
   1   1  11    4.10    0.70
   1   1  12    2.97    0.31
   1   1  12    3.28    0.31
   1   1  12    2.85    0.28
   1   1  12    2.60    0.75
   1   1  13   11.60    0.79
   1   1  13   14.39    0.84
   1   1  13   13.16    1.15
   1   1  13   12.84    0.83
   1   1  14    4.44    0.37
   1   1  14    4.49    0.82
  -1  -1 -14    4.62    0.37
   1   1  14    4.86    0.41
   1   1  14    5.27    0.41
   1   1  15   44.01    2.43
   1   1  15   41.33    2.41
   1   1  15   45.45    2.45
   1   1  15   41.43    2.62
   1   1  16    2.68    0.27
   1   1  16    2.34    0.24
   1   1  16    2.15    0.21
   1   1  16    1.92    0.57
   1   1  17    3.13    0.26
   1   1  17    3.76    0.29
   1   1  18    0.15    0.09
  -1  -2  16    0.14    0.09
  -1  -2  15   52.79    2.91
  -1  -2  14    3.97    0.42
  -1  -2  14    3.95    0.35
  -1  -2  14    3.57    0.31
  -1  -2  13  210.34   11.22
  -1  -2  13  209.61   11.28
  -1  -2  13  202.83   11.20
  -1  -2  12   51.69    2.88
  -1  -2  12   49.62    2.80
  -1  -2  12   48.93    2.78
  -1  -2  11    2.09    0.33
  -1  -2  11    1.57    0.25
  -1  -2  11    1.37    0.21
  -1  -2  10    3.12    0.28
  -1  -2  10    3.83    0.56
  -1  -2  10    3.40    0.36
  -1  -2  10    3.56    0.31
  -1  -2   9    4.78    0.37
  -1  -2   9    4.51    0.35
  -1  -2   9    4.50    0.57
  -1  -2   8    5.79    0.41
  -1  -2   8    6.40    0.45
  -1  -2   8    6.78    0.64
  -1  -2   8    5.43    0.40
  -1  -2   8    6.86    0.61
  -1  -2   7    5.59    0.55
  -1  -2   7    4.99    0.36
  -1  -2   7    5.60    0.38
  -1  -2   7    5.55    0.39
  -1  -2   7    5.45    0.55
  -1  -2   6    8.35    0.54
   1   2  -6    9.25    0.91
  -1  -2   6   10.34    0.57
  -1  -2   6    8.83    0.69
  -1  -2   6    9.17    0.57
   1   2  -6    8.63    0.89
   1   2  -5   99.88    7.24
   1   2  -5  113.03    7.25
  -1  -2   5  114.90    6.90
   1   2  -5   88.88    7.26
   1   2  -4   20.75    1.56
   1   2  -4   20.86    1.71
   1   2  -4   24.32    1.62
   1   2  -4   25.41    1.80
   1   2  -3  121.16    6.62
   1   2  -3  115.96    6.45
   1   2  -3  101.76    6.59
   1   2  -3  114.35    6.44
   1   2  -2  256.20   13.94
   1   2  -2  267.71   13.91
   1   2  -2  240.57   14.04
  -1  -2   2  248.32   13.81
   1   2  -1 9830.76  532.34
  -1  -2   1 9936.67  532.21
   1   2  -1 9999.00  532.27
  -1  -2   0  182.39    9.71
   1   2   0  168.05    9.84
  -1  -2  -1 1985.52  106.64
   1   2   2   53.48    3.33
   1   2   3  463.50   26.53
  -1  -2  -3  533.50   26.80
   1   2   4   44.72    2.80
   1   2   5    6.43    0.87
   1   2   6    1.70    0.65
   1   2   7   88.33    4.61
   1   2   7   82.36    4.62
   1   2   8    3.24    0.24
   1   2   8    3.04    0.72
   1   2   8    3.59    0.26
   1   2   8    3.76    0.51
   1   2   9   55.76    3.04
   1   2   9   55.94    3.05
   1   2   9   53.49    3.02
   1   2   9   46.81    3.72
   1   2   9   59.42    3.17
   1   2  10   10.27    0.63
   1   2  10    8.83    0.59
   1   2  10    9.53    0.61
   1   2  10   11.03    0.89
   1   2  11   62.69    3.53
   1   2  11   57.15    3.31
   1   2  11   64.13    3.35
   1   2  11   59.99    3.34
   1   2  12    1.33    0.24
   1   2  12    0.93    0.18
   1   2  12    0.85    0.21
   1   2  13  359.07   18.20
   1   2  13  342.02   18.19
  -1  -2 -13  323.12   18.18
   1   2  13  323.29   18.16
   1   2  13  356.09   18.38
   1   2  14    0.22    0.20
  -1  -2 -14    0.30    0.14
   1   2  14    0.15    0.15
   1   2  14    0.20    0.20
   1   2  14   -0.16    0.75
   1   2  15    3.61    0.33
   1   2  15    3.31    0.79
   1   2  15    3.39    0.32
  -1  -2 -15    3.07    0.27
   1   2  15    2.81    0.27
   1   2  16    0.42    0.16
   1   2  16    0.45    0.18
   1   2  16    0.27    0.62
   1   2  17    4.41    0.33
   1   2  17    3.04    0.56
   1   2  18    0.33    0.10
  -1  -3  16    1.75    0.16
  -1  -3  15    3.78    0.29
  -1  -3  15    3.30    0.25
  -1  -3  14    9.48    0.60
  -1  -3  14    8.68    0.66
  -1  -3  14    8.98    0.58
  -1  -3  13   15.85    0.93
  -1  -3  13   15.41    1.00
  -1  -3  13   13.86    0.89
  -1  -3  12   22.73    1.33
  -1  -3  12   23.41    1.41
  -1  -3  12   21.37    1.30
  -1  -3  11    7.93    0.61
  -1  -3  11    7.01    0.52
  -1  -3  11    6.87    0.49
  -1  -3  10    4.23    0.37
  -1  -3  10    4.31    0.67
  -1  -3  10    4.32    0.42
  -1  -3  10    4.18    0.33
  -1  -3   9    7.89    0.56
  -1  -3   9    7.92    0.54
  -1  -3   9    9.09    0.61
  -1  -3   9    9.66    0.85
  -1  -3   8   45.56    2.33
  -1  -3   8   40.71    2.45
  -1  -3   8   37.29    2.29
  -1  -3   8   41.95    2.34
  -1  -3   8   44.11    2.52
  -1  -3   7   74.68    4.02
  -1  -3   7   69.28    3.86
  -1  -3   7   68.07    3.96
  -1  -3   7   61.27    3.82
  -1  -3   6   40.05    2.48
  -1  -3   6   33.87    2.41
  -1  -3   6   40.36    2.37
  -1  -3   5   70.32    4.20
   1   3  -5   64.04    4.42
  -1  -3   5   73.88    4.11
  -1  -3   5   64.72    4.16
   1   3  -5   74.75    4.62
  -1  -3   4   32.41    1.74
   1   3  -4   30.60    2.19
  -1  -3   4   31.23    1.73
   1   3  -4   28.77    2.13
  -1  -3   4   29.50    1.84
   1   3  -3    2.69    0.50
   1   3  -2  143.17    7.90
   1   3  -2  141.01    8.07
  -1  -3   2  134.01    7.70
   1   3  -1 2643.33  139.88
   1   3  -1 2615.47  140.05
  -1  -3   1 2567.40  139.74
   1   3   0    3.06    0.73
   1   3   0    1.90    0.84
  -1  -3   0    2.32    0.41
  -1  -3   0    2.97    0.55
   1   3   1    0.46    0.51
  -1  -3  -1    0.51    0.33
  -1  -3  -1    0.27    0.39
   1   3   2  177.38   10.73
  -1  -3  -2  197.84   10.70
  -1  -3  -2  204.11   10.87
   1   3   3   14.34    1.48
  -1  -3  -3   22.41    1.69
   1   3   4   73.30    4.67
  -1  -3  -4   85.91    4.96
  -1  -3  -5    2.24    0.72
   1   3   6    0.15    0.09
   1   3   6    0.32    0.36
   1   3   7    0.26    0.11
   1   3   7    0.26    0.09
   1   3   8    2.39    0.20
   1   3   8    1.99    0.21
   1   3   8    2.11    0.67
   1   3   8    2.22    0.21
   1   3   9    1.22    0.17
   1   3   9    1.31    0.15
  -1  -3  -9    1.32    0.19
   1   3  10   21.81    1.25
  -1  -3 -10   22.19    1.28
   1   3  10   21.23    1.26
  -1  -3 -11  590.66   31.55
   1   3  11  570.75   31.53
   1   3  11  594.89   31.55
   1   3  11  594.58   31.55
   1   3  12   10.38    0.68
   1   3  12   10.18    1.11
   1   3  12   10.53    0.70
   1   3  12    9.40    0.64
  -1  -3 -12   10.12    0.67
   1   3  13  194.03    9.81
   1   3  13  173.87    9.76
  -1  -3 -13  175.67    9.78
   1   3  13  183.98   10.00
   1   3  13  180.27    9.79
   1   3  14    6.59    0.51
   1   3  14    6.11    0.45
  -1  -3 -14    6.19    0.46
   1   3  14    6.56    1.01
   1   3  14    6.85    0.50
   1   3  15    7.02    0.50
  -1  -3 -15    6.17    0.44
   1   3  15    6.61    0.49
   1   3  16    0.24    0.17
   1   3  16    0.14    0.16
   1   3  16    0.68    0.68
   1   3  17    0.10    0.52
   1   3  17    0.38    0.15
   1   3  18    0.87    0.11
  -1  -4  15    2.01    0.19
  -1  -4  14    0.24    0.13
  -1  -4  14    0.37    0.10
  -1  -4  13    0.42    0.13
  -1  -4  13    0.58    0.18
  -1  -4  12    4.18    0.34
  -1  -4  12    4.62    0.38
  -1  -4  11    0.40    0.14
  -1  -4  11    0.11    0.20
  -1  -4  10    0.37    0.14
  -1  -4  10    0.22    0.18
  -1  -4   9   36.02    2.24
  -1  -4   9   36.66    1.97
  -1  -4   9   32.08    1.93
  -1  -4   8    0.75    0.50
  -1  -4   8    1.46    0.23
  -1  -4   8    0.69    0.15
  -1  -4   7    8.65    0.76
  -1  -4   7   10.78    0.91
  -1  -4   7    9.21    0.64
  -1  -4   7   11.19    0.94
  -1  -4   6   11.01    0.94
  -1  -4   6   12.58    0.73
  -1  -4   6    9.79    0.81
  -1  -4   5   11.89    0.93
  -1  -4   5   14.51    0.82
  -1  -4   5   14.02    1.03
  -1  -4   4   50.49    2.74
  -1  -4   4   51.41    2.89
  -1  -4   4   46.87    2.84
   1   4  -4   53.65    3.66
   1   4  -3   74.10    4.56
  -1  -4   3   67.92    3.65
  -1  -4   3   64.99    3.68
  -1  -4   3   67.85    3.76
  -1  -4   2   72.16    4.11
  -1  -4   2   71.08    4.12
  -1  -4   2   78.35    4.13
   1   4  -2   78.37    4.83
   1   4  -1    9.84    1.20
   1   4   0    0.69    0.58
   1   4   1    0.05    0.52
  -1  -4  -1    0.22    0.33
  -1  -4  -2   39.33    2.65
  -1  -4  -3    7.11    0.91
  -1  -4  -4    1.53    0.25
  -1  -4  -4    1.35    0.15
  -1  -4  -4    1.26    0.56
   1   4   5    0.53    0.32
   1   4   5    0.39    0.10
   1   4   6    0.22    0.10
  -1  -4  -6    0.55    0.12
   1   4   6    0.18    0.11
   1   4   6    0.06    0.36
  -1  -4  -7   13.22    0.81
   1   4   7   13.77    0.80
   1   4   7   14.04    0.95
   1   4   7   12.88    0.80
  -1  -4  -7   15.36    1.64
   1   4   8   61.50    3.32
  -1  -4  -8   60.07    3.33
   1   4   8   59.78    3.33
   1   4   8   59.41    3.42
   1   4   9   34.62    2.07
   1   4   9   34.78    1.92
   1   4   9   35.15    1.93
   1   4   9   32.14    1.89
  -1  -4  -9   33.99    1.92
  -1  -4 -10    6.64    0.49
   1   4  10    6.98    0.49
   1   4  10    6.91    0.46
   1   4  10    7.22    0.83
   1   4  11   66.02    3.56
  -1  -4 -11   64.26    3.56
   1   4  11   60.29    3.52
   1   4  11   73.67    3.79
   1   4  12    8.26    0.56
  -1  -4 -12    7.86    0.54
   1   4  12    6.75    0.50
   1   4  13    0.56    0.22
   1   4  13    0.36    0.23
   1   4  13    0.41    0.15
  -1  -4 -13    0.42    0.17
   1   4  14   21.27    1.28
   1   4  14   22.70    1.29
  -1  -4 -14   20.21    1.25
  -1  -4 -15    6.04    0.42
   1   4  15    6.51    0.47
   1   4  15    5.50    0.97
   1   4  16    0.77    0.18
   1   4  16    0.74    0.68
   1   4  17    0.68    0.53
   1   4  17    0.02    0.11
  -1  -5  14    4.33    0.30
  -1  -5  14    3.94    0.33
  -1  -5  13    0.64    0.21
  -1  -5  13    0.81    0.16
  -1  -5  12    0.74    0.26
  -1  -5  12    0.80    0.14
  -1  -5  12    0.92    0.19
  -1  -5  11   10.22    0.64
  -1  -5  11   10.81    0.72
  -1  -5  11    8.82    0.59
  -1  -5  10    0.60    0.15
  -1  -5  10    0.72    0.20
  -1  -5  10    0.72    0.28
  -1  -5   9   82.26    4.90
  -1  -5   9   94.72    4.98
  -1  -5   9   97.91    4.95
  -1  -5   9   88.52    5.20
  -1  -5   8  169.93    9.30
  -1  -5   8  158.63    9.08
  -1  -5   8  149.61    9.02
  -1  -5   7   23.21    1.43
  -1  -5   7   21.02    1.38
  -1  -5   6    5.95    0.77
  -1  -5   6    5.15    0.43
  -1  -5   6    6.11    0.43
  -1  -5   6    5.44    0.60
  -1  -5   5    2.05    0.42
  -1  -5   5    1.81    0.20
  -1  -5   5    2.02    0.22
  -1  -5   5    2.45    0.62
  -1  -5   4    6.40    0.48
  -1  -5   4    6.82    0.46
  -1  -5   4    6.85    0.64
   1   5  -4    6.02    0.62
  -1  -5   4    6.68    0.43
  -1  -5   3   10.12    0.84
  -1  -5   3   11.77    0.71
  -1  -5   3   11.62    0.74
  -1  -5   2    2.78    0.53
  -1  -5   2    2.67    0.30
  -1  -5   2    2.43    0.44
  -1  -5   2    2.55    0.21
   1   5  -2    2.21    0.71
  -1  -5   2    2.29    0.42
  -1  -5   2    1.81    0.22
  -1  -5   1   76.51    4.26
  -1  -5   1   82.23    4.25
  -1  -5   1   72.71    4.35
  -1  -5   1   77.58    4.28
   1   5  -1   81.75    5.33
  -1  -5   1   74.36    4.65
   1   5   0    0.06    0.53
  -1  -5   0    0.47    0.22
  -1  -5   0    0.45    0.23
  -1  -5   0    0.50    0.32
  -1  -5   0    0.03    0.37
  -1  -5   0    0.45    0.12
  -1  -5   0    0.27    0.26
  -1  -5  -1    0.09    0.22
   1   5   1    0.35    0.50
  -1  -5  -1    0.46    0.37
  -1  -5  -1    0.40    0.31
  -1  -5  -1    0.21    0.11
  -1  -5  -1    0.29    0.27
  -1  -5  -1    0.09    0.19
  -1  -5  -2   23.07    1.47
  -1  -5  -2   25.13    1.86
  -1  -5  -2   25.04    1.38
  -1  -5  -3   21.49    1.19
  -1  -5  -3   19.45    1.27
  -1  -5  -3   21.74    1.70
  -1  -5  -3   20.34    1.68
  -1  -5  -4  103.00    5.55
  -1  -5  -4   98.03    6.13
  -1  -5  -4   98.62    6.19
   1   5   5  162.99    8.98
  -1  -5  -5  186.68    9.81
   1   5   6   50.81    2.84
  -1  -5  -6   58.40    3.73
   1   5   6   52.13    2.91
   1   5   7    6.17    0.44
   1   5   7    6.12    0.43
   1   5   7    6.66    0.60
  -1  -5  -7    6.99    0.46
   1   5   7    6.29    0.62
   1   5   8    2.43    0.26
   1   5   8    2.57    0.25
  -1  -5  -8    2.88    0.28
   1   5   8    2.46    0.53
  -1  -5  -9    0.12    0.16
   1   5   9    0.02    0.14
   1   5   9   -0.32    0.55
   1   5   9   -0.01    0.15
  -1  -5 -10   10.29    0.68
   1   5  10   10.41    0.69
   1   5  10    9.80    0.66
   1   5  10    9.47    0.97
   1   5  11    5.99    0.50
  -1  -5 -11    6.95    0.50
   1   5  11    6.06    0.47
   1   5  11    5.93    0.89
   1   5  12    4.04    0.37
  -1  -5 -12    4.28    0.38
   1   5  12    5.27    0.92
   1   5  13    6.95    0.53
  -1  -5 -13    7.24    0.51
   1   5  13    8.26    1.07
  -1  -5 -14    2.31    0.24
   1   5  14    2.22    0.27
  -1  -5 -15    2.48    0.23
   1   5  15    2.46    0.26
   1   5  16    1.65    0.20
  -1  -6  13    0.76    0.12
  -1  -6  13    0.94    0.17
  -1  -6  12   11.95    0.72
  -1  -6  12   11.69    0.77
   1   6 -11    2.80    0.57
  -1  -6  11    3.66    0.37
  -1  -6  11    3.80    0.31
  -1  -6  10    0.08    0.21
  -1  -6  10    0.33    0.17
  -1  -6   9   29.93    2.07
  -1  -6   9   27.52    1.71
  -1  -6   9   33.06    1.77
  -1  -6   9   33.84    1.81
  -1  -6   8   17.89    1.11
  -1  -6   8   15.71    1.04
  -1  -6   7    3.27    0.33
  -1  -6   7    4.16    0.41
  -1  -6   6    5.61    0.48
  -1  -6   6    7.44    0.51
  -1  -6   6    6.22    0.78
  -1  -6   5    3.42    0.33
  -1  -6   5    3.60    0.30
  -1  -6   5    3.74    0.60
  -1  -6   4    3.99    0.33
  -1  -6   4    3.80    0.30
  -1  -6   4    3.19    0.54
   1   6  -3    0.18    0.48
  -1  -6   3    0.98    0.59
  -1  -6   3    0.34    0.14
  -1  -6   3    0.43    0.12
  -1  -6   3    0.94    0.48
   1   6  -2   17.96    1.14
  -1  -6   2   15.32    1.14
  -1  -6   2   15.54    0.95
  -1  -6   2   15.92    1.17
  -1  -6   1    8.61    0.55
  -1  -6   1    8.50    0.80
  -1  -6   1    8.10    0.58
  -1  -6   0    8.52    0.58
  -1  -6   0    8.91    0.56
  -1  -6   0    8.67    0.76
  -1  -6   0    8.36    0.76
  -1  -6  -1   57.11    3.64
  -1  -6  -1   70.17    3.59
  -1  -6  -2    8.20    0.50
   1   6   2    6.70    0.44
  -1  -6  -2    6.65    0.62
   1   6   3  175.06    9.95
  -1  -6  -3  200.06    9.99
  -1  -6  -4  179.95    9.74
   1   6   5   82.32    4.41
  -1  -6  -5   76.73    4.31
   1   6   6   25.00    1.63
   1   6   6   30.50    1.71
   1   6   7    5.07    0.66
   1   6   7    6.04    0.63
  -1  -6  -7    6.62    0.47
   1   6   8    1.75    0.49
  -1  -6  -8    2.16    0.26
   1   6   8    1.86    0.54
  -1  -6  -9    3.50    0.33
   1   6   9    2.83    0.63
   1   6  10   -0.03    0.16
  -1  -6 -10   -0.06    0.19
   1   6  10    0.04    0.65
  -1  -6 -11    8.49    0.56
   1   6  11    6.73    0.54
   1   6  11    7.71    0.93
  -1  -6 -12    0.23    0.19
   1   6  12    0.48    0.75
   1   6  12    0.11    0.17
  -1  -6 -13    2.62    0.27
   1   6  13    2.58    0.78
  -1  -6 -14   11.25    0.71
   1   6  14   11.84    1.12
  -1  -6 -15    0.07    0.11
   1   6  15   -0.08    0.64
   1   6  16    4.68    0.67
   1   6  17   43.41    2.26
   1   6  17   34.42    2.35
  -1  -7  12    2.00    0.17
  -1  -7  12    1.90    0.20
  -1  -7  11    0.06    0.11
   1   7 -11    0.14    0.35
  -1  -7  11    0.10    0.16
  -1  -7  10    7.63    0.53
  -1  -7  10    7.23    0.49
  -1  -7   9    1.73    0.27
  -1  -7   9    1.59    0.22
  -1  -7   8    0.25    0.20
  -1  -7   8    0.44    0.19
  -1  -7   7    1.61    0.64
  -1  -7   7    2.76    0.38
  -1  -7   7    1.53    0.27
  -1  -7   6    3.98    0.38
  -1  -7   6    3.14    0.34
   1   7  -6    2.42    0.59
  -1  -7   6    2.59    0.65
  -1  -7   5   12.90    1.07
  -1  -7   5   12.96    0.81
  -1  -7   5   14.74    0.80
  -1  -7   4   -0.05    0.47
  -1  -7   4    0.13    0.16
  -1  -7   4    0.08    0.14
   1   7  -4    0.21    0.50
   1   7  -3    0.39    0.56
  -1  -7   3    0.19    0.44
  -1  -7   3    0.66    0.18
  -1  -7   3    0.91    0.15
   1   7  -2   13.21    1.06
  -1  -7   2   13.68    0.84
  -1  -7   2   13.15    1.02
  -1  -7   1   37.37    1.97
   1   7  -1   39.43    2.15
  -1  -7   0    0.23    0.19
   1   7   0    0.53    0.59
  -1  -7   0    0.64    0.16
  -1  -7  -1   55.43    3.12
   1   7   1   60.49    3.25
  -1  -7  -1   53.70    3.08
   1   7   2    9.33    0.59
  -1  -7  -2   10.63    0.68
   1   7   3    8.09    0.85
  -1  -7  -3    7.68    0.55
   1   7   3    7.30    0.49
  -1  -7  -4   19.53    1.16
   1   7   4   18.56    1.11
   1   7   4   20.24    1.37
   1   7   5   37.88    2.19
  -1  -7  -5   40.53    2.23
   1   7   5   40.42    2.37
   1   7   6   24.97    1.57
   1   7   6   23.43    1.38
   1   7   7    1.85    0.59
  -1  -7  -8    0.62    0.22
   1   7   8    0.53    0.47
   1   7   8    0.47    0.51
  -1  -7  -9   10.87    0.69
   1   7   9    7.61    0.85
  -1  -7 -10    4.67    0.41
   1   7  10    4.28    0.70
  -1  -7 -11    2.10    0.28
   1   7  11    1.25    0.64
  -1  -7 -12    0.03    0.17
   1   7  12    0.71    0.62
   1   7  13    8.98    0.95
  -1  -7 -13   10.24    0.65
   1   7  14    4.27    0.35
  -1  -7 -14    4.16    0.33
   1   7  14    3.56    0.69
  -1  -7 -15    0.72    0.12
   1   7  15    0.22    0.49
   1   7  16    9.57    0.73
   1   8 -10    0.09    0.34
  -1  -8  10    0.15    0.09
  -1  -8  10   -0.01    0.12
   1   8  -9    0.56    0.48
  -1  -8   9    0.71    0.17
  -1  -8   9    0.52    0.13
  -1  -8   8    0.85    0.20
  -1  -8   8    1.09    0.17
  -1  -8   7   -0.01    0.17
  -1  -8   7    0.07    0.17
  -1  -8   6    2.00    0.60
  -1  -8   6    1.68    0.25
  -1  -8   6    2.50    0.34
   1   8  -6    1.81    0.55
  -1  -8   5    0.12    0.17
  -1  -8   5    0.70    0.49
  -1  -8   5    0.16    0.17
   1   8  -5   -0.10    0.55
  -1  -8   4    0.47    0.48
  -1  -8   4    0.02    0.17
  -1  -8   4    0.24    0.15
   1   8  -4    0.36    0.52
  -1  -8   3   24.43    1.70
  -1  -8   3   25.65    1.51
  -1  -8   3   27.87    1.49
   1   8  -2  155.03    8.47
  -1  -8   2  136.37    8.51
  -1  -8   2  161.18    8.38
  -1  -8   2  154.65    8.34
   1   8  -1   25.15    1.62
  -1  -8   1   21.55    1.54
  -1  -8   1   24.82    1.42
   1   8   0   47.52    2.70
  -1  -8   0   39.26    2.62
  -1  -8   0   46.89    2.52
   1   8   1    0.29    0.72
  -1  -8  -1    0.25    0.25
  -1  -8  -1    0.05    0.16
  -1  -8  -2   31.19    1.79
  -1  -8  -2   30.82    1.85
  -1  -8  -3    7.43    0.56
   1   8   3    6.51    0.46
   1   8   3    8.14    0.93
   1   8   4    0.27    0.69
  -1  -8  -4    0.75    0.25
   1   8   4    0.52    0.16
   1   8   5    1.87    0.73
   1   8   5    2.10    0.24
  -1  -8  -5    2.30    0.33
   1   8   6    0.57    0.63
   1   8   6    0.32    0.17
   1   8   7    0.11    0.18
   1   8   7    0.20    0.60
  -1  -8  -8   18.55    1.07
   1   8   8   17.49    1.03
  -1  -8  -9    1.83    0.30
   1   8   9    1.32    0.24
   1   8   9    1.14    0.50
  -1  -8 -10    2.09    0.30
   1   8  10    2.16    0.27
  -1  -8 -11   15.14    0.97
   1   8  11   15.79    0.95
  -1  -8 -12   37.73    2.15
   1   8  12   43.01    2.15
   1   8  13    0.20    0.17
  -1  -8 -13    0.28    0.15
   1   8  13    0.75    0.44
  -1  -8 -14    4.05    0.32
   1   8  14    3.69    0.49
   1   8  15    0.45    0.11
   1   9  -9    2.09    0.37
   1   9  -8    8.02    0.78
  -1  -9   8    7.45    0.47
  -1  -9   8    8.28    0.50
  -1  -9   7    0.29    0.14
  -1  -9   7    0.22    0.11
  -1  -9   6    2.10    0.23
  -1  -9   6    2.30    0.22
  -1  -9   5   12.26    0.87
   1   9  -5    9.80    1.07
  -1  -9   4    2.27    0.25
  -1  -9   4    2.54    0.27
   1   9  -4    1.71    0.52
   1   9  -4    1.93    0.65
  -1  -9   3    2.90    0.49
  -1  -9   3    3.32    0.32
  -1  -9   3    3.57    0.30
   1   9  -3    4.03    0.77
   1   9  -3    3.16    0.62
  -1  -9   2   42.57    2.22
   1   9  -2   38.97    2.39
  -1  -9   2   40.52    2.25
  -1  -9   1    3.23    0.27
  -1  -9   1    3.29    0.31
   1   9  -1    3.05    0.75
  -1  -9   0    0.09    0.15
   1   9   0    0.31    0.76
  -1  -9  -1    0.05    0.15
   1   9   1    0.12    0.80
  -1  -9  -2    0.12    0.15
  -1  -9  -2    0.20    0.29
  -1  -9  -3    3.66    0.44
  -1  -9  -3    3.78    0.33
  -1  -9  -4    0.17    0.27
  -1  -9  -4    0.17    0.17
   1   9   4    0.68    0.77
  -1  -9  -5    0.09    0.29
   1   9   5    0.09    0.14
   1   9   5    0.01    0.72
  -1  -9  -6    7.36    0.60
   1   9   6    6.71    0.48
   1   9   6    7.28    0.88
   1   9   7    0.39    0.60
   1   9   7    0.48    0.18
  -1  -9  -8    2.94    0.36
   1   9   8    2.39    0.26
  -1  -9  -9    5.79    0.46
   1   9   9    4.77    0.38
  -1  -9 -10   14.00    0.90
  -1  -9 -11    4.70    0.40
   1   9  11    4.60    0.35
   1   9  12   17.87    1.02
  -1  -9 -12   17.11    1.05
   1   9  13    0.52    0.12
  -1  -9 -13    0.45    0.13
   1   9  14    0.02    0.08
   1  10  -6    3.36    0.55
  -1 -10   6    3.28    0.24
  -1 -10   5    0.13    0.10
   1  10  -5    0.01    0.34
  -1 -10   4    1.29    0.17
   1  10  -4    1.01    0.49
  -1 -10   3    0.24    0.12
   1  10  -3    0.57    0.47
   1  10  -3   -0.05    0.53
  -1 -10   2    0.30    0.13
   1  10  -2    0.47    0.54
   1  10  -2    0.63    0.63
  -1 -10   1    0.86    0.17
   1  10  -1    1.48    0.71
   1  10  -1    1.70    0.59
   1  10   0    4.77    0.87
  -1 -10   0    4.64    0.36
   1  10   0    4.92    0.74
  -1 -10  -1    6.02    0.43
   1  10   1    6.35    0.84
  -1 -10  -2    0.21    0.13
  -1 -10  -3    2.09    0.22
  -1 -10  -4    1.14    0.17
   1  10   4    0.91    0.71
  -1 -10  -5    0.10    0.12
  -1 -10  -5   -0.11    0.27
   1  10   5    0.29    0.68
  -1 -10  -6    6.16    0.43
  -1 -10  -6    6.24    0.53
   1  10   6    5.44    0.76
   1  10   6    5.89    0.75
   1  10   7    7.13    0.77
  -1 -10  -7    7.81    0.50
   1  10   7    6.17    0.72
   1  10   8    0.47    0.50
   1  10   8    0.25    0.13
  -1 -10  -8    0.20    0.12
   1  10   9    0.19    0.12
  -1 -10  -9    0.12    0.10
  -1 -10  -9    0.08    0.21
  -1 -10 -10    7.02    0.50
   1  10  10    6.51    0.42
  -1 -10 -10    6.61    0.42
   1  10  11    0.47    0.11
  -1 -10 -11    0.53    0.09
  -1 -10 -11    0.30    0.15
  -1 -10 -12    0.52    0.13
   1  10  12    0.73    0.09
   1  11  -3    0.19    0.29
   1  11  -2    2.71    0.49
   1  11  -2    2.36    0.40
   1  11  -1    0.64    0.35
  -1 -11   1    0.56    0.10
   1  11  -1    0.18    0.42
   1  11  -1    0.15    0.47
  -1 -11   0    3.86    0.27
   1  11   0    3.47    0.56
   1  11   0    4.21    0.66
  -1 -11  -1    1.10    0.13
   1  11   1    1.04    0.53
   1  11   2    7.49    0.79
   1  11   2    5.79    0.71
  -1 -11  -2    6.44    0.41
  -1 -11  -3    0.58    0.11
   1  11   3    1.74    0.58
   1  11   4  108.26    6.03
   1  11   4  108.00    5.92
  -1 -11  -4  106.88    5.81
  -1 -11  -5    1.86    0.17
   1  11   5    2.09    0.55
   1  11   5    1.82    0.51
   1  11   6    7.32    0.71
  -1 -11  -6    7.64    0.46
   1  11   6    7.25    0.67
   1  11   7    0.29    0.41
  -1 -11  -7    0.45    0.08
   1  11   8    0.32    0.25
  -2  10   8    2.55    0.28
  -2  10   6    0.17    0.30
  -2  10   6    0.09    0.26
  -2  10   5    1.44    0.32
  -2  10   5    1.47    0.46
  -2  10   4    2.48    0.36
  -2  10   4    3.34    0.54
  -2  10   3    0.94    0.29
  -2  10   3    1.21    0.51
  -2  10   2    0.17    0.23
  -2  10   1    2.00    0.54
  -2  10   0    1.29    0.51
  -2  10  -1    0.56    0.45
  -2  10  -2    0.78    0.35
   2 -10   2    1.53    0.15
   2 -10   3    1.13    0.13
   2 -10   4    0.83    0.10
  -2   9  10   17.11    1.04
  -2   9   9    5.90    0.57
  -2   9   9    9.05    0.62
  -2   9   8    3.31    0.45
  -2   9   8    1.68    0.37
  -2   9   7   20.34    1.30
  -2   9   6    2.95    0.54
  -2   9   6    3.07    0.63
  -2   9   5    2.04    0.52
  -2   9   5    1.78    0.67
  -2   9   4    0.05    0.44
  -2   9   4    0.01    0.70
  -2   9   3    5.26    0.84
  -2   9   3    4.90    0.61
  -2   9   2    1.50    0.44
  -2   9   1   -0.18    0.35
  -2   9   0    0.68    0.74
  -2   9   0    0.26    0.29
  -2   9  -1    0.69    0.68
  -2   9  -2   18.46    1.33
  -2   9  -3    8.96    0.76
  -2   9  -3    5.12    0.54
   2  -9   4    2.13    0.20
  -2   9  -4    1.28    0.42
  -2   9  -4    0.83    0.33
  -2   9  -5    1.36    0.33
   2  -9   5    2.21    0.20
  -2   9  -6    6.04    0.74
   2  -9   6   16.47    0.72
  -2   9  -7    0.25    0.18
   2  -9   7    0.06    0.09
  -2   8  12    1.13    0.36
  -2   8  11    6.09    0.65
  -2   8  11    5.00    0.46
  -2   8  10    0.02    0.33
  -2   8   9    6.07    0.66
  -2   8   8    0.17    0.49
  -2   8   7    3.49    0.68
  -2   8   7    2.88    0.64
  -2   8   6    2.06    0.71
  -2   8   5    1.88    0.65
  -2   8   5    2.50    0.80
  -2   8   4    3.74    0.70
  -2   8   4    3.48    0.89
  -2   8   3    3.24    0.65
  -2   8   3    3.09    0.95
  -2   8   2    1.13    0.53
  -2   8   2    0.04    0.87
  -2   8   1    3.84    0.60
  -2   8   0   12.95    1.02
  -2   8   0   15.77    1.31
  -2   8  -1   10.25    1.05
  -2   8  -1    6.52    0.65
  -2   8  -2   28.51    2.05
  -2   8  -2   37.69    2.15
  -2   8  -3   24.99    1.76
  -2   8  -3   27.58    1.76
  -2   8  -4    1.12    0.54
  -2   8  -4    1.38    0.63
  -2   8  -5    4.74    0.72
  -2   8  -5    4.25    0.64
  -2   8  -6    0.28    0.46
   2  -8   6    0.54    0.15
  -2   8  -7    1.34    0.47
   2  -8   7    3.09    0.26
   2  -8   8    3.32    0.28
  -2   8  -8    0.98    0.41
   2  -8   9    8.60    0.49
   2  -8   9    8.74    0.49
  -2   7  12    0.18    0.53
  -2   7  11    1.67    0.18
  -2   7  11    1.21    0.38
  -2   7  10   -0.09    0.15
  -2   7  10   -0.16    0.42
  -2   7   9    0.14    0.48
  -2   7   9    0.02    0.16
  -2   7   8    2.74    0.67
  -2   7   8    2.61    0.27
  -2   7   7   10.46    0.98
  -2   7   7    9.14    0.93
  -2   7   7    8.96    0.61
  -2   7   6    3.05    0.78
  -2   7   6    3.14    0.32
  -2   7   5    1.10    0.79
  -2   7   4   11.11    1.05
  -2   7   4    9.87    1.14
  -2   7   3   -0.07    0.57
  -2   7   3    0.30    0.83
  -2   7   2    3.75    0.66
  -2   7   2    3.20    0.94
  -2   7   1    2.77    0.58
  -2   7   0   10.92    0.93
  -2   7   0   12.56    1.20
  -2   7  -1    0.61    0.39
  -2   7  -1    0.93    0.50
  -2   7  -1    0.80    0.85
  -2   7  -2    2.35    0.78
  -2   7  -2    1.76    0.61
  -2   7  -3    7.85    0.95
  -2   7  -3    7.41    0.96
  -2   7  -4   -0.39    0.62
  -2   7  -4   -0.23    0.68
  -2   7  -5    1.77    0.73
  -2   7  -5    2.26    0.65
  -2   7  -6    4.09    0.86
   2  -7   6    5.62    0.41
  -2   7  -7    0.23    0.63
   2  -7   7    1.20    0.19
  -2   7  -8   -0.26    0.57
   2  -7   8    0.07    0.16
   2  -7   9    2.37    0.31
  -2   7 -10    0.81    0.41
   2  -7  10    0.93    0.14
   2  -7  10    1.21    0.14
  -2   7 -11    7.63    0.78
   2  -7  11   14.61    0.72
  -2   6  14    0.15    0.39
  -2   6  13   -0.08    0.53
  -2   6  12   -0.04    0.11
  -2   6  11    0.38    0.14
  -2   6  11    0.51    0.39
  -2   6  10    0.73    0.17
  -2   6  10    0.47    0.47
  -2   6   9    2.76    0.62
  -2   6   9    3.10    0.29
  -2   6   8    8.44    0.57
  -2   6   8    8.17    0.90
  -2   6   7   23.02    1.60
  -2   6   7   22.13    1.53
  -2   6   7   21.65    1.29
  -2   6   6   39.52    2.37
  -2   6   6   37.76    2.32
  -2   6   6   35.91    2.08
  -2   6   5  289.37   15.79
  -2   6   5  289.71   15.62
  -2   6   4    8.82    0.88
  -2   6   4    6.84    0.51
  -2   6   4    6.88    0.94
  -2   6   3    0.06    0.74
  -2   6   3    0.60    0.56
  -2   6   2    4.25    0.65
  -2   6   2    3.54    0.82
  -2   6   1    0.23    0.45
  -2   6   0    0.44    0.42
  -2   6   0    0.49    0.45
  -2   6   0   -0.01    0.75
  -2   6  -1   21.02    1.44
  -2   6  -1   21.59    1.58
  -2   6  -1   22.32    1.59
  -2   6  -2   34.04    2.10
  -2   6  -2   32.41    1.98
  -2   6  -3    0.46    0.61
  -2   6  -3   -0.13    0.73
  -2   6  -4   12.94    1.27
  -2   6  -4   11.87    1.12
  -2   6  -5    2.23    0.78
  -2   6  -5    1.27    0.65
  -2   6  -6   16.59    1.45
  -2   6  -6   12.04    1.02
  -2   6  -7   29.05    2.30
   2  -6   7   33.22    1.86
   2  -6   8    0.52    0.19
   2  -6   9    5.13    0.42
  -2   6 -10    0.13    0.55
   2  -6  10    0.14    0.16
   2  -6  11   14.37    0.88
   2  -6  11   15.83    0.87
   2  -6  12    3.68    0.25
   2  -6  12    4.07    0.25
  -2   5  15    0.13    0.28
  -2   5  14    0.66    0.48
  -2   5  13    6.29    0.85
  -2   5  12    0.57    0.13
  -2   5  11    4.46    0.58
  -2   5  11    5.26    0.37
  -2   5  10    0.82    0.49
  -2   5  10    1.58    0.21
  -2   5  10    1.36    0.27
  -2   5   9    1.66    0.56
  -2   5   9    1.55    0.28
  -2   5   9    1.62    0.22
  -2   5   8   -0.14    0.54
  -2   5   8    0.26    0.16
  -2   5   8   -0.03    0.20
  -2   5   7  250.67   13.63
  -2   5   7  254.48   13.40
  -2   5   7  233.81   13.52
  -2   5   6    0.49    0.19
  -2   5   6    0.24    0.57
  -2   5   6    1.25    0.67
  -2   5   5  582.30   31.69
  -2   5   5  584.25   31.48
  -2   5   5  592.99   31.63
  -2   5   4   30.74    1.72
  -2   5   4   28.64    1.94
  -2   5   3   29.89    1.87
  -2   5   3   27.27    1.84
  -2   5   3   28.52    1.62
  -2   5   2    0.88    0.66
  -2   5   1   18.00    1.41
  -2   5   0   33.68    2.00
  -2   5   0   32.70    2.08
  -2   5   0   28.91    2.12
  -2   5  -1   11.55    0.92
  -2   5  -1   12.89    1.07
  -2   5  -1   12.53    1.16
  -2   5  -1   12.46    1.07
  -2   5  -2    1.25    0.56
  -2   5  -2    1.42    0.37
  -2   5  -2    0.73    0.65
  -2   5  -3    1.37    0.58
  -2   5  -3    1.87    0.69
  -2   5  -4    7.75    0.95
  -2   5  -4    5.51    0.81
  -2   5  -5    1.10    0.72
  -2   5  -5    1.08    0.64
  -2   5  -6   29.89    2.01
  -2   5  -6   41.43    2.45
  -2   5  -7  528.84   31.56
   2  -5   7  590.24   31.17
   2  -5   8    1.23    0.22
  -2   5  -9   61.94    4.57
   2  -5   9   81.28    4.26
  -2   5 -10    1.53    0.69
   2  -5  10    3.17    0.34
  -2   5 -11   14.43    1.37
   2  -5  11   22.56    1.16
   2  -5  11   16.47    1.14
   2  -5  11   20.24    1.13
  -2   5 -12    0.67    0.42
   2  -5  12    1.04    0.14
   2  -5  12    0.78    0.16
   2  -5  12    1.07    0.18
   2  -5  13    5.18    0.33
   2  -5  13    4.78    0.31
   2  -5  14    2.20    0.17
  -2   4  15    0.44    0.32
  -2   4  14   10.70    0.95
  -2   4  13    0.92    0.68
  -2   4  12    0.41    0.23
  -2   4  11   -0.07    0.35
  -2   4  11    0.01    0.24
  -2   4  11    0.15    0.13
  -2   4  10    0.19    0.14
  -2   4  10    0.28    0.22
  -2   4  10    0.09    0.42
  -2   4  10    0.79    0.86
  -2   4   9   26.52    1.54
  -2   4   9   23.88    1.90
  -2   4   9   23.74    1.75
  -2   4   8    2.63    0.30
  -2   4   8    2.12    0.57
  -2   4   8    2.42    0.24
  -2   4   8    2.94    0.81
  -2   4   7    0.47    0.15
  -2   4   7    0.34    0.17
  -2   4   7    0.34    0.51
  -2   4   7    0.40    0.63
  -2   4   6    0.79    0.49
  -2   4   6    1.07    0.17
  -2   4   6    1.14    0.60
  -2   4   6    1.09    0.19
  -2   4   5   24.13    1.58
  -2   4   5   25.53    1.59
  -2   4   5   23.24    1.34
  -2   4   5   23.33    1.37
  -2   4   4    6.56    0.78
  -2   4   4    6.54    0.43
  -2   4   3    0.21    0.44
  -2   4   3    0.82    0.59
  -2   4   3    0.43    0.14
  -2   4   2    7.71    0.68
  -2   4   2    6.78    0.76
  -2   4   2    6.68    0.44
  -2   4   1   12.53    0.91
  -2   4   1   10.75    0.96
  -2   4   0    0.01    0.33
  -2   4   0   -0.11    0.36
  -2   4  -1    8.13    0.69
  -2   4  -1    8.07    0.82
  -2   4  -1    8.49    0.83
  -2   4  -2    0.35    0.47
  -2   4  -2    0.05    0.28
  -2   4  -2    0.49    0.58
  -2   4  -3    6.66    0.84
  -2   4  -3    6.77    0.78
  -2   4  -4    4.34    0.74
  -2   4  -4    4.01    0.69
  -2   4  -5  116.67    6.07
  -2   4  -5   98.12    5.76
  -2   4  -6    5.16    0.68
  -2   4  -6    6.50    0.94
   2  -4   7  282.12   15.21
  -2   4  -8   41.13    2.74
   2  -4   8   39.37    2.23
  -2   4  -9    0.11    0.74
   2  -4   9    0.89    0.22
  -2   4 -10    0.18    0.73
   2  -4  10    0.34    0.26
   2  -4  11    1.73    0.26
   2  -4  11    1.74    0.22
   2  -4  12    1.89    0.24
   2  -4  12    1.56    0.18
   2  -4  12    1.36    0.23
   2  -4  13    0.06    0.14
   2  -4  13    0.12    0.13
   2  -4  13    0.16    0.09
  -2   4 -13    0.28    0.34
   2  -4  14    0.86    0.14
   2  -4  14    0.85    0.12
   2  -4  15    0.20    0.07
  -2   3  14    2.25    0.57
  -2   3  14    2.79    0.29
  -2   3  13   49.71    2.81
  -2   3  13   53.80    2.81
  -2   3  12    1.86    0.26
  -2   3  12    1.90    0.28
  -2   3  11    0.98    0.23
  -2   3  11    0.76    0.24
  -2   3  10    0.54    0.21
  -2   3  10    0.96    0.24
  -2   3  10    0.47    0.39
  -2   3   9   11.49    0.71
  -2   3   9    9.91    0.65
  -2   3   9   12.28    0.72
  -2   3   9    9.15    0.87
  -2   3   8   49.59    2.83
  -2   3   8   56.62    2.88
  -2   3   8   52.49    2.88
  -2   3   8   50.13    3.12
  -2   3   8   46.18    3.01
  -2   3   7   12.00    0.78
  -2   3   7   13.83    0.79
  -2   3   7   12.06    0.74
  -2   3   7   12.43    1.09
  -2   3   7   11.92    0.99
  -2   3   6    0.43    0.15
  -2   3   6    0.26    0.43
  -2   3   6    0.76    0.13
  -2   3   6    0.75    0.47
  -2   3   6    0.83    0.18
  -2   3   6    0.35    0.57
  -2   3   5    0.47    0.12
  -2   3   5    0.91    0.45
  -2   3   5    0.53    0.53
  -2   3   5    0.65    0.15
  -2   3   5    0.56    0.79
  -2   3   4    0.21    0.42
  -2   3   4    0.46    0.80
  -2   3   4    0.35    0.12
  -2   3   4    0.63    0.55
  -2   3   4    0.25    0.12
  -2   3   3   18.71    1.09
  -2   3   3   19.25    1.30
  -2   3   3   18.67    2.21
  -2   3   3   19.10    1.08
   2  -3  -3   19.02    1.83
  -2   3   2   -0.09    0.86
  -2   3   2    0.28    0.36
  -2   3   2    0.09    0.10
  -2   3   2    0.09    0.53
   2  -3  -2    0.11    0.50
  -2   3   1    5.11    1.29
  -2   3   1    3.96    0.62
   2  -3  -1    4.22    0.80
  -2   3   0   16.85    1.08
  -2   3   0   15.59    1.13
   2  -3   0   15.90    1.48
  -2   3  -1    5.27    0.52
  -2   3  -1    6.12    0.64
  -2   3  -1    6.01    0.67
  -2   3  -1    6.56    1.37
   2  -3   1    6.41    0.82
  -2   3  -2   14.15    1.06
  -2   3  -2   13.48    0.99
   2  -3   2   13.31    1.17
  -2   3  -2   12.97    1.79
  -2   3  -2   12.00    0.86
  -2   3  -3   48.66    2.71
  -2   3  -3   40.74    2.53
  -2   3  -3   40.96    3.58
  -2   3  -4   29.96    3.01
  -2   3  -4   39.00    2.28
  -2   3  -4   32.90    2.07
  -2   3  -5   40.98    2.55
  -2   3  -5   51.05    2.83
  -2   3  -7    1.34    0.70
   2  -3   7    1.27    0.16
  -2   3  -8    3.55    0.84
   2  -3   8    4.46    0.34
  -2   3  -9    2.62    0.79
   2  -3   9    3.57    0.32
  -2   3 -10    9.01    1.23
   2  -3  10   15.85    0.94
   2  -3  11    0.93    0.23
   2  -3  11    0.55    0.16
   2  -3  12   -0.04    0.19
  -2   3 -12   -0.12    0.46
   2  -3  12   -0.12    0.20
   2  -3  12    0.03    0.11
  -2   3 -13    0.55    0.39
   2  -3  13    0.13    0.16
   2  -3  13    0.19    0.11
   2  -3  13    0.16    0.17
   2  -3  14    2.44    0.22
   2  -3  14    2.29    0.23
   2  -3  15    4.23    0.30
   2  -3  15    3.96    0.28
  -2   2  16    1.94    0.19
  -2   2  15    0.32    0.16
  -2   2  14   16.91    1.07
  -2   2  14   19.17    1.08
  -2   2  13   39.16    2.20
  -2   2  13   42.02    2.21
  -2   2  12   30.94    1.80
  -2   2  12   33.53    1.82
  -2   2  11    1.53    0.24
  -2   2  11    1.84    0.28
  -2   2  11    1.84    0.91
  -2   2  10   29.58    1.64
  -2   2  10   27.76    1.63
  -2   2  10   24.50    1.99
  -2   2   9    3.64    0.51
  -2   2   9    4.46    0.35
  -2   2   9    4.42    0.38
  -2   2   9    3.21    0.89
  -2   2   8    1.86    0.46
  -2   2   8    2.49    0.27
  -2   2   8    2.50    0.25
  -2   2   7    0.05    0.13
  -2   2   7   -0.09    0.37
  -2   2   7    0.14    0.33
  -2   2   7    0.12    0.14
  -2   2   6    8.92    0.58
  -2   2   6    9.88    0.59
  -2   2   5   13.26    0.77
  -2   2   5   11.20    0.91
  -2   2   5   13.28    0.77
  -2   2   5   12.94    1.01
  -2   2   5   14.02    1.76
  -2   2   5   12.19    0.95
  -2   2   4    3.43    0.27
  -2   2   4    4.03    0.27
  -2   2   4    4.21    0.55
  -2   2   4    3.47    0.25
  -2   2   4    3.21    0.48
   2  -2  -4    3.78    0.84
   2  -2  -4    3.45    0.32
  -2   2   4    2.85    1.05
  -2   2   3   20.61    2.21
  -2   2   3   21.23    1.33
  -2   2   3   20.44    1.15
   2  -2  -3   20.51    1.90
  -2   2   3   18.41    1.29
  -2   2   2    6.16    0.67
   2  -2  -2    5.50    0.96
  -2   2   2    5.90    0.57
  -2   2   1  738.79   40.10
  -2   2   1  794.72   41.38
   2  -2  -1  823.81   40.85
  -2   2   1  733.82   40.11
  -2   2   0  428.63   23.84
  -2   2   0  448.49   23.88
  -2   2  -1   84.84    4.89
  -2   2  -1  104.04    6.18
   2  -2   1   89.43    5.42
  -2   2  -1   91.72    5.09
  -2   2  -2   22.61    2.30
  -2   2  -2   20.83    1.38
   2  -2   2   18.54    1.62
  -2   2  -3   81.07    5.24
  -2   2  -3   83.76    4.16
  -2   2  -3   64.74    3.99
   2  -2   3   70.66    4.36
  -2   2  -4   32.23    2.03
  -2   2  -4   39.47    2.22
   2  -2   4   32.69    2.25
  -2   2  -4   40.50    3.18
  -2   2  -5   15.55    1.05
  -2   2  -5   16.47    1.95
  -2   2  -6   18.24    1.32
   2  -2   6   14.92    0.87
  -2   2  -7   31.28    2.05
   2  -2   7   29.30    1.65
  -2   2  -8   12.28    1.19
   2  -2   8   13.68    0.82
  -2   2  -9   30.29    2.84
   2  -2   9   54.91    2.68
  -2   2 -10    4.21    0.81
   2  -2  10    6.33    0.45
   2  -2  11   20.18    1.13
   2  -2  11   17.74    1.16
   2  -2  11   18.00    1.08
   2  -2  12    9.66    0.71
   2  -2  12    9.62    0.62
   2  -2  12   11.03    0.68
   2  -2  13   51.04    2.61
   2  -2  13   52.58    2.63
   2  -2  13   45.21    2.57
   2  -2  14    0.04    0.15
   2  -2  14    0.25    0.17
   2  -2  15    0.18    0.13
   2  -2  15    0.31    0.13
   2  -2  16    0.66    0.10
   2  -2  16    0.60    0.11
  -2   1  16    2.30    0.21
  -2   1  15    1.99    0.21
  -2   1  15    2.52    0.24
  -2   1  14    0.35    0.15
  -2   1  14    0.46    0.19
  -2   1  13    4.64    0.39
  -2   1  13    4.27    0.36
  -2   1  12   -0.06    0.55
  -2   1  12   -0.05    0.16
  -2   1  12    0.04    0.21
  -2   1  11    1.33    0.21
  -2   1  11    0.90    0.24
  -2   1  11    0.76    0.63
  -2   1  11    0.35    0.81
  -2   1  10    0.92    0.20
  -2   1  10    1.22    0.22
  -2   1  10    0.21    0.63
  -2   1  10    0.81    0.81
  -2   1   9    0.47    0.31
  -2   1   9    0.32    0.72
  -2   1   9    0.15    0.14
  -2   1   9    0.09    0.15
  -2   1   9    0.21    0.16
  -2   1   8    0.02    0.30
  -2   1   8    0.37    0.14
  -2   1   8    0.15    0.12
  -2   1   8    0.34    0.15
  -2   1   8    0.30    0.68
  -2   1   7    3.97    0.50
  -2   1   7    4.79    0.34
  -2   1   7    4.00    0.50
  -2   1   7    4.83    0.35
  -2   1   7    4.37    0.74
  -2   1   6    2.16    0.20
  -2   1   6    2.39    0.21
  -2   1   6    1.59    0.40
  -2   1   6    2.44    0.61
  -2   1   5   47.47    2.46
   2  -1  -5   39.00    3.25
  -2   1   5   44.93    2.46
   2  -1  -5   44.89    2.68
  -2   1   5   44.32    2.62
   2  -1  -5   39.78    2.78
  -2   1   5   39.77    2.58
  -2   1   4   11.55    0.66
   2  -1  -4   11.56    0.81
  -2   1   4   13.40    1.66
   2  -1  -4    9.37    0.88
  -2   1   4   10.22    0.81
   2  -1  -3    2.37    0.76
  -2   1   3    2.22    0.40
   2  -1  -3    2.50    0.27
  -2   1   3    3.70    1.11
   2  -1  -2    1.53    0.85
   2  -1  -2    3.30    0.84
  -2   1   2    2.08    1.02
   2  -1  -1  499.87   26.74
  -2   1   1  547.02   27.08
   2  -1   0  335.62   18.28
  -2   1   0  321.00   17.74
  -2   1   0  329.41   18.65
  -2   1  -1    1.06    0.39
   2  -1   1    0.85    0.66
   2  -1   1    0.28    0.77
  -2   1  -1    1.03    1.03
   2  -1   2  132.64    7.91
   2  -1   2  121.39    7.60
  -2   1  -2  139.31    8.17
  -2   1  -3   22.85    1.28
   2  -1   3   21.20    1.65
  -2   1  -4   -0.21    0.75
   2  -1   4   -0.19    0.41
  -2   1  -4    0.08    0.11
  -2   1  -5   35.67    2.16
   2  -1   5   31.43    2.35
  -2   1  -6    0.28    0.46
  -2   1  -6    0.21    0.15
   2  -1   7    4.33    0.51
  -2   1  -7    5.14    0.68
  -2   1  -7    3.38    0.50
  -2   1  -8   11.02    1.08
   2  -1   8   11.67    0.95
  -2   1  -9   22.10    1.67
   2  -1   9   23.56    1.51
   2  -1   9   24.36    1.37
  -2   1 -10   34.88    2.44
   2  -1  10   40.89    2.21
   2  -1  10   37.45    2.17
   2  -1  10   41.89    2.32
  -2   1 -11   51.96    3.49
   2  -1  11   63.75    3.28
   2  -1  11   56.70    3.30
   2  -1  11   56.92    3.23
   2  -1  11   61.70    3.37
   2  -1  12  139.28    6.92
   2  -1  12  140.59    6.96
   2  -1  12  119.33    6.87
   2  -1  13   57.34    3.03
   2  -1  13   61.29    3.06
   2  -1  14   15.30    0.95
   2  -1  14   15.30    0.94
   2  -1  15    1.12    0.18
   2  -1  15    1.11    0.18
   2  -1  16    3.29    0.26
   2  -1  16    3.72    0.27
  -2   0  16    6.24    0.40
  -2   0  15    0.08    0.10
  -2   0  15    0.05    0.14
  -2   0  14    0.04    0.12
  -2   0  14   -0.05    0.18
  -2   0  13    2.25    0.24
  -2   0  13    1.98    0.28
  -2   0  12    0.88    0.19
  -2   0  12    1.04    0.24
  -2   0  11    1.77    0.22
  -2   0  11    1.34    0.26
  -2   0  11    1.77    0.26
  -2   0  11    1.30    0.54
  -2   0  10    2.01    0.23
  -2   0  10    2.19    0.26
  -2   0  10    1.70    0.27
  -2   0  10    1.75    0.61
  -2   0   9   14.12    1.26
  -2   0   9   16.29    0.96
  -2   0   9   16.14    0.99
  -2   0   9   16.14    0.97
  -2   0   9   14.87    1.28
  -2   0   8   15.55    0.90
  -2   0   8   14.57    0.87
  -2   0   8   13.55    1.19
  -2   0   8   15.34    1.20
  -2   0   8   12.40    0.95
  -2   0   8   14.91    0.87
  -2   0   7  196.09   11.19
  -2   0   7  220.05   11.09
  -2   0   7  209.31   11.07
  -2   0   7  193.85   11.32
  -2   0   7  217.37   11.25
  -2   0   7  178.16   11.14
  -2   0   7  205.75   11.06
  -2   0   6  172.03    9.52
  -2   0   6  175.70    9.26
  -2   0   6  156.73    9.39
  -2   0   6  175.83    9.27
  -2   0   6  173.79    9.26
   2   0  -6  159.19   10.18
   2   0  -6  181.03    9.68
  -2   0   6  185.31    9.44
   2   0  -6  153.63    9.80
  -2   0   6  154.52    9.35
  -2   0   5    5.92    0.59
   2   0  -5    6.79    1.03
  -2   0   5    6.90    0.42
   2   0  -5    6.91    1.09
  -2   0   5    7.31    0.77
   2   0  -5    6.92    0.67
   2   0  -5    7.22    0.82
  -2   0   5    5.98    0.57
   2   0  -4   19.18    1.19
  -2   0   4   14.17    1.06
   2   0  -4   18.07    1.73
  -2   0   4   15.95    1.18
   2   0  -4   17.94    1.69
   2   0  -4   17.13    1.38
  -2   0   4   15.34    1.04
   2   0  -3  161.20    9.06
  -2   0   3  146.46    8.27
   2   0  -3  159.92    8.98
   2   0  -3  165.96    8.32
   2   0  -3  148.37    8.55
  -2   0   3  141.92    8.17
   2   0  -2   22.67    2.11
   2   0  -2   25.79    1.55
   2   0  -1   97.04    6.41
   2   0  -1  112.71    6.56
   2   0   0    9.71    1.29
  -2   0   0   10.87    0.96
   2   0   1  124.79    6.63
  -2   0  -1  139.50    6.29
   2   0   2   11.28    1.35
  -2   0  -2    8.43    0.61
  -2   0  -2    9.96    1.07
   2   0   3   13.57    1.53
  -2   0  -4    7.21    0.65
   2   0   4    8.52    1.21
  -2   0  -5   28.48    1.66
  -2   0  -5   23.91    1.62
   2   0   5   25.61    2.21
  -2   0  -6   38.97    2.23
  -2   0  -6   34.12    2.18
  -2   0  -7   14.02    1.03
  -2   0  -7   11.90    0.93
   2   0   7   13.10    0.93
  -2   0  -8   41.88    2.39
  -2   0  -8   34.26    2.28
   2   0   8   40.02    2.27
  -2   0  -9   32.82    2.04
   2   0   9   31.60    1.81
   2   0   9   31.83    1.95
  -2   0 -10   44.64    2.79
   2   0  10   46.71    2.58
   2   0  10   45.37    2.71
  -2   0 -11    6.41    0.70
   2   0  11    7.05    0.49
   2   0  11    6.08    0.54
   2   0  11    7.87    0.79
  -2   0 -12    6.84    0.73
   2   0  12    8.37    0.57
   2   0  12    8.72    0.62
   2   0  12    9.40    0.87
   2   0  13    0.84    0.19
   2   0  13    0.62    0.24
   2   0  13    1.26    0.59
   2   0  14    0.29    0.17
   2   0  14    0.56    0.20
   2   0  15    4.72    0.37
   2   0  15    4.00    0.33
   2   0  16    0.41    0.13
   2   0  16    0.40    0.14
  -2   0 -16    0.31    0.10
   2   0  17    1.30    0.14
   2   0  17    1.60    0.15
  -2  -1  16    0.44    0.10
  -2  -1  15    0.03    0.13
  -2  -1  14    5.70    0.41
  -2  -1  14    7.25    0.47
  -2  -1  13    1.32    0.18
  -2  -1  13    1.37    0.24
  -2  -1  12   -0.05    0.14
  -2  -1  12    0.11    0.21
  -2  -1  12   -0.03    0.18
  -2  -1  11   10.10    0.72
  -2  -1  11   11.15    0.68
  -2  -1  11    9.55    0.65
  -2  -1  10    0.28    0.13
  -2  -1  10    0.08    0.21
  -2  -1  10    0.04    0.16
  -2  -1   9    0.07    0.12
  -2  -1   9    0.22    0.18
  -2  -1   9    0.01    0.14
  -2  -1   9    0.17    0.44
  -2  -1   8   61.14    3.33
  -2  -1   8   60.26    3.34
  -2  -1   8   65.43    3.38
  -2  -1   7   91.13    5.10
  -2  -1   7   93.39    5.11
  -2  -1   7   85.60    5.31
  -2  -1   7   86.84    5.18
  -2  -1   6  503.99   29.19
  -2  -1   6  574.20   29.01
  -2  -1   6  536.31   28.99
   2   1  -6  506.92   29.92
   2   1  -6  587.88   29.55
   2   1  -6  500.86   29.74
  -2  -1   6  507.69   29.07
   2   1  -5   25.54    2.18
  -2  -1   5   23.24    1.54
  -2  -1   5   26.30    1.51
  -2  -1   5   26.09    1.41
  -2  -1   5   24.46    1.39
   2   1  -5   24.95    2.11
  -2  -1   5   25.20    1.63
   2   1  -5   26.74    1.80
   2   1  -5   22.92    1.95
  -2  -1   5   23.18    1.49
  -2  -1   4   38.92    2.39
  -2  -1   4   42.94    2.36
   2   1  -4   44.26    3.12
   2   1  -4   40.88    3.10
  -2  -1   4   39.58    2.44
   2   1  -4   46.50    2.64
   2   1  -4   39.27    2.82
  -2  -1   4   39.48    2.34
   2   1  -3   11.41    1.39
   2   1  -3   11.28    1.38
  -2  -1   3   10.22    0.82
   2   1  -3   12.80    0.93
  -2  -1   3    9.86    0.78
   2   1  -3   11.87    1.14
  -2  -1   3    9.69    0.72
   2   1  -2   15.10    1.10
   2   1  -2   16.61    1.70
   2   1  -2   14.26    1.61
   2   1  -2   14.21    1.33
   2   1  -1  224.71   12.15
  -2  -1   1  208.79   11.32
   2   1  -1  194.88   11.69
   2   1   0  101.63    5.95
  -2  -1   0   89.29    5.11
  -2  -1   0   95.73    5.44
  -2  -1  -1   15.60    1.05
  -2  -1  -1   16.52    1.39
   2   1   2   30.60    2.50
  -2  -1  -2   27.90    1.79
  -2  -1  -2   31.61    2.28
  -2  -1  -3    0.32    0.54
   2   1   3    0.38    0.76
  -2  -1  -4   61.55    3.51
   2   1   4   65.48    4.29
  -2  -1  -5  154.80    8.31
   2   1   5  166.93    9.15
  -2  -1  -5  144.84    8.31
  -2  -1  -6  607.05   31.85
   2   1   6  604.35   32.58
  -2  -1  -6  571.82   31.83
  -2  -1  -7   96.06    5.10
   2   1   7   91.57    4.92
  -2  -1  -7   86.15    5.05
   2   1   7   87.66    5.02
  -2  -1  -8   66.62    3.74
   2   1   8   64.74    3.55
   2   1   8   63.15    3.59
   2   1   8   66.45    3.68
  -2  -1  -9   18.01    1.22
   2   1   9   17.57    1.06
   2   1   9   16.57    1.01
   2   1   9   18.49    1.23
  -2  -1 -10   47.92    2.81
   2   1  10   46.36    2.63
   2   1  10   47.23    2.67
   2   1  10   49.58    2.81
  -2  -1 -11    0.83    0.36
   2   1  11    1.31    0.19
   2   1  11    1.77    0.66
   2   1  12    4.66    0.39
   2   1  12    6.19    0.80
   2   1  13    0.85    0.19
   2   1  13    0.97    0.25
   2   1  13    0.87    0.67
   2   1  14    0.96    0.19
   2   1  14    1.16    0.25
   2   1  14    0.82    0.65
   2   1  15    2.18    0.27
  -2  -1 -15    2.20    0.25
   2   1  15    1.99    0.23
   2   1  15    2.17    0.60
   2   1  16    0.17    0.14
   2   1  16    0.24    0.13
  -2  -1 -16    0.20    0.11
   2   1  16    0.25    0.41
   2   1  17    0.30    0.10
   2   1  17    0.32    0.11
  -2  -2  15    3.32    0.26
  -2  -2  14    3.37    0.29
  -2  -2  13    3.32    0.37
  -2  -2  13    4.30    0.35
  -2  -2  12    0.39    0.13
  -2  -2  12    0.48    0.24
  -2  -2  12    0.52    0.19
  -2  -2  11    8.12    0.56
  -2  -2  11    8.16    0.75
  -2  -2  11    9.76    0.67
  -2  -2  11    8.86    0.59
  -2  -2  10    0.07    0.12
  -2  -2  10    0.16    0.38
  -2  -2  10    0.03    0.20
  -2  -2  10   -0.02    0.16
  -2  -2   9   10.20    0.84
  -2  -2   9    9.58    0.65
  -2  -2   9    8.40    0.59
  -2  -2   9    9.01    0.84
  -2  -2   8    0.05    0.47
  -2  -2   8    0.39    0.17
  -2  -2   8    0.49    0.14
  -2  -2   7   23.89    1.25
  -2  -2   7   20.92    1.21
  -2  -2   6   19.79    1.07
   2   2  -6   15.15    1.66
  -2  -2   6   18.94    1.05
  -2  -2   6   15.77    1.21
  -2  -2   6   16.40    1.11
  -2  -2   5    1.93    0.31
  -2  -2   5    2.38    0.36
  -2  -2   5    2.29    0.20
  -2  -2   5    1.91    0.17
   2   2  -5    2.14    0.68
   2   2  -5    1.86    0.66
  -2  -2   5    1.90    0.43
   2   2  -5    2.52    0.48
   2   2  -5    1.02    0.58
   2   2  -5    2.90    0.66
   2   2  -4   -0.24    0.62
  -2  -2   4    0.15    0.24
  -2  -2   4    0.30    0.26
  -2  -2   4    0.03    0.08
   2   2  -4    0.06    0.41
  -2  -2   4    0.16    0.35
   2   2  -4   -0.26    0.71
   2   2  -4   -0.10    0.23
   2   2  -4    0.05    0.43
  -2  -2   3   24.46    1.41
   2   2  -3   24.49    2.12
  -2  -2   3   21.57    1.42
   2   2  -3   25.68    1.69
  -2  -2   3   20.79    1.35
   2   2  -3   24.60    2.00
   2   2  -3   24.30    2.17
  -2  -2   2   28.69    1.75
  -2  -2   2   24.75    1.62
  -2  -2   2   26.93    1.63
   2   2  -2   29.90    1.88
  -2  -2   2   26.24    1.57
   2   2  -2   30.73    2.27
   2   2  -2   27.93    2.42
   2   2  -1   10.23    1.44
  -2  -2   1   10.20    0.79
   2   2  -1   10.18    1.18
   2   2   0    4.09    1.09
  -2  -2   0    3.19    0.41
  -2  -2   0    4.11    0.66
  -2  -2  -1    3.45    0.44
  -2  -2  -1    3.22    0.66
  -2  -2  -2  360.12   20.39
   2   2   2  367.34   21.05
  -2  -2  -2  413.09   20.87
  -2  -2  -3    2.76    0.81
   2   2   3    1.82    0.90
  -2  -2  -4    8.40    1.17
  -2  -2  -4    6.23    0.57
  -2  -2  -4    7.66    0.58
   2   2   4    6.13    1.13
   2   2   5  118.18    7.39
  -2  -2  -5  115.20    6.54
   2   2   5  113.90    6.43
  -2  -2  -5  130.44    6.52
  -2  -2  -6  172.61    9.30
   2   2   6  155.86   10.06
   2   2   6  167.97    9.18
   2   2   6  188.45    9.86
  -2  -2  -7    4.05    0.45
   2   2   7    4.18    0.32
   2   2   7    3.02    0.82
   2   2   7    5.10    0.88
  -2  -2  -8   11.30    0.81
   2   2   8   10.08    0.63
   2   2   8   10.97    0.68
   2   2   8   10.91    0.87
   2   2   9    1.54    0.21
   2   2   9    1.30    0.16
  -2  -2  -9    1.63    0.35
   2   2   9    1.61    0.58
  -2  -2 -10    0.69    0.30
   2   2  10    0.54    0.13
   2   2  10    0.70    0.19
   2   2  10    0.42    0.63
   2   2  11   19.31    1.19
   2   2  11   21.15    1.24
   2   2  11   22.25    1.48
   2   2  12    4.00    0.34
   2   2  12    4.63    0.84
   2   2  13    0.62    0.17
   2   2  13    0.31    0.73
   2   2  14    3.90    0.34
  -2  -2 -14    4.57    0.39
   2   2  14    4.41    0.83
   2   2  15    2.62    0.26
   2   2  15    2.90    0.30
  -2  -2 -15    2.66    0.28
   2   2  15    3.40    0.71
   2   2  16    0.84    0.15
   2   2  16    0.96    0.19
  -2  -2 -16    1.00    0.15
   2   2  16    1.21    0.54
   2   2  17    0.52    0.10
   2   2  17    0.63    0.13
   2   2  17    0.78    0.37
  -2  -3  15    6.47    0.40
  -2  -3  14  157.76    8.53
  -2  -3  13    0.34    0.22
  -2  -3  13    0.54    0.16
  -2  -3  12   51.89    2.82
  -2  -3  12   48.06    2.75
  -2  -3  11    4.36    0.60
  -2  -3  11    4.49    0.43
  -2  -3  11    3.68    0.34
  -2  -3  10    0.80    0.46
  -2  -3  10    0.91    0.25
  -2  -3  10    0.37    0.18
  -2  -3   9    0.16    0.43
  -2  -3   9    1.03    0.55
  -2  -3   9    0.19    0.22
  -2  -3   9    0.11    0.14
  -2  -3   8    3.93    0.69
  -2  -3   8    4.18    0.52
  -2  -3   8    4.22    0.60
  -2  -3   8    4.42    0.37
  -2  -3   8    4.26    0.34
  -2  -3   7    2.13    0.24
  -2  -3   7    2.08    0.21
  -2  -3   6    7.77    0.52
  -2  -3   6    9.59    0.57
  -2  -3   6    7.99    0.60
  -2  -3   5   10.36    0.64
  -2  -3   5    9.39    0.79
  -2  -3   5   10.23    0.73
  -2  -3   4    7.83    0.60
  -2  -3   4    9.55    0.70
  -2  -3   4    9.44    0.55
   2   3  -4    8.56    1.23
   2   3  -4    8.20    1.09
   2   3  -4    6.22    1.20
  -2  -3   4    7.68    0.67
   2   3  -4   10.28    1.01
  -2  -3   4    7.70    0.61
   2   3  -4    7.89    1.19
  -2  -3   3    0.74    0.26
  -2  -3   3    1.66    0.36
   2   3  -3    0.43    0.69
  -2  -3   3    1.16    0.14
  -2  -3   3    1.00    0.28
   2   3  -3    0.32    0.57
   2   3  -3    0.92    0.76
  -2  -3   3    0.70    0.33
   2   3  -3    1.44    0.39
   2   3  -3    1.26    0.66
   2   3  -2    4.25    0.89
   2   3  -2    3.93    1.07
  -2  -3   2    3.46    0.24
  -2  -3   2    3.63    0.44
  -2  -3   2    3.39    0.43
  -2  -3   2    3.11    0.37
   2   3  -2    4.07    0.98
  -2  -3   2    2.91    0.35
  -2  -3   2    3.33    0.46
  -2  -3   1    5.70    0.50
   2   3  -1    6.92    1.05
  -2  -3   1    6.72    0.48
  -2  -3   1    5.33    0.35
  -2  -3   1    5.28    0.53
  -2  -3   1    5.44    0.59
   2   3  -1    6.31    1.13
  -2  -3   1    4.86    0.45
  -2  -3   0  214.22   11.36
  -2  -3   0  214.13   11.28
   2   3   0  248.00   12.08
  -2  -3   0  199.52   11.35
  -2  -3   0  223.19   11.61
  -2  -3   0  253.69   12.00
  -2  -3   0  191.70   11.29
   2   3   0  207.60   12.10
  -2  -3  -1    3.95    0.47
  -2  -3  -1    3.60    0.38
  -2  -3  -1    5.07    0.59
  -2  -3  -1    4.90    0.76
  -2  -3  -2    7.17    0.58
  -2  -3  -2    7.60    0.55
  -2  -3  -2    7.10    0.61
   2   3   2    9.09    1.27
  -2  -3  -2    8.03    0.80
  -2  -3  -2    6.54    0.52
  -2  -3  -2    8.34    1.04
  -2  -3  -3  112.83    6.61
  -2  -3  -3  120.57    6.54
   2   3   3  138.48    7.32
  -2  -3  -3  137.57    7.03
  -2  -3  -3  119.16    6.55
  -2  -3  -4    1.92    0.26
  -2  -3  -4    1.52    0.32
   2   3   4    2.19    0.97
  -2  -3  -4    2.70    0.38
  -2  -3  -4    2.26    0.33
   2   3   4    1.59    0.89
   2   3   5    7.57    0.48
  -2  -3  -5    6.96    0.63
  -2  -3  -5    7.26    0.55
   2   3   5    7.71    1.29
  -2  -3  -5    9.44    0.65
   2   3   5    7.93    1.17
  -2  -3  -5    7.99    0.53
   2   3   6    0.36    0.44
  -2  -3  -6    0.63    0.62
  -2  -3  -6    0.43    0.19
  -2  -3  -6    0.14    0.26
   2   3   6    0.25    0.11
  -2  -3  -6    0.39    0.27
   2   3   6   -0.08    0.70
   2   3   6    0.21    0.68
   2   3   7    0.69    0.45
  -2  -3  -7    0.81    0.30
   2   3   7    0.83    0.14
  -2  -3  -8   36.50    2.14
   2   3   8   35.60    2.02
  -2  -3  -9   11.69    0.86
   2   3   9   10.98    0.70
   2   3   9   12.77    0.75
   2   3  10    2.15    0.22
   2   3  10    2.23    0.26
   2   3  11    0.42    0.21
   2   3  11    0.42    0.14
   2   3  11   -0.07    0.71
   2   3  12    2.50    0.32
   2   3  12    2.23    0.25
  -2  -3 -12    2.31    0.31
   2   3  12    2.14    0.84
   2   3  13    8.05    0.59
  -2  -3 -13    7.98    0.58
   2   3  13    9.24    1.07
   2   3  13    7.36    0.53
   2   3  14   36.61    2.20
  -2  -3 -14   41.25    2.24
   2   3  14   43.23    2.51
   2   3  15    1.48    0.20
  -2  -3 -15    1.56    0.22
   2   3  15    1.53    0.73
   2   3  16    5.70    0.42
   2   3  16    7.19    0.47
  -2  -3 -16    6.62    0.44
   2   3  16    7.29    0.75
   2   3  17    1.68    0.46
  -2  -4  14  143.58    7.75
  -2  -4  13   16.67    1.01
  -2  -4  13   16.24    0.96
  -2  -4  12    1.96    0.22
  -2  -4  12    2.47    0.31
  -2  -4  11    4.57    0.63
  -2  -4  11    4.67    0.42
  -2  -4  11    3.85    0.34
  -2  -4  10   12.34    0.79
  -2  -4  10   10.65    0.71
  -2  -4  10    9.97    0.98
  -2  -4   9    3.94    0.70
  -2  -4   9    4.55    0.40
  -2  -4   9    4.00    0.34
  -2  -4   9    3.52    0.68
  -2  -4   8    6.97    0.86
  -2  -4   8    5.37    0.60
  -2  -4   8    6.10    0.74
  -2  -4   8    6.02    0.47
  -2  -4   8    5.39    0.41
  -2  -4   7    2.57    0.50
  -2  -4   7    3.36    0.32
  -2  -4   7    2.92    0.26
  -2  -4   6    1.46    0.20
  -2  -4   6    1.21    0.16
  -2  -4   5    5.88    0.41
  -2  -4   5    5.30    0.37
  -2  -4   5    5.31    0.47
  -2  -4   4   16.46    1.12
  -2  -4   4   15.87    0.93
  -2  -4   4   14.66    0.98
   2   4  -3   11.61    1.41
  -2  -4   3   12.14    0.70
   2   4  -3    8.32    1.31
  -2  -4   3   10.82    0.82
  -2  -4   3   10.93    0.77
   2   4  -2 1737.02   91.67
  -2  -4   2 1710.35   90.90
  -2  -4   2 1662.55   91.00
  -2  -4   2 1688.01   91.34
  -2  -4   2 1688.26   90.95
   2   4  -1   25.05    2.14
  -2  -4   1   24.54    1.52
  -2  -4   1   25.41    1.38
  -2  -4   1   22.43    1.48
  -2  -4   1   24.04    1.74
  -2  -4   1   23.58    1.45
  -2  -4   0  840.04   46.05
   2   4   0  877.54   46.76
  -2  -4   0  864.70   46.12
  -2  -4   0  859.47   46.10
  -2  -4   0  888.79   46.47
  -2  -4   0  858.36   46.06
  -2  -4  -1   87.58    4.86
  -2  -4  -1   92.11    5.22
  -2  -4  -1   87.01    4.78
  -2  -4  -1   84.54    4.83
  -2  -4  -2   65.51    3.90
   2   4   2   73.21    4.55
  -2  -4  -2   70.81    3.76
  -2  -4  -2   70.15    3.87
  -2  -4  -2   68.69    4.25
  -2  -4  -2   66.61    3.81
  -2  -4  -2   62.29    4.44
  -2  -4  -3   14.24    1.11
  -2  -4  -3   17.13    1.08
   2   4   3   16.18    1.68
  -2  -4  -3   17.30    0.99
  -2  -4  -3   18.90    1.13
  -2  -4  -3   18.62    1.49
  -2  -4  -3   17.04    1.05
  -2  -4  -3   19.63    1.79
  -2  -4  -4    7.71    0.67
  -2  -4  -4    8.56    0.53
   2   4   4    8.61    1.22
  -2  -4  -4   11.14    1.06
  -2  -4  -4    7.74    0.59
  -2  -4  -4    9.69    1.24
  -2  -4  -5   25.69    1.69
   2   4   5   28.38    2.32
   2   4   5   28.30    1.56
  -2  -4  -5   29.69    1.58
  -2  -4  -5   27.06    1.61
   2   4   5   25.33    1.67
  -2  -4  -6    3.90    0.45
   2   4   6    2.92    0.98
   2   4   6    4.30    0.31
  -2  -4  -6    4.60    0.35
   2   4   6    4.02    0.95
  -2  -4  -6    4.30    0.39
   2   4   6    4.44    0.56
  -2  -4  -7    0.91    0.29
  -2  -4  -7    0.91    0.19
   2   4   7    0.82    0.15
   2   4   7    1.27    0.51
  -2  -4  -8   35.97    2.29
  -2  -4  -8   39.79    2.22
   2   4   8   39.66    2.20
   2   4   8   40.63    2.35
   2   4   9   15.30    0.95
   2   4   9   16.34    1.19
   2   4  10   39.24    2.18
  -2  -4 -10   36.25    2.19
   2   4  10   40.70    2.38
   2   4  11   15.22    0.98
   2   4  11   17.99    1.04
  -2  -4 -11   17.29    1.05
  -2  -4 -12  312.76   15.78
   2   4  12  308.90   15.78
   2   4  12  266.87   15.73
   2   4  13    0.75    0.23
   2   4  13    0.44    0.15
  -2  -4 -13    0.59    0.22
   2   4  14    0.45    0.15
   2   4  14    0.30    0.21
  -2  -4 -14    0.34    0.20
   2   4  15    1.06    0.74
   2   4  16    6.63    0.79
   2   4  17    1.61    0.46
  -2  -5  13    2.34    0.24
  -2  -5  13    1.91    0.17
  -2  -5  12    0.11    0.19
  -2  -5  12    0.03    0.10
  -2  -5  11    1.67    0.20
  -2  -5  11    1.91    0.28
  -2  -5  10    3.83    0.66
  -2  -5  10    3.14    0.29
  -2  -5  10    3.59    0.37
  -2  -5   9    5.33    0.46
  -2  -5   9    5.60    0.76
  -2  -5   9    4.46    0.37
  -2  -5   8    0.86    0.43
  -2  -5   8    0.23    0.70
  -2  -5   8   -0.12    0.55
  -2  -5   8   -0.04    0.21
  -2  -5   8   -0.06    0.13
  -2  -5   7    0.56    0.68
  -2  -5   7    0.67    0.46
  -2  -5   7    0.35    0.55
  -2  -5   7    0.59    0.21
  -2  -5   7    0.47    0.14
  -2  -5   6    2.38    0.76
  -2  -5   6    1.66    0.52
  -2  -5   6    2.52    0.29
  -2  -5   6    2.28    0.22
  -2  -5   5   12.07    1.01
  -2  -5   5   13.10    1.12
  -2  -5   5   14.03    0.82
  -2  -5   5   12.63    0.77
  -2  -5   5   11.69    0.83
  -2  -5   4    0.26    0.26
  -2  -5   4    0.40    0.15
  -2  -5   4    0.50    0.46
  -2  -5   3    2.60    0.35
  -2  -5   3    1.89    0.50
  -2  -5   3    2.50    0.25
  -2  -5   2  653.29   34.97
  -2  -5   2  680.65   35.00
  -2  -5   2  651.78   34.84
  -2  -5   2  622.96   34.90
  -2  -5   2  645.85   34.89
  -2  -5   1   30.12    1.87
  -2  -5   1   31.54    1.72
  -2  -5   1   29.67    1.81
  -2  -5   1   29.16    1.78
  -2  -5   0   58.40    3.18
  -2  -5   0   57.24    3.26
  -2  -5   0   55.59    3.30
  -2  -5   0   58.82    3.24
  -2  -5   0   56.04    3.31
  -2  -5  -1   38.56    2.18
  -2  -5  -1   37.93    2.33
  -2  -5  -1   42.91    2.31
  -2  -5  -1   38.69    2.33
  -2  -5  -1   40.32    2.27
  -2  -5  -2   44.89    2.66
  -2  -5  -2   40.55    2.65
  -2  -5  -2   47.80    2.66
  -2  -5  -2   47.60    2.54
  -2  -5  -3   33.78    1.79
  -2  -5  -3   29.87    1.89
  -2  -5  -3   29.58    1.85
  -2  -5  -4    2.84    0.44
  -2  -5  -4    3.43    0.42
  -2  -5  -4    3.72    0.30
  -2  -5  -4    3.58    0.40
   2   5   4    2.86    0.42
  -2  -5  -5    6.05    0.60
   2   5   5    6.73    0.45
  -2  -5  -5    7.80    0.49
  -2  -5  -5    6.66    0.55
   2   5   5    6.25    0.61
  -2  -5  -6   21.04    1.44
   2   5   6   22.38    1.30
  -2  -5  -6   24.57    1.34
   2   5   6   21.91    1.43
  -2  -5  -7   18.37    1.33
  -2  -5  -7   22.75    1.26
   2   5   7   21.17    1.23
   2   5   7   20.73    1.37
   2   5   8   21.16    1.27
  -2  -5  -8   22.31    1.30
   2   5   8   21.23    1.44
   2   5   9    6.85    0.51
   2   5   9    7.68    0.81
   2   5  10  276.62   14.99
   2   5  10  278.38   15.10
   2   5  11   50.28    2.88
  -2  -5 -11   50.93    2.90
   2   5  11   53.97    3.09
   2   5  12  462.72   24.91
  -2  -5 -12  454.47   24.91
   2   5  12  475.66   25.05
   2   5  13    6.14    0.50
  -2  -5 -13    6.54    0.50
   2   5  13    6.57    0.99
   2   5  14    1.40    0.25
  -2  -5 -14    1.80    0.25
   2   5  14    1.29    0.79
  -2  -5 -15    0.81    0.17
  -2  -5 -16    3.95    0.29
  -2  -6  12    0.93    0.18
  -2  -6  12    0.73    0.10
  -2  -6  11    0.89    0.22
  -2  -6  11    0.51    0.11
  -2  -6  10    1.13    0.16
  -2  -6  10    1.40    0.25
  -2  -6  10    1.69    0.54
  -2  -6   9    0.50    0.24
  -2  -6   9    0.62    0.14
  -2  -6   8    1.93    0.66
  -2  -6   8    2.63    0.31
  -2  -6   8    2.31    0.23
  -2  -6   7    5.45    0.81
  -2  -6   7    6.28    0.95
  -2  -6   7    5.62    0.47
  -2  -6   7    5.38    0.40
  -2  -6   6   54.46    2.94
  -2  -6   6   48.43    2.81
  -2  -6   6   51.58    2.66
  -2  -6   5    0.53    0.27
  -2  -6   5    0.12    0.76
  -2  -6   5    0.85    0.54
  -2  -6   5    0.40    0.19
  -2  -6   5    0.42    0.13
  -2  -6   4   20.99    1.44
  -2  -6   4   20.78    1.21
  -2  -6   4   18.54    1.24
  -2  -6   3   11.64    1.08
  -2  -6   3   11.30    0.98
  -2  -6   3   11.25    0.72
  -2  -6   3   10.51    0.78
  -2  -6   2   36.63    2.35
  -2  -6   2   38.91    2.39
  -2  -6   2   39.51    2.18
  -2  -6   2   37.58    2.23
  -2  -6   1   28.25    1.89
  -2  -6   1   29.19    1.85
  -2  -6   1   30.75    1.69
  -2  -6   1   28.16    1.76
  -2  -6   0    3.06    0.63
  -2  -6   0    3.51    0.31
  -2  -6   0    3.22    0.57
  -2  -6   0    4.31    0.33
  -2  -6   0    4.14    0.49
  -2  -6   0    4.13    0.46
  -2  -6  -1   25.20    1.76
  -2  -6  -1   28.09    1.60
  -2  -6  -1   27.40    1.77
  -2  -6  -1   28.98    1.75
  -2  -6  -1   29.56    1.69
  -2  -6  -2   -0.21    0.48
  -2  -6  -2    0.27    0.14
  -2  -6  -2    0.50    0.30
  -2  -6  -2    0.33    0.41
  -2  -6  -3    4.62    0.60
  -2  -6  -3    6.51    0.43
  -2  -6  -3    5.37    0.60
  -2  -6  -3    5.92    0.56
  -2  -6  -3    6.16    0.57
  -2  -6  -4    9.15    0.58
  -2  -6  -4    7.27    0.66
  -2  -6  -4    8.67    0.69
  -2  -6  -4    8.39    0.72
  -2  -6  -5    5.44    0.42
  -2  -6  -6    7.02    0.49
   2   6   6    5.52    0.61
   2   6   7   42.57    2.50
  -2  -6  -8    0.77    0.24
   2   6   8    1.34    0.54
   2   6   9    0.80    0.58
   2   6  10   26.95    1.78
   2   6  11    4.79    0.80
   2   6  12    1.14    0.76
  -2  -6 -13    0.79    0.22
   2   6  13    0.72    0.72
  -2  -6 -14    0.41    0.18
   2   6  14    0.33    0.63
  -2  -6 -15    0.27    0.13
   2   6  15    0.69    0.56
  -2  -6 -16    0.03    0.08
   2   6  16    0.20    0.45
  -2  -7  11    0.14    0.13
  -2  -7  10   22.57    1.33
  -2  -7   9   24.16    1.57
  -2  -7   9   24.95    1.38
  -2  -7   9   22.02    1.30
  -2  -7   8    8.83    0.55
  -2  -7   7    8.54    0.55
  -2  -7   6    3.87    0.75
  -2  -7   5    5.07    0.77
   2   7  -4    1.51    0.59
  -2  -7   4    5.53    0.76
   2   7  -3    0.17    0.60
  -2  -7   3    0.90    0.74
  -2  -7   3    1.36    0.63
  -2  -7   2   23.95    1.71
  -2  -7   1    1.57    0.68
  -2  -7   0    2.23    0.67
  -2  -7   0    2.85    0.30
  -2  -7   0    2.82    0.65
  -2  -7  -1    0.80    0.57
  -2  -7  -1    1.16    0.55
  -2  -7  -1    0.47    0.19
  -2  -7  -2    1.10    0.51
  -2  -7  -2    1.00    0.21
  -2  -7  -2    1.30    0.52
  -2  -7  -2    0.58    0.31
  -2  -7  -3   11.50    0.98
  -2  -7  -3   12.95    0.95
  -2  -7  -4   84.16    4.64
  -2  -7  -5   41.20    2.34
  -2  -7  -6   16.84    0.98
   2   7   6   14.64    0.91
   2   7   7    0.18    0.62
  -2  -7  -7    0.07    0.21
   2   7   8    0.59    0.59
  -2  -7  -8    1.41    0.27
   2   7   8    1.29    0.50
   2   7   9    0.28    0.49
  -2  -7  -9    1.41    0.29
   2   7   9    1.29    0.54
   2   7  10    7.01    0.80
  -2  -7 -11    2.62    0.32
   2   7  11    0.50    0.61
  -2  -7 -12   11.89    0.76
   2   7  12   10.75    1.00
  -2  -7 -13   10.07    0.66
   2   7  13    9.86    0.92
  -2  -7 -14    1.24    0.19
   2   7  14    1.18    0.53
   2   7  15    1.36    0.17
  -2  -7 -15    1.30    0.16
   2   7  15    1.24    0.46
   2   7  16    1.02    0.11
   2   8  -9   10.02    0.81
  -2  -8   8    6.50    0.69
  -2  -8   7    3.81    0.62
  -2  -8   6    0.31    0.52
  -2  -8   5   -0.04    0.52
   2   8  -4    1.98    0.55
  -2  -8   4    2.74    0.60
   2   8  -3    4.13    0.69
  -2  -8   3    3.56    0.63
   2   8  -2   10.12    0.98
   2   8  -1   12.52    1.17
  -2  -8   0   12.83    1.15
   2   8   0   15.47    1.27
  -2  -8  -1   27.71    1.71
   2   8   1   32.58    2.01
  -2  -8  -2    6.76    0.54
  -2  -8  -3   88.07    4.88
  -2  -8  -4   56.85    3.25
   2   8   4   59.88    3.45
   2   8   5   53.94    3.25
  -2  -8  -5   54.65    3.07
   2   8   6   -0.01    0.72
  -2  -8  -6    0.25    0.23
   2   8   7    0.13    0.65
  -2  -8  -7    0.24    0.23
   2   8   7    0.52    0.15
   2   8   8    0.79    0.58
  -2  -8  -8    0.80    0.26
   2   8   8    0.73    0.17
  -2  -8  -9    0.36    0.24
   2   8   9    0.22    0.15
   2   8   9    0.02    0.50
   2   8  10    8.81    0.58
   2   8  11    2.59    0.26
  -2  -8 -12    3.30    0.31
   2   8  12    2.98    0.27
   2   8  12    2.42    0.50
  -2  -8 -13    0.87    0.18
   2   8  13    0.96    0.16
   2   8  13    0.61    0.39
  -2  -8 -14    1.22    0.17
   2   8  14    1.27    0.15
   2   9  -8    0.70    0.30
  -2  -9   8    0.75    0.13
  -2  -9   7    0.88    0.16
  -2  -9   6    0.99    0.40
  -2  -9   6    0.31    0.15
  -2  -9   5    1.43    0.46
  -2  -9   5    0.91    0.18
  -2  -9   4    1.19    0.45
  -2  -9   4    1.50    0.23
   2   9  -4    1.78    0.53
  -2  -9   3    0.28    0.43
  -2  -9   3    0.53    0.19
   2   9  -3    0.34    0.52
  -2  -9   2    1.28    0.43
  -2  -9   2    1.51    0.24
   2   9  -2    1.41    0.59
   2   9  -1    7.34    0.89
  -2  -9   1    8.22    0.75
  -2  -9   1    8.61    0.60
   2   9   0    0.94    0.74
  -2  -9   0    1.17    0.38
  -2  -9   0    1.43    0.25
   2   9   1    5.64    0.92
  -2  -9  -1    6.00    0.47
  -2  -9  -2    6.19    0.55
  -2  -9  -2    8.19    0.54
  -2  -9  -3    0.33    0.24
  -2  -9  -3    0.55    0.20
   2   9   4    6.52    0.98
  -2  -9  -4    6.75    0.54
  -2  -9  -4    6.28    0.50
   2   9   5    1.13    0.77
  -2  -9  -5    1.01    0.27
  -2  -9  -5    0.97    0.23
   2   9   6    2.45    0.75
  -2  -9  -6    2.96    0.37
   2   9   7    0.34    0.60
  -2  -9  -7    0.23    0.24
  -2  -9  -8    3.86    0.39
   2   9   8    2.52    0.63
   2   9   9    2.16    0.21
   2   9   9    2.58    0.51
   2   9  10    0.95    0.15
   2   9  11    0.09    0.11
  -2  -9 -12    1.02    0.18
   2   9  12    0.73    0.12
  -2  -9 -13   11.08    0.68
   2  10  -6    0.03    0.29
  -2 -10   6   -0.04    0.08
  -2 -10   5    0.14    0.10
  -2 -10   4   10.59    0.58
   2  10  -4    5.93    0.66
  -2 -10   3   36.55    1.40
   2  10  -3   27.09    1.57
   2  10  -2   10.24    0.90
  -2 -10   2   13.44    0.77
   2  10  -2   10.98    1.00
   2  10  -1   19.32    1.41
  -2 -10   1   22.71    1.28
   2  10   0    7.05    0.79
  -2 -10   0    7.17    0.50
  -2 -10  -1    0.12    0.15
   2  10   1    0.13    0.63
  -2 -10  -2    0.21    0.16
   2  10   2    0.36    0.69
  -2 -10  -3    0.41    0.16
  -2 -10  -4    1.74    0.22
  -2 -10  -4    1.48    0.28
   2  10   4    1.86    0.71
  -2 -10  -5    5.86    0.53
  -2 -10  -5    7.41    0.48
   2  10   5    6.54    0.80
  -2 -10  -6    0.96    0.26
  -2 -10  -6    1.12    0.19
   2  10   6    1.28    0.63
  -2 -10  -7    4.05    0.40
  -2 -10  -7    4.48    0.35
   2  10   7    4.46    0.65
  -2 -10  -8    2.93    0.32
  -2 -10  -8    2.80    0.26
   2  10   8    2.41    0.52
  -2 -10  -9    0.12    0.19
  -2 -10  -9    0.16    0.12
  -2 -10 -10    7.27    0.52
  -2 -10 -10    7.62    0.48
  -2 -10 -11   18.35    1.05
  -2 -10 -12    0.04    0.10
  -2 -10 -12    0.10    0.06
  -2 -11   2    3.11    0.22
   2  11  -2    2.20    0.38
  -2 -11   1    1.59    0.15
   2  11  -1    0.81    0.34
   2  11  -1    1.41    0.41
  -2 -11   0    0.70    0.13
   2  11   0    0.47    0.45
   2  11   0    0.92    0.42
   2  11   1    6.72    0.66
  -2 -11  -1    7.31    0.46
   2  11   1    6.61    0.74
   2  11   2   10.11    0.83
  -2 -11  -2   11.07    0.66
  -2 -11  -3    1.06    0.15
   2  11   3    1.19    0.54
  -2 -11  -4    0.26    0.11
   2  11   4    0.36    0.48
   2  11   4    0.44    0.48
  -2 -11  -5    4.48    0.31
   2  11   5    3.55    0.56
   2  11   5    4.05    0.56
  -2 -11  -6    5.23    0.34
   2  11   6    4.20    0.54
   2  11   6    4.20    0.54
  -2 -11  -7    0.07    0.08
   2  11   7    0.04    0.33
   2  11   7    0.32    0.26
  -2 -11  -8   -0.03    0.07
  -3   9   7    3.91    0.34
  -3   9   6    3.46    0.34
  -3   9   5   21.37    1.36
  -3   9   5   25.06    1.38
  -3   9   4   10.47    0.73
  -3   9   4    8.41    0.63
  -3   9   3    5.20    0.56
  -3   9   3    3.44    0.37
  -3   9   2    0.09    0.19
  -3   9   2    0.75    0.46
  -3   9   2    0.44    0.23
  -3   9   1    1.07    0.29
  -3   9   0    0.53    0.44
  -3   9  -1   -0.15    0.40
  -3   9  -1   -0.08    0.26
  -3   9  -2    5.39    0.53
   3  -9   2    7.20    0.38
  -3   9  -4    0.01    0.15
  -3   8   9    0.27    0.21
  -3   8   8    2.46    0.37
  -3   8   6    0.07    0.37
  -3   8   6    0.44    0.47
  -3   8   5    2.18    0.46
  -3   8   5    3.20    0.63
  -3   8   4    0.14    0.40
  -3   8   4    0.07    0.58
  -3   8   3    0.37    0.38
  -3   8   3    0.59    0.63
  -3   8   2    7.88    0.85
  -3   8   2    5.66    0.60
  -3   8   1    1.71    0.36
  -3   8   0    1.33    0.30
  -3   8   0    1.72    0.72
  -3   8  -1    1.81    0.66
  -3   8  -2    0.21    0.58
  -3   8  -3   -0.07    0.51
  -3   8  -4    2.07    0.46
   3  -8   4    2.73    0.21
  -3   8  -5    0.12    0.20
   3  -8   5    0.05    0.07
  -3   8  -5    0.11    0.31
  -3   8  -6    1.17    0.23
  -3   8  -6    0.45    0.27
  -3   7  11   16.99    1.08
  -3   7  10   12.09    0.91
  -3   7  10   12.44    0.82
  -3   7   9    6.01    0.65
  -3   7   9    5.87    0.57
  -3   7   8    8.82    0.84
  -3   7   8   10.53    0.83
  -3   7   7    0.49    0.46
  -3   7   7    0.85    0.51
  -3   7   7    0.48    0.46
  -3   7   6    0.14    0.59
  -3   7   6    0.17    0.44
  -3   7   5    2.83    0.59
  -3   7   5    2.66    0.74
  -3   7   5    2.39    0.48
  -3   7   4    2.48    0.59
  -3   7   4    1.54    0.77
  -3   7   3    0.63    0.49
  -3   7   3   -0.01    0.81
  -3   7   2    1.45    0.50
  -3   7   2    0.94    0.86
  -3   7   1    1.83    0.47
  -3   7   0    0.04    0.36
  -3   7  -1    8.58    1.01
  -3   7  -1    5.28    0.54
  -3   7  -2   21.87    1.58
  -3   7  -3    0.49    0.35
  -3   7  -3    0.36    0.70
  -3   7  -4    0.16    0.36
  -3   7  -4    0.21    0.62
  -3   7  -5    5.16    0.62
  -3   7  -5    5.66    0.69
   3  -7   5    6.61    0.42
  -3   7  -6   11.53    1.06
  -3   7  -6    9.69    1.08
  -3   7  -7    0.25    0.33
   3  -7   7    0.33    0.11
  -3   7  -7    0.01    0.30
  -3   7  -8    0.68    0.30
  -3   7  -8    0.21    0.20
  -3   7  -9    0.95    0.24
   3  -7   9    1.23    0.12
   3  -7   9    1.07    0.13
  -3   6  11    4.02    0.58
  -3   6  11    4.17    0.40
  -3   6  10    7.01    0.81
  -3   6  10    6.82    0.61
  -3   6   9    0.40    0.42
  -3   6   9    0.19    0.57
  -3   6   8    0.33    0.50
  -3   6   8    1.14    0.41
  -3   6   8    0.43    0.61
  -3   6   7    2.30    0.63
  -3   6   7    1.58    0.60
  -3   6   7    1.99    0.68
  -3   6   6   18.87    1.30
  -3   6   6   15.41    1.37
  -3   6   5    2.30    0.81
  -3   6   5    2.40    0.65
  -3   6   4    0.62    0.83
  -3   6   4    0.87    0.52
  -3   6   4    0.86    0.62
  -3   6   3    7.00    1.07
  -3   6   3    5.34    0.68
  -3   6   3    7.08    0.82
  -3   6   2   -0.08    0.51
  -3   6   2    1.05    0.92
  -3   6   1    2.64    0.57
  -3   6   0    8.02    0.76
  -3   6  -1   50.49    2.67
  -3   6  -1   36.41    2.41
  -3   6  -2   36.08    2.48
  -3   6  -2   48.78    2.64
  -3   6  -3    1.01    0.46
  -3   6  -3    1.20    0.80
  -3   6  -4    0.78    0.51
  -3   6  -4    1.74    0.72
  -3   6  -5    0.85    0.50
  -3   6  -5    1.05    0.62
  -3   6  -6    1.33    0.56
  -3   6  -6    1.27    0.53
   3  -6   6    1.42    0.17
  -3   6  -7    0.58    0.49
   3  -6   7    0.46    0.13
  -3   6  -7    0.24    0.43
  -3   6  -8    0.72    0.47
   3  -6   8    1.84    0.21
  -3   6  -8    0.81    0.38
  -3   6  -9    0.09    0.37
  -3   6  -9    0.07    0.23
   3  -6  10    0.10    0.09
   3  -6  10   -0.03    0.12
   3  -6  11    0.38    0.09
  -3   6 -11    0.42    0.21
   3  -6  11    0.47    0.07
  -3   5  13    0.46    0.32
  -3   5  12    2.08    0.52
  -3   5  11    0.11    0.29
  -3   5  10    1.12    0.42
  -3   5   9    2.64    0.57
  -3   5   9    3.26    0.85
  -3   5   8    6.90    0.99
  -3   5   8    6.25    0.69
  -3   5   8    6.17    0.77
  -3   5   7    8.45    0.81
  -3   5   7    6.32    0.85
  -3   5   7    5.89    1.02
  -3   5   6    0.77    0.64
  -3   5   6    0.87    0.67
  -3   5   6    0.55    0.72
  -3   5   5    0.06    0.74
  -3   5   5    0.97    0.67
  -3   5   4    2.97    0.74
  -3   5   4    2.01    0.84
  -3   5   4    2.51    0.69
  -3   5   3   -0.16    0.55
  -3   5   3    0.23    0.86
  -3   5   3    0.46    0.52
  -3   5   2   14.97    1.33
  -3   5   2   11.56    1.07
  -3   5   2   14.67    1.14
  -3   5   1    2.60    0.58
  -3   5   1    3.26    0.96
  -3   5   0    4.24    0.60
  -3   5  -1    4.10    0.54
  -3   5  -1    4.10    0.55
  -3   5  -1    5.14    0.98
  -3   5  -2   16.12    1.23
  -3   5  -2   14.39    1.09
  -3   5  -3    0.79    0.51
  -3   5  -3    0.88    0.83
  -3   5  -4    0.37    0.53
  -3   5  -4    0.34    0.73
  -3   5  -5    0.50    0.59
  -3   5  -5    0.74    0.67
  -3   5  -6    8.96    0.91
  -3   5  -6    8.65    1.04
   3  -5   6   10.90    0.65
  -3   5  -7    1.22    0.64
   3  -5   7    2.05    0.21
  -3   5  -8    0.75    0.59
   3  -5   8    1.27    0.19
  -3   5  -8    0.57    0.46
  -3   5  -9    9.13    0.79
   3  -5  10    2.41    0.23
  -3   5 -11    0.05    0.32
   3  -5  11    0.05    0.10
   3  -5  11    0.05    0.14
  -3   5 -12    0.49    0.25
   3  -5  12    0.86    0.10
   3  -5  12    0.88    0.12
  -3   4  13    0.17    0.38
  -3   4  12    0.96    0.56
  -3   4  11    0.34    0.32
  -3   4  11    0.17    0.64
  -3   4  10    0.93    0.43
  -3   4  10    0.29    0.75
  -3   4   9    2.53    0.57
  -3   4   8   -0.05    0.54
  -3   4   8   -0.11    0.87
  -3   4   8   -0.02    0.43
  -3   4   7    7.03    0.77
  -3   4   7    6.10    0.82
  -3   4   7    6.09    1.07
  -3   4   6  205.49   10.73
  -3   4   6  182.87   10.92
  -3   4   6  191.88   10.81
  -3   4   5    1.03    0.65
  -3   4   5    1.95    0.73
  -3   4   5    1.77    0.77
  -3   4   4   53.21    2.71
  -3   4   4   47.58    2.78
  -3   4   3    4.68    0.72
  -3   4   3    4.33    0.90
  -3   4   3    3.65    0.74
  -3   4   2   10.59    1.11
  -3   4   2    7.55    0.87
  -3   4   2    9.40    0.88
  -3   4   1    2.51    0.57
  -3   4   1    2.51    0.87
  -3   4   1    1.84    0.51
  -3   4   0    4.69    0.53
  -3   4   0    4.29    0.60
  -3   4  -1    3.22    0.51
  -3   4  -1    2.66    0.50
  -3   4  -1    4.10    0.90
  -3   4  -2    7.29    0.79
  -3   4  -2    8.26    1.01
  -3   4  -2    7.24    0.67
  -3   4  -3    1.56    0.54
  -3   4  -3    2.78    0.83
  -3   4  -4    0.60    0.61
  -3   4  -4    1.10    0.74
  -3   4  -5   29.07    1.87
  -3   4  -5   27.74    1.99
  -3   4  -6    8.75    0.90
  -3   4  -6    8.53    1.06
   3  -4   6    9.08    0.57
  -3   4  -7    2.61    0.76
   3  -4   7    3.49    0.27
  -3   4  -7    2.07    0.67
  -3   4  -8    5.02    0.72
  -3   4  -9    0.29    0.36
  -3   4 -10   46.08    2.84
  -3   4 -11   -0.27    0.43
   3  -4  11    0.08    0.13
   3  -4  11   -0.08    0.19
  -3   4 -12    1.55    0.39
   3  -4  12    2.05    0.19
   3  -4  12    2.12    0.23
  -3   4 -13    0.55    0.23
   3  -4  13    0.60    0.10
   3  -4  13    0.93    0.13
  -3   3  14    2.79    0.34
  -3   3  13    0.36    0.40
  -3   3  12   -0.07    0.15
  -3   3  12   -0.14    0.55
  -3   3  11    3.74    0.48
  -3   3  11    5.20    0.38
  -3   3  11    4.22    0.82
  -3   3  10    3.31    0.54
  -3   3  10    4.07    0.35
  -3   3  10    3.99    0.95
  -3   3   9    0.14    0.47
  -3   3   9    0.20    0.17
  -3   3   9    0.32    0.84
  -3   3   8  120.03    6.82
  -3   3   8  126.20    6.63
  -3   3   8  110.88    6.80
  -3   3   7    2.07    0.60
  -3   3   7    1.53    0.55
  -3   3   7    2.32    0.26
  -3   3   6  528.20   28.26
  -3   3   6  518.50   28.14
  -3   3   6  515.69   28.49
  -3   3   6  535.40   28.35
  -3   3   5   49.09    2.81
  -3   3   5   43.33    2.97
  -3   3   5   46.19    2.84
  -3   3   4    3.87    0.78
  -3   3   4    3.49    0.79
  -3   3   3   11.49    1.02
  -3   3   3    9.22    1.01
  -3   3   3    8.49    0.85
  -3   3   3   11.01    0.93
  -3   3   2    4.44    0.63
  -3   3   2    5.86    0.86
  -3   3   2    3.63    0.69
  -3   3   1   -0.07    0.44
  -3   3   1    0.30    0.68
  -3   3   1    0.15    0.45
  -3   3   0    5.17    0.56
  -3   3   0    5.02    0.62
  -3   3   0    5.90    0.64
  -3   3  -1    6.25    0.63
  -3   3  -1    6.38    0.89
  -3   3  -1    5.26    0.58
  -3   3  -1    6.03    0.63
  -3   3  -2   14.48    1.14
  -3   3  -2   13.45    1.04
  -3   3  -2   11.64    0.93
  -3   3  -3    2.12    0.36
  -3   3  -3    2.20    0.56
  -3   3  -3    2.17    0.73
  -3   3  -4    1.01    0.53
  -3   3  -4    1.57    0.69
  -3   3  -5   20.87    1.46
  -3   3  -5   20.18    1.56
  -3   3  -6  491.34   28.02
  -3   3  -6  581.90   28.29
  -3   3  -7    1.29    0.75
  -3   3  -7    1.25    0.58
  -3   3  -8  138.12    7.83
  -3   3  -9    2.12    0.74
  -3   3  -9    1.07    0.44
  -3   3 -10   27.92    1.83
   3  -3  10   31.34    1.50
  -3   3 -11    0.34    0.52
   3  -3  11    0.48    0.16
  -3   3 -12    0.60    0.42
   3  -3  12    0.48    0.14
   3  -3  12    0.77    0.20
   3  -3  13    1.02    0.17
  -3   3 -13    0.93    0.32
   3  -3  13    0.85    0.13
   3  -3  14   13.37    0.71
   3  -3  14   11.02    0.68
  -3   2  14   -0.07    0.09
  -3   2  13    0.82    0.15
  -3   2  13    0.49    0.39
  -3   2  12    1.43    0.20
  -3   2  12    0.72    0.53
  -3   2  11    0.70    0.19
  -3   2  11    0.37    0.63
  -3   2  10    6.19    0.45
  -3   2  10    6.24    0.94
  -3   2  10    5.07    0.60
  -3   2   9    1.74    0.50
  -3   2   9    2.00    0.25
  -3   2   9    1.59    0.83
  -3   2   8    1.40    0.53
  -3   2   8    1.43    0.49
  -3   2   8    1.49    0.22
  -3   2   8    1.61    0.89
  -3   2   7    1.29    0.53
  -3   2   7    1.41    0.54
  -3   2   7    1.39    0.21
  -3   2   7    0.63    0.79
  -3   2   6   62.30    3.93
  -3   2   6   68.53    3.68
  -3   2   6   65.59    3.88
  -3   2   5    8.53    0.87
  -3   2   5    8.08    0.54
  -3   2   5    8.71    1.05
  -3   2   5    8.95    0.84
  -3   2   4   10.89    0.96
  -3   2   4    9.06    0.58
  -3   2   4    8.83    1.01
  -3   2   4   10.26    0.89
  -3   2   3    6.39    0.80
  -3   2   3    5.26    0.79
  -3   2   3    4.02    0.54
  -3   2   2    0.14    0.43
  -3   2   2    0.11    0.65
  -3   2   2    0.07    0.53
  -3   2   2    0.64    0.37
  -3   2   1   61.97    3.24
  -3   2   1   51.12    3.24
  -3   2   1   49.80    3.26
  -3   2   1   55.62    3.19
  -3   2   0   13.25    0.98
  -3   2   0   13.10    1.06
  -3   2   0   15.70    1.05
  -3   2  -1   20.08    1.30
  -3   2  -1   17.41    1.27
  -3   2  -1   19.14    1.26
  -3   2  -2    2.92    0.52
  -3   2  -2    1.90    0.40
  -3   2  -2    3.20    0.73
  -3   2  -2    2.67    0.43
  -3   2  -3    1.59    0.34
  -3   2  -3    2.00    0.50
  -3   2  -3    2.39    0.70
  -3   2  -4   10.43    1.00
  -3   2  -4   11.68    0.99
  -3   2  -5    0.53    0.49
  -3   2  -5    0.76    0.65
  -3   2  -5    1.06    0.51
  -3   2  -6  460.05   25.88
  -3   2  -6  521.84   26.09
  -3   2  -6  475.01   26.10
  -3   2  -7   49.48    3.43
   3  -2   7   60.38    3.25
  -3   2  -8   25.97    1.75
   3  -2   8   24.55    1.48
  -3   2  -9   -0.12    0.62
  -3   2  -9    0.32    0.38
  -3   2 -10    4.77    0.78
   3  -2  10    5.82    0.41
  -3   2 -10    3.94    0.56
  -3   2 -11    0.66    0.53
   3  -2  11    0.72    0.17
  -3   2 -12    0.20    0.43
   3  -2  12    0.28    0.14
  -3   2 -13    0.42    0.34
   3  -2  13    0.21    0.11
   3  -2  13    0.32    0.19
  -3   2 -14    2.25    0.32
   3  -2  14    2.63    0.21
   3  -2  15    1.56    0.15
  -3   1  14    8.04    0.50
  -3   1  13   11.69    0.72
  -3   1  12    7.89    0.52
  -3   1  12    6.25    0.74
  -3   1  11    0.09    0.16
  -3   1  11    0.87    0.61
  -3   1  10   14.45    0.84
  -3   1  10   12.60    1.23
  -3   1  10   11.98    0.94
  -3   1   9    8.69    0.59
  -3   1   9    8.59    1.05
  -3   1   9    8.93    0.77
  -3   1   8    1.51    0.48
  -3   1   8    2.33    0.52
  -3   1   8    2.00    0.23
  -3   1   8    1.81    0.81
  -3   1   7    5.28    0.71
  -3   1   7    6.19    0.42
  -3   1   7    5.12    0.94
  -3   1   7    5.95    0.69
  -3   1   6   -0.22    0.47
  -3   1   6   -0.04    0.46
  -3   1   6    0.18    0.13
  -3   1   6   -0.31    0.71
  -3   1   5    0.39    0.46
  -3   1   5    0.36    0.12
  -3   1   5    0.52    0.69
  -3   1   5    0.53    0.52
  -3   1   4   15.73    0.92
  -3   1   4   15.70    1.24
  -3   1   4   16.47    1.17
  -3   1   3    8.29    0.87
  -3   1   3    7.17    0.87
  -3   1   3    6.74    0.65
  -3   1   2    3.90    0.56
  -3   1   2    4.38    0.73
  -3   1   2    4.32    0.68
  -3   1   2    3.51    0.50
  -3   1   1    2.03    0.34
  -3   1   1    2.19    0.46
  -3   1   1    2.72    0.68
  -3   1   1    2.79    0.56
  -3   1   1    2.43    0.46
  -3   1   0   60.71    3.16
  -3   1   0   48.23    3.06
  -3   1   0   50.91    3.14
  -3   1   0   53.04    3.20
  -3   1   0   56.73    3.10
  -3   1  -1   53.78    2.93
   3  -1   1   47.11    3.71
  -3   1  -1   45.37    2.91
  -3   1  -1   46.54    3.00
  -3   1  -1   53.47    2.89
  -3   1  -2    2.17    0.40
  -3   1  -2    2.60    0.47
  -3   1  -2    2.62    0.68
   3  -1   2    2.88    0.82
  -3   1  -2    1.78    0.42
  -3   1  -2    2.29    0.53
  -3   1  -3   17.55    1.21
  -3   1  -3   16.23    1.16
  -3   1  -3   14.53    1.06
  -3   1  -3   15.11    1.02
  -3   1  -4   26.32    1.76
  -3   1  -4   28.42    1.79
  -3   1  -4   26.65    1.84
  -3   1  -5   56.47    3.40
  -3   1  -5   57.22    3.44
  -3   1  -6    3.40    0.59
  -3   1  -7    1.25    0.59
  -3   1  -7    1.18    0.47
   3  -1   8    2.24    0.59
  -3   1  -8    2.41    0.67
  -3   1  -8    2.42    0.52
  -3   1  -9    7.43    0.89
   3  -1   9    7.11    0.49
  -3   1  -9    6.22    0.72
   3  -1   9    8.07    0.77
  -3   1 -10    4.72    0.75
   3  -1  10    4.62    0.36
   3  -1  10    3.89    0.43
   3  -1  10    4.28    0.64
  -3   1 -11    0.24    0.54
   3  -1  11    0.36    0.14
   3  -1  11    0.34    0.25
   3  -1  11    1.14    0.48
  -3   1 -12   -0.02    0.43
   3  -1  12    0.01    0.12
   3  -1  12   -0.14    0.22
  -3   1 -13    1.50    0.41
   3  -1  13    2.25    0.21
  -3   1 -14    5.92    0.57
   3  -1  14    8.02    0.47
   3  -1  15    2.08    0.20
   3  -1  16    0.02    0.07
  -3   0  14   22.50    1.26
  -3   0  13   13.96    0.83
  -3   0  12    6.91    0.47
  -3   0  11    0.46    0.16
  -3   0  11    0.80    0.49
  -3   0  10    0.14    0.15
  -3   0  10    0.49    0.58
  -3   0   9    0.13    0.34
  -3   0   9   -0.09    0.15
  -3   0   9    0.02    0.63
  -3   0   8    7.92    0.52
  -3   0   8    7.36    0.97
  -3   0   8    7.26    0.72
  -3   0   7   19.64    1.38
  -3   0   7   19.51    1.11
  -3   0   7   15.90    1.49
  -3   0   7   18.37    1.32
  -3   0   6    3.04    0.51
  -3   0   6    2.37    0.58
  -3   0   6    2.61    0.23
  -3   0   6    2.26    0.73
  -3   0   5    2.41    0.40
  -3   0   5    2.52    0.52
  -3   0   5    3.06    0.58
  -3   0   5    3.55    0.72
  -3   0   4   24.81    1.74
  -3   0   4   25.05    1.79
  -3   0   4   27.18    1.68
  -3   0   3    0.50    0.43
  -3   0   3    0.15    0.48
  -3   0   2  113.56    6.34
  -3   0   2  125.06    6.49
  -3   0   2  121.20    6.48
  -3   0   2  105.27    6.39
  -3   0   1  291.13   16.40
  -3   0   1  317.50   16.51
  -3   0   1  285.89   16.48
  -3   0   1  318.87   16.43
  -3   0   0  128.48    7.67
  -3   0   0  140.58    7.74
  -3   0   0  133.77    7.75
  -3   0   0  154.83    7.69
  -3   0  -1   49.69    3.06
   3   0   1   54.19    4.04
  -3   0  -1   51.76    3.10
  -3   0  -1   53.37    3.17
  -3   0  -1   57.61    3.06
  -3   0  -2    0.40    0.32
  -3   0  -2    0.16    0.32
   3   0   2    0.23    0.58
  -3   0  -2   -0.09    0.36
  -3   0  -2    0.27    0.40
  -3   0  -2    0.09    0.34
  -3   0  -3   14.03    1.01
   3   0   3   10.77    1.49
  -3   0  -3   12.46    0.95
  -3   0  -3   13.27    0.89
  -3   0  -3   15.10    1.50
  -3   0  -4    6.77    1.08
  -3   0  -4    6.73    0.67
   3   0   4    5.62    1.07
  -3   0  -4    5.67    0.57
  -3   0  -4    5.59    0.69
  -3   0  -4    5.65    0.48
  -3   0  -5    0.22    0.29
  -3   0  -5    0.14    0.41
  -3   0  -6    2.49    0.58
  -3   0  -6    2.92    0.55
  -3   0  -7    2.58    0.41
  -3   0  -7    3.22    0.61
  -3   0  -7    3.13    0.54
   3   0   8    1.00    0.61
  -3   0  -8    0.91    0.53
  -3   0  -8    0.72    0.41
  -3   0  -9    1.03    0.57
   3   0   9    1.11    0.16
   3   0   9    0.94    0.25
   3   0   9    1.70    0.64
  -3   0 -10    2.74    0.61
   3   0  10    2.40    0.24
   3   0  10    2.94    0.35
   3   0  10    2.37    0.68
  -3   0 -11    1.26    0.50
   3   0  11    0.80    0.15
   3   0  11    1.06    0.25
   3   0  11    0.60    0.59
  -3   0 -12   36.38    2.50
   3   0  12   38.72    2.30
   3   0  12   46.71    2.37
   3   0  12   44.80    2.48
  -3   0 -13    1.45    0.40
   3   0  13    1.82    0.20
   3   0  13    2.17    0.28
  -3   0 -15    4.06    0.32
   3   0  16    0.01    0.09
  -3   0 -16   -0.06    0.08
  -3  -1  14    9.09    0.54
  -3  -1  13    0.06    0.11
  -3  -1  12    2.35    0.23
  -3  -1  11    7.39    0.50
  -3  -1  10    5.58    0.40
  -3  -1  10    4.53    0.67
  -3  -1   9    4.83    0.36
  -3  -1   9    4.21    0.47
  -3  -1   8    1.49    0.39
  -3  -1   8    1.52    0.20
  -3  -1   8    1.74    0.65
  -3  -1   7    0.20    0.38
  -3  -1   7    0.47    0.14
  -3  -1   7    0.58    0.61
  -3  -1   6    1.73    0.45
  -3  -1   6    2.49    0.66
  -3  -1   5   26.74    1.71
  -3  -1   5   23.28    1.55
  -3  -1   5   25.41    1.50
  -3  -1   5   22.89    1.72
  -3  -1   5   26.31    1.61
  -3  -1   4   21.20    1.48
  -3  -1   4   19.25    1.34
  -3  -1   4   20.69    1.29
  -3  -1   4   20.65    1.50
  -3  -1   4   23.15    1.41
  -3  -1   3    1.32    0.42
  -3  -1   3    1.81    0.32
  -3  -1   3    1.84    0.45
  -3  -1   3    1.61    0.54
  -3  -1   3    1.84    0.58
  -3  -1   2  183.30   10.25
  -3  -1   2  191.30   10.22
  -3  -1   2  185.34   10.35
  -3  -1   2  184.69   10.35
  -3  -1   2  191.53   10.27
  -3  -1   1  153.79    8.58
  -3  -1   1  159.52    8.66
  -3  -1   0    0.18    0.36
  -3  -1   0   -0.28    0.31
  -3  -1   0    0.24    0.44
  -3  -1   0    0.42    0.44
  -3  -1   0   -0.08    0.33
  -3  -1  -1    0.81    0.34
  -3  -1  -1    0.66    0.35
  -3  -1  -1    1.14    0.47
  -3  -1  -1    0.80    0.42
  -3  -1  -1    0.59    0.36
  -3  -1  -1    0.65    0.40
  -3  -1  -2   11.69    0.95
  -3  -1  -2   14.66    1.02
  -3  -1  -2   13.37    1.02
  -3  -1  -2   13.76    1.39
  -3  -1  -2   12.97    0.99
  -3  -1  -2   13.14    0.90
  -3  -1  -3    2.69    0.45
  -3  -1  -3    2.38    0.45
  -3  -1  -3    2.53    0.49
  -3  -1  -3    3.43    0.38
  -3  -1  -3    2.24    0.68
  -3  -1  -4   12.14    0.87
  -3  -1  -4   10.24    0.82
  -3  -1  -4   13.06    0.89
  -3  -1  -4   12.33    0.96
  -3  -1  -4   10.76    0.77
  -3  -1  -5   44.60    2.37
  -3  -1  -5   41.69    2.48
  -3  -1  -6    0.97    0.45
  -3  -1  -6    1.00    0.34
  -3  -1  -6    1.06    0.41
  -3  -1  -6    0.96    0.37
  -3  -1  -7   21.61    1.43
   3   1   7   19.64    1.20
  -3  -1  -7   19.59    1.23
  -3  -1  -8   88.97    4.96
   3   1   8   84.25    4.75
   3   1   8   87.84    4.88
  -3  -1  -9    1.27    0.51
   3   1   9    0.76    0.21
  -3  -1 -10   74.17    4.36
   3   1  10   74.81    4.16
   3   1  10   75.69    4.31
  -3  -1 -11   84.61    5.09
   3   1  11   93.41    4.93
   3   1  11   85.10    5.04
  -3  -1 -12  102.36    6.23
   3   1  12  114.24    6.10
   3   1  12  113.70    6.22
   3   1  13   29.89    1.63
   3   1  13   29.01    1.79
   3   1  14    2.20    0.26
   3   1  14    1.50    0.56
   3   1  15    3.81    0.32
  -3  -1 -15    3.62    0.32
   3   1  15    3.87    0.50
  -3  -1 -16    9.91    0.60
  -3  -2  13    0.89    0.12
  -3  -2  12    0.39    0.13
  -3  -2  11    0.69    0.17
  -3  -2  11    0.60    0.15
  -3  -2  10    0.96    0.19
  -3  -2  10    0.83    0.17
  -3  -2   9    4.40    0.64
  -3  -2   9    4.97    0.40
  -3  -2   9    5.00    0.37
  -3  -2   9    4.08    0.61
  -3  -2   8    9.98    0.63
  -3  -2   8    9.20    0.59
  -3  -2   8    9.75    0.89
  -3  -2   8    8.13    0.88
  -3  -2   8    8.58    0.71
  -3  -2   7   76.55    4.15
  -3  -2   7   67.65    4.37
  -3  -2   7   78.32    4.26
  -3  -2   6    5.89    0.79
  -3  -2   6    6.82    0.63
  -3  -2   5   16.86    1.04
  -3  -2   5   16.38    1.14
  -3  -2   5   14.47    1.23
  -3  -2   5   15.75    1.11
  -3  -2   4    7.92    0.62
  -3  -2   4    7.38    0.68
  -3  -2   4    7.52    0.82
  -3  -2   4    7.02    0.69
  -3  -2   3   53.58    3.02
  -3  -2   3   50.65    3.10
  -3  -2   3   53.50    3.18
  -3  -2   3   55.41    3.08
  -3  -2   2   26.72    1.75
  -3  -2   2   28.63    1.70
  -3  -2   2   27.73    1.85
  -3  -2   2   30.32    1.76
  -3  -2   1    0.76    0.32
  -3  -2   1    0.25    0.48
  -3  -2   1    0.61    0.49
  -3  -2   1    0.41    0.39
  -3  -2   0   28.92    1.99
  -3  -2   0   33.97    2.07
  -3  -2   0   34.12    1.95
  -3  -2   0   34.58    1.98
  -3  -2  -1   24.23    1.57
  -3  -2  -1   24.59    1.60
  -3  -2  -1   24.43    2.02
  -3  -2  -1   24.50    1.50
  -3  -2  -2    8.51    0.75
  -3  -2  -2    8.47    0.76
  -3  -2  -2    8.44    0.70
  -3  -2  -2    9.48    0.80
  -3  -2  -2    8.25    1.12
  -3  -2  -2    8.00    0.65
  -3  -2  -3   21.31    1.43
  -3  -2  -3   21.11    1.40
  -3  -2  -3   20.55    1.33
  -3  -2  -3   23.44    1.45
  -3  -2  -3   20.95    1.31
  -3  -2  -4   55.53    3.21
  -3  -2  -4   53.60    3.16
  -3  -2  -4   63.05    3.26
  -3  -2  -4   54.28    3.14
  -3  -2  -5   27.08    1.72
   3   2   5   24.69    1.48
  -3  -2  -5   25.70    1.58
  -3  -2  -5   30.66    1.68
  -3  -2  -5   26.79    1.55
  -3  -2  -6   61.04    3.40
   3   2   6   54.59    3.17
  -3  -2  -6   54.42    3.22
  -3  -2  -7    0.83    0.44
   3   2   7    0.34    0.14
  -3  -2  -7    0.58    0.33
  -3  -2  -8   24.69    1.65
   3   2   8   23.68    1.42
   3   2   8   26.14    1.66
  -3  -2  -9   77.51    4.54
   3   2   9   76.17    4.32
   3   2   9   85.00    4.52
  -3  -2 -10    5.05    0.65
   3   2  10    5.29    0.43
   3   2  10    4.83    0.87
  -3  -2 -11   45.65    2.92
   3   2  11   51.03    2.76
   3   2  11   46.97    2.95
   3   2  12    9.53    0.63
   3   2  12   10.02    1.00
   3   2  13    0.26    0.20
   3   2  13    0.44    0.68
   3   2  14   10.22    0.67
  -3  -2 -14    9.97    0.69
   3   2  14   10.03    0.94
   3   2  15    4.94    0.38
  -3  -2 -15    5.23    0.39
   3   2  15    4.59    0.64
   3   2  16    2.90    0.24
  -3  -2 -16    3.04    0.24
   3   2  16    2.80    0.43
  -3  -3  12    0.58    0.14
  -3  -3  11    1.60    0.18
  -3  -3  11    1.68    0.22
  -3  -3  10    0.86    0.38
  -3  -3  10    0.52    0.18
  -3  -3  10    0.77    0.14
  -3  -3   9   27.92    1.82
  -3  -3   9   29.46    1.77
  -3  -3   9   30.18    1.84
  -3  -3   9   30.83    1.67
  -3  -3   9   26.37    1.60
  -3  -3   8   71.33    4.17
  -3  -3   8   72.23    3.99
  -3  -3   7  131.26    6.84
  -3  -3   7  109.47    6.98
  -3  -3   7  127.62    6.90
  -3  -3   6    0.14    0.34
  -3  -3   6   -0.12    0.14
  -3  -3   6   -0.07    0.47
  -3  -3   5    0.32    0.35
  -3  -3   5    0.55    0.41
  -3  -3   5    0.27    0.12
  -3  -3   5    0.62    0.49
  -3  -3   4   23.54    1.44
  -3  -3   4   25.78    1.58
  -3  -3   4   23.11    1.35
  -3  -3   4   23.01    1.49
  -3  -3   3   -0.06    0.35
  -3  -3   3    0.20    0.36
  -3  -3   3   -0.02    0.09
  -3  -3   3   -0.30    0.49
  -3  -3   3   -0.07    0.36
  -3  -3   2    1.19    0.38
  -3  -3   2    1.46    0.42
  -3  -3   2    1.20    0.14
  -3  -3   2    1.16    0.50
  -3  -3   2    1.18    0.40
  -3  -3   1    2.45    0.43
  -3  -3   1    2.52    0.45
  -3  -3   1    2.32    0.20
  -3  -3   1    2.65    0.57
  -3  -3   1    2.90    0.45
  -3  -3   0    4.36    0.54
  -3  -3   0    4.34    0.52
  -3  -3   0    3.71    0.61
  -3  -3  -1   11.24    0.88
  -3  -3  -1   10.32    0.81
  -3  -3  -1   11.64    0.96
  -3  -3  -1   11.17    0.82
  -3  -3  -2   -0.03    0.30
  -3  -3  -2    0.44    0.37
  -3  -3  -3   41.60    2.30
  -3  -3  -3   37.51    2.19
  -3  -3  -3   43.64    2.42
  -3  -3  -3   40.03    2.30
  -3  -3  -4   12.16    0.98
  -3  -3  -4   11.62    0.89
  -3  -3  -4   12.63    0.77
  -3  -3  -4   14.97    1.01
  -3  -3  -4   12.70    0.86
  -3  -3  -5  197.57   10.85
  -3  -3  -5  186.77   10.70
  -3  -3  -5  222.65   10.82
  -3  -3  -5  192.81   10.70
  -3  -3  -6   54.44    3.17
  -3  -3  -6   51.67    3.01
   3   3   6   51.09    2.93
  -3  -3  -6   60.05    3.12
  -3  -3  -6   53.77    2.98
  -3  -3  -7  221.63   11.83
  -3  -3  -7  211.97   11.65
   3   3   7  214.23   11.60
  -3  -3  -8    0.27    0.40
   3   3   8    0.47    0.15
  -3  -3  -8    0.55    0.37
  -3  -3  -9   78.83    4.52
   3   3   9   78.05    4.31
  -3  -3 -10    0.52    0.41
   3   3  10    0.71    0.20
  -3  -3 -11    3.50    0.52
   3   3  11    4.05    0.37
  -3  -3 -11    4.09    0.42
   3   3  11    4.18    0.93
   3   3  12    8.64    0.62
   3   3  12   10.00    1.05
   3   3  13    3.76    0.36
   3   3  13    3.56    0.80
   3   3  14    0.58    0.19
  -3  -3 -14    0.72    0.22
   3   3  14    0.35    0.65
   3   3  15    0.89    0.18
  -3  -3 -15    0.59    0.17
   3   3  15    0.52    0.55
   3   3  16    0.40    0.12
  -3  -3 -16    0.54    0.13
  -3  -4  12    1.98    0.20
  -3  -4  11    0.22    0.15
  -3  -4  10   11.53    0.96
  -3  -4  10   13.60    0.83
  -3  -4   9    2.20    0.63
  -3  -4   9    1.75    0.42
  -3  -4   9    1.22    0.46
  -3  -4   9    1.85    0.25
  -3  -4   8    9.97    0.98
  -3  -4   8    9.26    0.83
  -3  -4   8    9.10    0.91
  -3  -4   8    9.75    0.66
  -3  -4   7   37.99    2.42
  -3  -4   7   38.02    2.35
  -3  -4   7   38.67    2.15
  -3  -4   7   36.50    2.19
  -3  -4   6   15.83    0.98
  -3  -4   6   15.96    1.07
  -3  -4   5   24.02    1.42
  -3  -4   5   22.44    1.60
  -3  -4   5   26.35    1.54
  -3  -4   4    0.23    0.37
  -3  -4   4    0.66    0.44
  -3  -4   4    0.50    0.14
  -3  -4   4    0.05    0.48
  -3  -4   3    1.35    0.40
  -3  -4   3    1.58    0.49
  -3  -4   3    1.31    0.17
  -3  -4   3    0.60    0.50
  -3  -4   2   52.62    3.02
  -3  -4   2   56.41    3.17
  -3  -4   2   51.02    2.92
  -3  -4   2   52.17    3.14
  -3  -4   2   55.54    3.05
  -3  -4   1   47.53    2.73
  -3  -4   1   44.68    2.62
  -3  -4   1   53.14    2.89
  -3  -4   1   51.34    2.76
  -3  -4   0   16.79    1.16
  -3  -4   0   15.39    1.05
  -3  -4   0   14.10    0.88
  -3  -4   0   16.98    1.17
  -3  -4  -1   64.64    3.57
  -3  -4  -1   63.72    3.44
  -3  -4  -1   56.37    3.32
  -3  -4  -1   64.05    3.54
  -3  -4  -1   63.91    3.45
  -3  -4  -2    0.75    0.35
  -3  -4  -2    0.70    0.45
  -3  -4  -3    1.75    0.37
  -3  -4  -3    1.96    0.47
  -3  -4  -3    1.83    0.19
  -3  -4  -3    1.46    0.46
  -3  -4  -4   19.90    1.37
  -3  -4  -4   20.08    1.29
  -3  -4  -4   19.40    1.16
  -3  -4  -4   20.07    1.25
  -3  -4  -5   86.39    4.99
  -3  -4  -5   84.89    4.88
  -3  -4  -5   84.97    4.79
  -3  -4  -5   99.61    4.98
  -3  -4  -5   87.22    4.85
  -3  -4  -6    2.23    0.34
  -3  -4  -6    1.62    0.46
  -3  -4  -6    1.96    0.25
  -3  -4  -6    2.17    0.49
  -3  -4  -7   24.79    1.64
   3   4   7   23.45    1.40
  -3  -4  -7   25.19    1.44
  -3  -4  -7   24.58    1.46
   3   4   7   24.28    1.64
  -3  -4  -8    3.09    0.56
   3   4   8    3.56    0.31
  -3  -4  -8    3.90    0.36
   3   4   8    3.64    0.79
  -3  -4  -9    5.95    0.66
   3   4   9    5.74    0.44
  -3  -4  -9    5.93    0.49
   3   4   9    6.86    0.94
  -3  -4 -10    1.07    0.40
   3   4  10    1.49    0.22
  -3  -4 -10    1.65    0.29
   3   4  10    1.63    0.83
  -3  -4 -11    1.36    0.36
   3   4  11    1.35    0.23
  -3  -4 -11    1.22    0.28
   3   4  12    0.23    0.18
   3   4  13    3.34    0.32
   3   4  14    0.72    0.18
  -3  -4 -14    0.69    0.21
   3   4  14    0.69    0.69
   3   4  15    1.44    0.19
  -3  -4 -15    1.23    0.19
   3   4  16    0.77    0.42
  -3  -5  11    1.34    0.18
  -3  -5  10    0.28    0.37
  -3  -5  10    0.35    0.17
  -3  -5   9    1.63    0.52
  -3  -5   9    1.84    0.24
  -3  -5   8    0.89    0.67
  -3  -5   8    0.21    0.42
  -3  -5   8   -0.25    0.51
  -3  -5   8    0.17    0.17
  -3  -5   7    0.39    0.76
  -3  -5   7    0.55    0.51
  -3  -5   7    0.62    0.19
  -3  -5   6    0.38    0.59
  -3  -5   6    0.66    0.31
  -3  -5   6    1.06    0.82
  -3  -5   6    0.76    0.19
  -3  -5   5   10.69    1.24
  -3  -5   5   11.88    1.11
  -3  -5   5   13.72    0.83
  -3  -5   5   12.98    0.91
  -3  -5   4   32.95    1.86
  -3  -5   4   30.69    1.98
  -3  -5   4   32.83    1.95
  -3  -5   3    2.27    0.43
  -3  -5   3    1.54    0.54
  -3  -5   3    1.20    0.19
  -3  -5   3    1.46    0.45
  -3  -5   2   19.62    1.21
  -3  -5   2   21.42    1.42
  -3  -5   2   22.45    1.36
  -3  -5   1   78.97    4.90
  -3  -5   1   83.79    4.69
  -3  -5   1   90.77    4.88
  -3  -5   1   90.42    4.81
  -3  -5   0   34.07    2.11
  -3  -5   0   30.85    1.85
  -3  -5   0   34.43    2.07
  -3  -5   0   35.60    1.99
  -3  -5  -1   23.31    1.61
  -3  -5  -1   22.98    1.37
  -3  -5  -1   26.81    1.62
  -3  -5  -2   16.72    1.38
  -3  -5  -2   21.04    1.38
  -3  -5  -2   20.83    1.30
  -3  -5  -3    0.80    0.38
  -3  -5  -3    0.20    0.44
  -3  -5  -3    0.18    0.12
  -3  -5  -3    0.70    0.50
  -3  -5  -4   14.76    1.15
  -3  -5  -4   13.35    1.04
  -3  -5  -4   15.36    0.90
  -3  -5  -4   14.50    1.02
   3   5   5    0.49    0.52
  -3  -5  -5    0.68    0.36
  -3  -5  -5    0.41    0.43
  -3  -5  -5    0.46    0.34
  -3  -5  -5    0.44    0.16
  -3  -5  -6    0.34    0.33
  -3  -5  -6    0.12    0.41
  -3  -5  -6    0.11    0.17
   3   5   6   -0.08    0.56
  -3  -5  -7   21.85    1.52
  -3  -5  -7   22.65    1.33
  -3  -5  -7   20.83    1.36
   3   5   7   23.53    1.53
  -3  -5  -8    2.73    0.50
   3   5   8    3.22    0.29
  -3  -5  -8    3.78    0.36
   3   5   8    4.15    0.76
  -3  -5  -9    0.53    0.38
   3   5   9    0.26    0.16
  -3  -5  -9    0.28    0.23
   3   5   9   -0.21    0.72
  -3  -5 -10    4.68    0.55
   3   5  10    4.76    0.40
  -3  -5 -10    5.58    0.46
   3   5  10    4.27    0.86
   3   5  11    5.36    0.43
  -3  -5 -11    6.04    0.50
   3   5  11    5.63    0.89
   3   5  12    9.87    0.68
  -3  -5 -12   10.39    0.72
   3   5  12   11.61    1.07
   3   5  13   25.76    1.51
   3   5  13   27.32    1.77
  -3  -5 -14    1.17    0.22
   3   5  14    0.76    0.65
  -3  -5 -15    0.35    0.14
  -3  -5 -16    0.81    0.11
  -3  -6  11    1.01    0.13
  -3  -6  10    0.77    0.35
  -3  -6  10   -0.01    0.13
  -3  -6   9    2.87    0.50
  -3  -6   9    2.83    0.28
  -3  -6   8    0.02    0.48
  -3  -6   8    0.38    0.18
  -3  -6   7    2.36    0.77
  -3  -6   7    2.31    0.53
  -3  -6   7    1.49    0.59
  -3  -6   7    1.67    0.25
  -3  -6   6    3.98    0.92
  -3  -6   6    4.00    0.69
  -3  -6   6    5.16    0.41
  -3  -6   6    5.06    0.45
  -3  -6   5   11.92    1.20
  -3  -6   5    9.86    0.98
  -3  -6   5    9.97    0.68
  -3  -6   5    9.52    0.74
  -3  -6   4   11.13    1.06
  -3  -6   4   10.78    0.71
  -3  -6   4   10.33    0.81
  -3  -6   3  239.94   12.68
  -3  -6   3  226.84   12.46
  -3  -6   3  229.66   12.53
  -3  -6   2   35.82    2.41
  -3  -6   2   39.56    2.38
  -3  -6   2   36.24    2.10
  -3  -6   2   37.30    2.22
  -3  -6   2   36.71    2.20
  -3  -6   1  636.93   33.62
  -3  -6   1  609.85   33.62
  -3  -6   1  611.30   33.41
  -3  -6   1  628.02   33.54
  -3  -6   1  631.27   33.51
  -3  -6   0   43.88    2.73
  -3  -6   0   45.79    2.72
  -3  -6   0   42.56    2.49
  -3  -6   0   44.26    2.65
  -3  -6   0   47.92    2.63
  -3  -6  -1    0.38    0.56
  -3  -6  -1    0.75    0.49
  -3  -6  -1    0.69    0.17
  -3  -6  -2    3.81    0.65
  -3  -6  -2    3.57    0.61
  -3  -6  -2    4.08    0.34
  -3  -6  -3    9.93    0.63
  -3  -6  -3    9.25    0.87
  -3  -6  -3    8.91    0.87
  -3  -6  -3   10.76    0.84
  -3  -6  -4    0.20    0.42
  -3  -6  -4    0.14    0.14
  -3  -6  -4    0.36    0.43
  -3  -6  -4    0.39    0.41
  -3  -6  -5    2.16    0.46
  -3  -6  -5    1.93    0.24
  -3  -6  -5    1.67    0.43
   3   6   5    1.18    0.49
  -3  -6  -6    0.48    0.39
  -3  -6  -6    0.14    0.17
   3   6   6    0.26    0.51
   3   6   7    1.97    0.60
  -3  -6  -8   12.05    0.79
   3   6   8   10.06    0.98
  -3  -6  -9    1.41    0.28
   3   6   9    2.55    0.67
  -3  -6 -10   10.20    0.72
   3   6  10   10.08    0.98
  -3  -6 -11  218.61   11.57
   3   6  11  204.72   11.66
   3   6  12    6.97    0.85
   3   6  13   -0.59    0.61
   3   6  14    0.39    0.51
  -3  -6 -15   10.99    0.64
   3   6  15    8.87    0.80
  -3  -7   9    1.62    0.39
  -3  -7   9    1.25    0.17
  -3  -7   8    0.55    0.44
  -3  -7   8    0.72    0.17
  -3  -7   7    0.08    0.49
  -3  -7   7    0.18    0.16
  -3  -7   6    3.76    0.81
  -3  -7   6    2.46    0.27
  -3  -7   5    0.51    0.59
  -3  -7   5    0.02    0.16
   3   7  -4    1.88    0.58
  -3  -7   4    2.66    0.70
  -3  -7   4    2.45    0.29
  -3  -7   3  227.84   12.49
  -3  -7   3  230.96   12.47
  -3  -7   3  224.53   12.27
  -3  -7   3  225.99   12.32
  -3  -7   2    8.80    1.12
  -3  -7   2    9.72    0.66
  -3  -7   2    9.23    0.79
  -3  -7   1   30.09    2.18
  -3  -7   1   33.90    2.18
  -3  -7   1   33.32    1.90
  -3  -7   1   33.50    2.02
  -3  -7   0    1.96    0.51
  -3  -7   0    0.34    0.73
  -3  -7   0    1.81    0.66
  -3  -7   0    1.73    0.24
  -3  -7  -1    6.32    0.91
  -3  -7  -1    8.43    0.89
  -3  -7  -1    7.81    0.79
  -3  -7  -1    7.17    0.54
  -3  -7  -1    8.25    0.77
  -3  -7  -2    6.33    0.76
  -3  -7  -2    5.25    0.64
  -3  -7  -2    5.67    0.43
  -3  -7  -3    6.31    0.82
  -3  -7  -3    8.48    0.59
  -3  -7  -3   10.05    0.86
  -3  -7  -3    8.51    0.81
  -3  -7  -3    9.33    0.63
  -3  -7  -3   11.26    0.85
  -3  -7  -4    1.27    0.49
  -3  -7  -4    0.98    0.20
  -3  -7  -4    0.83    0.47
  -3  -7  -4    0.74    0.39
  -3  -7  -5    1.38    0.22
  -3  -7  -5    0.94    0.37
  -3  -7  -6    7.55    0.52
  -3  -7  -6    5.83    0.63
  -3  -7  -7   16.00    0.93
   3   7   7   12.40    1.01
  -3  -7  -8   -0.09    0.20
   3   7   8    0.99    0.48
   3   7   9   86.03    5.54
   3   7   9   98.49    5.56
  -3  -7 -10   22.70    1.34
   3   7  10   21.50    1.47
  -3  -7 -11  385.73   19.94
   3   7  11  345.69   20.01
  -3  -7 -12   18.68    1.10
   3   7  12   17.21    1.26
   3   7  13    5.82    0.64
   3   7  14    3.18    0.49
  -3  -7 -15    7.44    0.46
  -3  -8   8    0.38    0.30
  -3  -8   8    0.15    0.10
  -3  -8   7   13.43    0.81
  -3  -8   6    0.20    0.44
  -3  -8   6    0.06    0.14
  -3  -8   5    7.68    0.81
  -3  -8   5    8.36    0.56
   3   8  -4    2.54    0.52
  -3  -8   4    2.83    0.59
  -3  -8   4    3.20    0.31
  -3  -8   3   41.37    2.41
  -3  -8   3   40.19    2.13
  -3  -8   2   14.37    1.25
   3   8  -2   12.57    1.13
  -3  -8   2   14.19    0.89
  -3  -8   1    2.07    0.76
  -3  -8   1    3.30    0.75
  -3  -8   1    2.13    0.27
  -3  -8   0   45.88    2.85
  -3  -8   0   50.07    2.90
  -3  -8   0   46.45    2.65
  -3  -8  -1    9.66    1.00
  -3  -8  -1   11.19    0.72
  -3  -8  -2   12.22    1.08
  -3  -8  -2   14.56    0.89
  -3  -8  -3    0.76    0.48
  -3  -8  -3    0.43    0.18
  -3  -8  -3    0.43    0.19
  -3  -8  -4   10.47    0.72
  -3  -8  -4   11.17    0.73
  -3  -8  -5   13.78    0.88
  -3  -8  -6    1.02    0.23
   3   8   7    5.65    0.85
  -3  -8  -7    5.75    0.46
   3   8   8    0.21    0.61
  -3  -8  -8    0.42    0.20
  -3  -8  -9   11.69    0.71
   3   8   9    8.35    0.84
  -3  -8 -10    9.07    0.61
  -3  -8 -11   18.25    1.09
  -3  -8 -12    0.20    0.15
  -3  -8 -13    0.84    0.15
  -3  -9   6    0.78    0.30
  -3  -9   6    0.19    0.10
  -3  -9   5    0.41    0.34
  -3  -9   5    0.28    0.12
  -3  -9   4    0.19    0.37
  -3  -9   4   -0.01    0.12
  -3  -9   3    2.55    0.48
  -3  -9   3    2.49    0.25
   3   9  -2   -0.07    0.55
  -3  -9   2   -0.61    0.40
  -3  -9   2   -0.06    0.16
   3   9  -1    0.16    0.61
  -3  -9   1   -0.34    0.40
  -3  -9   1    0.03    0.16
   3   9   0    1.03    0.68
  -3  -9   0    1.12    0.20
   3   9   1    2.88    0.80
  -3  -9  -1    2.05    0.27
   3   9   2    8.76    1.00
  -3  -9  -2    7.77    0.55
  -3  -9  -3   54.71    3.05
  -3  -9  -4    5.79    0.48
   3   9   4    6.89    0.95
  -3  -9  -4    7.08    0.49
  -3  -9  -5   13.84    0.97
   3   9   5   17.30    1.30
  -3  -9  -5   17.31    0.98
   3   9   6    2.07    0.71
  -3  -9  -6    1.57    0.24
  -3  -9  -6    2.07    0.25
   3   9   7    0.60    0.59
  -3  -9  -7    0.80    0.20
  -3  -9  -7    0.99    0.19
  -3  -9  -8    7.47    0.52
   3   9   8    6.57    0.71
  -3  -9  -9    4.02    0.35
  -3  -9 -10    2.59    0.26
  -3  -9 -11    5.00    0.37
  -3  -9 -12    4.12    0.30
  -3 -10   4    0.35    0.09
  -3 -10   3    4.43    0.31
  -3 -10   2    2.43    0.31
  -3 -10   2    3.16    0.23
   3  10  -2    1.89    0.39
   3  10  -2    1.32    0.34
  -3 -10   1    2.06    0.21
   3  10  -1    1.41    0.45
   3  10   0   11.58    0.98
  -3 -10   0   14.62    0.84
   3  10   1    0.58    0.52
  -3 -10  -1    0.06    0.13
   3  10   2   15.83    1.17
  -3 -10  -2   16.88    0.99
  -3 -10  -3   12.65    0.78
   3  10   4   62.41    3.60
  -3 -10  -4   64.04    3.50
   3  10   5    3.70    0.61
  -3 -10  -5    3.38    0.29
  -3 -10  -6   -0.07    0.14
  -3 -10  -6    0.07    0.12
   3  10   6    0.13    0.49
  -3 -10  -7   -0.05    0.14
  -3 -10  -7   -0.05    0.11
   3  10   7    0.03    0.43
  -3 -10  -8    2.60    0.26
  -3 -10  -8    3.48    0.25
  -3 -10  -9   -0.07    0.12
  -3 -10  -9    0.08    0.09
  -3 -10 -10    0.16    0.10
  -3 -10 -10    0.13    0.07
   3  11   1    1.17    0.32
   3  11   1    0.88    0.28
   3  11   2    0.85    0.32
   3  11   4    0.29    0.32
   3  11   5    0.62    0.31
  -4   8   2    1.08    0.25
  -4   8   0    4.19    0.38
  -4   7   6   22.23    1.37
  -4   7   6   23.97    1.37
  -4   7   5   31.66    1.81
  -4   7   5   29.06    1.76
  -4   7   4    0.41    0.28
  -4   7   4    0.34    0.34
  -4   7   3    0.63    0.27
  -4   7   2    1.68    0.29
  -4   7   2    0.80    0.25
  -4   7   1    2.23    0.28
  -4   7   1    1.73    0.33
  -4   7   0    1.33    0.33
  -4   7  -1    2.35    0.57
  -4   7  -1    1.54    0.37
  -4   7  -2   -0.01    0.29
  -4   7  -3   -0.33    0.29
  -4   7  -5   -0.13    0.20
  -4   6   9    0.55    0.19
  -4   6   8    0.85    0.27
  -4   6   8    0.49    0.27
  -4   6   7    0.39    0.32
  -4   6   7    0.64    0.28
  -4   6   7    0.31    0.29
  -4   6   6    4.65    0.53
  -4   6   6    3.71    0.45
  -4   6   5    0.57    0.38
  -4   6   5    0.38    0.43
  -4   6   5    0.49    0.30
  -4   6   4    1.67    0.45
  -4   6   3    1.24    0.43
  -4   6   3    0.95    0.69
  -4   6   2    0.50    0.37
  -4   6   2    0.74    0.74
  -4   6   2    0.27    0.31
  -4   6   1   -0.21    0.33
  -4   6   1    0.29    0.74
  -4   6   1   -0.05    0.36
  -4   6   0    0.32    0.29
  -4   6   0    0.32    0.41
  -4   6  -1    7.58    0.91
  -4   6  -1    5.19    0.69
  -4   6  -2    4.05    0.74
  -4   6  -2    2.93    0.55
  -4   6  -3    0.30    0.44
  -4   6  -4    0.10    0.21
  -4   6  -5    0.81    0.25
  -4   6  -5    1.07    0.40
  -4   6  -6   26.36    1.51
  -4   6  -6   23.36    1.58
  -4   6  -7   24.94    1.32
  -4   6  -7   18.39    1.32
   4  -6   8    1.18    0.13
  -4   5  10    0.44    0.17
  -4   5  10    0.51    0.29
  -4   5   9    4.40    0.53
  -4   5   9    5.30    0.46
  -4   5   8    0.73    0.36
  -4   5   8    1.00    0.43
  -4   5   7    2.65    0.48
  -4   5   7    2.67    0.47
  -4   5   7    2.36    0.53
  -4   5   6    6.94    0.73
  -4   5   6    6.35    0.71
  -4   5   5    0.47    0.51
  -4   5   5    0.42    0.54
  -4   5   5    0.40    0.48
  -4   5   4    0.72    0.52
  -4   5   4    1.24    0.73
  -4   5   4    0.57    0.45
  -4   5   3   -0.01    0.47
  -4   5   3    0.04    0.77
  -4   5   3    0.22    0.38
  -4   5   3    0.34    0.32
  -4   5   2   11.25    1.01
  -4   5   2   13.96    1.05
  -4   5   1    7.26    1.05
  -4   5   1    5.18    0.70
  -4   5   1    6.27    0.66
  -4   5   0    6.02    0.78
  -4   5   0    6.33    0.63
  -4   5  -1    9.11    1.01
  -4   5  -1   10.20    0.81
  -4   5  -2   14.30    1.17
  -4   5  -2    7.83    1.00
  -4   5  -3    1.19    0.35
  -4   5  -3    1.66    0.77
  -4   5  -3    1.52    0.62
  -4   5  -4   18.09    1.23
  -4   5  -5   12.15    0.92
  -4   5  -5   11.46    1.04
  -4   5  -6    0.26    0.32
  -4   5  -6   -0.52    0.45
  -4   5  -7    1.93    0.39
  -4   5  -7    1.28    0.42
  -4   5  -8    1.86    0.36
  -4   5  -8    1.77    0.34
  -4   5  -9    0.56    0.26
   4  -5   9    0.46    0.12
  -4   5 -10    0.95    0.21
   4  -5  10    1.27    0.12
  -4   4  11    4.85    0.48
  -4   4  10    3.42    0.36
  -4   4   9    0.41    0.34
  -4   4   9    0.91    0.50
  -4   4   8    1.25    0.43
  -4   4   8    0.61    0.36
  -4   4   8    1.04    0.54
  -4   4   7   11.04    0.91
  -4   4   7    8.62    0.98
  -4   4   7   11.26    0.91
  -4   4   6    2.51    0.60
  -4   4   6    2.92    0.62
  -4   4   6    1.98    0.67
  -4   4   5    0.30    0.61
  -4   4   5    0.25    0.57
  -4   4   4    7.23    0.89
  -4   4   4   10.57    0.94
  -4   4   3    1.24    0.59
  -4   4   3    1.55    0.89
  -4   4   3    1.35    0.56
  -4   4   3    1.02    0.39
  -4   4   2    4.39    0.66
  -4   4   2    3.03    1.01
  -4   4   2    3.29    0.58
  -4   4   2    3.75    0.59
  -4   4   1    0.41    0.47
  -4   4   1    0.61    0.98
  -4   4   1    0.37    0.41
  -4   4   1    0.02    0.46
  -4   4   0    7.40    0.92
  -4   4   0   10.09    0.83
  -4   4  -1   80.00    5.08
  -4   4  -1   89.32    4.87
  -4   4  -2    1.80    0.38
  -4   4  -2    1.29    0.38
  -4   4  -2    1.84    0.68
  -4   4  -3    1.92    0.44
  -4   4  -3    2.84    0.92
  -4   4  -3    1.52    0.68
  -4   4  -4    1.14    0.46
  -4   4  -5   12.54    1.04
  -4   4  -5   14.22    1.23
  -4   4  -6    1.11    0.47
  -4   4  -6    0.70    0.55
  -4   4  -7    2.96    0.56
  -4   4  -7    2.84    0.58
  -4   4  -8    0.69    0.42
  -4   4  -8    0.55    0.37
  -4   4  -9    0.34    0.36
   4  -4  10    0.03    0.12
  -4   4 -11    0.08    0.22
   4  -4  11    0.25    0.09
  -4   3  11    0.27    0.36
  -4   3  10    1.43    0.30
  -4   3  10    1.18    0.49
  -4   3   9    0.22    0.35
  -4   3   8    0.38    0.45
  -4   3   8   -0.29    0.40
  -4   3   7    7.06    0.76
  -4   3   7    4.94    0.84
  -4   3   7    6.18    0.74
  -4   3   6    1.75    0.62
  -4   3   6    2.06    0.63
  -4   3   6    1.29    0.70
  -4   3   5    0.59    0.65
  -4   3   5    1.12    0.69
  -4   3   4    1.03    0.73
  -4   3   4    0.95    0.68
  -4   3   3   19.30    1.49
  -4   3   3   17.70    1.36
  -4   3   3   22.40    1.50
  -4   3   2    1.19    0.60
  -4   3   2    0.99    0.97
  -4   3   2    0.25    0.55
  -4   3   2    0.02    0.41
  -4   3   1    2.58    0.62
  -4   3   1    2.53    1.01
  -4   3   1    2.27    0.59
  -4   3   1    1.83    0.56
  -4   3   0   10.95    0.95
  -4   3   0   11.53    1.09
  -4   3   0   12.31    0.99
  -4   3  -1    2.37    0.49
  -4   3  -1    2.41    0.43
  -4   3  -1    1.57    0.44
  -4   3  -1    2.38    0.69
  -4   3  -2   12.19    1.03
  -4   3  -2   13.70    1.28
  -4   3  -2   13.81    0.99
  -4   3  -3    8.88    0.83
  -4   3  -3    8.78    1.07
  -4   3  -4    0.20    0.44
  -4   3  -5   24.01    1.64
  -4   3  -5   22.45    1.78
  -4   3  -6    1.14    0.55
  -4   3  -6    0.50    0.56
  -4   3  -7    0.72    0.37
  -4   3  -7    1.09    0.55
  -4   3  -7    1.76    0.57
  -4   3  -8    3.73    0.63
  -4   3  -8    2.48    0.55
  -4   3  -9    0.98    0.37
   4  -3  10   -0.07    0.16
  -4   3 -11    2.85    0.46
   4  -3  11    4.62    0.32
  -4   3 -12    3.73    0.43
   4  -3  12    5.66    0.34
  -4   2  12    1.63    0.29
  -4   2  11    3.80    0.52
  -4   2  10    7.05    0.78
  -4   2  10    7.07    0.56
  -4   2   9    3.68    0.49
  -4   2   9    3.95    0.73
  -4   2   8    0.04    0.45
  -4   2   8    0.08    0.66
  -4   2   7  131.89    7.42
  -4   2   7  132.08    7.36
  -4   2   6   12.09    1.11
  -4   2   6   11.13    0.86
  -4   2   6   12.08    1.05
  -4   2   5   65.35    3.97
  -4   2   5   61.88    3.97
  -4   2   5   68.88    3.88
  -4   2   4    1.54    0.76
  -4   2   4    2.61    0.78
  -4   2   3    8.42    1.03
  -4   2   3    6.38    0.92
  -4   2   3    8.21    0.90
  -4   2   2    2.92    0.66
  -4   2   2    2.82    0.70
  -4   2   2    2.75    0.54
  -4   2   1    1.44    0.56
  -4   2   1    1.14    0.58
  -4   2   1    1.31    0.53
  -4   2   0    0.61    0.34
  -4   2   0    1.16    0.52
  -4   2   0    0.90    0.53
  -4   2   0    0.45    0.52
  -4   2  -1    4.70    0.58
  -4   2  -1    3.79    0.61
  -4   2  -1    4.52    0.77
  -4   2  -1    4.72    0.62
  -4   2  -2    4.38    0.59
  -4   2  -2    3.89    0.56
  -4   2  -2    4.00    0.75
  -4   2  -2    4.59    0.57
  -4   2  -3    7.41    0.80
  -4   2  -3    8.63    1.01
  -4   2  -3    8.09    0.68
  -4   2  -4    5.42    0.71
  -4   2  -5    3.82    0.68
  -4   2  -5    2.77    0.57
  -4   2  -5    3.86    0.82
  -4   2  -6    6.40    0.83
  -4   2  -6    6.66    0.90
   4  -2   7   -0.09    0.46
  -4   2  -7   -0.06    0.39
  -4   2  -7    0.39    0.59
  -4   2  -7    0.17    0.52
  -4   2  -8    5.98    0.82
  -4   2  -8    5.99    0.75
   4  -2   9   15.54    0.98
  -4   2 -10    2.72    0.56
   4  -2  10    3.14    0.31
  -4   2 -11    1.11    0.42
   4  -2  11    0.76    0.17
  -4   2 -12    0.82    0.32
   4  -2  12    1.30    0.16
  -4   2 -13    0.04    0.18
   4  -2  13    0.06    0.08
  -4   1  11    0.05    0.36
  -4   1  10    2.68    0.34
  -4   1  10    3.08    0.58
  -4   1   9   12.82    1.14
  -4   1   9   13.07    0.93
  -4   1   8    0.76    0.44
  -4   1   8    0.51    0.68
  -4   1   7  342.48   19.64
  -4   1   7  370.15   19.51
  -4   1   6   61.58    3.56
  -4   1   6   54.70    3.29
  -4   1   6   63.94    3.49
  -4   1   5   42.39    2.67
  -4   1   5   38.63    2.41
  -4   1   5   44.18    2.57
  -4   1   4    1.05    0.53
  -4   1   4    2.39    0.67
  -4   1   4    2.11    0.75
  -4   1   4    1.51    0.75
  -4   1   3   23.41    1.68
  -4   1   3   19.07    1.60
  -4   1   2    1.03    0.59
  -4   1   2    0.83    0.67
  -4   1   1    2.02    0.40
  -4   1   1    3.36    0.64
  -4   1   1    3.40    0.79
  -4   1   1    2.54    0.69
  -4   1   1    2.03    0.54
  -4   1   0    5.99    0.66
  -4   1   0    6.71    0.94
  -4   1   0    6.04    0.79
  -4   1   0    6.72    0.81
  -4   1   0    6.77    0.75
  -4   1  -1    5.47    0.66
  -4   1  -1    5.40    0.87
  -4   1  -1    5.02    0.74
  -4   1  -1    6.00    0.81
  -4   1  -1    5.81    0.67
  -4   1  -2    3.17    0.52
  -4   1  -2    3.36    0.58
  -4   1  -2    3.29    0.68
  -4   1  -2    2.23    0.56
  -4   1  -2    2.21    0.64
  -4   1  -3   12.99    1.09
  -4   1  -3   15.05    1.17
  -4   1  -3   11.51    1.01
  -4   1  -3   14.30    1.27
  -4   1  -3   13.01    0.95
  -4   1  -4    0.18    0.49
  -4   1  -4   -0.11    0.47
  -4   1  -4    0.01    0.36
  -4   1  -5  424.67   22.46
  -4   1  -5  384.20   22.36
  -4   1  -5  448.49   22.61
  -4   1  -6   21.31    1.49
  -4   1  -6   24.10    1.62
  -4   1  -7  294.95   14.97
  -4   1  -7  308.69   15.05
   4  -1   8    0.49    0.57
  -4   1  -9   59.93    3.55
   4  -1   9   58.45    3.32
   4  -1   9   60.00    3.40
  -4   1 -10    4.40    0.68
   4  -1  10    4.96    0.41
   4  -1  10    4.82    0.59
  -4   1 -11    0.14    0.42
   4  -1  11    0.18    0.16
  -4   1 -12    0.76    0.37
   4  -1  12    0.57    0.15
  -4   1 -13   16.57    1.25
   4  -1  13   22.63    1.18
   4  -1  14    2.49    0.19
  -4   0  11    0.87    0.34
  -4   0  10    4.29    0.59
  -4   0   9    7.02    0.82
  -4   0   9    7.45    0.63
  -4   0   8    9.50    0.99
  -4   0   8    9.18    0.78
  -4   0   7   35.10    2.37
  -4   0   7   35.44    2.18
  -4   0   6   -0.02    0.51
  -4   0   6    0.76    0.76
  -4   0   5   10.18    1.10
  -4   0   5   10.05    0.83
  -4   0   5   10.00    1.17
  -4   0   5   12.63    1.02
  -4   0   4    1.25    0.61
  -4   0   4    0.18    0.69
  -4   0   4    0.46    0.49
  -4   0   3    4.40    0.67
  -4   0   3    5.39    0.86
  -4   0   3    4.63    0.53
  -4   0   2   11.61    1.06
  -4   0   2   13.59    1.24
  -4   0   1    6.39    0.66
  -4   0   1    7.30    0.97
  -4   0   1    7.90    0.92
  -4   0   1    8.09    0.83
  -4   0   0    6.25    0.68
  -4   0   0    6.97    0.93
  -4   0   0    7.45    0.88
  -4   0   0    8.37    0.80
  -4   0  -1    0.49    0.44
  -4   0  -1    0.40    0.41
  -4   0  -1    0.60    0.60
  -4   0  -1    0.13    0.54
  -4   0  -1    1.02    0.49
  -4   0  -2    3.74    0.53
  -4   0  -2    3.02    0.57
  -4   0  -2    3.26    0.71
  -4   0  -2    3.22    0.65
  -4   0  -2    4.25    0.70
  -4   0  -3    0.48    0.35
  -4   0  -3    0.29    0.49
  -4   0  -3    0.96    0.55
  -4   0  -3    0.32    0.51
  -4   0  -3    1.05    0.59
  -4   0  -4    1.76    0.36
  -4   0  -4    1.18    0.59
  -4   0  -4    1.44    0.57
  -4   0  -4    1.51    0.55
  -4   0  -4    1.32    0.48
  -4   0  -5  365.33   18.57
  -4   0  -5  330.70   18.45
  -4   0  -5  327.64   18.38
  -4   0  -5  318.70   18.39
  -4   0  -6  113.42    6.10
  -4   0  -6  102.25    5.89
   4   0   7  126.35    6.88
  -4   0  -7  124.96    6.92
   4   0   8    1.00    0.67
  -4   0  -8    0.62    0.61
   4   0   8    0.46    0.19
  -4   0  -8    0.63    0.36
  -4   0  -9    8.89    0.93
   4   0   9    8.41    0.61
   4   0   9    9.44    0.91
  -4   0 -10    5.14    0.72
   4   0  10    5.01    0.40
   4   0  10    4.90    0.70
  -4   0 -11   10.02    0.91
   4   0  11   10.79    0.69
   4   0  11   10.46    0.86
  -4   0 -12    7.56    0.73
   4   0  12    8.41    0.55
   4   0  12    8.79    0.69
  -4   0 -13    0.27    0.26
   4   0  13    0.00    0.12
   4   0  14    0.58    0.11
  -4   0 -14    0.55    0.12
  -4  -1  10    0.54    0.38
  -4  -1   9    0.13    0.28
  -4  -1   9   -0.26    0.49
  -4  -1   8    3.47    0.47
  -4  -1   8    2.78    0.66
  -4  -1   7   15.02    1.33
  -4  -1   7   16.89    1.16
  -4  -1   6   19.36    1.58
  -4  -1   6   21.13    1.42
  -4  -1   5    0.36    0.52
  -4  -1   5    0.13    0.28
  -4  -1   5    0.66    0.71
  -4  -1   5    1.22    0.41
  -4  -1   4    4.43    0.67
  -4  -1   4    3.70    0.50
  -4  -1   4    3.82    0.84
  -4  -1   4    4.53    0.57
  -4  -1   3    5.78    0.93
  -4  -1   3    4.49    0.60
  -4  -1   3    6.20    0.70
  -4  -1   3    6.14    0.93
  -4  -1   3    6.84    0.76
  -4  -1   2   19.42    1.39
  -4  -1   2   22.72    1.44
  -4  -1   1    4.22    0.56
  -4  -1   1    5.00    0.86
  -4  -1   1    4.95    0.85
  -4  -1   1    5.58    0.70
  -4  -1   1    5.23    0.72
  -4  -1   0    1.88    0.55
  -4  -1   0    1.20    0.44
  -4  -1   0    1.21    0.68
  -4  -1   0    1.34    0.69
  -4  -1   0    1.46    0.60
  -4  -1  -1    0.14    0.44
  -4  -1  -1    0.27    0.40
  -4  -1  -1   -0.19    0.58
  -4  -1  -1    0.18    0.60
  -4  -1  -2    6.94    0.81
  -4  -1  -2    7.98    0.91
  -4  -1  -2    8.83    0.94
  -4  -1  -2    9.16    0.76
  -4  -1  -3   18.21    1.38
  -4  -1  -3   17.04    1.36
  -4  -1  -3   18.26    1.31
  -4  -1  -3   19.01    1.38
  -4  -1  -3   18.01    1.21
  -4  -1  -4   33.34    2.17
  -4  -1  -4   32.27    2.10
  -4  -1  -4   31.74    2.04
  -4  -1  -4   34.23    2.09
  -4  -1  -4   32.28    1.96
  -4  -1  -5    0.26    0.28
  -4  -1  -5    0.02    0.58
  -4  -1  -5    0.02    0.40
  -4  -1  -5    0.91    0.46
  -4  -1  -5    0.31    0.54
  -4  -1  -6    1.13    0.40
  -4  -1  -6    0.37    0.49
   4   1   7    5.06    0.41
  -4  -1  -7    5.51    0.61
   4   1   8    0.44    0.74
  -4  -1  -8    0.66    0.61
   4   1   8   -0.01    0.14
  -4  -1  -8    0.08    0.37
  -4  -1  -9   12.42    1.10
   4   1   9   12.01    0.77
   4   1   9   11.89    1.10
  -4  -1 -10    0.30    0.51
   4   1  10    0.15    0.15
   4   1  10    0.26    0.67
  -4  -1 -11    1.51    0.50
   4   1  11    1.42    0.21
   4   1  11    2.01    0.64
  -4  -1 -12   13.10    1.03
   4   1  12   13.79    0.84
   4   1  12   14.90    1.03
  -4  -1 -13    0.08    0.25
   4   1  13    0.12    0.12
  -4  -1 -13    0.12    0.16
   4   1  13    0.14    0.41
   4   1  14    7.23    0.45
  -4  -1 -14    7.18    0.47
   4   1  14    7.08    0.55
  -4  -2   9    5.06    0.59
  -4  -2   8    5.83    0.70
  -4  -2   8    5.77    0.72
  -4  -2   8    6.55    0.57
  -4  -2   7    5.74    0.80
  -4  -2   7    6.60    0.64
  -4  -2   6   10.92    1.09
  -4  -2   6   10.66    0.89
  -4  -2   5   49.44    2.72
  -4  -2   5   43.83    2.79
  -4  -2   5   46.53    2.97
  -4  -2   5   47.97    2.82
  -4  -2   4    7.59    0.67
  -4  -2   4    5.79    0.67
  -4  -2   4    5.92    0.90
  -4  -2   4    6.85    0.76
  -4  -2   3   35.31    2.09
  -4  -2   3   31.83    2.16
  -4  -2   3   34.21    2.31
  -4  -2   3   36.19    2.17
  -4  -2   2  121.31    6.43
  -4  -2   2  103.37    6.50
  -4  -2   2  123.93    6.67
  -4  -2   1  152.62    9.31
  -4  -2   1  180.24    9.24
  -4  -2   0    7.80    0.81
  -4  -2   0    8.76    0.85
  -4  -2   0    9.39    0.84
  -4  -2  -1    3.79    0.58
  -4  -2  -1    3.54    0.60
  -4  -2  -1    3.01    0.73
  -4  -2  -1    3.59    0.66
  -4  -2  -2    1.94    0.47
  -4  -2  -2    1.43    0.53
  -4  -2  -2    1.06    0.65
  -4  -2  -3    6.48    0.79
  -4  -2  -3    7.17    0.82
  -4  -2  -3    6.36    0.65
  -4  -2  -3    6.49    0.76
  -4  -2  -4    7.21    0.86
  -4  -2  -4    7.05    0.78
  -4  -2  -4    9.25    0.87
  -4  -2  -4    7.22    0.66
  -4  -2  -5    1.74    0.35
  -4  -2  -5    1.85    0.55
  -4  -2  -5    1.44    0.55
  -4  -2  -6    0.96    0.47
  -4  -2  -6    0.84    0.51
  -4  -2  -7    3.20    0.71
  -4  -2  -7    2.92    0.52
   4   2   8    6.65    0.98
  -4  -2  -8    6.74    0.84
  -4  -2  -8    6.48    0.60
   4   2   8    5.85    0.43
  -4  -2  -9    1.20    0.58
   4   2   9    1.00    0.18
   4   2   9    0.98    0.82
  -4  -2 -10    4.60    0.68
   4   2  10    4.79    0.38
   4   2  10    6.13    0.88
  -4  -2 -11   20.82    1.45
   4   2  11   20.08    1.23
  -4  -2 -11   22.16    1.28
   4   2  11   22.26    1.50
  -4  -2 -12    1.91    0.41
   4   2  12    2.05    0.22
  -4  -2 -12    1.84    0.27
  -4  -2 -13    0.94    0.27
   4   2  13    0.78    0.15
  -4  -2 -13    0.70    0.18
   4   2  13    1.35    0.50
   4   2  14    0.09    0.09
  -4  -2 -14    0.03    0.12
   4   2  14    0.15    0.38
  -4  -3   9    0.31    0.30
  -4  -3   8    0.34    0.26
  -4  -3   8    0.38    0.53
  -4  -3   8   -0.28    0.43
  -4  -3   8    0.15    0.38
  -4  -3   7    3.16    0.74
  -4  -3   7    3.18    0.61
  -4  -3   7    4.32    0.48
  -4  -3   6   10.16    1.03
  -4  -3   6   11.93    0.88
  -4  -3   5    2.77    0.53
  -4  -3   5    3.45    0.72
  -4  -3   4   20.34    1.33
  -4  -3   4   18.72    1.41
  -4  -3   4   19.97    1.55
  -4  -3   4   20.88    1.40
  -4  -3   3   12.15    0.95
  -4  -3   3   10.54    1.00
  -4  -3   3   11.74    1.15
  -4  -3   3   12.89    1.00
  -4  -3   2  152.69    8.16
  -4  -3   2  131.10    8.26
  -4  -3   2  147.55    8.34
  -4  -3   2  157.88    8.23
  -4  -3   1   10.70    0.93
  -4  -3   1    9.36    0.94
  -4  -3   1   10.32    1.09
  -4  -3   0   14.58    1.28
  -4  -3   0   18.21    1.26
  -4  -3   0   17.93    1.42
  -4  -3   0   17.99    1.25
  -4  -3  -1    2.33    0.54
  -4  -3  -1    2.25    0.57
  -4  -3  -1    2.23    0.63
  -4  -3  -2   19.74    1.55
  -4  -3  -2   21.44    1.60
  -4  -3  -2   23.17    1.45
  -4  -3  -3   -0.15    0.41
  -4  -3  -3    0.51    0.53
  -4  -3  -3    0.30    0.62
  -4  -3  -3    0.31    0.58
  -4  -3  -4   11.60    0.99
  -4  -3  -4   12.96    1.08
  -4  -3  -4   11.50    0.89
  -4  -3  -5    0.44    0.34
  -4  -3  -5    0.44    0.15
  -4  -3  -5    1.49    0.58
  -4  -3  -5    0.65    0.55
  -4  -3  -6    3.28    0.69
  -4  -3  -6    2.74    0.28
  -4  -3  -6    2.94    0.58
  -4  -3  -6    3.01    0.38
  -4  -3  -7   21.98    1.53
  -4  -3  -7   23.67    1.41
  -4  -3  -8    1.88    0.61
  -4  -3  -8    2.27    0.29
  -4  -3  -8    2.09    0.49
  -4  -3  -9   13.35    1.12
  -4  -3  -9   13.22    0.86
  -4  -3 -10   56.55    3.21
   4   3  10   50.05    2.95
  -4  -3 -10   57.51    3.01
  -4  -3 -11  139.82    7.43
   4   3  11  123.26    7.23
  -4  -3 -11  139.83    7.28
   4   3  11  145.48    7.42
  -4  -3 -12   34.37    2.01
   4   3  12   30.49    1.85
  -4  -3 -12   34.46    1.89
   4   3  12   36.85    2.07
   4   3  13    0.41    0.12
  -4  -3 -13    0.63    0.18
   4   3  14    3.59    0.28
  -4  -3 -14    4.73    0.32
   4   3  14    4.88    0.54
  -4  -3 -15   18.70    1.06
  -4  -4   9    0.98    0.38
  -4  -4   8   13.18    1.04
  -4  -4   8   13.92    0.96
  -4  -4   8   11.90    0.92
  -4  -4   7    9.13    1.00
  -4  -4   7   11.07    0.91
  -4  -4   7   10.42    0.73
  -4  -4   6   18.42    1.40
  -4  -4   6   16.03    1.18
  -4  -4   6   16.61    1.11
  -4  -4   5    2.08    0.47
  -4  -4   5    1.66    0.54
  -4  -4   4   13.70    1.11
  -4  -4   4   13.62    1.15
  -4  -4   4   13.30    1.04
  -4  -4   3   32.60    2.24
  -4  -4   3   35.40    2.28
  -4  -4   3   36.80    2.17
  -4  -4   2    8.21    0.85
  -4  -4   2    8.98    0.91
  -4  -4   2    7.11    0.92
  -4  -4   2    9.50    0.84
  -4  -4   1    1.94    0.57
  -4  -4   1    1.77    0.60
  -4  -4   1    1.36    0.61
  -4  -4   1    1.70    0.70
  -4  -4   0    0.73    0.59
  -4  -4   0    1.26    0.63
  -4  -4   0    0.98    0.68
  -4  -4  -1    1.74    0.55
  -4  -4  -1    1.47    0.60
  -4  -4  -1    2.11    0.71
  -4  -4  -1    2.03    0.66
  -4  -4  -2   26.46    1.90
  -4  -4  -2   27.71    1.74
  -4  -4  -3    1.51    0.47
  -4  -4  -3    1.72    0.65
  -4  -4  -3    1.67    0.65
  -4  -4  -4    1.98    0.46
  -4  -4  -4    1.39    0.64
  -4  -4  -4    2.43    0.69
  -4  -4  -5    9.89    1.02
  -4  -4  -5    9.21    0.94
  -4  -4  -5   11.47    1.02
  -4  -4  -5   10.49    0.79
  -4  -4  -6    1.41    0.36
  -4  -4  -6    1.35    0.60
  -4  -4  -6    1.24    0.20
  -4  -4  -6    1.11    0.59
  -4  -4  -7   17.99    1.38
  -4  -4  -7   17.57    1.07
  -4  -4  -7   17.31    1.11
   4   4   7   18.49    1.43
  -4  -4  -8   20.20    1.42
  -4  -4  -8   17.71    1.12
   4   4   8   19.46    1.48
  -4  -4  -9    0.25    0.44
  -4  -4  -9    0.43    0.19
   4   4   9    0.34    0.78
  -4  -4 -10   18.20    1.33
  -4  -4 -10   19.30    1.15
   4   4  10   18.05    1.45
  -4  -4 -11    6.19    0.65
  -4  -4 -11    7.41    0.53
   4   4  12    6.03    0.42
  -4  -4 -12    7.24    0.49
   4   4  13    9.19    0.61
  -4  -4 -13   12.81    0.68
  -4  -4 -14    8.45    0.54
   4   4  14    8.51    0.72
  -4  -4 -15    0.98    0.12
   4   4  15    1.31    0.29
  -4  -5   9    5.00    0.43
  -4  -5   8   59.52    3.43
  -4  -5   8   60.52    3.38
  -4  -5   8   59.90    3.43
  -4  -5   7    1.31    0.63
  -4  -5   7    0.51    0.43
  -4  -5   7   -0.11    0.40
  -4  -5   6   11.53    1.09
  -4  -5   6   11.73    0.98
  -4  -5   6   11.35    0.80
  -4  -5   5    7.68    1.01
  -4  -5   5    7.99    0.88
  -4  -5   5    6.85    0.66
  -4  -5   5    7.29    0.63
  -4  -5   4    1.52    0.42
  -4  -5   4    0.60    0.67
  -4  -5   4    1.74    0.48
  -4  -5   3    0.51    0.47
  -4  -5   3    0.45    0.53
  -4  -5   3    0.39    0.53
  -4  -5   2    3.97    0.60
  -4  -5   2    3.87    0.72
  -4  -5   2    4.04    0.69
  -4  -5   1    6.92    0.89
  -4  -5   1    8.36    0.86
  -4  -5   1    7.57    0.78
  -4  -5   0   28.22    1.91
  -4  -5  -1    4.50    0.67
  -4  -5  -1    4.09    0.75
  -4  -5  -2    5.40    0.83
  -4  -5  -2    6.86    0.86
  -4  -5  -2    7.12    0.72
  -4  -5  -3    1.93    0.49
  -4  -5  -3    1.40    0.69
  -4  -5  -4   88.68    5.18
  -4  -5  -4   88.76    4.98
  -4  -5  -5   82.97    4.29
  -4  -5  -5   62.96    4.05
  -4  -5  -5   76.53    4.05
   4   5   5   69.84    4.10
  -4  -5  -6   93.42    5.22
  -4  -5  -6   89.22    5.01
   4   5   6   88.53    5.09
  -4  -5  -7    0.53    0.31
  -4  -5  -7    0.35    0.50
  -4  -5  -7    0.41    0.16
   4   5   7   -0.18    0.68
  -4  -5  -8   42.70    2.61
  -4  -5  -8   41.04    2.35
   4   5   8   41.39    2.54
  -4  -5  -9    0.37    0.45
  -4  -5  -9    0.40    0.18
   4   5   9    0.65    0.68
  -4  -5 -10    0.49    0.38
  -4  -5 -10    0.75    0.20
   4   5  10    1.04    0.70
  -4  -5 -11    0.38    0.18
   4   5  11    0.78    0.62
  -4  -5 -12    0.63    0.18
   4   5  12    1.01    0.56
   4   5  13    0.50    0.49
  -4  -5 -14    1.36    0.15
   4   5  14    1.09    0.39
  -4  -6   8    4.65    0.46
  -4  -6   7    2.69    0.58
  -4  -6   7    1.77    0.40
  -4  -6   7    1.49    0.41
  -4  -6   6    3.81    0.70
  -4  -6   6    3.73    0.54
  -4  -6   6    2.81    0.53
  -4  -6   5    0.78    0.31
  -4  -6   5    0.95    0.71
  -4  -6   5    0.60    0.54
  -4  -6   5    0.82    0.14
  -4  -6   4   -0.18    0.35
  -4  -6   4   -0.27    0.60
  -4  -6   4    0.04    0.11
  -4  -6   3   12.17    0.78
  -4  -6   3   14.92    0.97
  -4  -6   2   10.51    1.23
  -4  -6   2   11.40    0.74
  -4  -6   2   13.30    0.97
  -4  -6   2   13.61    0.96
  -4  -6   1    0.95    0.50
  -4  -6   1    0.95    0.69
  -4  -6   1    1.07    0.17
  -4  -6   1    2.02    0.52
  -4  -6   0   27.80    1.84
  -4  -6   0   30.01    1.87
  -4  -6   0   30.49    1.78
  -4  -6   0   31.18    1.75
  -4  -6  -1    9.66    0.96
  -4  -6  -1   10.17    0.95
  -4  -6  -1    8.02    0.55
  -4  -6  -2    0.09    0.49
  -4  -6  -2   -0.24    0.57
  -4  -6  -2    0.23    0.53
  -4  -6  -2   -0.05    0.12
  -4  -6  -3    0.22    0.48
  -4  -6  -3   -0.16    0.48
  -4  -6  -3    0.04    0.52
  -4  -6  -3    0.17    0.12
  -4  -6  -4   33.49    1.98
  -4  -6  -4   37.12    2.12
  -4  -6  -4   30.69    1.77
  -4  -6  -4   39.62    1.98
  -4  -6  -5    1.11    0.44
  -4  -6  -5    0.25    0.48
  -4  -6  -5    0.45    0.14
   4   6   5    0.18    0.52
  -4  -6  -6   63.83    3.51
  -4  -6  -6   68.62    3.77
  -4  -6  -6   58.67    3.50
  -4  -6  -6   73.86    3.63
   4   6   6   62.49    3.65
  -4  -6  -7    1.27    0.19
  -4  -6  -7    0.71    0.43
   4   6   7    0.74    0.57
  -4  -6  -8    0.51    0.17
  -4  -6  -8    0.48    0.38
   4   6   8    0.01    0.55
  -4  -6  -9    0.46    0.17
  -4  -6  -9    0.12    0.32
   4   6   9    0.75    0.58
  -4  -6 -10    0.06    0.15
   4   6  10    0.03    0.53
  -4  -6 -11    5.06    0.38
   4   6  11    5.36    0.66
  -4  -6 -12    0.03    0.13
   4   6  12   -0.20    0.47
  -4  -6 -13    0.61    0.12
   4   6  13    0.25    0.39
  -4  -7   7    6.99    0.57
  -4  -7   6    0.29    0.35
  -4  -7   5    6.08    0.72
  -4  -7   5    5.93    0.59
  -4  -7   5    4.74    0.58
  -4  -7   5    3.90    0.30
  -4  -7   4    1.96    0.54
  -4  -7   4    0.82    0.14
  -4  -7   3   17.88    1.31
  -4  -7   3   14.16    0.91
  -4  -7   3   17.48    1.04
  -4  -7   2   12.32    1.14
  -4  -7   2   10.69    0.71
  -4  -7   2   13.37    0.88
  -4  -7   1   13.18    1.21
  -4  -7   1   14.97    1.15
  -4  -7   1   12.61    0.81
  -4  -7   1   15.14    1.01
  -4  -7   0    1.28    0.49
  -4  -7   0    0.91    0.76
  -4  -7   0    1.43    0.63
  -4  -7   0    0.99    0.17
  -4  -7  -1    8.75    0.99
  -4  -7  -1    9.98    0.92
  -4  -7  -1   11.84    0.95
  -4  -7  -1    9.02    0.61
  -4  -7  -2    2.09    0.69
  -4  -7  -2    2.81    0.60
  -4  -7  -2    2.27    0.53
  -4  -7  -2    2.37    0.24
  -4  -7  -3    7.78    0.91
  -4  -7  -3   12.11    0.91
  -4  -7  -3   10.98    0.92
  -4  -7  -3    9.48    0.64
  -4  -7  -3   13.03    0.89
  -4  -7  -4    1.31    0.48
  -4  -7  -4    1.39    0.46
  -4  -7  -4    0.69    0.43
  -4  -7  -4    0.45    0.14
  -4  -7  -5    0.16    0.39
  -4  -7  -5   -0.02    0.12
  -4  -7  -6    9.33    0.81
  -4  -7  -6    9.75    0.62
  -4  -7  -7    0.89    0.17
  -4  -7  -7    1.24    0.37
  -4  -7  -7    1.20    0.17
  -4  -7  -8    2.30    0.24
  -4  -7  -8    2.18    0.22
   4   7   8    1.99    0.46
   4   7   9    0.26    0.44
  -4  -7  -9   -0.05    0.14
   4   7   9   -0.04    0.43
  -4  -7 -10    2.01    0.22
   4   7  10    2.50    0.46
  -4  -7 -11    1.53    0.18
   4   7  11    1.52    0.40
  -4  -7 -12    4.31    0.30
   4   7  12    3.85    0.44
  -4  -8   6    8.56    0.60
  -4  -8   4   54.78    2.72
  -4  -8   4   43.98    2.51
  -4  -8   3    2.63    0.48
  -4  -8   3    2.94    0.23
  -4  -8   2  245.61   12.03
  -4  -8   2  224.43   11.86
  -4  -8   1   14.41    1.13
  -4  -8   1   13.89    0.84
  -4  -8   0    6.72    0.80
  -4  -8   0    6.87    0.48
  -4  -8  -1    0.11    0.56
  -4  -8  -1    0.21    0.13
  -4  -8  -2    2.54    0.57
  -4  -8  -2    2.60    0.24
  -4  -8  -3   -0.02    0.12
  -4  -8  -4   -0.03    0.11
  -4  -8  -5    2.56    0.24
  -4  -8  -6    1.13    0.16
   4   8   7    4.80    0.67
  -4  -8  -7    4.48    0.33
   4   8   8   -0.24    0.49
  -4  -8  -8    0.13    0.11
  -4  -8  -8    0.07    0.10
  -4  -8  -9   10.03    0.62
  -4  -8  -9   10.22    0.61
  -4  -8 -10   30.72    1.65
  -4  -8 -10   28.71    1.63
  -4  -9   3   16.65    1.05
  -4  -9   2   47.86    2.50
  -4  -9   2   41.82    2.36
  -4  -9   1    2.30    0.37
  -4  -9   1    2.25    0.19
   4   9   0    0.73    0.49
  -4  -9   0    0.53    0.31
  -4  -9   0    0.60    0.12
   4   9   1    0.21    0.52
  -4  -9  -1    0.14    0.10
   4   9   2    0.38    0.56
  -4  -9  -2    0.04    0.10
  -4  -9  -3    0.22    0.11
   4   9   4    1.91    0.61
  -4  -9  -4    1.91    0.19
   4   9   5    4.38    0.65
  -4  -9  -5    4.27    0.31
   4   9   6    6.10    0.64
  -4  -9  -6    5.32    0.36
   4   9   7    0.18    0.40
  -4  -9  -7    0.13    0.09
   4   9   8    7.23    0.78
  -4  -9  -8   17.38    0.76
   4  10   2    0.16    0.30
   4  10   4    0.96    0.32
   4  10   5    0.63    0.29
  -5   5   4    0.07    0.17
  -5   5   4    0.07    0.23
  -5   5   3    2.17    0.26
  -5   5   3    2.50    0.36
  -5   5   3    1.61    0.27
  -5   5   2    1.52    0.31
  -5   5   2    1.53    0.22
  -5   5   1    0.27    0.29
  -5   5   1    0.34    0.15
  -5   5   1    0.67    0.34
  -5   5   0    2.31    0.39
  -5   5  -1   -0.02    0.28
  -5   5  -1    0.41    0.28
  -5   5  -2    0.63    0.28
  -5   5  -2    1.14    0.27
  -5   5  -3    0.43    0.24
  -5   4   6    4.40    0.39
  -5   4   5    0.09    0.25
  -5   4   5   -0.01    0.30
  -5   4   5    0.32    0.24
  -5   4   4    2.87    0.45
  -5   4   4    1.92    0.32
  -5   4   4    3.05    0.37
  -5   4   4    2.18    0.32
  -5   4   3    0.70    0.34
  -5   4   3    0.56    0.31
  -5   4   3    0.38    0.42
  -5   4   2    0.07    0.36
  -5   4   2    0.39    0.28
  -5   4   1    0.87    0.28
  -5   4   1    0.37    0.39
  -5   4   1    0.85    0.46
  -5   4   0    3.06    0.52
  -5   4   0    3.73    0.37
  -5   4  -1    0.48    0.40
  -5   4  -2    1.45    0.42
  -5   4  -2    1.24    0.39
  -5   4  -3    6.18    0.54
  -5   4  -3    5.09    0.54
  -5   4  -4    2.84    0.39
  -5   4  -5   26.62    1.52
  -5   4  -6   28.56    1.64
  -5   3   8    6.95    0.53
  -5   3   7    4.22    0.46
  -5   3   7    5.04    0.42
  -5   3   6    0.24    0.30
  -5   3   6    0.26    0.34
  -5   3   5    0.89    0.41
  -5   3   5    0.45    0.38
  -5   3   5    0.48    0.24
  -5   3   4    2.40    0.42
  -5   3   4    2.55    0.54
  -5   3   4    1.69    0.44
  -5   3   4    1.84    0.37
  -5   3   3    2.49    0.44
  -5   3   3    3.56    0.62
  -5   3   3    2.44    0.46
  -5   3   3    2.64    0.46
  -5   3   2    1.48    0.47
  -5   3   2    2.11    0.42
  -5   3   2    1.37    0.40
  -5   3   1    0.46    0.48
  -5   3   1    1.60    0.38
  -5   3   1    1.40    0.55
  -5   3   1    0.34    0.33
  -5   3   0    1.77    0.36
  -5   3   0    1.34    0.53
  -5   3   0    2.29    0.58
  -5   3  -1   11.20    0.90
  -5   3  -1    8.47    0.66
  -5   3  -2    0.20    0.46
  -5   3  -2    0.23    0.43
  -5   3  -3    8.76    0.69
  -5   3  -3   10.80    0.82
  -5   3  -3    8.63    0.78
  -5   3  -4   18.53    1.23
  -5   3  -4   20.48    1.25
  -5   3  -4   18.76    1.25
  -5   3  -5   -0.10    0.29
  -5   3  -5    0.08    0.32
  -5   3  -6    4.64    0.48
  -5   3  -6    4.06    0.39
  -5   3  -7    3.78    0.42
  -5   3  -8   -0.19    0.23
  -5   2   8    7.20    0.51
  -5   2   7    0.51    0.26
  -5   2   7    0.10    0.38
  -5   2   6    0.35    0.33
  -5   2   6   -0.10    0.41
  -5   2   5    3.62    0.39
  -5   2   5    3.43    0.60
  -5   2   4    6.24    0.76
  -5   2   4    6.50    0.57
  -5   2   4    5.03    0.69
  -5   2   4    5.41    0.63
  -5   2   3    0.32    0.42
  -5   2   3    0.02    0.57
  -5   2   3    0.17    0.47
  -5   2   3    0.44    0.42
  -5   2   2    9.27    0.76
  -5   2   2    8.07    0.74
  -5   2   1   20.66    1.42
  -5   2   1   18.54    1.24
  -5   2   1   17.74    1.20
  -5   2   0   88.19    4.49
  -5   2   0   83.28    4.33
  -5   2   0   65.84    4.30
  -5   2   0   73.87    4.28
  -5   2  -1    6.42    0.63
  -5   2  -1    7.14    0.62
  -5   2  -2    4.43    0.49
  -5   2  -2    4.81    0.69
  -5   2  -2    5.68    0.69
  -5   2  -2    4.28    0.45
  -5   2  -3    0.30    0.52
  -5   2  -3    1.17    0.37
  -5   2  -3    0.78    0.46
  -5   2  -4   15.54    1.12
  -5   2  -4   15.60    1.12
  -5   2  -4   16.14    1.13
  -5   2  -5   -0.18    0.36
  -5   2  -5    0.36    0.40
   5  -2   6    0.95    0.37
  -5   2  -6    0.62    0.37
  -5   2  -6    0.88    0.34
  -5   2  -7    2.78    0.45
  -5   2  -8    2.47    0.41
  -5   2  -9   -0.14    0.27
  -5   1   9    0.17    0.24
  -5   1   8    3.79    0.46
  -5   1   8    3.19    0.33
  -5   1   7    7.53    0.73
  -5   1   7    7.94    0.61
  -5   1   6    5.95    0.57
  -5   1   5    3.91    0.54
  -5   1   5    4.19    0.42
  -5   1   5    4.01    0.66
  -5   1   4    9.50    0.72
  -5   1   4    8.13    0.90
  -5   1   3   -0.13    0.47
  -5   1   3    0.23    0.62
  -5   1   3    0.02    0.54
  -5   1   3    0.33    0.45
  -5   1   2    3.99    0.57
  -5   1   2    2.60    0.66
  -5   1   2    3.77    0.59
  -5   1   1    0.59    0.45
  -5   1   1   -0.17    0.63
  -5   1   1    0.26    0.52
  -5   1   1    0.71    0.58
  -5   1   0   20.44    1.48
  -5   1   0   20.61    1.36
  -5   1   0   16.57    1.35
  -5   1   0   18.24    1.27
  -5   1  -1    1.49    0.41
  -5   1  -1    1.60    0.36
  -5   1  -1    0.68    0.47
  -5   1  -2    6.53    0.65
  -5   1  -2    7.30    0.82
  -5   1  -2    8.00    0.83
  -5   1  -2    6.23    0.65
  -5   1  -2    6.66    0.61
  -5   1  -3   -0.03    0.26
  -5   1  -3    0.25    0.37
  -5   1  -3    0.09    0.46
  -5   1  -3    0.12    0.31
  -5   1  -3    0.26    0.59
  -5   1  -4    4.95    0.60
  -5   1  -4    3.89    0.58
  -5   1  -4    4.17    0.62
  -5   1  -5    1.23    0.47
  -5   1  -5    1.29    0.48
  -5   1  -6    0.08    0.42
  -5   1  -6    0.66    0.39
  -5   1  -7    3.38    0.54
  -5   1  -7    3.16    0.39
   5  -1   7    3.35    0.51
  -5   1  -8   -0.03    0.39
   5  -1   8    0.34    0.37
  -5   1 -11    1.81    0.26
  -5   0   9   -0.13    0.23
  -5   0   8   24.45    1.53
  -5   0   8   24.57    1.43
  -5   0   7    8.19    0.77
  -5   0   7    8.19    0.63
  -5   0   6   74.96    4.48
  -5   0   6   80.32    4.38
  -5   0   5    6.12    0.52
  -5   0   5    6.13    0.63
  -5   0   4    8.35    0.68
  -5   0   3    0.40    0.62
  -5   0   3    0.16    0.43
  -5   0   2    0.79    0.49
  -5   0   2    1.40    0.66
  -5   0   2    1.71    0.53
  -5   0   1   10.13    1.03
  -5   0   1    6.68    0.66
  -5   0   1   10.44    0.85
  -5   0   1    7.54    0.93
  -5   0   1    9.50    0.83
  -5   0   0   15.39    1.16
  -5   0   0   19.81    1.44
  -5   0   0   20.02    1.29
  -5   0   0   14.75    1.32
  -5   0   0   18.39    1.22
  -5   0  -1    2.58    0.49
  -5   0  -1    2.69    0.46
  -5   0  -1    3.52    0.70
  -5   0  -1    2.32    0.62
  -5   0  -2   -0.11    0.35
  -5   0  -2    0.54    0.38
  -5   0  -2    0.72    0.56
  -5   0  -2   -0.02    0.47
  -5   0  -3    7.67    0.76
  -5   0  -3    8.11    0.82
  -5   0  -3    6.55    0.69
  -5   0  -3    6.46    0.60
  -5   0  -4   14.67    1.11
  -5   0  -4   14.02    1.08
  -5   0  -4   13.24    0.97
  -5   0  -5    0.38    0.45
  -5   0  -5    0.32    0.47
  -5   0  -6    1.76    0.52
  -5   0  -6    1.24    0.45
   5   0   7   -0.02    0.54
  -5   0  -7    0.02    0.44
  -5   0  -7    0.31    0.36
  -5   0  -8   13.96    1.06
   5   0   8   13.63    1.00
   5   0   9    1.53    0.44
  -5   0 -10    0.13    0.31
  -5   0 -10    0.25    0.09
   5   0  10    0.34    0.32
  -5   0 -11    0.91    0.25
  -5  -1   8  153.22    8.30
  -5  -1   8  151.11    8.23
  -5  -1   7   27.02    1.74
  -5  -1   7   28.03    1.63
  -5  -1   6   62.11    3.84
  -5  -1   6   69.00    3.74
  -5  -1   5    8.82    0.92
  -5  -1   5    9.20    0.77
  -5  -1   4    5.37    0.56
  -5  -1   4    4.42    0.77
  -5  -1   4    5.57    0.63
  -5  -1   3    7.84    0.72
  -5  -1   2    1.87    0.54
  -5  -1   2    0.77    0.33
  -5  -1   2    0.34    0.69
  -5  -1   2    1.25    0.52
  -5  -1   1   -0.18    0.47
  -5  -1   1    0.33    0.36
  -5  -1   1   -0.44    0.72
  -5  -1   1    0.17    0.57
  -5  -1   0    0.74    0.48
  -5  -1   0    0.57    0.37
  -5  -1   0    0.29    0.38
  -5  -1   0    0.04    0.70
  -5  -1   0    1.36    0.61
  -5  -1  -1    6.80    0.73
  -5  -1  -1    8.97    0.86
  -5  -1  -1    6.69    0.86
  -5  -1  -1    6.85    0.71
  -5  -1  -2   -0.04    0.39
  -5  -1  -2    0.28    0.43
  -5  -1  -2   -0.34    0.55
  -5  -1  -3    2.11    0.42
  -5  -1  -3    2.66    0.55
  -5  -1  -3    2.44    0.57
  -5  -1  -3    2.98    0.64
  -5  -1  -4   97.92    5.27
  -5  -1  -4   96.17    5.14
  -5  -1  -4   88.13    5.15
  -5  -1  -4   88.15    5.07
  -5  -1  -5   16.75    1.28
  -5  -1  -5   17.44    1.17
  -5  -1  -5   15.32    1.11
  -5  -1  -6  242.92   12.95
  -5  -1  -6  231.25   12.76
  -5  -1  -7    7.34    0.80
  -5  -1  -7    6.42    0.61
   5   1   7    6.79    0.83
  -5  -1  -8    3.50    0.41
   5   1   8    4.43    0.66
  -5  -1  -9    0.28    0.40
   5   1   9    0.27    0.50
  -5  -1 -10    2.73    0.42
  -5  -1 -10    1.88    0.18
   5   1  10    2.64    0.46
  -5  -1 -11    1.23    0.30
  -5  -1 -11    1.11    0.12
  -5  -2   8   22.72    1.34
  -5  -2   7    0.14    0.23
  -5  -2   7   -0.08    0.34
  -5  -2   6    0.06    0.31
  -5  -2   6   -0.15    0.46
  -5  -2   5    0.47    0.38
  -5  -2   5    0.38    0.53
  -5  -2   4    0.13    0.42
  -5  -2   4    0.16    0.37
  -5  -2   4   -0.12    0.59
  -5  -2   3    7.92    0.71
  -5  -2   3    6.48    0.64
  -5  -2   3    8.10    0.93
  -5  -2   3    8.32    0.77
  -5  -2   2   11.42    0.87
  -5  -2   2    8.88    0.81
  -5  -2   1    9.91    0.84
  -5  -2   1    7.15    0.77
  -5  -2   1    8.15    0.79
  -5  -2   0    1.15    0.51
  -5  -2   0    0.85    0.47
  -5  -2   0    0.51    0.68
  -5  -2   0    1.31    0.61
  -5  -2  -1    0.74    0.45
  -5  -2  -1    0.23    0.41
  -5  -2  -1    1.16    0.66
  -5  -2  -1    1.82    0.65
  -5  -2  -2    0.66    0.41
  -5  -2  -2    0.62    0.46
  -5  -2  -2    0.75    0.59
  -5  -2  -3   13.36    1.18
  -5  -2  -3   16.43    1.19
  -5  -2  -3   14.89    1.20
  -5  -2  -3   15.66    1.07
  -5  -2  -4  318.62   16.58
  -5  -2  -4  306.10   16.43
  -5  -2  -4  299.82   16.48
  -5  -2  -4  294.31   16.39
  -5  -2  -5   32.10    2.04
  -5  -2  -5   32.08    1.91
  -5  -2  -5   29.40    1.79
  -5  -2  -6  155.40    8.35
  -5  -2  -6  145.95    8.18
   5   2   7    4.16    0.80
  -5  -2  -7    3.81    0.53
  -5  -2  -8   20.38    1.41
   5   2   8   19.70    1.40
  -5  -2  -9    0.43    0.40
   5   2   9    0.35    0.54
  -5  -2 -10    2.26    0.41
  -5  -2 -10    1.38    0.15
   5   2  10    1.94    0.50
  -5  -2 -11    2.26    0.35
  -5  -2 -11    2.21    0.18
   5   2  12    0.25    0.27
  -5  -3   7    5.95    0.49
  -5  -3   7    4.99    0.43
  -5  -3   7    4.89    0.38
  -5  -3   6    0.03    0.26
  -5  -3   6    0.16    0.34
  -5  -3   5    1.03    0.35
  -5  -3   5    0.97    0.46
  -5  -3   4    0.15    0.40
  -5  -3   4   -0.15    0.49
  -5  -3   3    8.44    0.73
  -5  -3   3    8.29    0.88
  -5  -3   3    8.79    0.78
  -5  -3   2    4.28    0.58
  -5  -3   2    5.17    0.66
  -5  -3   2    4.36    0.74
  -5  -3   1    2.41    0.57
  -5  -3   1    2.77    0.55
  -5  -3   1    3.02    0.62
  -5  -3   1    3.14    0.73
  -5  -3   0    0.42    0.47
  -5  -3   0    0.24    0.47
  -5  -3   0    0.39    0.60
  -5  -3  -1    0.05    0.43
  -5  -3  -1    0.57    0.53
  -5  -3  -1    0.66    0.66
  -5  -3  -1    0.28    0.65
  -5  -3  -2   13.72    1.20
  -5  -3  -2   16.31    1.27
  -5  -3  -2   15.88    1.10
  -5  -3  -3    8.35    0.92
  -5  -3  -3    9.33    0.90
  -5  -3  -3    8.48    0.91
  -5  -3  -3    8.74    0.72
  -5  -3  -4    1.30    0.35
  -5  -3  -4    0.58    0.56
  -5  -3  -4    1.54    0.54
  -5  -3  -4    0.43    0.59
  -5  -3  -5    3.39    0.65
  -5  -3  -5    3.96    0.65
  -5  -3  -5    3.43    0.41
  -5  -3  -6    5.91    0.69
  -5  -3  -8    1.53    0.49
  -5  -3  -9    0.53    0.40
  -5  -3 -10    0.75    0.34
  -5  -3 -11    0.07    0.23
   5   3  11    0.89    0.40
   5   3  12    1.07    0.31
  -5  -4   7   -0.04    0.21
  -5  -4   6    3.09    0.51
  -5  -4   6    3.07    0.43
  -5  -4   6    3.39    0.33
  -5  -4   5    0.50    0.28
  -5  -4   5   -0.01    0.54
  -5  -4   5   -0.05    0.44
  -5  -4   5    0.57    0.32
  -5  -4   4    4.51    0.57
  -5  -4   4    4.87    0.50
  -5  -4   3   15.97    1.19
  -5  -4   3   16.72    1.11
  -5  -4   2   62.71    3.62
  -5  -4   2   68.37    3.56
  -5  -4   1   21.71    1.57
  -5  -4   1   25.98    1.65
  -5  -4   0    1.94    0.51
  -5  -4   0    1.59    0.54
  -5  -4   0    2.91    0.67
  -5  -4  -1    0.91    0.45
  -5  -4  -1    0.68    0.51
  -5  -4  -2    5.45    0.79
  -5  -4  -2    7.95    0.68
  -5  -4  -3   12.77    1.14
  -5  -4  -3   12.50    1.15
  -5  -4  -3   15.18    1.15
  -5  -4  -3   14.40    0.99
  -5  -4  -4   -0.04    0.33
  -5  -4  -4    0.02    0.56
   5   4   5    3.04    0.71
  -5  -4  -5    2.73    0.39
   5   4   6    8.61    0.91
  -5  -4  -7    0.28    0.45
   5   4   7    0.37    0.62
  -5  -4  -8    6.95    0.71
   5   4   8    6.60    0.78
  -5  -4  -9   -0.01    0.34
   5   4   9    0.35    0.54
  -5  -4 -10    7.59    0.65
   5   4  10    8.26    0.72
  -5  -5   6    6.03    0.56
  -5  -5   6    8.04    0.55
  -5  -5   5    0.86    0.23
  -5  -5   5    1.49    0.47
  -5  -5   5    0.85    0.37
  -5  -5   4    4.33    0.68
  -5  -5   4    4.57    0.58
  -5  -5   4    4.90    0.45
  -5  -5   3   46.62    2.77
  -5  -5   3   49.32    2.74
  -5  -5   2   16.09    1.22
  -5  -5   2   15.31    1.13
  -5  -5   2   17.31    1.10
  -5  -5   1    7.42    0.81
  -5  -5   1    7.49    0.76
  -5  -5   1    8.11    0.76
  -5  -5   0   -0.12    0.54
  -5  -5   0    0.36    0.47
  -5  -5   0    0.73    0.52
  -5  -5  -1    4.71    0.69
  -5  -5  -1    5.67    0.71
  -5  -5  -1    6.57    0.73
  -5  -5  -1    5.78    0.61
  -5  -5  -2    0.23    0.40
  -5  -5  -2   -0.47    0.49
   5   5   3    2.69    0.59
  -5  -5  -3    3.99    0.55
  -5  -5  -3    4.29    0.51
   5   5   4   -0.17    0.51
  -5  -5  -4    0.16    0.34
  -5  -5  -4   -0.07    0.33
  -5  -5  -4    0.11    0.48
  -5  -5  -5    0.96    0.32
  -5  -5  -5    0.73    0.51
   5   5   5    0.65    0.53
  -5  -5  -6    4.71    0.63
   5   5   6    4.15    0.65
  -5  -5  -7    0.15    0.38
   5   5   7    0.48    0.52
  -5  -5  -8    3.74    0.51
   5   5   8    3.86    0.60
  -5  -5  -9    2.99    0.41
   5   5   9    2.96    0.52
  -5  -5 -10   37.78    2.40
   5   5  10   48.21    2.44
   5   5  11   37.87    2.15
  -5  -6   5    7.12    0.61
  -5  -6   5    8.79    0.59
  -5  -6   4    1.46    0.24
  -5  -6   4    1.47    0.44
  -5  -6   4    1.48    0.36
  -5  -6   3    0.70    0.26
  -5  -6   2    6.35    0.77
  -5  -6   2    6.70    0.68
  -5  -6   2    7.54    0.58
  -5  -6   1    0.33    0.33
  -5  -6   1   -0.62    0.63
  -5  -6   1   -0.12    0.46
  -5  -6   0   -0.01    0.65
  -5  -6   0    1.86    0.49
  -5  -6  -1    1.03    0.38
  -5  -6  -1   -0.09    0.61
  -5  -6  -1    0.09    0.43
  -5  -6  -2    4.24    0.55
  -5  -6  -2    4.23    0.60
  -5  -6  -2    5.22    0.54
  -5  -6  -3    0.33    0.35
  -5  -6  -3    0.54    0.35
  -5  -6  -3    0.03    0.41
  -5  -6  -4    2.98    0.53
  -5  -6  -4    3.66    0.43
  -5  -6  -5    1.93    0.45
   5   6   5    1.35    0.40
  -5  -6  -6    3.50    0.49
   5   6   6    2.58    0.46
  -5  -6  -7    4.18    0.49
   5   6   7    3.34    0.46
  -5  -6  -8    0.76    0.28
   5   6   8    1.12    0.36
  -5  -6  -9    8.65    0.64
   5   6   9   10.40    0.68
  -5  -7   3    1.39    0.34
  -5  -7   3    0.65    0.24
  -5  -7   2    0.42    0.40
  -5  -7   2    0.57    0.32
  -5  -7   1    1.16    0.45
  -5  -7   1    1.48    0.37
  -5  -7   0    0.69    0.48
  -5  -7   0    0.79    0.36
  -5  -7  -1   -0.03    0.43
  -5  -7  -1    0.80    0.35
  -5  -7  -2    0.32    0.38
  -5  -7  -2    0.65    0.32
  -5  -7  -4   11.87    0.87
  -5  -7  -5   32.39    1.94
  -5  -7  -6    0.32    0.24
  -5  -7  -7    4.66    0.40
   5   8   1    1.95    0.38
   5   8   2    0.39    0.38
   5   8   4    3.54    0.47
   5   8   5   18.87    1.16
  -6   1   1    0.26    0.19
  -6   1   0    6.57    0.48
  -6   1  -1    0.15    0.23
  -6   1  -2    9.04    0.60
  -6   1  -3    2.03    0.26
  -6   0   2    3.36    0.29
  -6   0   1   30.81    2.02
  -6   0   1   35.74    2.01
  -6   0   0    6.50    0.53
  -6   0   0    8.28    0.53
  -6   0  -1   11.06    0.74
  -6   0  -3   18.74    1.13
   6   0   4    0.76    0.30
  -6   0  -4    0.48    0.24
  -6  -1   3    1.54    0.21
  -6  -1   3    1.70    0.25
  -6  -1   2    1.46    0.23
  -6  -1   2    1.80    0.29
  -6  -1   1    9.81    0.62
  -6  -1   1    7.77    0.62
  -6  -1   1    8.90    0.59
  -6  -1   0    0.39    0.19
  -6  -1   0    0.59    0.30
  -6  -1   0    0.80    0.27
  -6  -1  -1    6.28    0.51
  -6  -1  -1    5.51    0.46
  -6  -1  -1    5.32    0.40
  -6  -1  -3    0.32    0.18
  -6  -1  -3    0.46    0.29
   6   1   4    0.99    0.35
  -6  -1  -4    0.67    0.20
  -6  -1  -4    1.00    0.29
  -6  -1  -5    0.07    0.19
   6   1   5    0.21    0.31
   6   1   6    1.51    0.29
  -6  -2   3    1.30    0.23
  -6  -2   2    0.56    0.19
  -6  -2   1    0.75    0.21
  -6  -2   1    1.30    0.28
  -6  -2   0    0.19    0.19
  -6  -2   0    0.34    0.27
  -6  -2  -1    1.63    0.23
  -6  -2  -1    1.40    0.30
  -6  -2  -2    2.50    0.30
  -6  -2  -2    2.73    0.26
  -6  -2  -3    5.00    0.44
  -6  -2  -4    0.31    0.24
  -6  -2  -5    0.10    0.22
  -6  -2  -6    0.12    0.20
  -6  -3   2    0.44    0.17
  -6  -3   2    0.02    0.22
  -6  -3   1    1.98    0.31
  -6  -3   1    2.10    0.25
  -6  -3   0   -0.01    0.18
  -6  -3   0   -0.07    0.25
  -6  -3  -1    3.29    0.36
  -6  -3  -1    3.15    0.33
  -6  -3  -1    4.13    0.33
   6   3   2   -0.04    0.33
  -6  -3  -2    0.20    0.17
  -6  -3  -2    0.24    0.22
  -6  -3  -3    9.54    0.70
   6   3   3   10.12    0.72
  -6  -3  -4    4.74    0.45
   6   3   4    5.46    0.50
  -6  -3  -5  105.81    6.03
   6   3   5  112.85    5.99
  -6  -3  -6    1.18    0.25
   6   3   6    2.17    0.32
  -6  -4   0    0.22    0.16
  -6  -4  -1    1.61    0.21
  -6  -4  -2    0.16    0.20
  -6  -4  -3   57.05    3.20
  -6  -4  -4   11.46    0.77
  -6  -4  -5   73.66    4.08
   0   0   0    0.00    0.00


TITL fangzhuangjie_29T-4_collect in P-1
REM P-1 (#2 in standard setting)
CELL 1.54184   5.012622   9.646731  14.748802  80.0993  84.1019  82.3078
ZERR    1.00   0.000157   0.000389   0.000325   0.0026   0.0022   0.0029
LATT  1
SFAC C H O
UNIT 36.00 28.00 10.00
TREF
HKLF 4
END
_computing_structure_solution     'SHELXT 2014/5 (Sheldrick, 2014)'
;
_shelx_hkl_checksum              81579
_olex2_submission_special_instructions 'No special instructions were received'
_oxdiff_exptl_absorpt_empirical_details
;
Empirical correction (ABSPACK) includes:
- Absorption correction using spherical harmonics
- Frame scaling
;
_oxdiff_exptl_absorpt_empirical_full_max 2.252
_oxdiff_exptl_absorpt_empirical_full_min 0.392
loop_
_space_group_symop_operation_xyz
'x, y, z'
'-x, -y, -z'
loop_
_atom_site_label
_atom_site_type_symbol
_atom_site_fract_x
_atom_site_fract_y
_atom_site_fract_z
_atom_site_U_iso_or_equiv
_atom_site_adp_type
_atom_site_occupancy
_atom_site_site_symmetry_order
_atom_site_calc_flag
_atom_site_refinement_flags_posn
_atom_site_refinement_flags_adp
_atom_site_refinement_flags_occupancy
_atom_site_disorder_assembly
_atom_site_disorder_group
O21 O 0.9444(3) 0.45928(14) 0.40791(8) 0.0324(3) Uani 1 1 d . . . . .
O20 O 0.6126(3) 0.64437(15) 0.48257(8) 0.0323(3) Uani 1 1 d . . . . .
O19 O 0.4404(3) 0.59387(14) 0.09402(8) 0.0347(3) Uani 1 1 d . . . . .
O15 O 1.2982(3) 0.27799(15) 0.33347(9) 0.0371(4) Uani 1 1 d . . . . .
H15 H 1.232245 0.323582 0.374081 0.056 Uiso 1 1 calc GR . . . .
O17 O -0.0922(3) 0.77389(15) 0.13100(8) 0.0373(4) Uani 1 1 d . . . . .
C4 C 0.4954(4) 0.67050(19) 0.40207(11) 0.0279(4) Uani 1 1 d . . . . .
C8 C 0.4638(3) 0.63685(18) 0.24500(11) 0.0266(4) Uani 1 1 d . . . . .
C2 C 0.8267(4) 0.48964(19) 0.33468(11) 0.0281(4) Uani 1 1 d . . . . .
C3 C 0.5917(3) 0.59764(19) 0.32814(11) 0.0272(4) Uani 1 1 d . . . . .
C9 C 0.5580(4) 0.56323(19) 0.16506(11) 0.0286(4) Uani 1 1 d . . . . .
C1 C 0.9272(4) 0.41897(19) 0.25551(11) 0.0292(4) Uani 1 1 d . . . . .
C5 C 0.2747(4) 0.77512(19) 0.39326(11) 0.0292(4) Uani 1 1 d . . . . .
H5 H 0.209098 0.819365 0.443690 0.035 Uiso 1 1 calc R . . . .
C10 C 0.7959(4) 0.45387(18) 0.17220(11) 0.0287(4) Uani 1 1 d . . . . .
C16 C 0.1302(4) 0.79691(19) 0.14363(11) 0.0302(4) Uani 1 1 d . . . . .
C7 C 0.2500(4) 0.74508(19) 0.23582(11) 0.0276(4) Uani 1 1 d . . . . .
C6 C 0.1505(4) 0.81498(19) 0.31172(11) 0.0284(4) Uani 1 1 d . . . . .
C14 C 1.1566(4) 0.31797(19) 0.25829(12) 0.0315(4) Uani 1 1 d . . . . .
C11 C 0.8891(4) 0.3894(2) 0.09626(12) 0.0330(4) Uani 1 1 d . . . . .
H11 H 0.798764 0.411764 0.042663 0.040 Uiso 1 1 calc R . . . .
C22 C -0.0834(4) 0.93157(19) 0.30212(11) 0.0310(4) Uani 1 1 d . . . . .
H22A H -0.237251 0.892278 0.286101 0.037 Uiso 1 1 calc R . . . .
H22B H -0.035162 1.003702 0.250852 0.037 Uiso 1 1 calc R . . . .
C13 C 1.2502(4) 0.2549(2) 0.18068(13) 0.0354(4) Uani 1 1 d . . . . .
H13 H 1.402428 0.188135 0.182914 0.042 Uiso 1 1 calc R . . . .
C12 C 1.1182(4) 0.2910(2) 0.10061(13) 0.0363(5) Uani 1 1 d . . . . .
H12 H 1.183489 0.248955 0.049231 0.044 Uiso 1 1 calc R . . . .
C18 C 0.2885(4) 0.8952(2) 0.07383(11) 0.0347(4) Uani 1 1 d . . . . .
H18A H 0.241996 0.891372 0.012841 0.052 Uiso 1 1 calc GR . . . .
H18B H 0.478334 0.866217 0.077834 0.052 Uiso 1 1 calc GR . . . .
H18C H 0.245743 0.990339 0.086497 0.052 Uiso 1 1 calc GR . . . .
C23 C -0.1716(4) 1.0033(2) 0.38658(13) 0.0390(5) Uani 1 1 d . . . . .
H23A H -0.320373 1.075128 0.373020 0.059 Uiso 1 1 calc GR . . . .
H23B H -0.023520 1.045773 0.402271 0.059 Uiso 1 1 calc GR . . . .
H23C H -0.226249 0.934027 0.437619 0.059 Uiso 1 1 calc GR . . . .
H20 H 0.753(8) 0.572(4) 0.476(2) 0.091(11) Uiso 1 1 d . . . . .
loop_
_atom_site_aniso_label
_atom_site_aniso_U_11
_atom_site_aniso_U_22
_atom_site_aniso_U_33
_atom_site_aniso_U_23
_atom_site_aniso_U_13
_atom_site_aniso_U_12
O21 0.0302(7) 0.0423(8) 0.0247(6) -0.0014(5) -0.0077(5) -0.0051(6)
O20 0.0325(7) 0.0431(8) 0.0216(6) -0.0037(5) -0.0085(5) -0.0025(6)
O19 0.0395(7) 0.0408(7) 0.0265(6) -0.0042(5) -0.0105(5) -0.0104(6)
O15 0.0344(7) 0.0411(8) 0.0356(7) -0.0050(6) -0.0081(5) -0.0013(6)
O17 0.0312(7) 0.0483(8) 0.0341(7) -0.0004(5) -0.0096(5) -0.0128(6)
C4 0.0279(9) 0.0351(9) 0.0213(7) 0.0020(6) -0.0065(6) -0.0106(7)
C8 0.0265(9) 0.0316(9) 0.0229(8) 0.0000(6) -0.0043(7) -0.0122(7)
C2 0.0279(9) 0.0333(9) 0.0234(8) 0.0028(6) -0.0042(7) -0.0124(7)
C3 0.0264(9) 0.0331(9) 0.0229(8) 0.0005(7) -0.0039(7) -0.0108(7)
C9 0.0314(9) 0.0333(9) 0.0232(7) -0.0009(7) -0.0042(7) -0.0145(7)
C1 0.0308(9) 0.0322(10) 0.0259(8) -0.0011(7) -0.0024(7) -0.0125(8)
C5 0.0272(9) 0.0355(9) 0.0249(8) -0.0013(6) -0.0032(7) -0.0069(7)
C10 0.0313(9) 0.0305(9) 0.0260(8) -0.0016(7) -0.0025(7) -0.0136(8)
C16 0.0272(9) 0.0345(10) 0.0294(8) -0.0022(7) -0.0068(7) -0.0057(7)
C7 0.0267(8) 0.0320(9) 0.0252(8) 0.0002(6) -0.0051(7) -0.0111(7)
C6 0.0269(9) 0.0314(9) 0.0271(8) 0.0008(6) -0.0037(7) -0.0106(7)
C14 0.0318(9) 0.0308(9) 0.0325(9) 0.0012(7) -0.0044(7) -0.0122(8)
C11 0.0389(10) 0.0353(10) 0.0273(8) -0.0034(7) -0.0035(7) -0.0148(8)
C22 0.0272(9) 0.0349(9) 0.0304(8) 0.0007(7) -0.0055(7) -0.0071(7)
C13 0.0352(10) 0.0293(9) 0.0418(10) -0.0046(7) 0.0003(8) -0.0081(8)
C12 0.0421(11) 0.0340(10) 0.0340(9) -0.0068(7) 0.0020(8) -0.0116(8)
C18 0.0338(10) 0.0406(10) 0.0290(8) 0.0038(7) -0.0076(7) -0.0100(8)
C23 0.0363(10) 0.0410(11) 0.0393(10) -0.0062(8) -0.0074(8) -0.0002(8)
loop_
_atom_type_symbol
_atom_type_description
_atom_type_scat_dispersion_real
_atom_type_scat_dispersion_imag
_atom_type_scat_source
C C 0.0181 0.0091 'International Tables Vol C Tables 4.2.6.8 and 6.1.1.4'
H H 0.0000 0.0000 'International Tables Vol C Tables 4.2.6.8 and 6.1.1.4'
O O 0.0492 0.0322 'International Tables Vol C Tables 4.2.6.8 and 6.1.1.4'
loop_
_geom_angle_atom_site_label_1
_geom_angle_atom_site_label_2
_geom_angle_atom_site_label_3
_geom_angle
_geom_angle_site_symmetry_1
_geom_angle_site_symmetry_3
_geom_angle_publ_flag
C4 O20 H20 106(2) . . ?
C14 O15 H15 109.5 . . ?
O20 C4 C3 122.10(16) . . ?
O20 C4 C5 117.66(16) . . ?
C5 C4 C3 120.23(15) . . ?
C3 C8 C9 120.10(16) . . ?
C7 C8 C3 121.21(16) . . ?
C7 C8 C9 118.69(15) . . ?
O21 C2 C3 119.82(16) . . ?
O21 C2 C1 120.06(17) . . ?
C3 C2 C1 120.10(15) . . ?
C4 C3 C8 118.07(16) . . ?
C4 C3 C2 121.42(15) . . ?
C8 C3 C2 120.42(16) . . ?
O19 C9 C8 119.99(17) . . ?
O19 C9 C10 120.90(16) . . ?
C10 C9 C8 119.11(15) . . ?
C10 C1 C2 120.25(17) . . ?
C14 C1 C2 121.71(16) . . ?
C14 C1 C10 118.02(16) . . ?
C4 C5 H5 119.0 . . ?
C6 C5 C4 121.93(16) . . ?
C6 C5 H5 119.0 . . ?
C1 C10 C9 119.93(16) . . ?
C11 C10 C9 118.85(16) . . ?
C11 C10 C1 121.20(17) . . ?
O17 C16 C7 121.56(15) . . ?
O17 C16 C18 121.71(15) . . ?
C18 C16 C7 116.23(14) . . ?
C8 C7 C16 121.19(16) . . ?
C8 C7 C6 120.07(15) . . ?
C6 C7 C16 118.63(16) . . ?
C5 C6 C7 118.42(16) . . ?
C5 C6 C22 121.44(16) . . ?
C7 C6 C22 120.13(15) . . ?
O15 C14 C1 122.96(16) . . ?
O15 C14 C13 116.91(17) . . ?
C13 C14 C1 120.12(16) . . ?
C10 C11 H11 120.2 . . ?
C10 C11 C12 119.53(17) . . ?
C12 C11 H11 120.2 . . ?
C6 C22 H22A 108.2 . . ?
C6 C22 H22B 108.2 . . ?
C6 C22 C23 116.39(15) . . ?
H22A C22 H22B 107.3 . . ?
C23 C22 H22A 108.2 . . ?
C23 C22 H22B 108.2 . . ?
C14 C13 H13 119.7 . . ?
C12 C13 C14 120.54(18) . . ?
C12 C13 H13 119.7 . . ?
C11 C12 H12 119.7 . . ?
C13 C12 C11 120.56(17) . . ?
C13 C12 H12 119.7 . . ?
C16 C18 H18A 109.5 . . ?
C16 C18 H18B 109.5 . . ?
C16 C18 H18C 109.5 . . ?
H18A C18 H18B 109.5 . . ?
H18A C18 H18C 109.5 . . ?
H18B C18 H18C 109.5 . . ?
C22 C23 H23A 109.5 . . ?
C22 C23 H23B 109.5 . . ?
C22 C23 H23C 109.5 . . ?
H23A C23 H23B 109.5 . . ?
H23A C23 H23C 109.5 . . ?
H23B C23 H23C 109.5 . . ?
loop_
_geom_bond_atom_site_label_1
_geom_bond_atom_site_label_2
_geom_bond_distance
_geom_bond_site_symmetry_2
_geom_bond_publ_flag
O21 C2 1.255(2) . ?
O20 C4 1.3487(19) . ?
O20 H20 0.93(4) . ?
O19 C9 1.228(2) . ?
O15 H15 0.8200 . ?
O15 C14 1.350(2) . ?
O17 C16 1.204(2) . ?
C4 C3 1.407(2) . ?
C4 C5 1.395(3) . ?
C8 C3 1.412(2) . ?
C8 C9 1.484(2) . ?
C8 C7 1.392(3) . ?
C2 C3 1.464(3) . ?
C2 C1 1.464(3) . ?
C9 C10 1.482(3) . ?
C1 C10 1.421(2) . ?
C1 C14 1.403(3) . ?
C5 H5 0.9300 . ?
C5 C6 1.383(2) . ?
C10 C11 1.384(3) . ?
C16 C7 1.521(2) . ?
C16 C18 1.512(2) . ?
C7 C6 1.418(2) . ?
C6 C22 1.512(3) . ?
C14 C13 1.398(3) . ?
C11 H11 0.9300 . ?
C11 C12 1.388(3) . ?
C22 H22A 0.9700 . ?
C22 H22B 0.9700 . ?
C22 C23 1.525(3) . ?
C13 H13 0.9300 . ?
C13 C12 1.382(3) . ?
C12 H12 0.9300 . ?
C18 H18A 0.9600 . ?
C18 H18B 0.9600 . ?
C18 H18C 0.9600 . ?
C23 H23A 0.9600 . ?
C23 H23B 0.9600 . ?
C23 H23C 0.9600 . ?
loop_
_geom_torsion_atom_site_label_1
_geom_torsion_atom_site_label_2
_geom_torsion_atom_site_label_3
_geom_torsion_atom_site_label_4
_geom_torsion
_geom_torsion_site_symmetry_1
_geom_torsion_site_symmetry_2
_geom_torsion_site_symmetry_3
_geom_torsion_site_symmetry_4
_geom_torsion_publ_flag
O21 C2 C3 C4 0.9(3) . . . . ?
O21 C2 C3 C8 177.49(14) . . . . ?
O21 C2 C1 C10 -179.47(14) . . . . ?
O21 C2 C1 C14 -0.8(3) . . . . ?
O20 C4 C3 C8 -177.07(14) . . . . ?
O20 C4 C3 C2 -0.4(3) . . . . ?
O20 C4 C5 C6 176.36(14) . . . . ?
O19 C9 C10 C1 -179.30(15) . . . . ?
O19 C9 C10 C11 1.9(2) . . . . ?
O15 C14 C13 C12 -179.41(15) . . . . ?
O17 C16 C7 C8 110.0(2) . . . . ?
O17 C16 C7 C6 -73.8(2) . . . . ?
C4 C5 C6 C7 1.0(3) . . . . ?
C4 C5 C6 C22 -178.15(15) . . . . ?
C8 C9 C10 C1 1.2(2) . . . . ?
C8 C9 C10 C11 -177.59(14) . . . . ?
C8 C7 C6 C5 1.5(2) . . . . ?
C8 C7 C6 C22 -179.42(14) . . . . ?
C2 C1 C10 C9 0.6(2) . . . . ?
C2 C1 C10 C11 179.37(15) . . . . ?
C2 C1 C14 O15 0.7(3) . . . . ?
C2 C1 C14 C13 -178.61(14) . . . . ?
C3 C4 C5 C6 -2.7(3) . . . . ?
C3 C8 C9 O19 177.32(14) . . . . ?
C3 C8 C9 C10 -3.2(2) . . . . ?
C3 C8 C7 C16 174.04(14) . . . . ?
C3 C8 C7 C6 -2.2(3) . . . . ?
C3 C2 C1 C10 -0.5(2) . . . . ?
C3 C2 C1 C14 178.09(14) . . . . ?
C9 C8 C3 C4 179.98(14) . . . . ?
C9 C8 C3 C2 3.3(2) . . . . ?
C9 C8 C7 C16 -5.5(2) . . . . ?
C9 C8 C7 C6 178.31(13) . . . . ?
C9 C10 C11 C12 177.37(14) . . . . ?
C1 C2 C3 C4 -178.02(14) . . . . ?
C1 C2 C3 C8 -1.4(2) . . . . ?
C1 C10 C11 C12 -1.4(3) . . . . ?
C1 C14 C13 C12 -0.1(3) . . . . ?
C5 C4 C3 C8 1.9(2) . . . . ?
C5 C4 C3 C2 178.58(14) . . . . ?
C5 C6 C22 C23 0.7(2) . . . . ?
C10 C1 C14 O15 179.35(14) . . . . ?
C10 C1 C14 C13 0.1(3) . . . . ?
C10 C11 C12 C13 1.4(3) . . . . ?
C16 C7 C6 C5 -174.85(14) . . . . ?
C16 C7 C6 C22 4.3(2) . . . . ?
C7 C8 C3 C4 0.5(2) . . . . ?
C7 C8 C3 C2 -176.22(14) . . . . ?
C7 C8 C9 O19 -3.2(2) . . . . ?
C7 C8 C9 C10 176.35(14) . . . . ?
C7 C6 C22 C23 -178.41(15) . . . . ?
C14 C1 C10 C9 -178.08(14) . . . . ?
C14 C1 C10 C11 0.7(2) . . . . ?
C14 C13 C12 C11 -0.6(3) . . . . ?
C18 C16 C7 C8 -78.1(2) . . . . ?
C18 C16 C7 C6 98.16(19) . . . . ?
