#------------------------------------------------------------------------------
#$Date: 2020-10-31 02:46:57 +0200 (Sat, 31 Oct 2020) $
#$Revision: 258661 $
#$URL: file:///home/coder/svn-repositories/cod/cif/1/55/94/1559436.cif $
#------------------------------------------------------------------------------
#
# This file is available in the Crystallography Open Database (COD),
# http://www.crystallography.net/
#
# All data on this site have been placed in the public domain by the
# contributors.
#
data_1559436
loop_
_publ_author_name
'Du, Cheng'
'Chu, Hongling'
'Xiao, Zefan'
'Zhong, Liu'
'Zhou, Yusheng'
'Qin, Wei'
'Liang, Guodong'
'Gao, Haiyang'
_publ_section_title
;
 Alternating Vinylarene--Carbon Monoxide Copolymers: Simple and Efficient
 Nonconjugated Luminescent Macromolecules
;
_journal_name_full               Macromolecules
_journal_paper_doi               10.1021/acs.macromol.0c01792
_journal_year                    2020
_chemical_formula_moiety         'C17 H18 O'
_chemical_formula_sum            'C17 H18 O'
_chemical_formula_weight         238.31
_chemical_name_systematic        b-model-Ph
_space_group_crystal_system      triclinic
_space_group_IT_number           2
_space_group_name_Hall           '-P 1'
_space_group_name_H-M_alt        'P -1'
_atom_sites_solution_hydrogens   geom
_atom_sites_solution_primary     dual
_audit_creation_date             2019-11-27
_audit_creation_method
;
Olex2 1.2
(compiled 2018.05.29 svn.r3508 for OlexSys, GUI svn.r5506)
;
_cell_angle_alpha                92.978(2)
_cell_angle_beta                 92.413(2)
_cell_angle_gamma                91.372(2)
_cell_formula_units_Z            2
_cell_length_a                   5.8147(2)
_cell_length_b                   10.0058(4)
_cell_length_c                   11.3922(5)
_cell_measurement_reflns_used    5441
_cell_measurement_temperature    150(2)
_cell_measurement_theta_max      53.883
_cell_measurement_theta_min      3.850
_cell_volume                     661.10(5)
_computing_cell_refinement       'SAINT V8.40A (?, 2016)'
_computing_data_reduction        'SAINT V8.40A (?, 2016)'
_computing_molecular_graphics    'Olex2 (Dolomanov et al., 2009)'
_computing_publication_material  'Olex2 (Dolomanov et al., 2009)'
_computing_structure_refinement  'ShelXL (Sheldrick, 2015)'
_computing_structure_solution    'ShelXT (Sheldrick, 2015)'
_diffrn_ambient_temperature      150.0
_diffrn_measured_fraction_theta_full 0.981
_diffrn_measured_fraction_theta_max 0.979
_diffrn_measurement_device_type  Agilent
_diffrn_radiation_type           GaK\a
_diffrn_radiation_wavelength     1.34138
_diffrn_reflns_av_R_equivalents  0.0263
_diffrn_reflns_av_unetI/netI     0.0225
_diffrn_reflns_Laue_measured_fraction_full 0.981
_diffrn_reflns_Laue_measured_fraction_max 0.979
_diffrn_reflns_limit_h_max       6
_diffrn_reflns_limit_h_min       -6
_diffrn_reflns_limit_k_max       12
_diffrn_reflns_limit_k_min       -11
_diffrn_reflns_limit_l_max       13
_diffrn_reflns_limit_l_min       -13
_diffrn_reflns_number            10453
_diffrn_reflns_point_group_measured_fraction_full 0.981
_diffrn_reflns_point_group_measured_fraction_max 0.979
_diffrn_reflns_theta_full        53.594
_diffrn_reflns_theta_max         53.893
_diffrn_reflns_theta_min         3.383
_exptl_absorpt_coefficient_mu    0.359
_exptl_absorpt_correction_T_max  0.7506
_exptl_absorpt_correction_T_min  0.6605
_exptl_absorpt_correction_type   multi-scan
_exptl_absorpt_process_details
;
SADABS-2016/2 (Bruker,2016/2) was used for absorption correction.
wR2(int) was 0.1092 before and 0.0402 after correction.
The Ratio of minimum to maximum transmission is 0.8800.
The \l/2 correction factor is Not present.
;
_exptl_crystal_colour            clear
_exptl_crystal_colour_lustre     clear
_exptl_crystal_density_diffrn    1.197
_exptl_crystal_description       needle
_exptl_crystal_F_000             256
_exptl_crystal_size_max          0.4
_exptl_crystal_size_mid          0.1
_exptl_crystal_size_min          0.1
_refine_diff_density_max         0.487
_refine_diff_density_min         -0.240
_refine_diff_density_rms         0.045
_refine_ls_extinction_method     none
_refine_ls_goodness_of_fit_ref   1.070
_refine_ls_hydrogen_treatment    constr
_refine_ls_matrix_type           full
_refine_ls_number_parameters     165
_refine_ls_number_reflns         2346
_refine_ls_number_restraints     0
_refine_ls_restrained_S_all      1.070
_refine_ls_R_factor_all          0.0605
_refine_ls_R_factor_gt           0.0516
_refine_ls_shift/su_max          0.000
_refine_ls_shift/su_mean         0.000
_refine_ls_structure_factor_coef Fsqd
_refine_ls_weighting_details
'w=1/[\s^2^(Fo^2^)+(0.0608P)^2^+0.3601P] where P=(Fo^2^+2Fc^2^)/3'
_refine_ls_weighting_scheme      calc
_refine_ls_wR_factor_gt          0.1299
_refine_ls_wR_factor_ref         0.1359
_reflns_Friedel_coverage         0.000
_reflns_number_gt                1985
_reflns_number_total             2346
_reflns_threshold_expression     'I > 2\s(I)'
_iucr_refine_instructions_details
;

    b19112704a1338_0m.res created by SHELXL-2014/7

TITL b19112704a1338_0m_a.res in P-1
REM Old TITL Integration of B19112704A1338
REM SHELXT solution in P-1
REM R1 0.133, Rweak 0.005, Alpha 0.038, Orientation as input
REM Formula found by SHELXT: C17 O
CELL 1.34138 5.8147 10.0058 11.3922 92.978 92.413 91.372
ZERR 2 0.0002 0.0004 0.0005 0.002 0.002 0.002
LATT 1
SFAC C H O
DISP C 0.0148 0.007 57.7277
DISP H -0 0 0.6481
DISP O 0.0412 0.025 193.8859
UNIT 34 36 2
 
L.S. 99
PLAN  20
SIZE 0.1 0.1 0.4
TEMP -123.15
BOND $H
list 4
fmap 2
acta
REM <olex2.extras>
REM <HklSrc "%.\\B19112704A1338_0m.hkl">
REM </olex2.extras>
 
WGHT    0.060800    0.360100
FVAR       1.26607
O001  3    0.643190    0.897433    0.151667    11.00000    0.03692    0.05185 =
         0.05602    0.00710    0.00143    0.00771
C002  1    0.227900    0.356766    0.395590    11.00000    0.03053    0.02391 =
         0.02773   -0.00386   -0.00013    0.00233
C003  1    0.058535    0.548936    0.293387    11.00000    0.02906    0.02977 =
         0.03127   -0.00188   -0.00144    0.00141
AFIX  43
H003  2   -0.069281    0.544116    0.342401    11.00000   -1.20000
AFIX   0
C004  1    0.237826    0.460219    0.306990    11.00000    0.02984    0.02453 =
         0.02699   -0.00240   -0.00487   -0.00108
C005  1    0.424088    0.472265    0.234658    11.00000    0.02856    0.03060 =
         0.03203   -0.00197   -0.00357    0.00241
AFIX  43
H005  2    0.549822    0.414154    0.243286    11.00000   -1.20000
AFIX   0
C006  1    0.417300    0.333196    0.470774    11.00000    0.03138    0.02731 =
         0.03347   -0.00225   -0.00308    0.00208
AFIX  43
H006  2    0.557284    0.382595    0.464093    11.00000   -1.20000
AFIX   0
C007  1    0.026526    0.280272    0.406046    11.00000    0.03002    0.03070 =
         0.03391   -0.00119   -0.00158    0.00150
AFIX  43
H007  2   -0.104025    0.294408    0.355670    11.00000   -1.20000
AFIX   0
C008  1    0.429450    0.567195    0.150541    11.00000    0.03270    0.03538 =
         0.02981   -0.00193    0.00098   -0.00254
AFIX  43
H008  2    0.558307    0.572794    0.102295    11.00000   -1.20000
AFIX   0
C009  1    0.064337    0.644085    0.209278    11.00000    0.03508    0.02826 =
         0.03435   -0.00149   -0.00739    0.00459
AFIX  43
H009  2   -0.059821    0.703458    0.201548    11.00000   -1.20000
AFIX   0
C00A  1    0.458781    0.948216    0.160553    11.00000    0.03711    0.03107 =
         0.03333    0.00849    0.00142    0.00142
C00B  1    0.402863    0.238431    0.555001    11.00000    0.04029    0.03284 =
         0.03343    0.00000   -0.00602    0.00710
AFIX  43
H00B  2    0.531721    0.224728    0.606643    11.00000   -1.20000
AFIX   0
C00C  1    0.249697    0.654262    0.135576    11.00000    0.03806    0.03001 =
         0.02648   -0.00203   -0.00584   -0.00397
C00D  1    0.201206    0.163620    0.564154    11.00000    0.04945    0.02841 =
         0.03539    0.00347    0.00286    0.00458
AFIX  43
H00D  2    0.191490    0.098714    0.621837    11.00000   -1.20000
AFIX   0
C00E  1    0.014507    0.184158    0.488776    11.00000    0.03846    0.03021 =
         0.03999    0.00081    0.00390   -0.00209
AFIX  43
H00E  2   -0.123018    0.131952    0.493778    11.00000   -1.20000
AFIX   0
C00F  1    0.244754    0.898247    0.092161    11.00000    0.04035    0.03726 =
         0.03857    0.00827   -0.00086    0.00409
AFIX  23
H00A  2    0.214908    0.958205    0.027080    11.00000   -1.20000
H00C  2    0.113404    0.904847    0.144515    11.00000   -1.20000
AFIX   0
C00G  1    0.251760    0.755280    0.040575    11.00000    0.04617    0.03621 =
         0.03004    0.00254   -0.00403   -0.00004
AFIX  13
H00G  2    0.400281    0.746005    0.000097    11.00000   -1.20000
AFIX   0
C00H  1    0.057637    0.725054   -0.051642    11.00000    0.05290    0.04967 =
         0.03159    0.00368   -0.01046   -0.00057
AFIX 137
H00F  2    0.069058    0.632949   -0.084146    11.00000   -1.50000
H00H  2    0.069930    0.787197   -0.114934    11.00000   -1.50000
H00I  2   -0.090976    0.735570   -0.015179    11.00000   -1.50000
AFIX   0
C00I  1    0.435157    1.071673    0.239583    11.00000    0.06455    0.04848 =
         0.06522   -0.01147   -0.00914    0.00946
AFIX 137
H00J  2    0.342008    1.050036    0.306098    11.00000   -1.50000
H00K  2    0.359943    1.141011    0.195219    11.00000   -1.50000
H00L  2    0.588114    1.104480    0.268972    11.00000   -1.50000
AFIX   0
HKLF 4
 
REM  b19112704a1338_0m_a.res in P-1
REM R1 =  0.0516 for    1985 Fo > 4sig(Fo)  and  0.0605 for all    2346 data
REM    165 parameters refined using      0 restraints
 
END  
     
WGHT      0.0606      0.3608 

REM Highest difference peak  0.487,  deepest hole -0.240,  1-sigma level  0.045
Q1    1   0.3813  0.8579  0.0484  11.00000  0.05    0.49
Q2    1   0.2918  1.0038  0.2443  11.00000  0.05    0.41
Q3    1   0.1163  0.7838  0.0690  11.00000  0.05    0.30
Q4    1   0.6940  0.9778  0.1892  11.00000  0.05    0.30
Q5    1   0.1594  0.3000  0.3833  11.00000  0.05    0.15
Q6    1   0.2326  0.4154  0.3563  11.00000  0.05    0.14
Q7    1   0.1716  0.6725  0.1804  11.00000  0.05    0.14
Q8    1   0.3388  0.9244 -0.0070  11.00000  0.05    0.13
Q9    1   0.2945  0.1982  0.5596  11.00000  0.05    0.12
Q10   1   0.2636  0.6919  0.0833  11.00000  0.05    0.12
Q11   1   0.3233  0.3317  0.4212  11.00000  0.05    0.12
Q12   1   0.3389  0.6219  0.1643  11.00000  0.05    0.12
Q13   1   0.3312  0.4796  0.2840  11.00000  0.05    0.11
Q14   1  -0.0776  0.6255 -0.0411  11.00000  0.05    0.11
Q15   1   0.4950  0.4951  0.0456  11.00000  0.05    0.11
Q16   1   0.3079  0.4506  0.2686  11.00000  0.05    0.11
Q17   1   0.1616  0.5061  0.3073  11.00000  0.05    0.11
Q18   1   0.5764  0.8185  0.0261  11.00000  0.05    0.10
Q19   1   0.3915  0.2179  0.3928  11.00000  0.05    0.10
Q20   1   0.3810  0.8718 -0.0788  11.00000  0.05    0.10

  REM The information below was added by Olex2.
  REM
  REM R1 = 0.0516 for 1985 Fo > 4sig(Fo) and 0.0605 for all 10453 data
  REM n/a parameters refined using n/a restraints
  REM Highest difference peak 0.49, deepest hole -0.24
  REM Mean Shift 0, Max Shift 0.000.

  REM +++ Tabular Listing of Refinement Information +++
  REM R1_all = 0.0605
  REM R1_gt = 0.0516
  REM wR_ref = 0.1359
  REM GOOF = 1.070
  REM Shift_max = 0.000
  REM Shift_mean = 0
  REM Reflections_all = 10453
  REM Reflections_gt = 1985
  REM Parameters = n/a
  REM Hole = -0.24
  REM Peak = 0.49
  REM Flack = n/a

  
;
_cod_data_source_file            ma0c01792_si_002.cif
_cod_data_source_block           b19112704a1338_0m
_cod_database_code               1559436
_shelx_shelxl_version_number     2014/7
_shelx_space_group_comment
;
The symmetry employed for this shelxl refinement is uniquely defined
by the following loop, which should always be used as a source of
symmetry information in preference to the above space-group names.
They are only intended as comments.
;
_shelx_estimated_absorpt_t_max   0.965
_shelx_estimated_absorpt_t_min   0.870
_olex2_refinement_description
;
1. Fixed Uiso
 At 1.2 times of:
  All C(H) groups, All C(H,H) groups
 At 1.5 times of:
  All C(H,H,H) groups
2.a Ternary CH refined with riding coordinates:
 C00G(H00G)
2.b Secondary CH2 refined with riding coordinates:
 C00F(H00A,H00C)
2.c Aromatic/amide H refined with riding coordinates:
 C003(H003), C005(H005), C006(H006), C007(H007), C008(H008), C009(H009),
 C00B(H00B), C00D(H00D), C00E(H00E)
2.d Idealised Me refined as rotating group:
 C00H(H00F,H00H,H00I), C00I(H00J,H00K,H00L)
;
_olex2_submission_original_sample_id B19112704A1338
_olex2_submission_special_instructions 'No special instructions were received'
loop_
_space_group_symop_operation_xyz
'x, y, z'
'-x, -y, -z'
loop_
_atom_site_label
_atom_site_type_symbol
_atom_site_fract_x
_atom_site_fract_y
_atom_site_fract_z
_atom_site_U_iso_or_equiv
_atom_site_adp_type
_atom_site_occupancy
_atom_site_site_symmetry_order
_atom_site_calc_flag
_atom_site_refinement_flags_posn
_atom_site_refinement_flags_adp
_atom_site_refinement_flags_occupancy
_atom_site_disorder_assembly
_atom_site_disorder_group
O001 O 0.6432(2) 0.89743(15) 0.15167(13) 0.0480(4) Uani 1 1 d . . . . .
C002 C 0.2279(3) 0.35677(16) 0.39559(14) 0.0276(4) Uani 1 1 d . . . . .
C003 C 0.0585(3) 0.54894(17) 0.29339(15) 0.0302(4) Uani 1 1 d . . . . .
H003 H -0.0693 0.5441 0.3424 0.036 Uiso 1 1 calc R . . . .
C004 C 0.2378(3) 0.46022(16) 0.30699(14) 0.0275(4) Uani 1 1 d . . . . .
C005 C 0.4241(3) 0.47227(17) 0.23466(15) 0.0306(4) Uani 1 1 d . . . . .
H005 H 0.5498 0.4142 0.2433 0.037 Uiso 1 1 calc R . . . .
C006 C 0.4173(3) 0.33320(17) 0.47077(15) 0.0310(4) Uani 1 1 d . . . . .
H006 H 0.5573 0.3826 0.4641 0.037 Uiso 1 1 calc R . . . .
C007 C 0.0265(3) 0.28027(17) 0.40605(16) 0.0317(4) Uani 1 1 d . . . . .
H007 H -0.1040 0.2944 0.3557 0.038 Uiso 1 1 calc R . . . .
C008 C 0.4294(3) 0.56719(18) 0.15054(15) 0.0328(4) Uani 1 1 d . . . . .
H008 H 0.5583 0.5728 0.1023 0.039 Uiso 1 1 calc R . . . .
C009 C 0.0643(3) 0.64408(17) 0.20928(16) 0.0329(4) Uani 1 1 d . . . . .
H009 H -0.0598 0.7035 0.2015 0.039 Uiso 1 1 calc R . . . .
C00A C 0.4588(3) 0.94822(18) 0.16055(16) 0.0336(4) Uani 1 1 d . . . . .
C00B C 0.4029(3) 0.23843(18) 0.55500(16) 0.0357(4) Uani 1 1 d . . . . .
H00B H 0.5317 0.2247 0.6066 0.043 Uiso 1 1 calc R . . . .
C00C C 0.2497(3) 0.65426(17) 0.13558(15) 0.0319(4) Uani 1 1 d . . . . .
C00D C 0.2012(3) 0.16362(18) 0.56415(17) 0.0376(5) Uani 1 1 d . . . . .
H00D H 0.1915 0.0987 0.6218 0.045 Uiso 1 1 calc R . . . .
C00E C 0.0145(3) 0.18416(18) 0.48878(17) 0.0362(4) Uani 1 1 d . . . . .
H00E H -0.1230 0.1320 0.4938 0.043 Uiso 1 1 calc R . . . .
C00F C 0.2448(3) 0.89825(19) 0.09216(17) 0.0385(5) Uani 1 1 d . . . . .
H00A H 0.2149 0.9582 0.0271 0.046 Uiso 1 1 calc R . . . .
H00C H 0.1134 0.9048 0.1445 0.046 Uiso 1 1 calc R . . . .
C00G C 0.2518(3) 0.75528(19) 0.04057(16) 0.0376(5) Uani 1 1 d . . . . .
H00G H 0.4003 0.7460 0.0001 0.045 Uiso 1 1 calc R . . . .
C00H C 0.0576(4) 0.7251(2) -0.05164(17) 0.0450(5) Uani 1 1 d . . . . .
H00F H 0.0691 0.6329 -0.0841 0.068 Uiso 1 1 calc GR . . . .
H00H H 0.0699 0.7872 -0.1149 0.068 Uiso 1 1 calc GR . . . .
H00I H -0.0910 0.7356 -0.0152 0.068 Uiso 1 1 calc GR . . . .
C00I C 0.4352(4) 1.0717(2) 0.2396(2) 0.0601(6) Uani 1 1 d . . . . .
H00J H 0.3420 1.0500 0.3061 0.090 Uiso 1 1 calc GR . . . .
H00K H 0.3599 1.1410 0.1952 0.090 Uiso 1 1 calc GR . . . .
H00L H 0.5881 1.1045 0.2690 0.090 Uiso 1 1 calc GR . . . .
loop_
_atom_site_aniso_label
_atom_site_aniso_U_11
_atom_site_aniso_U_22
_atom_site_aniso_U_33
_atom_site_aniso_U_23
_atom_site_aniso_U_13
_atom_site_aniso_U_12
O001 0.0369(8) 0.0518(9) 0.0560(9) 0.0071(7) 0.0014(6) 0.0077(6)
C002 0.0305(9) 0.0239(8) 0.0277(9) -0.0039(7) -0.0001(7) 0.0023(7)
C003 0.0291(9) 0.0298(9) 0.0313(9) -0.0019(7) -0.0014(7) 0.0014(7)
C004 0.0298(9) 0.0245(8) 0.0270(8) -0.0024(7) -0.0049(7) -0.0011(7)
C005 0.0286(9) 0.0306(9) 0.0320(9) -0.0020(7) -0.0036(7) 0.0024(7)
C006 0.0314(9) 0.0273(9) 0.0335(9) -0.0022(7) -0.0031(7) 0.0021(7)
C007 0.0300(9) 0.0307(9) 0.0339(9) -0.0012(7) -0.0016(7) 0.0015(7)
C008 0.0327(9) 0.0354(10) 0.0298(9) -0.0019(7) 0.0010(7) -0.0025(7)
C009 0.0351(10) 0.0283(9) 0.0343(9) -0.0015(7) -0.0074(8) 0.0046(7)
C00A 0.0371(10) 0.0311(9) 0.0333(9) 0.0085(7) 0.0014(8) 0.0014(8)
C00B 0.0403(10) 0.0328(10) 0.0334(10) 0.0000(8) -0.0060(8) 0.0071(8)
C00C 0.0381(10) 0.0300(9) 0.0265(9) -0.0020(7) -0.0058(7) -0.0040(7)
C00D 0.0495(11) 0.0284(9) 0.0354(10) 0.0035(8) 0.0029(8) 0.0046(8)
C00E 0.0385(10) 0.0302(9) 0.0400(10) 0.0008(8) 0.0039(8) -0.0021(8)
C00F 0.0404(11) 0.0373(10) 0.0386(10) 0.0083(8) -0.0009(8) 0.0041(8)
C00G 0.0462(11) 0.0362(10) 0.0300(9) 0.0025(8) -0.0040(8) 0.0000(8)
C00H 0.0529(12) 0.0497(12) 0.0316(10) 0.0037(9) -0.0105(9) -0.0006(10)
C00I 0.0646(15) 0.0485(13) 0.0652(15) -0.0115(11) -0.0091(12) 0.0095(11)
loop_
_atom_type_symbol
_atom_type_description
_atom_type_scat_dispersion_real
_atom_type_scat_dispersion_imag
_atom_type_scat_source
C C 0.0148 0.0070 'International Tables Vol C Tables 4.2.6.8 and 6.1.1.4'
H H 0.0000 0.0000 'International Tables Vol C Tables 4.2.6.8 and 6.1.1.4'
O O 0.0412 0.0250 'International Tables Vol C Tables 4.2.6.8 and 6.1.1.4'
loop_
_geom_angle_atom_site_label_1
_geom_angle_atom_site_label_2
_geom_angle_atom_site_label_3
_geom_angle
_geom_angle_site_symmetry_1
_geom_angle_site_symmetry_3
_geom_angle_publ_flag
C006 C002 C004 121.53(15) . . ?
C007 C002 C004 120.32(15) . . ?
C007 C002 C006 118.15(16) . . ?
C004 C003 H003 119.6 . . ?
C009 C003 H003 119.6 . . ?
C009 C003 C004 120.86(17) . . ?
C003 C004 C002 120.50(15) . . ?
C003 C004 C005 117.72(16) . . ?
C005 C004 C002 121.78(15) . . ?
C004 C005 H005 119.3 . . ?
C008 C005 C004 121.34(16) . . ?
C008 C005 H005 119.3 . . ?
C002 C006 H006 119.7 . . ?
C00B C006 C002 120.68(16) . . ?
C00B C006 H006 119.7 . . ?
C002 C007 H007 119.5 . . ?
C00E C007 C002 120.90(16) . . ?
C00E C007 H007 119.5 . . ?
C005 C008 H008 119.5 . . ?
C005 C008 C00C 121.07(17) . . ?
C00C C008 H008 119.5 . . ?
C003 C009 H009 119.4 . . ?
C003 C009 C00C 121.20(16) . . ?
C00C C009 H009 119.4 . . ?
O001 C00A C00F 123.50(18) . . ?
O001 C00A C00I 120.23(18) . . ?
C00F C00A C00I 116.22(17) . . ?
C006 C00B H00B 119.9 . . ?
C00D C00B C006 120.30(17) . . ?
C00D C00B H00B 119.9 . . ?
C008 C00C C009 117.80(16) . . ?
C008 C00C C00G 121.08(17) . . ?
C009 C00C C00G 121.11(16) . . ?
C00B C00D H00D 120.2 . . ?
C00E C00D C00B 119.52(17) . . ?
C00E C00D H00D 120.2 . . ?
C007 C00E H00E 119.8 . . ?
C00D C00E C007 120.43(17) . . ?
C00D C00E H00E 119.8 . . ?
C00A C00F H00A 108.4 . . ?
C00A C00F H00C 108.4 . . ?
C00A C00F C00G 115.36(16) . . ?
H00A C00F H00C 107.5 . . ?
C00G C00F H00A 108.4 . . ?
C00G C00F H00C 108.4 . . ?
C00C C00G C00F 111.80(15) . . ?
C00C C00G H00G 107.4 . . ?
C00C C00G C00H 111.09(16) . . ?
C00F C00G H00G 107.4 . . ?
C00F C00G C00H 111.60(16) . . ?
C00H C00G H00G 107.4 . . ?
C00G C00H H00F 109.5 . . ?
C00G C00H H00H 109.5 . . ?
C00G C00H H00I 109.5 . . ?
H00F C00H H00H 109.5 . . ?
H00F C00H H00I 109.5 . . ?
H00H C00H H00I 109.5 . . ?
C00A C00I H00J 109.5 . . ?
C00A C00I H00K 109.5 . . ?
C00A C00I H00L 109.5 . . ?
H00J C00I H00K 109.5 . . ?
H00J C00I H00L 109.5 . . ?
H00K C00I H00L 109.5 . . ?
loop_
_geom_bond_atom_site_label_1
_geom_bond_atom_site_label_2
_geom_bond_distance
_geom_bond_site_symmetry_2
_geom_bond_publ_flag
O001 C00A 1.203(2) . ?
C002 C004 1.485(2) . ?
C002 C006 1.399(2) . ?
C002 C007 1.396(2) . ?
C003 H003 0.9500 . ?
C003 C004 1.394(2) . ?
C003 C009 1.386(2) . ?
C004 C005 1.395(2) . ?
C005 H005 0.9500 . ?
C005 C008 1.385(2) . ?
C006 H006 0.9500 . ?
C006 C00B 1.387(3) . ?
C007 H007 0.9500 . ?
C007 C00E 1.384(3) . ?
C008 H008 0.9500 . ?
C008 C00C 1.387(3) . ?
C009 H009 0.9500 . ?
C009 C00C 1.399(3) . ?
C00A C00F 1.501(3) . ?
C00A C00I 1.503(3) . ?
C00B H00B 0.9500 . ?
C00B C00D 1.387(3) . ?
C00C C00G 1.519(2) . ?
C00D H00D 0.9500 . ?
C00D C00E 1.382(3) . ?
C00E H00E 0.9500 . ?
C00F H00A 0.9900 . ?
C00F H00C 0.9900 . ?
C00F C00G 1.520(3) . ?
C00G H00G 1.0000 . ?
C00G C00H 1.523(3) . ?
C00H H00F 0.9800 . ?
C00H H00H 0.9800 . ?
C00H H00I 0.9800 . ?
C00I H00J 0.9800 . ?
C00I H00K 0.9800 . ?
C00I H00L 0.9800 . ?
loop_
_refln_index_h
_refln_index_k
_refln_index_l
_refln_F_squared_meas
_refln_F_squared_sigma
-1 0 0 87.9 2.97
-1 0 0 83.05 3.01
-1 0 0 86.92 2.92
-1 0 0 89.69 2.98
1 0 0 89.1 2.95
1 0 0 84.66 3.01
1 0 0 87.64 2.96
1 0 0 88.8 3
1 0 0 86.66 2.96
1 0 0 87.33 2.92
-2 0 0 415.01 14.64
-2 0 0 454.94 16.9
-2 0 0 441.7 14.43
-2 0 0 437.38 14.56
-2 0 0 435.71 14.54
2 0 0 437.35 14.51
2 0 0 426.98 14.64
2 0 0 423.87 14.43
2 0 0 449.07 14.49
-3 0 0 113.99 4.24
-3 0 0 103.64 4
-3 0 0 109.39 3.7
-3 0 0 101.34 7.52
-3 0 0 109.53 3.89
3 0 0 109.51 3.83
3 0 0 110 3.79
3 0 0 96.02 3.96
3 0 0 105.64 3.66
-4 0 0 214.87 7.29
-4 0 0 214.98 7.58
-4 0 0 213.55 7.63
4 0 0 212.75 7.46
4 0 0 210.8 7.39
4 0 0 212.74 7.21
-5 0 0 294.94 10.77
-5 0 0 301.19 10.19
-5 0 0 293.59 10.64
-5 0 0 291.77 10.62
5 0 0 307.74 10.33
5 0 0 298.37 10.43
-6 0 0 291.8 10.01
-6 0 0 290.78 10.71
-6 0 0 281.02 10.7
6 0 0 285.07 10.09
6 0 0 291.51 10.27
6 -1 0 290.67 10.12
6 -1 0 290.04 10.25
-6 1 0 294.64 10.77
-6 1 0 292.25 10
-6 1 0 279.12 10.74
5 -1 0 90.21 3.77
5 -1 0 93.88 3.63
-5 1 0 89.35 3.51
-5 1 0 95.58 4.14
-5 1 0 95.47 4.2
4 -1 0 243.07 8.4
4 -1 0 241.63 8.46
4 -1 0 263.12 8.37
-4 1 0 241.42 8.28
-4 1 0 244 8.57
-4 1 0 235.44 8.59
-4 1 0 238.41 8.6
3 -1 0 85.86 3.07
3 -1 0 82.08 2.96
3 -1 0 85.47 3.1
-3 1 0 88.01 3.18
-3 1 0 84.58 3.22
-3 1 0 91.66 7.22
-3 1 0 84.04 2.98
-3 1 0 85.68 3.18
-3 1 0 82.38 3.31
-3 1 0 82.41 2.93
2 -1 0 1194.77 39.65
2 -1 0 1219.37 39.69
2 -1 0 1163.25 39.7
2 -1 0 1225.07 40.74
-2 1 0 1176.44 39.63
-2 1 0 1210.3 39.73
-2 1 0 1192.82 39.59
-2 1 0 1202.05 42.13
-2 1 0 1223.47 39.73
1 -1 0 238.59 8.19
1 -1 0 250.36 8.2
1 -1 0 243.35 8.28
1 -1 0 242.98 8.2
1 -1 0 246.58 8.18
-1 1 0 249.46 8.17
-1 1 0 238.87 8.24
-1 1 0 248.23 8.19
-1 1 0 264 9.43
-1 1 0 243.93 8.29
-1 1 0 247.87 8.2
0 -1 0 396.25 14.63
0 -1 0 410.66 13.87
0 1 0 436.62 13.9
0 1 0 431.55 13.91
0 1 0 417.08 13.92
0 1 0 430.45 14.63
-1 -1 0 553.55 18.77
-1 -1 0 590.03 18.87
-1 -1 0 569.58 18.77
-1 -1 0 554.67 20.03
1 1 0 582.72 19.98
1 1 0 559 18.87
1 1 0 567 19.89
1 1 0 551.39 18.75
1 1 0 588 18.82
-2 -1 0 182.36 6.28
-2 -1 0 182.72 8.47
-2 -1 0 188.11 6.21
-2 -1 0 181.9 6.08
-2 -1 0 191.28 6.26
2 1 0 181.25 6.16
2 1 0 173.9 6.04
2 1 0 201 8.49
2 1 0 172.72 7.36
2 1 0 159.86 6.55
2 1 0 179.5 6.12
2 1 0 184.43 6.16
-3 -1 0 54.94 5.79
-3 -1 0 47.37 2.05
-3 -1 0 49.33 1.79
-3 -1 0 46.92 2.02
-3 -1 0 48.28 2.01
3 1 0 45.9 1.7
3 1 0 46.35 1.86
3 1 0 47.78 1.93
3 1 0 42.61 2.02
-4 -1 0 36.47 2.03
-4 -1 0 38.44 1.66
-4 -1 0 35.36 1.65
-4 -1 0 36.9 2.13
4 1 0 37.41 1.77
4 1 0 35.55 1.85
4 1 0 37.36 1.5
-5 -1 0 19.48 1.84
-5 -1 0 19.78 1.55
-5 -1 0 15.07 1.63
-5 -1 0 16.06 2.01
5 1 0 17.56 1.48
5 1 0 15.35 1.29
-6 -1 0 32.05 3.05
-6 -1 0 43.19 4.29
-6 -1 0 35.76 2.72
6 1 0 31.83 2.69
6 1 0 32.21 2.54
-6 2 0 0.66 3.14
-6 2 0 0.46 2.38
-6 2 0 2.43 1.41
5 -2 0 50.55 2.32
5 -2 0 48.78 2.43
-5 2 0 46.67 2.16
-5 2 0 48.61 3.05
-5 2 0 50 3.01
4 -2 0 36.69 1.8
4 -2 0 37.52 1.56
4 -2 0 38.92 1.74
-4 2 0 36.42 2.03
-4 2 0 38.06 1.62
-4 2 0 37.01 2.09
-4 2 0 36.07 2.12
3 -2 0 17.77 1.14
3 -2 0 20.64 1.03
3 -2 0 19.58 0.91
3 -2 0 20.64 1.08
-3 2 0 19.91 1.23
-3 2 0 20.16 0.93
-3 2 0 21.77 1.28
-3 2 0 21.33 1.19
-3 2 0 17.21 3.91
-3 2 0 19.48 1.25
-3 2 0 19.28 1.19
2 -2 0 13.02 0.73
2 -2 0 14.98 0.98
2 -2 0 13.35 0.64
2 -2 0 13.41 0.71
2 -2 0 13.14 1.81
-2 2 0 14.15 0.86
-2 2 0 13.5 0.63
-2 2 0 13.84 0.78
-2 2 0 13.58 0.82
-2 2 0 12.74 0.8
-2 2 0 13.29 2.48
1 -2 0 1029.77 34.23
1 -2 0 1033.97 34.24
1 -2 0 1001.99 34.21
1 -2 0 1018.48 35.69
1 -2 0 1062.88 34.22
-1 2 0 1062.25 34.28
-1 2 0 1112.58 35.97
-1 2 0 1006.8 34.24
-1 2 0 1024.82 34.21
-1 2 0 1020.63 34.33
0 -2 0 175.84 5.96
0 -2 0 174.1 7.47
0 -2 0 176.01 6
0 -2 0 178.19 5.96
0 -2 0 177.68 6.02
0 2 0 189.84 7.36
0 2 0 182.22 6.05
0 2 0 182.75 6.03
0 2 0 178.41 5.98
-1 -2 0 2803.51 96.1
-1 -2 0 3100.66 97.79
-1 -2 0 2916.63 96.1
1 2 0 2776.34 96.08
1 2 0 2987.39 97.98
-2 -2 0 2.4 0.37
-2 -2 0 1.59 0.46
-2 -2 0 1.72 0.28
-2 -2 0 1.67 0.28
-2 -2 0 2.56 0.49
2 2 0 2.14 0.26
2 2 0 1.87 0.38
2 2 0 1.62 0.36
2 2 0 2.45 0.38
2 2 0 1.96 0.41
2 2 0 2.19 0.34
2 2 0 1.89 1.19
-3 -2 0 734.16 25.57
-3 -2 0 725.36 30.25
-3 -2 0 781.18 25.48
-3 -2 0 795.98 25.61
-3 -2 0 770.84 25.29
3 2 0 773.55 25.43
3 2 0 775.41 25.42
3 2 0 758.21 25.36
3 2 0 738.75 25.65
-4 -2 0 192.87 6.89
-4 -2 0 200.9 7.21
-4 -2 0 196.44 7.31
4 2 0 209.36 7.12
4 2 0 199.17 6.99
-5 -2 0 1.24 1.72
-5 -2 0 0.86 1.35
-5 -2 0 3.36 1.02
5 2 0 0.71 0.91
5 2 0 2.22 1.1
-6 -2 0 34.33 3.35
-6 -2 0 25.22 2.83
-6 -2 0 32.31 2.77
-6 -2 0 27.46 4.99
6 2 0 36.67 2.51
6 2 0 32.61 2.78
-6 3 0 9.15 2.94
-6 3 0 8.65 2.08
5 -3 0 128.33 4.9
-5 3 0 130.66 5.5
-5 3 0 128.86 4.66
-5 3 0 129.57 5.49
4 -3 0 9.22 0.89
-4 3 0 9.92 1.25
-4 3 0 8.62 0.69
-4 3 0 6.71 1.17
3 -3 0 250.22 8.23
3 -3 0 242.54 8.52
3 -3 0 238.25 8.15
-3 3 0 241.69 8.46
-3 3 0 242.32 8.33
-3 3 0 241.97 8.21
-3 3 0 242.99 8.12
-3 3 0 226.54 8.58
-3 3 0 250.72 14.94
2 -3 0 15.32 0.72
2 -3 0 15.05 0.78
2 -3 0 16.96 0.93
-2 3 0 15.97 0.98
-2 3 0 15.22 2.87
-2 3 0 15.5 0.9
-2 3 0 15.52 0.72
-2 3 0 15.79 1.04
-2 3 0 13.71 0.91
1 -3 0 164.78 5.68
1 -3 0 164.62 5.75
1 -3 0 176.48 5.7
1 -3 0 158.26 7.65
-1 3 0 166.97 5.66
-1 3 0 177.08 7.83
-1 3 0 174.66 5.89
-1 3 0 168.34 5.71
-1 3 0 172.33 5.72
-1 3 0 173.25 5.93
0 -3 0 0.28 0.22
0 -3 0 0.19 0.12
0 -3 0 0.55 0.18
0 -3 0 0.64 0.28
0 3 0 0.76 0.29
0 3 0 0.57 0.17
0 3 0 0.62 0.32
0 3 0 0.9 0.92
0 3 0 0.49 0.34
-1 -3 0 122.68 4.03
-1 -3 0 107.08 3.91
-1 -3 0 124.35 4.11
-1 -3 0 113.68 3.93
1 3 0 112.06 5.82
1 3 0 114.31 3.97
1 3 0 113.46 3.94
1 3 0 113.13 4.08
1 3 0 115.91 3.96
1 3 0 120.27 5.94
-2 -3 0 95.73 3.38
-2 -3 0 99.75 6.17
-2 -3 0 92.72 3.64
-2 -3 0 97.71 3.64
-2 -3 0 92.8 3.38
2 3 0 95.27 3.28
2 3 0 100.27 5.42
2 3 0 94.68 3.63
2 3 0 100.46 3.47
2 3 0 100.09 3.47
2 3 0 98.78 5.78
2 3 0 102.3 3.43
-3 -3 0 143.26 5.27
-3 -3 0 141.78 5.41
-3 -3 0 148.08 5.31
-3 -3 0 152.79 10.02
-3 -3 0 146.2 5.05
3 3 0 148.16 5.49
3 3 0 144.43 5.17
3 3 0 142.49 5.21
3 3 0 144.83 5.11
-4 -3 0 4.73 1.22
-4 -3 0 6.79 1.16
-4 -3 0 6.43 0.87
4 3 0 5.63 0.82
4 3 0 5.21 0.9
-5 -3 0 2.85 1.17
-5 -3 0 1.46 1.18
-5 -3 0 2.64 1.93
-5 -3 0 1.59 1.46
5 3 0 3.9 1.19
5 3 0 2.52 1.08
-6 -3 0 8.79 2.91
-6 -3 0 7.62 2.25
-6 -3 0 6.57 3.92
6 3 0 10.69 1.85
6 3 0 9.06 1.6
-6 4 0 0.26 1.59
-6 4 0 0.11 2.38
-6 4 0 -0.49 1.26
5 -4 0 15.16 1.4
-5 4 0 16.55 1.37
-5 4 0 13.85 2.06
4 -4 0 5.59 0.85
4 -4 0 4.7 0.68
-4 4 0 4.83 1.43
-4 4 0 6.62 0.65
-4 4 0 5.27 1.42
3 -4 0 350.48 11.47
-3 4 0 347.22 11.84
-3 4 0 338.7 11.36
-3 4 0 340.92 11.6
-3 4 0 322.21 11.94
2 -4 0 22.39 1.01
-2 4 0 22.2 1.17
-2 4 0 23.02 1.46
-2 4 0 22.77 1.29
-2 4 0 21.7 1.3
-2 4 0 21.81 0.91
-2 4 0 25.25 4.01
1 -4 0 29.24 1.16
1 -4 0 30.83 1.22
-1 4 0 30.69 1.24
-1 4 0 28.7 1.38
-1 4 0 29.3 3.46
-1 4 0 27.18 1.23
-1 4 0 30.48 1.39
-1 4 0 27.75 1.18
-1 4 0 27.57 1.48
0 -4 0 55.25 2.04
0 -4 0 57.74 2.15
0 -4 0 56.24 2.05
0 4 0 59.49 2.13
0 4 0 56.88 2.07
0 4 0 58.19 4.22
0 4 0 56.14 2.22
0 4 0 60.31 2.15
0 4 0 57.97 2.16
-1 -4 0 174.56 5.77
-1 -4 0 163.12 5.63
-1 -4 0 169.17 5.84
-1 -4 0 171.51 5.65
1 4 0 159.38 8.13
1 4 0 169.97 8.14
1 4 0 165.88 5.68
1 4 0 163.91 5.58
1 4 0 165.84 5.68
1 4 0 159.46 5.72
-2 -4 0 1005.4 32.53
-2 -4 0 956.02 32.82
-2 -4 0 942.58 32.52
-2 -4 0 961.77 32.66
2 4 0 1121.56 36.27
2 4 0 991.71 32.63
2 4 0 990.53 32.62
2 4 0 911.25 32.86
2 4 0 993.82 32.58
2 4 0 953.55 35.47
2 4 0 987.23 32.62
-3 -4 0 153.84 5.54
-3 -4 0 164.34 11.28
-3 -4 0 141.17 5.73
-3 -4 0 145.68 5.68
-3 -4 0 156.18 5.51
3 4 0 150.37 5.4
3 4 0 148.37 5.38
3 4 0 147.8 5.31
-4 -4 0 -0.54 1.16
-4 -4 0 -1.73 1.25
-4 -4 0 0.32 0.94
4 4 0 0.9 0.81
4 4 0 0.57 0.77
-5 -4 0 12.04 2.42
-5 -4 0 8.07 1.8
-5 -4 0 12.99 2.3
-5 -4 0 8.53 1.67
5 4 0 13.24 1.51
5 4 0 13.11 1.43
-6 -4 0 -0.15 2.41
6 4 0 4.04 1.87
6 4 0 1.84 1.68
-6 5 0 4.74 2.86
5 -5 0 11.68 1.41
-5 5 0 11.2 2.13
-5 5 0 10.77 1.02
-5 5 0 10.06 1.28
4 -5 0 45.64 2.11
4 -5 0 43.98 1.99
-4 5 0 45.73 1.88
-4 5 0 41 2.93
-4 5 0 45.19 2.11
3 -5 0 19.29 1.14
3 -5 0 18.44 1.07
-3 5 0 21.16 1.92
-3 5 0 19.71 1.18
-3 5 0 20.71 7.98
-3 5 0 19.84 0.98
2 -5 0 2.5 0.4
-2 5 0 3.1 3.83
-2 5 0 2.61 0.83
-2 5 0 1.6 0.49
-2 5 0 4.53 0.5
-2 5 0 2.67 0.32
1 -5 0 0.15 0.3
-1 5 0 -0.06 2.31
-1 5 0 0.06 0.51
-1 5 0 -0.29 0.59
-1 5 0 0.03 0.25
-1 5 0 0.35 0.55
-1 5 0 0.36 0.32
0 -5 0 516.31 17.25
0 -5 0 529.26 17.35
0 -5 0 506.39 17.22
0 5 0 523.16 17.29
0 5 0 512.21 17.58
0 5 0 513.31 20.48
0 5 0 508.14 17.3
0 5 0 550.18 17.64
0 5 0 522.4 17.46
0 5 0 501.98 17.27
-1 -5 0 90.55 3.34
-1 -5 0 95.49 3.36
-1 -5 0 95.86 3.58
-1 -5 0 97.1 3.47
1 5 0 92.51 3.6
1 5 0 94.66 6.57
1 5 0 92.2 3.37
1 5 0 93.48 6.68
1 5 0 96.06 3.38
1 5 0 93.46 3.35
1 5 0 96.35 3.26
-2 -5 0 22.68 1.37
-2 -5 0 25.84 1.69
-2 -5 0 25.91 1.24
-2 -5 0 26.32 1.33
-2 -5 0 24.54 1.54
2 5 0 21.69 1.27
2 5 0 24.25 1.3
2 5 0 26.07 3.98
2 5 0 22.52 1.24
2 5 0 25.69 1.32
-3 -5 0 13.16 1.33
-3 -5 0 12.83 1.07
-3 -5 0 15.12 1.58
3 5 0 13.12 1.25
3 5 0 12.36 1.25
3 5 0 14.95 1.22
-4 -5 0 2.17 1.2
-4 -5 0 2.23 1.52
-4 -5 0 -0.37 1.34
4 5 0 2.2 0.96
4 5 0 1.27 0.92
-5 -5 0 -0.31 1.89
-5 -5 0 4.47 2.6
-5 -5 0 2.67 1.35
5 5 0 1.55 1.35
5 5 0 2.09 1.36
-6 -5 0 6.15 2.83
6 5 0 6.52 1.95
6 5 0 7.6 2.06
-6 6 0 0.57 3.86
-5 6 0 2.98 1.02
-5 6 0 3.96 2.23
-5 6 0 3.91 1.38
4 -6 0 23.11 1.56
-4 6 0 20.99 1.31
-4 6 0 21.38 1.68
-4 6 0 20.11 2.21
3 -6 0 18.69 1.2
-3 6 0 20.61 1.11
-3 6 0 22.3 1.8
-3 6 0 18.31 1.35
-3 6 0 22.12 1.93
2 -6 0 1.07 0.45
-2 6 0 1.85 0.52
-2 6 0 2.64 0.65
-2 6 0 2.21 0.92
-2 6 0 -0.22 8
-2 6 0 1.31 0.96
1 -6 0 71.87 2.64
-1 6 0 74.88 3.08
-1 6 0 69.93 2.71
-1 6 0 72.99 7.71
-1 6 0 67.64 2.85
-1 6 0 72.23 3.04
0 -6 0 75.2 2.94
0 -6 0 73.86 2.76
0 -6 0 76.36 2.83
0 6 0 73.47 3.09
0 6 0 74.52 2.98
0 6 0 74.55 2.77
0 6 0 79.42 7.11
0 6 0 73.91 2.82
0 6 0 75.79 6.88
0 6 0 75.46 2.61
-1 -6 0 346.34 12.06
-1 -6 0 342.39 11.84
-1 -6 0 363.52 12.13
-1 -6 0 351.34 11.89
1 6 0 339.89 11.93
1 6 0 355.21 11.88
1 6 0 355.13 11.91
1 6 0 372.2 17.08
-2 -6 0 132.41 5.07
-2 -6 0 129.55 4.84
-2 -6 0 130.32 4.66
-2 -6 0 132.83 4.69
-2 -6 0 140.09 4.85
2 6 0 108.25 4.64
2 6 0 130.74 4.7
2 6 0 133.58 4.65
2 6 0 131.01 4.7
2 6 0 120.88 9.46
-3 -6 0 8.94 1.22
-3 -6 0 10.62 1.5
-3 -6 0 9.56 1.63
3 6 0 11.85 1.15
3 6 0 7.73 1.01
3 6 0 9.38 1.01
-4 -6 0 1.76 1.67
-4 -6 0 1.26 1.65
-4 -6 0 3.43 3.68
4 6 0 1.31 1.12
4 6 0 2.05 1.09
4 6 0 -0.04 1.07
-5 -6 0 4.99 1.56
-5 -6 0 6.31 2.43
-5 -6 0 5.49 3.26
5 6 0 6.29 1.54
5 6 0 6.72 1.6
-5 7 0 35.25 2.62
-5 7 0 35.3 3.46
4 -7 0 50.21 2.51
-4 7 0 49.83 2.51
-4 7 0 52.21 3.83
-4 7 0 48.34 3.68
3 -7 0 26.28 1.61
-3 7 0 29.08 1.66
-3 7 0 29.53 2.75
-3 7 0 30.19 2.55
2 -7 0 85.33 3.31
-2 7 0 88.03 3.34
-2 7 0 89.62 3.72
-2 7 0 89.91 3.96
1 -7 0 421.64 14.22
-1 7 0 421.63 14.22
-1 7 0 427.78 14.83
-1 7 0 430.25 14.58
-1 7 0 407.65 14.51
0 -7 0 104.03 3.68
0 7 0 89.44 3.66
0 7 0 100.32 4.1
0 7 0 117.17 14.29
0 7 0 100.94 3.7
0 7 0 101.8 3.48
-1 -7 0 3.64 0.8
-1 -7 0 4.99 1.33
1 7 0 3.46 0.66
1 7 0 2.92 0.79
1 7 0 2.93 0.63
-2 -7 0 5.44 1.4
-2 -7 0 3.86 1.17
-2 -7 0 4.11 0.67
-2 -7 0 6.04 1.56
2 7 0 5.2 0.84
2 7 0 6.25 0.93
2 7 0 4.15 0.94
2 7 0 6.38 0.92
-3 -7 0 131.7 5.25
-3 -7 0 121.78 5.51
3 7 0 129.52 4.87
3 7 0 127.06 4.9
3 7 0 128.91 4.95
-4 -7 0 5.81 2.18
-4 -7 0 10.55 3.24
4 7 0 6.76 1.35
4 7 0 6.64 1.41
-5 -7 0 26.82 3.29
-5 -7 0 22.64 3.11
5 7 0 32.77 3.55
-5 8 0 -1.72 2.96
4 -8 0 55.12 3.6
-4 8 0 50.87 3.3
-4 8 0 51.71 4.49
3 -8 0 34.27 2.01
2 -8 0 15.04 1.37
-2 8 0 15.09 1.81
-2 8 0 15.77 1.32
-2 8 0 12.85 1.68
1 -8 0 2.18 0.78
-1 8 0 1.89 0.68
-1 8 0 2.86 1.19
-1 8 0 1.69 1.04
0 -8 0 16.22 1.55
0 8 0 16.17 2.33
0 8 0 12.38 1.11
0 8 0 12.97 1.21
-1 -8 0 17.98 1.72
1 8 0 18.21 1.42
1 8 0 19.9 1.57
1 8 0 18.54 1.4
1 8 0 18.33 1.76
-2 -8 0 672.6 22.66
2 8 0 665.75 22.23
2 8 0 660.2 22.3
2 8 0 662.85 22.29
2 8 0 642.79 22.25
-3 -8 0 88.41 5.12
3 8 0 89.77 4.01
3 8 0 92.17 3.97
3 8 0 94.75 3.87
-4 -8 0 92.31 6.43
4 8 0 109.2 5.51
4 8 0 98.53 5.61
-5 -8 0 5.18 2.39
5 8 0 3.56 2.21
5 8 0 3.06 2.18
-4 9 0 114.2 4.78
-4 9 0 120.11 7.45
3 -9 0 0.64 1.16
-3 9 0 0.32 2.05
-3 9 0 1.71 1.17
2 -9 0 138.27 5.17
-2 9 0 137.62 5.12
-2 9 0 136.82 5.95
1 -9 0 17.97 1.76
-1 9 0 22.4 1.68
0 -9 0 68.47 3.04
0 9 0 62.46 2.84
0 9 0 65.75 2.8
-1 -9 0 87.15 3.84
1 9 0 88.05 3.58
1 9 0 83.76 3.52
1 9 0 87 3.9
2 9 0 14.37 2.07
2 9 0 13.79 1.51
2 9 0 17.37 1.44
2 9 0 15.14 1.49
2 9 0 17.45 2.03
3 9 0 12.69 1.8
3 9 0 19.78 4.55
3 9 0 8.26 1.66
-4 -9 0 23.4 2.22
4 9 0 23.87 2.26
4 9 0 23.65 2.24
4 -10 0 -1.15 2.39
-4 10 0 -1.01 3.57
3 -10 0 59.54 3.53
-3 10 0 70.88 6.15
-3 10 0 69.44 4.07
2 -10 0 -0.44 1.44
-2 10 0 -0.07 1.26
1 -10 0 17.93 1.73
-1 10 0 12.8 1.35
0 -10 0 254.8 9.14
0 10 0 254.38 8.94
0 10 0 254.07 9.02
-1 -10 0 51.45 3.49
-1 -10 0 50.86 3.12
1 10 0 50.08 2.73
1 10 0 54.69 2.97
1 10 0 56.84 2.85
2 10 0 5.93 1.61
2 10 0 1.91 2.14
-3 -10 0 0.99 1.8
3 10 0 0.56 1.98
3 10 0 3.69 1.78
-3 11 0 35.2 4.89
2 -11 0 3.5 1.93
-2 11 0 2.17 1.64
1 -11 0 156.48 6.29
-1 11 0 159.98 5.96
-1 11 0 158.67 6.05
0 -11 0 160.2 6.55
0 11 0 163.83 6.22
0 11 0 163.09 6.12
1 11 0 79.51 3.89
1 11 0 79.64 3.86
-2 -11 0 3.54 4.97
2 11 0 3.51 1.85
0 12 0 2.13 1.92
0 12 0 2.75 2.05
0 12 -1 27.43 2.24
0 12 -1 35.56 3.36
2 11 -1 51.91 3.33
-2 -11 1 52.5 4.38
1 11 -1 29.89 2.55
1 11 -1 31.61 2.8
0 11 -1 12.97 1.73
0 11 -1 12.94 1.53
0 -11 1 13.68 2.27
-1 11 -1 4.75 1.6
-1 11 -1 3.92 1.25
1 -11 1 2.64 1.89
-2 11 -1 36.17 3.04
2 -11 1 36.55 3.16
3 10 -1 1.65 2.19
3 10 -1 1.62 1.73
-3 -10 1 4.31 1.82
2 10 -1 132.22 5.23
1 10 -1 38.35 2.47
1 10 -1 35.99 2.32
0 10 -1 39.87 2.27
0 10 -1 41.91 2.48
0 -10 1 42.18 2.76
-1 10 -1 114.22 4.44
1 -10 1 109.01 4.56
-2 10 -1 -0.5 1.32
2 -10 1 1.36 1.44
-3 10 -1 1.01 2.03
-3 10 -1 1.51 2.41
3 -10 1 0.89 1.44
-4 10 -1 0.61 3.3
4 -10 1 1.6 2.24
4 9 -1 10.5 2.1
4 9 -1 10.01 1.94
-4 -9 1 11.29 1.92
3 9 -1 42.39 3.81
3 9 -1 46.44 3.76
3 9 -1 63.01 4.34
-3 -9 1 48.09 5.04
2 9 -1 19.49 2.57
2 9 -1 25.79 2.22
2 9 -1 25.94 1.98
2 9 -1 21.75 2.19
1 9 -1 165.87 6.22
1 9 -1 167.94 6.15
1 9 -1 170.98 6.2
1 9 -1 170.36 6.91
1 9 -1 166.07 6.23
-1 -9 1 177.27 6.35
0 9 -1 19.52 1.64
0 9 -1 20.1 2.33
0 9 -1 18.58 1.52
0 9 -1 19.34 1.79
0 -9 1 21.39 1.81
-1 9 -1 151.51 5.37
-1 9 -1 145.97 5.48
1 -9 1 138.68 5.36
-2 9 -1 218.94 8.45
-2 9 -1 218.88 8.09
-2 9 -1 228.27 7.83
2 -9 1 219.22 7.85
-3 9 -1 55.38 2.73
-3 9 -1 51 3.94
3 -9 1 55.9 2.75
-4 9 -1 32.48 4.75
4 -9 1 22.41 3.58
5 8 -1 45.82 3.46
5 8 -1 44.02 3.71
-5 -8 1 46.16 3.62
4 8 -1 77.85 4.5
4 8 -1 73.51 4.24
4 8 -1 92.48 4.59
-4 -8 1 78.19 6
3 8 -1 118.18 5.01
3 8 -1 111.86 4.6
3 8 -1 109.57 4.64
3 8 -1 117.72 4.55
-3 -8 1 110.6 5.67
2 8 -1 80.6 3.35
2 8 -1 77.61 3.32
2 8 -1 77.49 3.27
2 8 -1 79.06 3.33
2 8 -1 81.13 3.72
-2 -8 1 78.28 4.23
1 8 -1 133.41 4.88
1 8 -1 127.38 4.92
1 8 -1 132.07 5.39
1 8 -1 134.71 4.93
-1 -8 1 136.03 5.48
-1 -8 1 136.07 4.95
0 8 -1 85.67 3.81
0 8 -1 83.2 3.34
0 8 -1 83.7 3.26
0 -8 1 83.42 3.26
-1 8 -1 693.36 23.29
-1 8 -1 676.03 22.85
-1 8 -1 677.47 22.96
-1 8 -1 689.17 23.63
1 -8 1 675.48 22.85
-2 8 -1 76.53 3.59
-2 8 -1 76.94 3.11
-2 8 -1 77.99 3.83
2 -8 1 79.4 3.1
-3 8 -1 229.4 8.08
-3 8 -1 232.16 8.55
-3 8 -1 223.72 8.87
3 -8 1 227.67 8.03
-4 8 -1 22.36 3.48
-4 8 -1 24 2.86
4 -8 1 13.66 2.2
-5 8 -1 6.11 3.06
5 7 -1 0.95 2.17
5 7 -1 -0.85 1.73
-5 -7 1 -2.51 2.21
-5 -7 1 1.83 2.82
4 7 -1 31.28 2.38
4 7 -1 37.03 2.4
4 7 -1 28.03 2.37
-4 -7 1 26.34 3.36
-4 -7 1 24.87 2.5
3 7 -1 32.92 2.11
3 7 -1 33.42 2.05
3 7 -1 33.29 2.07
-3 -7 1 33.31 2.5
-3 -7 1 31.16 3.06
-3 -7 1 32.68 2.69
2 7 -1 80.39 3.4
2 7 -1 79.25 3.22
2 7 -1 82.38 3.23
-2 -7 1 78.59 3.52
-2 -7 1 79.83 3.79
-2 -7 1 75.96 3.26
1 7 -1 415.48 14.2
1 7 -1 410.05 14.21
1 7 -1 409.59 19.36
1 7 -1 411.17 14.16
1 7 -1 438.81 15.29
-1 -7 1 420.63 14.16
-1 -7 1 425.02 14.13
-1 -7 1 427.24 14.45
0 7 -1 34.68 1.71
0 7 -1 32.4 1.85
0 7 -1 33.06 1.56
0 -7 1 33.97 1.55
0 -7 1 32.12 2.14
-1 7 -1 85.57 11.82
-1 7 -1 77.96 3.14
-1 7 -1 84.49 3.51
-1 7 -1 76.36 3.48
-1 7 -1 81.15 3.27
-1 7 -1 78.94 3.02
1 -7 1 81.4 2.99
-2 7 -1 5.66 1.2
-2 7 -1 4.79 0.72
-2 7 -1 3.69 1.22
-2 7 -1 2.61 0.95
2 -7 1 3.51 0.61
-3 7 -1 3.54 1.41
-3 7 -1 -0.57 1.41
-3 7 -1 2.23 0.8
3 -7 1 0.88 0.69
-4 7 -1 26.17 2.49
-4 7 -1 31.38 2.01
-4 7 -1 26.6 2.69
4 -7 1 26.86 1.83
-5 7 -1 136.45 6.68
-5 7 -1 136.81 6.58
5 -7 1 141.84 5.48
5 6 -1 43.39 2.78
5 6 -1 42.35 2.95
-5 -6 1 35.88 3.58
-5 -6 1 44.86 2.8
-5 -6 1 37.31 4.08
4 6 -1 26.3 2.05
4 6 -1 26.85 2.1
4 6 -1 28.34 2.1
-4 -6 1 28.01 2.72
-4 -6 1 29.2 3.09
-4 -6 1 32.42 2.44
3 6 -1 17.55 1.25
3 6 -1 15.25 1.5
-3 -6 1 15.67 1.62
-3 -6 1 14.24 1.72
-3 -6 1 13.87 1.2
2 6 -1 14.83 1.19
2 6 -1 13.59 1.14
2 6 -1 15.4 1.17
2 6 -1 12.73 1.12
-2 -6 1 15.03 1.21
-2 -6 1 13.88 1.38
-2 -6 1 15.79 1.69
-2 -6 1 15.7 1.07
1 6 -1 120.67 4.27
1 6 -1 119.9 8.2
1 6 -1 117.36 4.28
1 6 -1 114.08 4.24
-1 -6 1 120.68 4.22
-1 -6 1 124.25 4.59
-1 -6 1 120.11 4.23
0 6 -1 883.77 29.04
0 6 -1 859.96 29.08
0 6 -1 838.6 33.07
0 6 -1 902.12 28.88
0 6 -1 878.35 29.1
0 -6 1 871.74 29.13
0 -6 1 877.49 29
-1 6 -1 62.04 7.98
-1 6 -1 60.74 2.35
-1 6 -1 61.18 2.48
-1 6 -1 60.91 2.76
-1 6 -1 61.99 2.63
1 -6 1 60.97 2.3
1 -6 1 65.12 2.51
-2 6 -1 70.94 9.68
-2 6 -1 59.43 2.5
-2 6 -1 55.82 2.28
-2 6 -1 58.04 2.88
-3 6 -1 6.33 1.33
-3 6 -1 4.69 0.79
3 -6 1 6.68 0.71
-4 6 -1 112.06 5.38
-4 6 -1 124.58 4.47
4 -6 1 115.23 4.32
-5 6 -1 1.2 2.32
5 -6 1 2.81 1.74
-6 6 -1 0.29 4.99
-6 6 -1 0.51 3.59
6 5 -1 14.95 1.98
6 5 -1 9.62 2.13
-6 -5 1 10.3 2.76
5 5 -1 19.38 1.68
5 5 -1 15.09 1.72
-5 -5 1 14.06 2.9
-5 -5 1 19.1 1.8
-5 -5 1 13.14 2.06
4 5 -1 42.4 2.36
4 5 -1 41.89 2.32
4 5 -1 46.21 2.29
-4 -5 1 46.83 2.78
-4 -5 1 42.81 2.33
-4 -5 1 38.47 3
3 5 -1 34.51 1.78
3 5 -1 34.82 1.8
3 5 -1 34.06 1.72
-3 -5 1 33.75 2.1
-3 -5 1 31.95 1.7
-3 -5 1 29.59 2.25
2 5 -1 110.68 4.07
2 5 -1 113.52 4.06
2 5 -1 107.78 4.05
2 5 -1 116.83 4.09
-2 -5 1 114.41 4.13
-2 -5 1 110.63 3.98
-2 -5 1 116.29 4.37
-2 -5 1 110.07 3.96
1 5 -1 0.73 0.38
1 5 -1 1.32 0.39
1 5 -1 1.06 0.34
1 5 -1 1.87 3.03
1 5 -1 2.74 2.31
1 5 -1 0.96 0.43
-1 -5 1 1.81 0.43
-1 -5 1 1.15 0.67
-1 -5 1 1.13 0.3
-1 -5 1 1.46 0.4
0 5 -1 74.93 2.78
0 5 -1 76.01 2.79
0 5 -1 78.1 5.7
0 5 -1 71.15 2.54
0 5 -1 75.44 2.66
0 5 -1 75.21 2.88
0 5 -1 78.34 2.77
0 5 -1 73.83 5.24
0 5 -1 76.11 2.95
0 -5 1 72.04 2.61
0 -5 1 56.74 6.49
0 -5 1 70.84 2.63
0 -5 1 73.12 2.83
-1 5 -1 66.22 2.66
-1 5 -1 61.06 2.43
-1 5 -1 61.65 2.65
-1 5 -1 65.63 2.58
-1 5 -1 61.96 2.45
-1 5 -1 63.21 6.02
-1 5 -1 62.47 2.31
1 -5 1 62.79 6.61
1 -5 1 62.07 2.33
-2 5 -1 22.99 1.71
-2 5 -1 23.78 1.41
-2 5 -1 23.68 5.71
-2 5 -1 23.93 1.02
-2 5 -1 23.83 1.17
-2 5 -1 21.81 1.42
2 -5 1 23.83 1.06
-3 5 -1 129 14.89
-3 5 -1 106.24 4.51
-3 5 -1 104.77 3.88
-3 5 -1 105.37 4.48
-3 5 -1 106.29 3.74
3 -5 1 108.74 3.83
-4 5 -1 56.1 2.22
-4 5 -1 55.63 3.33
-4 5 -1 56.25 2.41
4 -5 1 51.62 2.38
-5 5 -1 20.64 2.59
-5 5 -1 28.32 2.13
-5 5 -1 26.6 1.79
-6 5 -1 2.11 2.93
6 4 -1 1.74 1.76
6 4 -1 0.97 1.61
-6 -4 1 1.85 2.32
-6 -4 1 1.77 3.03
-6 -4 1 -3.7 2.97
5 4 -1 9.56 1.34
5 4 -1 8.46 1.42
-5 -4 1 8.55 1.33
-5 -4 1 14.21 2.47
-5 -4 1 13.88 1.96
4 4 -1 2.99 0.89
4 4 -1 4.59 0.98
4 4 -1 4 0.91
-4 -4 1 3.8 1.37
-4 -4 1 4.24 1.29
3 4 -1 3.52 0.66
3 4 -1 4.62 0.74
3 4 -1 2.95 0.66
-3 -4 1 4.46 0.63
-3 -4 1 -1.55 5.63
-3 -4 1 4.41 0.96
-3 -4 1 4.02 1.03
2 4 -1 7.49 0.73
2 4 -1 7.41 0.75
2 4 -1 6.98 0.64
2 4 -1 8.45 0.77
2 4 -1 7.89 0.63
-2 -4 1 7.74 0.6
-2 -4 1 8.06 0.67
-2 -4 1 6.84 0.87
1 4 -1 260.64 8.38
1 4 -1 239.31 8.52
1 4 -1 257.05 8.4
1 4 -1 254.3 8.41
1 4 -1 243.44 10.48
1 4 -1 255.49 10.38
1 4 -1 254.85 8.28
-1 -4 1 239.75 8.33
-1 -4 1 248.88 8.32
-1 -4 1 257.01 8.56
-1 -4 1 225.96 8.54
0 4 -1 2.97 1.64
0 4 -1 2.44 0.48
0 4 -1 3.07 0.47
0 4 -1 2.72 0.31
0 4 -1 2.92 0.4
0 4 -1 2.7 0.5
0 -4 1 2.2 0.3
0 -4 1 1.21 2.06
-1 4 -1 73.53 2.67
-1 4 -1 68.43 2.87
-1 4 -1 70.73 2.72
-1 4 -1 63.09 2.53
-1 4 -1 70.31 5.27
-1 4 -1 72.26 2.55
-1 4 -1 68.87 2.44
1 -4 1 62.74 5.35
1 -4 1 69.41 2.41
1 -4 1 66.95 2.4
-2 4 -1 349.88 11.75
-2 4 -1 354.09 12.05
-2 4 -1 357.88 11.68
-2 4 -1 355.31 16.11
-2 4 -1 350.21 11.55
-2 4 -1 350.27 11.62
-2 4 -1 346.62 11.95
2 -4 1 339.15 12.15
2 -4 1 355.97 11.59
2 -4 1 310.28 16.55
2 -4 1 340.42 11.61
-3 4 -1 213.79 8.51
-3 4 -1 234.1 8.24
-3 4 -1 241.27 15.4
-3 4 -1 243.53 8.47
-3 4 -1 230.62 7.93
-3 4 -1 237.46 8.11
3 -4 1 240.04 8
3 -4 1 245.5 8.01
-4 4 -1 6.07 1.3
-4 4 -1 5.12 1.46
-4 4 -1 8.32 0.73
4 -4 1 8.06 0.93
4 -4 1 8.76 0.87
-5 4 -1 2.37 1.8
-5 4 -1 1.49 0.89
-5 4 -1 2.04 2.2
-6 4 -1 1.68 2.58
6 3 -1 2.46 1.73
6 3 -1 2.95 1.49
-6 -3 1 4.37 3.91
-6 -3 1 6.28 1.78
-6 -3 1 1.55 2.47
-6 -3 1 0.7 2.07
5 3 -1 4.13 1.19
5 3 -1 4.34 1.14
-5 -3 1 6.49 1.61
-5 -3 1 7.6 2.1
-5 -3 1 4.38 1.05
4 3 -1 1.37 0.74
4 3 -1 3.02 0.76
-4 -3 1 1.47 1.03
-4 -3 1 2.34 1.2
-4 -3 1 2.24 0.71
3 3 -1 592.1 19.11
3 3 -1 583.04 19.09
3 3 -1 522.47 19.62
3 3 -1 555.35 19.04
-3 -3 1 587.02 19.16
-3 -3 1 587.6 18.91
-3 -3 1 595.36 19.3
-3 -3 1 519.31 19.52
2 3 -1 13.38 0.78
2 3 -1 12.62 0.83
2 3 -1 13.56 0.82
2 3 -1 12.92 0.8
-2 -3 1 12.56 1.02
-2 -3 1 12.5 0.68
-2 -3 1 12.74 0.72
-2 -3 1 14.51 2.7
1 3 -1 142.69 4.8
1 3 -1 138.42 6.1
1 3 -1 140.32 4.78
1 3 -1 139.42 4.71
1 3 -1 143.5 4.85
1 3 -1 140.49 4.81
1 3 -1 142.56 4.9
-1 -3 1 143.68 4.94
-1 -3 1 137.74 4.72
-1 -3 1 134.77 4.74
-1 -3 1 129.88 7.3
-1 -3 1 153.52 4.86
0 3 -1 104.25 3.69
0 3 -1 108.08 3.58
0 3 -1 100.86 3.64
0 3 -1 102.33 3.51
0 3 -1 106.02 3.61
0 3 -1 107.15 5.22
0 -3 1 102.01 3.46
0 -3 1 96.66 5.53
0 -3 1 99.29 3.47
-1 3 -1 5.06 0.42
-1 3 -1 5.3 0.4
-1 3 -1 5.28 0.47
-1 3 -1 4.98 0.58
-1 3 -1 4.77 0.46
-1 3 -1 4.82 1.78
1 -3 1 5.66 1.6
1 -3 1 4.72 0.36
1 -3 1 4.1 0.5
1 -3 1 4 0.35
1 -3 1 4.92 0.37
-2 3 -1 424.86 17.72
-2 3 -1 410.92 13.91
-2 3 -1 406.68 14.29
-2 3 -1 422.47 14.01
-2 3 -1 415.12 14.08
-2 3 -1 438.6 14.21
2 -3 1 432.13 13.95
2 -3 1 407.94 14.26
2 -3 1 419.59 13.9
2 -3 1 414.35 13.95
-3 3 -1 29.5 1.66
-3 3 -1 26.2 5.46
-3 3 -1 28.89 1.63
-3 3 -1 28.37 1.21
-3 3 -1 30.06 1.54
-3 3 -1 28.76 1.7
3 -3 1 19.67 4.38
3 -3 1 29.26 1.33
3 -3 1 29.78 1.23
3 -3 1 27.46 1.71
-4 3 -1 200.3 7.41
-4 3 -1 200.52 7.11
-4 3 -1 191.61 7.28
-4 3 -1 213.71 20.2
-4 3 -1 207.05 6.87
4 -3 1 200.18 6.99
4 -3 1 198.57 6.89
-5 3 -1 -0.09 0.83
-5 3 -1 -1.54 1.43
-5 3 -1 1.75 1.77
5 -3 1 1.21 1.11
-6 3 -1 5.69 2.86
-6 3 -1 8.98 3.57
6 2 -1 6.72 1.46
6 2 -1 8.13 1.71
-6 -2 1 10.98 2.25
-6 -2 1 9.91 2.34
-6 -2 1 8.49 1.56
5 2 -1 150.96 5.76
5 2 -1 153.33 5.63
-5 -2 1 148.18 6.23
-5 -2 1 155.6 6
-5 -2 1 150.71 5.5
4 2 -1 159.43 5.74
4 2 -1 160.9 5.84
-4 -2 1 165.16 5.64
-4 -2 1 160.06 6.07
-4 -2 1 161.36 5.97
3 2 -1 140.18 4.92
3 2 -1 141.24 4.97
3 2 -1 134.32 5.1
3 2 -1 140.53 4.99
-3 -2 1 143.36 4.82
-3 -2 1 150.9 9.11
-3 -2 1 134.39 5.06
-3 -2 1 143.04 5.06
-3 -2 1 141.17 5.15
2 2 -1 1734.78 56.79
2 2 -1 1697.04 56.78
2 2 -1 1687.48 56.74
-2 -2 1 1768.84 59.36
-2 -2 1 1701.67 56.92
-2 -2 1 1719.41 56.67
1 2 -1 1.72 0.22
1 2 -1 1.8 0.61
1 2 -1 1.67 0.82
1 2 -1 1.88 0.25
1 2 -1 2.01 0.33
1 2 -1 1.93 0.26
1 2 -1 1.71 0.23
-1 -2 1 1.96 0.22
-1 -2 1 0.94 0.8
-1 -2 1 2.32 0.2
-1 -2 1 1.82 0.32
-1 -2 1 1.74 1.11
-1 -2 1 1.38 0.2
0 2 -1 224.45 8.34
0 2 -1 219.05 7.24
0 2 -1 212.04 7.2
0 2 -1 213.22 7.16
0 2 -1 204.42 7.18
0 2 -1 209.73 7.1
0 2 -1 210.69 7.1
0 -2 1 222.5 8.43
0 -2 1 213.79 7.08
0 -2 1 207.92 7.07
-1 2 -1 290 9.38
-1 2 -1 272.46 9.38
-1 2 -1 281.01 9.46
-1 2 -1 280.96 9.49
-1 2 -1 281.69 9.55
-1 2 -1 287 11.38
-1 2 -1 283.24 9.6
1 -2 1 287.92 9.4
1 -2 1 273.54 9.58
1 -2 1 313.77 11.18
1 -2 1 279.17 9.41
1 -2 1 272.23 9.38
-2 2 -1 1146.16 38.58
-2 2 -1 1175.51 38.45
-2 2 -1 1159.21 38.67
-2 2 -1 1152.09 38.49
-2 2 -1 1178 38.63
-2 2 -1 1221.84 41.97
2 -2 1 1158.87 38.53
2 -2 1 1174.88 38.54
2 -2 1 1196.97 38.54
2 -2 1 1122.69 38.45
2 -2 1 1142.31 38.79
-3 2 -1 9.62 0.88
-3 2 -1 12.15 4.12
-3 2 -1 9.72 0.71
-3 2 -1 10.88 1.08
-3 2 -1 8.7 0.87
-3 2 -1 10.53 0.86
3 -2 1 9.7 0.84
3 -2 1 10.89 2.45
3 -2 1 10.48 0.68
3 -2 1 11.88 1.02
3 -2 1 10 0.79
-4 2 -1 50.68 2.54
-4 2 -1 48.06 2.43
-4 2 -1 51.17 2.07
-4 2 -1 55.36 11.06
-4 2 -1 53.66 2.59
4 -2 1 54.58 2.18
4 -2 1 51.33 2.03
4 -2 1 51.91 2.24
-5 2 -1 6.63 1.65
-5 2 -1 5.4 1.56
-5 2 -1 6.85 0.91
5 -2 1 6.59 1.15
-6 2 -1 2.85 2.22
-6 2 -1 3.9 2.58
6 -2 1 1.93 2.05
6 1 -1 -0.34 1.44
6 1 -1 2.75 1.4
-6 -1 1 1.03 2.04
-6 -1 1 -0.24 2.47
-6 -1 1 0.82 1.24
5 1 -1 147.28 5.58
5 1 -1 146.83 5.46
-5 -1 1 148.7 5.32
-5 -1 1 153.36 5.82
-5 -1 1 142.37 6
4 1 -1 18.82 1.37
4 1 -1 15.7 1.27
-4 -1 1 19.87 1.57
-4 -1 1 20.27 1.14
-4 -1 1 17.92 1.6
3 1 -1 8.64 0.81
3 1 -1 7.36 0.68
3 1 -1 8.73 0.77
3 1 -1 7.74 0.7
-3 -1 1 8.19 0.96
-3 -1 1 8.08 0.77
-3 -1 1 8.72 0.72
-3 -1 1 8.61 3.11
-3 -1 1 9.04 0.63
2 1 -1 8.33 0.64
2 1 -1 8.79 0.58
2 1 -1 9.4 0.41
2 1 -1 8.62 0.62
2 1 -1 8.37 0.54
-2 -1 1 8.53 0.45
-2 -1 1 8.58 0.54
-2 -1 1 9.56 0.71
1 1 -1 243.89 8.3
1 1 -1 250.72 8.28
1 1 -1 249.41 8.25
1 1 -1 246.6 8.27
1 1 -1 252.18 8.27
-1 -1 1 248.42 8.29
-1 -1 1 251.9 8.33
-1 -1 1 245.63 8.2
-1 -1 1 244.3 8.2
-1 -1 1 253.89 9.08
-1 -1 1 242.61 9.01
0 1 -1 9.45 0.36
0 1 -1 9.15 0.76
0 1 -1 9.66 0.41
0 1 -1 8.88 0.38
0 1 -1 9.42 0.44
0 1 -1 9.1 0.47
0 -1 1 9.62 0.84
0 -1 1 8.9 0.33
0 -1 1 8.64 0.36
-1 1 -1 985.72 32.97
-1 1 -1 1009.77 32.9
-1 1 -1 968.71 32.96
-1 1 -1 983.35 32.94
-1 1 -1 1033.28 32.93
-1 1 -1 1020.93 34.57
1 -1 1 996.12 32.89
1 -1 1 979.88 34.44
1 -1 1 996.24 32.91
1 -1 1 1016.29 32.98
1 -1 1 1025.25 32.91
1 -1 1 952.01 32.91
-2 1 -1 13.99 0.84
-2 1 -1 12.09 2.41
-2 1 -1 14.21 0.82
-2 1 -1 16.79 0.69
-2 1 -1 14.05 0.84
-2 1 -1 15.33 0.85
-2 1 -1 14.29 0.69
2 -1 1 14.95 0.74
2 -1 1 15.87 0.76
2 -1 1 15.3 0.86
2 -1 1 14.12 0.64
2 -1 1 16.07 0.69
-3 1 -1 9.1 0.83
-3 1 -1 9.84 0.68
-3 1 -1 7.57 0.75
-3 1 -1 5.93 3.88
-3 1 -1 10.1 0.92
-3 1 -1 7.69 0.76
-3 1 -1 8.36 0.97
3 -1 1 8.46 0.62
3 -1 1 8.77 0.77
3 -1 1 9.24 0.81
3 -1 1 10.11 0.96
-4 1 -1 125.71 4.8
-4 1 -1 126.16 14.63
-4 1 -1 128.73 4.71
-4 1 -1 126.39 4.82
-4 1 -1 127.38 5.22
-4 1 -1 112.31 5.26
-4 1 -1 126.1 4.46
4 -1 1 133.06 4.5
4 -1 1 125.23 4.61
4 -1 1 130.34 4.55
-5 1 -1 73.93 3.58
-5 1 -1 68.25 3.39
-5 1 -1 70.86 3.56
-5 1 -1 71.31 2.92
5 -1 1 69.38 2.77
5 -1 1 72.75 2.97
5 -1 1 72.12 3.14
-6 1 -1 2.94 2.83
-6 1 -1 2.77 3.44
6 -1 1 1.67 1.56
6 0 -1 17.64 1.77
6 0 -1 19.23 1.6
-6 0 1 19.48 2.46
-6 0 1 20.07 1.47
-6 0 1 18.09 2.39
5 0 -1 158.39 5.9
5 0 -1 165.87 5.8
-5 0 1 162.01 6.17
-5 0 1 159.44 5.63
-5 0 1 145.4 6.26
-5 0 1 160.39 6.1
4 0 -1 86.86 3.24
4 0 -1 85.25 3.32
-4 0 1 83.02 3.1
-4 0 1 84.94 3.44
-4 0 1 86.23 3.67
3 0 -1 38.24 1.61
3 0 -1 35.8 1.54
3 0 -1 36.9 1.58
3 0 -1 35.85 1.36
-3 0 1 33.78 1.63
-3 0 1 37.76 4.89
-3 0 1 35.7 1.4
-3 0 1 36.58 1.64
-3 0 1 37.21 1.68
2 0 -1 222.7 7.69
2 0 -1 229.33 7.8
2 0 -1 228.49 7.86
2 0 -1 228.39 7.77
2 0 -1 238.64 7.8
-2 0 1 236.78 7.69
-2 0 1 228.65 9.41
-2 0 1 236.49 7.83
-2 0 1 232.49 7.82
1 0 -1 888.63 28.84
1 0 -1 876.95 28.84
1 0 -1 862.53 28.85
-1 0 1 865 28.87
0 0 -1 1.27 0.09
0 0 -1 1.28 0.13
0 0 -1 1.33 0.13
0 0 -1 1.35 0.14
0 0 -1 1.27 0.1
0 0 1 1.13 0.09
-2 0 -1 197.13 6.75
-2 0 -1 224.13 10.36
-2 0 -1 204.13 6.77
-2 0 -1 208.08 6.88
-2 0 -1 209.13 6.92
-2 0 -1 188.6 6.98
2 0 1 195.77 7
2 0 1 214.02 6.81
2 0 1 201.77 6.82
2 0 1 194.37 8.86
2 0 1 195.73 6.73
2 0 1 197.74 6.77
-3 0 -1 35.29 1.4
-3 0 -1 36.88 1.65
-3 0 -1 32.49 1.63
-3 0 -1 33.91 1.4
3 0 1 36.09 1.75
3 0 1 33.11 1.36
3 0 1 35.79 1.48
3 0 1 35.31 1.52
-4 0 -1 52.85 2.6
-4 0 -1 40.98 9.05
-4 0 -1 55.77 2.55
-4 0 -1 53.36 2.25
-4 0 -1 54.59 2.62
-4 0 -1 53.51 2.17
-4 0 -1 54.71 2.51
4 0 1 55.89 2.26
4 0 1 56.47 2.36
4 0 1 52.62 2.06
-5 0 -1 1343.24 44.12
-5 0 -1 1323.76 44.65
-5 0 -1 1358.32 44.56
-5 0 -1 1299.54 44.36
-5 0 -1 1342.09 44.52
5 0 1 1326.42 44.22
5 0 1 1314.33 44.32
-6 0 -1 13.14 2.87
-6 0 -1 6.97 2.54
6 0 1 8.08 1.67
6 0 1 5.25 1.36
6 -1 -1 252.04 9.13
6 -1 -1 249.07 8.99
-6 1 1 267.74 9.66
-6 1 1 251.86 9.65
-6 1 1 253.98 8.85
5 -1 -1 496.41 16.66
5 -1 -1 482.03 16.55
-5 1 1 491.07 16.43
-5 1 1 484.51 16.81
-5 1 1 489.83 16.92
4 -1 -1 2.54 0.61
4 -1 -1 3.2 0.72
-4 1 1 2.37 0.89
-4 1 1 3.82 1.03
-4 1 1 2 0.9
-4 1 1 3.34 0.53
3 -1 -1 2.96 0.43
3 -1 -1 3.13 0.5
3 -1 -1 3.21 0.5
-3 1 1 2.69 0.36
-3 1 1 4.52 0.61
-3 1 1 4.52 2.66
-3 1 1 3.33 0.6
-3 1 1 3.26 0.54
2 -1 -1 312.24 10.8
2 -1 -1 329.74 10.86
2 -1 -1 310.65 10.94
2 -1 -1 321.98 10.89
-2 1 1 365.02 13.55
-2 1 1 330.79 10.88
-2 1 1 322.68 10.88
-2 1 1 315.3 10.78
0 -1 -1 1621.49 50.3
0 -1 -1 1509.61 50.25
0 -1 -1 1526.56 50.26
0 -1 -1 1541.83 50.23
0 -1 -1 1486.05 50.22
0 -1 -1 1458.2 50.23
0 1 1 1565.73 50.22
0 1 1 1557.07 50.27
0 1 1 1446.93 50.23
0 1 1 1533.03 50.25
-2 -1 -1 178.93 5.81
-2 -1 -1 173.54 5.91
-2 -1 -1 179.81 8.41
-2 -1 -1 164.81 6
-2 -1 -1 175.11 5.96
-2 -1 -1 170.69 5.79
2 1 1 173.08 8.02
2 1 1 174.15 5.86
2 1 1 159.29 6.02
2 1 1 169.16 5.78
2 1 1 179.38 5.83
2 1 1 170.29 5.76
-3 -1 -1 54.6 2.41
-3 -1 -1 58.17 2.16
-3 -1 -1 53.14 2.42
-3 -1 -1 60.67 2.4
-3 -1 -1 54.61 6.22
3 1 1 59.81 5.03
3 1 1 64.11 5.12
3 1 1 57.27 2.11
3 1 1 59.98 2.55
3 1 1 60.52 2.23
3 1 1 59.88 2.29
-4 -1 -1 -8.05 8.34
-4 -1 -1 5.6 1.13
-4 -1 -1 7.91 0.97
-4 -1 -1 5.88 0.77
-4 -1 -1 6.02 1.03
-4 -1 -1 4.52 0.69
4 1 1 7.41 0.8
4 1 1 6.81 0.63
4 1 1 6.46 0.87
-5 -1 -1 363.08 12.79
-5 -1 -1 355.21 12.12
-5 -1 -1 356.22 12.51
-5 -1 -1 351.95 12.56
5 1 1 359.72 12.36
5 1 1 349.85 12.21
-6 -1 -1 65.18 4.42
-6 -1 -1 64.34 4.8
6 1 1 54.46 4.22
6 1 1 80.82 4.26
6 -2 -1 16.98 2.51
-6 2 1 20.64 3.54
-6 2 1 22.13 1.7
5 -2 -1 553.31 19.01
5 -2 -1 569.3 18.93
-5 2 1 555.65 19.22
-5 2 1 576.18 19.37
-5 2 1 552.34 18.79
4 -2 -1 89.58 3.39
4 -2 -1 89.54 3.47
-4 2 1 89.53 3.74
-4 2 1 92.68 3.27
-4 2 1 91.79 3.64
3 -2 -1 465.94 15.53
3 -2 -1 469.95 15.49
3 -2 -1 456.93 15.67
-3 2 1 470.26 15.51
-3 2 1 427.4 15.76
-3 2 1 472.44 15.55
-3 2 1 470.5 15.4
-3 2 1 466.72 15.65
-3 2 1 466.27 15.44
2 -2 -1 470.8 15.41
2 -2 -1 458.51 15.54
2 -2 -1 471.51 15.44
-2 2 1 466.41 15.37
-2 2 1 458.18 15.5
-2 2 1 458.45 15.34
-2 2 1 458.12 15.6
-2 2 1 454.73 17.46
-2 2 1 471.17 15.52
1 -2 -1 16.96 0.68
1 -2 -1 17.98 0.73
-1 2 1 16.23 1.7
-1 2 1 18.33 0.81
-1 2 1 17.13 0.71
-1 2 1 17.26 0.82
-1 2 1 17.5 0.65
0 -2 -1 1001.83 32.2
0 -2 -1 1016.97 32.21
0 -2 -1 828.19 32.18
0 -2 -1 967.43 32.17
0 2 1 1004.91 32.2
0 2 1 1001.05 32.23
0 2 1 978.92 32.21
0 2 1 1004.32 32.19
-1 -2 -1 3699.97 119.33
-1 -2 -1 3663.23 119.38
1 2 1 3500 119.3
-2 -2 -1 354.46 12.18
-2 -2 -1 374.33 12.35
-2 -2 -1 344.66 12.33
-2 -2 -1 394.68 15.08
-2 -2 -1 361.79 12.25
-2 -2 -1 368.97 12.14
2 2 1 373.16 12.21
2 2 1 366.73 12.16
2 2 1 367.98 12.21
2 2 1 357.75 14.86
2 2 1 361.99 12.11
2 2 1 353.92 12.41
2 2 1 361.01 12.1
-3 -2 -1 430.65 14.05
-3 -2 -1 413.83 14.34
-3 -2 -1 410.8 14.36
-3 -2 -1 435.33 18.72
-3 -2 -1 419.88 14.24
3 2 1 422.85 14.1
3 2 1 404.26 13.97
3 2 1 413.35 14.49
3 2 1 435.17 14.18
-4 -2 -1 36.27 1.76
-4 -2 -1 35.62 1.71
-4 -2 -1 26.85 8.83
-4 -2 -1 33.92 2.13
-4 -2 -1 38.06 2.26
4 2 1 34.94 1.78
4 2 1 35 1.87
-5 -2 -1 6.38 1.2
-5 -2 -1 6.66 1.63
-5 -2 -1 6.73 1.9
-5 -2 -1 7.75 1.61
5 2 1 9.15 1.27
5 2 1 8.04 1.13
-6 -2 -1 33.25 3.27
-6 -2 -1 29.68 2.93
6 2 1 30.08 2.73
6 2 1 31.5 3.09
-6 3 1 96.16 5.95
-6 3 1 75.96 4.12
5 -3 -1 27.74 1.94
-5 3 1 28.33 2.64
-5 3 1 29.12 1.58
-5 3 1 31.51 2.89
4 -3 -1 171.02 5.94
4 -3 -1 173.09 6.14
-4 3 1 173.31 6.32
-4 3 1 173.92 6.48
-4 3 1 174.06 5.95
3 -3 -1 339.61 11.3
3 -3 -1 327.11 11.08
3 -3 -1 323.7 10.96
-3 3 1 327.36 10.95
-3 3 1 333.96 11.29
-3 3 1 331.16 11.13
-3 3 1 336.89 15.88
-3 3 1 305.7 11.4
2 -3 -1 67.58 2.45
2 -3 -1 69.8 2.37
-2 3 1 67.9 2.47
-2 3 1 62.29 4.71
-2 3 1 65.82 2.6
-2 3 1 65.97 2.64
-2 3 1 68.71 2.37
-2 3 1 68.75 2.34
1 -3 -1 2778.92 95.4
1 -3 -1 2778.58 95.35
1 -3 -1 2961.78 95.43
-1 3 1 2865.41 95.36
-1 3 1 3015.52 97.71
-1 3 1 2808.29 95.53
-1 3 1 3049.8 95.36
0 -3 -1 1011.23 33.96
0 -3 -1 1034.77 34
0 -3 -1 1050.17 34.02
0 3 1 981.93 36.29
0 3 1 1030.85 34.01
0 3 1 1028.9 34.06
0 3 1 1062.67 33.99
-1 -3 -1 619.02 20.41
-1 -3 -1 597.03 20.3
-1 -3 -1 622.35 20.29
-1 -3 -1 606.65 20.25
1 3 1 642.16 20.25
1 3 1 606.38 22.69
1 3 1 629.9 20.29
1 3 1 594.33 20.46
1 3 1 621.83 20.27
1 3 1 580.36 22.97
1 3 1 606.06 20.29
-2 -3 -1 275.14 9.29
-2 -3 -1 297.73 12.4
-2 -3 -1 270.15 9.05
-2 -3 -1 270.17 9.04
-2 -3 -1 281.37 9.25
2 3 1 257.08 9.34
2 3 1 240.89 12
2 3 1 257.37 12.15
2 3 1 264.41 9.08
2 3 1 274.78 9.11
2 3 1 261.94 9.2
2 3 1 267.92 8.98
2 3 1 283.24 9.07
2 3 1 263.87 8.98
-3 -3 -1 4.33 4.1
-3 -3 -1 1.77 0.6
-3 -3 -1 0.21 0.65
-3 -3 -1 -0.32 0.67
-3 -3 -1 0.39 0.74
-3 -3 -1 0 0.38
3 3 1 2.12 3.32
3 3 1 0.32 0.53
3 3 1 -0.19 0.72
3 3 1 -0.04 0.51
-4 -3 -1 24.58 2.18
-4 -3 -1 22.98 1.62
-4 -3 -1 22.36 1.94
-4 -3 -1 24.65 1.5
4 3 1 26.33 1.56
4 3 1 26 1.68
-5 -3 -1 6.02 2.21
-5 -3 -1 7.02 1.41
-5 -3 -1 4.07 1.28
-5 -3 -1 6.62 1.88
-5 -3 -1 5.57 1.83
5 3 1 4.96 1.14
5 3 1 6.21 1.3
-6 -3 -1 1.76 2.37
-6 -3 -1 6.76 4.4
6 3 1 1.17 1.73
6 3 1 2.46 1.53
6 -4 -1 0.23 1.61
-6 4 1 0.32 1.12
-6 4 1 -1.83 2.41
5 -4 -1 143.51 5.38
-5 4 1 144.13 6.14
-5 4 1 148.16 5.32
4 -4 -1 6.91 0.86
4 -4 -1 9.25 0.85
-4 4 1 7.82 0.93
-4 4 1 7.03 2.4
-4 4 1 7.72 1.43
3 -4 -1 79.01 2.73
3 -4 -1 64.97 3.18
-3 4 1 77.34 3.22
-3 4 1 76.52 2.67
2 -4 -1 947.73 30.76
2 -4 -1 932.83 30.73
-2 4 1 903.61 30.67
-2 4 1 927.82 30.99
-2 4 1 904.6 31.09
-2 4 1 970.25 34.54
-2 4 1 911.99 30.73
1 -4 -1 8.99 0.58
1 -4 -1 9.78 0.59
-1 4 1 9.13 0.68
-1 4 1 10.14 2.27
-1 4 1 9.29 0.97
-1 4 1 8.86 0.62
-1 4 1 9.25 0.48
-1 4 1 9.25 0.84
-1 4 1 9.61 0.63
0 -4 -1 11.79 0.72
0 -4 -1 7.05 0.49
0 -4 -1 7.9 0.69
0 -4 -1 7.45 0.57
0 4 1 8.03 0.76
0 4 1 7.73 2.25
0 4 1 8.3 0.55
0 4 1 9.46 0.69
-1 -4 -1 5.01 0.6
-1 -4 -1 7.8 0.73
-1 -4 -1 4.69 0.48
-1 -4 -1 5.52 0.53
-1 -4 -1 5.48 0.44
1 4 1 5.08 2.88
1 4 1 5.09 0.44
1 4 1 4.71 0.42
1 4 1 6.63 0.51
1 4 1 5.44 0.64
1 4 1 3.87 1.83
-2 -4 -1 42.44 1.74
-2 -4 -1 40.83 1.99
-2 -4 -1 40.37 1.87
-2 -4 -1 43.49 1.75
-2 -4 -1 43.31 1.77
2 4 1 40.74 1.67
2 4 1 42.41 1.69
2 4 1 41.38 1.64
2 4 1 41.02 1.73
2 4 1 36.31 5.31
2 4 1 44.15 1.72
2 4 1 39.07 2
-3 -4 -1 113.23 4.17
-3 -4 -1 114.99 4.21
-3 -4 -1 109.84 4.53
-3 -4 -1 117.12 4.4
3 4 1 116.96 4.18
3 4 1 115.34 4.27
3 4 1 119.51 4.41
3 4 1 114.59 8.34
-4 -4 -1 91.45 3.94
-4 -4 -1 90.19 4.19
-4 -4 -1 90.07 3.6
4 4 1 91.03 3.69
4 4 1 85.73 3.55
-5 -4 -1 33.4 3.6
-5 -4 -1 34.61 2.43
-5 -4 -1 33.72 3.01
5 4 1 34.6 2.34
5 4 1 38.23 2.53
-6 -4 -1 1.04 3.58
6 4 1 2.25 2.67
6 4 1 2.39 1.76
-6 5 1 19.93 3.1
-6 5 1 22.1 2.05
-6 5 1 26.8 2.09
5 -5 -1 83.58 3.48
-5 5 1 79.45 3.19
-5 5 1 83.88 3.5
-5 5 1 83.97 4.61
4 -5 -1 0.75 0.76
4 -5 -1 1.04 0.89
-4 5 1 0.21 0.53
-4 5 1 1.43 1.37
3 -5 -1 101.69 3.53
3 -5 -1 100.84 3.56
-3 5 1 92.88 4.11
-3 5 1 89.77 3.4
-3 5 1 100.55 3.6
2 -5 -1 266.28 9.01
-2 5 1 261.43 9.05
-2 5 1 279.34 13.76
-2 5 1 267.89 9.39
-2 5 1 270.07 9.22
-2 5 1 258.05 9.44
-2 5 1 267.75 8.91
1 -5 -1 45.97 1.83
1 -5 -1 48.58 1.89
-1 5 1 47.92 2.11
-1 5 1 57.09 2.39
-1 5 1 49.63 1.9
-1 5 1 48.41 2.22
-1 5 1 55.2 6.8
-1 5 1 49.95 2.06
0 -5 -1 393.38 13.34
0 -5 -1 395.5 13.38
0 5 1 404.45 13.33
0 5 1 411.94 13.45
0 5 1 384.74 13.53
0 5 1 407.81 17
0 5 1 395.79 13.34
-1 -5 -1 81.81 3.28
-1 -5 -1 79.23 2.8
-1 -5 -1 75.87 2.79
-1 -5 -1 77.36 2.84
-1 -5 -1 77.34 2.85
1 5 1 78.65 8.42
1 5 1 72.23 6.3
1 5 1 68.33 3.03
1 5 1 73.41 2.75
1 5 1 72.45 2.63
1 5 1 74.64 2.73
1 5 1 75.51 2.85
-2 -5 -1 34.59 1.76
-2 -5 -1 35.98 1.72
-2 -5 -1 38.32 1.9
-2 -5 -1 36.56 2.04
2 5 1 35.46 5.45
2 5 1 37.64 1.61
2 5 1 35.29 1.66
2 5 1 36.02 1.64
-3 -5 -1 1.3 1.08
-3 -5 -1 2.55 0.95
-3 -5 -1 1.84 1.1
-3 -5 -1 1.68 0.55
3 5 1 1.06 0.77
3 5 1 1.18 0.68
3 5 1 3.34 5.34
3 5 1 1.19 0.69
-4 -5 -1 54.94 3.51
-4 -5 -1 49.9 3.53
-4 -5 -1 59.66 3.19
4 5 1 59.8 2.69
4 5 1 56.27 2.76
-5 -5 -1 8.08 1.57
-5 -5 -1 8.3 2.08
-5 -5 -1 7.99 2.83
5 5 1 8.32 1.51
5 5 1 10.67 1.56
-6 -5 -1 1.55 3.19
6 5 1 1.99 3.76
6 5 1 1.27 2.04
-6 6 1 0.44 6.12
-5 6 1 21.83 2.85
-5 6 1 20.54 1.54
-5 6 1 21.14 1.81
4 -6 -1 20.04 1.63
-4 6 1 18.52 2.24
-4 6 1 18.59 1.19
-4 6 1 18.32 1.61
3 -6 -1 3.52 0.73
-3 6 1 2.97 0.47
-3 6 1 2.3 1.35
-3 6 1 3.82 1.29
-3 6 1 4.17 0.73
2 -6 -1 58.84 2.33
-2 6 1 60.68 2.9
-2 6 1 61.57 9.63
-2 6 1 57.26 2.68
-2 6 1 59.05 2.36
1 -6 -1 -0.69 0.47
1 -6 -1 1.26 0.59
-1 6 1 0 0.42
-1 6 1 0.28 0.69
-1 6 1 -2.56 3.73
-1 6 1 0.4 0.77
-1 6 1 0.44 0.46
0 -6 -1 333.55 11.17
0 -6 -1 328.52 11.15
0 6 1 325.94 15.36
0 6 1 326.43 11.51
0 6 1 327.52 11.09
0 6 1 316.56 10.96
0 6 1 327.9 15.7
0 6 1 350.15 11.38
-1 -6 -1 1.63 0.34
-1 -6 -1 2.79 0.65
-1 -6 -1 1.1 0.94
-1 -6 -1 1.72 0.93
1 6 1 2.9 0.62
1 6 1 3.63 0.57
1 6 1 2.57 0.49
1 6 1 2.39 0.46
-2 -6 -1 17.82 1.15
-2 -6 -1 18.93 1.88
-2 -6 -1 20.7 1.46
-2 -6 -1 15.78 1.52
-2 -6 -1 17.96 1.72
2 6 1 17.81 1.23
2 6 1 13.25 5.85
2 6 1 18.33 1.33
2 6 1 20.21 1.22
-3 -6 -1 -0.14 1.3
-3 -6 -1 -0.9 1.44
3 6 1 -0.27 0.9
3 6 1 0.11 0.81
3 6 1 0.28 0.8
-4 -6 -1 14.78 2.37
-4 -6 -1 18.25 2.1
4 6 1 15.52 1.53
4 6 1 20.85 1.87
-5 -6 -1 8.09 3.43
-5 -6 -1 9.72 2.93
5 6 1 9.25 2.4
-5 7 1 18.59 3.01
-5 7 1 12.28 1.65
4 -7 -1 23.97 1.96
-4 7 1 28.17 2.69
-4 7 1 23.93 1.91
3 -7 -1 22.86 1.57
-3 7 1 19.98 2.04
-3 7 1 23.22 1.52
2 -7 -1 127.12 4.61
-2 7 1 125.35 5.38
-2 7 1 120.6 5.02
-2 7 1 119.23 4.48
1 -7 -1 54.73 2.24
-1 7 1 77.39 11.52
-1 7 1 50.57 2.17
-1 7 1 51.28 2.31
-1 7 1 52.86 3.38
-1 7 1 53.97 2.65
0 -7 -1 43.4 1.97
0 7 1 44.24 1.67
0 7 1 44.02 1.88
0 7 1 42.75 2.27
0 7 1 35.07 7.14
0 7 1 42.4 1.91
-1 -7 -1 104.79 4.11
-1 -7 -1 120.07 4.65
1 7 1 106.6 3.98
1 7 1 107.8 4.04
-2 -7 -1 88.63 4
-2 -7 -1 85.22 3.54
-2 -7 -1 86.62 3.59
2 7 1 86.94 3.38
2 7 1 86.72 3.43
2 7 1 85.12 3.44
-3 -7 -1 -3.68 1.78
-3 -7 -1 -0.58 1.9
3 7 1 0.92 1.14
3 7 1 -0.59 0.95
3 7 1 -1.69 0.93
-4 -7 -1 56.29 2.93
-4 -7 -1 52.97 3.97
-4 -7 -1 55.48 4.54
4 7 1 56.93 3.02
4 7 1 53.69 2.98
-5 -7 -1 -0.58 1.99
5 7 1 0.52 1.63
5 7 1 1.5 1.9
-5 8 1 7.79 3.32
-5 8 1 14.58 2.08
4 -8 -1 16.65 2.58
-4 8 1 13.47 2.39
3 -8 -1 254.07 9.03
-3 8 1 261.4 9.03
2 -8 -1 2.44 0.85
-2 8 1 -0.6 1.45
-2 8 1 1.47 0.79
1 -8 -1 2.2 0.87
-1 8 1 1.18 0.47
-1 8 1 1.87 1.25
-1 8 1 1.89 0.67
0 -8 -1 12.83 1.18
0 -8 -1 9.5 1.14
0 8 1 11.94 1.02
-1 -8 -1 25.43 1.92
1 8 1 24.93 1.57
1 8 1 25.22 2.31
1 8 1 26.07 1.58
1 8 1 24.74 3.42
-2 -8 -1 43.48 2.79
-2 -8 -1 45.36 3.46
2 8 1 41.97 2.22
2 8 1 40.37 2.48
2 8 1 43.96 2.27
2 8 1 43.39 2.28
-3 -8 -1 93.86 5.34
-3 -8 -1 98.67 4.04
3 8 1 96.98 4.22
3 8 1 95.28 4.14
3 8 1 101.21 4.07
-4 -8 -1 17.84 1.96
-4 -8 -1 11.62 4
4 8 1 19.15 1.89
4 8 1 15.03 1.78
-5 -8 -1 7.06 2.44
5 8 1 7.41 2.22
5 8 1 5.05 2.75
4 -9 -1 34.04 3.21
-4 9 1 43.93 4.14
-4 9 1 35.83 2.66
3 -9 -1 3.12 1.38
-3 9 1 4.25 1.18
-3 9 1 2.46 2.21
2 -9 -1 48.81 2.67
-2 9 1 51.98 2.49
1 -9 -1 63.75 2.96
-1 9 1 60.16 2.75
0 -9 -1 4.76 1.25
0 9 1 4.6 0.92
0 9 1 6.97 0.99
-1 -9 -1 129.55 5.11
-1 -9 -1 138.47 4.97
1 9 1 112.06 5.49
1 9 1 130.2 4.83
-2 -9 -1 39.78 2.5
2 9 1 37.9 2.34
2 9 1 39.72 2.46
2 9 1 41.21 2.42
-3 -9 -1 12.13 1.67
3 9 1 13.26 1.68
3 9 1 12.81 1.74
-4 -9 -1 2.98 2.03
4 9 1 2.39 1.84
4 9 1 2.61 2.04
3 -10 -1 48.68 3.54
-3 10 1 57.89 4.42
2 -10 -1 19.6 1.85
-2 10 1 16.82 1.52
1 -10 -1 190.71 7.09
-1 10 1 184.7 6.88
-1 10 1 192.6 6.87
0 -10 -1 132.68 5.4
0 10 1 131.54 5.13
0 10 1 135.98 5.06
-1 -10 -1 1.92 2
-1 -10 -1 -1.19 1.81
1 10 1 1.38 1.2
1 10 1 1.7 1.24
-2 -10 -1 74.5 3.69
2 10 1 63.75 3.61
2 10 1 74.5 3.65
-3 -10 -1 8.94 2.12
3 10 1 9.66 2.01
3 10 1 8.74 2.01
2 -11 -1 5.83 1.95
-2 11 1 5.26 1.63
-2 11 1 6.97 1.6
1 -11 -1 50.39 3.47
-1 11 1 48.69 2.83
-1 11 1 48.07 2.94
0 -11 -1 60.71 3.93
0 11 1 65.97 3.3
0 11 1 63.19 3.31
1 11 1 246.96 9.16
1 11 1 263.37 9.35
2 11 1 -0.44 2.48
2 11 -2 0.9 1.74
1 11 -2 -0.41 1.74
0 11 -2 3.94 1.7
0 11 -2 2.46 1.32
0 -11 2 4.19 2.17
-1 11 -2 3.24 2.62
-1 11 -2 1.33 1.23
1 -11 2 1.63 1.93
-2 11 -2 6.44 1.53
2 -11 2 4.56 1.92
3 10 -2 31.61 2.9
3 10 -2 29.35 2.67
2 10 -2 225.8 8.54
1 10 -2 27.51 2.49
1 10 -2 33.17 3.56
1 10 -2 27.01 2.34
1 10 -2 29.5 2.15
0 10 -2 2.93 0.99
0 10 -2 3.35 1.28
0 10 -2 3.64 1.4
0 -10 2 1.96 1.55
-1 10 -2 163.13 6.22
-1 10 -2 163.8 6.08
-1 10 -2 161.94 6.03
1 -10 2 165.12 6.1
-2 10 -2 27.81 2.38
2 -10 2 29.78 2.24
3 -10 2 230.16 9.06
4 9 -2 47.37 3.46
4 9 -2 43.82 3.3
4 9 -2 45.34 3.7
3 9 -2 22.45 1.83
3 9 -2 27.76 2.69
3 9 -2 20.8 2.05
2 9 -2 31.64 2.11
2 9 -2 30.73 2.25
2 9 -2 30.5 2.8
2 9 -2 35.87 2.55
-2 -9 2 27.33 3.41
1 9 -2 168.42 6.24
1 9 -2 165.64 6.24
1 9 -2 166.52 6.3
1 9 -2 174.48 7.36
-1 -9 2 171.56 6.32
0 9 -2 33.32 2.06
0 9 -2 33.34 2.56
0 9 -2 34.71 1.91
0 9 -2 34.13 2.03
0 -9 2 32.8 2.03
-1 9 -2 229.6 7.91
-1 9 -2 226.34 8.08
1 -9 2 217.63 7.89
-2 9 -2 25.43 2.27
-2 9 -2 27.57 2.05
-2 9 -2 26.37 2.44
2 -9 2 26.6 1.83
-3 9 -2 10.94 1.48
-3 9 -2 9.34 2.15
-3 9 -2 5.74 2
3 -9 2 12.87 1.38
-4 9 -2 67.3 4.98
4 -9 2 73.5 3.5
5 8 -2 -0.23 1.97
5 8 -2 1.95 2.33
-5 -8 2 -1.61 4.06
-5 -8 2 -1.53 2.19
4 8 -2 194.27 7.47
4 8 -2 143.06 6.89
-4 -8 2 161.64 8.01
-4 -8 2 175.46 7.44
3 8 -2 3.05 1.18
3 8 -2 1.91 1.27
3 8 -2 2.72 1.34
3 8 -2 3.81 1.23
-3 -8 2 2.87 2.53
-3 -8 2 1.85 2.11
-3 -8 2 3.01 1.79
2 8 -2 146.38 5.58
2 8 -2 149.27 5.51
2 8 -2 148.9 5.96
2 8 -2 146.35 5.58
-2 -8 2 144.44 6.26
-2 -8 2 160.46 5.92
-2 -8 2 153.34 5.62
1 8 -2 70.69 2.99
1 8 -2 72.49 3
1 8 -2 72.16 2.94
1 8 -2 74.43 3.36
1 8 -2 68.56 2.99
-1 -8 2 72.62 3.77
-1 -8 2 69.51 3.05
-1 -8 2 75.09 3.14
0 8 -2 303.37 11.22
0 8 -2 311.38 10.73
0 8 -2 309.96 10.64
0 8 -2 308.88 10.66
0 -8 2 319.19 10.67
-1 8 -2 2.64 0.79
-1 8 -2 2.94 1.16
-1 8 -2 3.44 1.02
-1 8 -2 3.99 1.2
-1 8 -2 1.91 0.96
1 -8 2 1.79 0.67
-2 8 -2 532.03 18.31
-2 8 -2 552.69 18.88
-2 8 -2 549.65 18.66
2 -8 2 544.2 18.32
-3 8 -2 77.65 4.23
-3 8 -2 83.39 3.42
-3 8 -2 75.93 4.41
3 -8 2 75.32 3.17
-4 8 -2 17.2 2.57
-4 8 -2 23.15 2.72
4 -8 2 21.19 1.93
-5 8 -2 -0.1 2.89
5 -8 2 0.97 2
5 7 -2 46.12 3.8
5 7 -2 64.31 5.34
-5 -7 2 49.51 4.38
4 7 -2 98.76 4.28
4 7 -2 105.34 4.4
4 7 -2 100.23 4.32
4 7 -2 96.09 4.23
-4 -7 2 98.04 4.8
-4 -7 2 104.04 4.52
-4 -7 2 99.83 5.52
3 7 -2 0.89 0.93
3 7 -2 -0.7 1.01
3 7 -2 0.14 1.03
3 7 -2 0.71 0.72
-3 -7 2 -1.73 1.15
-3 -7 2 2.03 1.86
-3 -7 2 0.73 1.55
2 7 -2 55.47 2.62
2 7 -2 52.84 2.46
2 7 -2 53.92 2.44
2 7 -2 53 2.38
2 7 -2 56.81 2.63
-2 -7 2 54.45 2.43
-2 -7 2 52.82 4.03
1 7 -2 1.68 0.65
1 7 -2 2.67 0.7
1 7 -2 2 0.59
1 7 -2 2.93 0.68
1 7 -2 1.84 0.7
-1 -7 2 1.76 1.26
-1 -7 2 2.77 0.79
0 7 -2 43.76 1.91
0 7 -2 42.5 2.07
0 7 -2 45.6 2.06
0 7 -2 41.51 2.21
0 -7 2 45.56 2.41
0 -7 2 44.89 1.86
0 -7 2 46.05 2.02
-1 7 -2 178.19 6.39
-1 7 -2 167.07 6.18
-1 7 -2 174.5 6.52
-1 7 -2 157.23 6.59
-1 7 -2 169.47 5.91
1 -7 2 168.82 5.88
-2 7 -2 41.65 2.46
-2 7 -2 42.24 2.57
-2 7 -2 42.3 2.37
-2 7 -2 41.3 1.87
2 -7 2 40.37 1.81
-3 7 -2 52.83 3.34
-3 7 -2 50.58 2.35
-3 7 -2 52.22 3.04
3 -7 2 51.09 2.22
-4 7 -2 72.64 4.33
-4 7 -2 72.64 4.04
4 -7 2 71.86 2.99
-5 7 -2 28.01 3.08
-5 7 -2 41.06 3.42
5 -7 2 25.78 2.36
5 6 -2 -1.28 1.43
5 6 -2 -0.07 1.58
-5 -6 2 -0.9 2.42
-5 -6 2 0.1 3.35
4 6 -2 33.26 2.77
4 6 -2 32.77 2.4
4 6 -2 34.19 2.22
-4 -6 2 32.45 2.36
-4 -6 2 25.04 3
-4 -6 2 33.69 2.79
3 6 -2 1.64 0.9
3 6 -2 3.34 0.86
3 6 -2 2.53 1.04
-3 -6 2 1.57 1.45
-3 -6 2 0.54 1.47
-3 -6 2 3.28 1.21
2 6 -2 115.81 4.24
2 6 -2 115.94 4.19
2 6 -2 108.85 4.24
2 6 -2 113 4.23
-2 -6 2 116.57 4.12
-2 -6 2 119.29 4.67
1 6 -2 265.64 9.13
1 6 -2 278.43 9.46
1 6 -2 270.6 9.08
1 6 -2 260.85 9.06
1 6 -2 253.42 11.26
1 6 -2 270.7 9.11
1 6 -2 264.35 9.19
-1 -6 2 266.37 9.02
-1 -6 2 271.8 9.02
-1 -6 2 263.82 9.35
0 6 -2 13.71 0.91
0 6 -2 13.38 1.14
0 6 -2 11.46 1.07
0 6 -2 12.92 1.02
0 6 -2 8.82 4
0 -6 2 12.21 5.78
0 -6 2 13.78 0.81
0 -6 2 14 0.98
0 -6 2 12.86 1.35
-1 6 -2 3.02 5.84
-1 6 -2 3.14 0.97
-1 6 -2 5.43 0.82
-1 6 -2 3.8 0.62
-1 6 -2 4.3 0.55
1 -6 2 3.45 0.65
-2 6 -2 15.99 1.37
-2 6 -2 12.6 1.19
-2 6 -2 12.06 1.41
-2 6 -2 15.52 1.38
-2 6 -2 13.85 1.21
-3 6 -2 27.53 2.21
-3 6 -2 27.71 2.48
-3 6 -2 28.45 1.53
-4 6 -2 154.26 6.66
-4 6 -2 162.05 5.76
-5 6 -2 187.82 8.06
-5 6 -2 165.78 7.93
5 -6 2 206.55 6.83
-6 6 -2 -0.79 3.38
-6 6 -2 6.96 3.4
6 5 -2 1.26 2
6 5 -2 2.09 1.79
-6 -5 2 0.67 2.67
5 5 -2 50.94 2.82
5 5 -2 47.98 2.9
-5 -5 2 49.95 2.95
-5 -5 2 45.14 3.43
-5 -5 2 42.09 4.22
4 5 -2 7.48 1.14
4 5 -2 4.89 1.11
4 5 -2 6.79 1.06
-4 -5 2 5.86 1.53
-4 -5 2 4.07 1.72
-4 -5 2 5.75 1.07
3 5 -2 114.47 4.26
3 5 -2 107.17 4.23
3 5 -2 114.43 4.18
-3 -5 2 112.34 4.42
-3 -5 2 110.56 4.06
-3 -5 2 115.79 4.62
2 5 -2 55.97 2.29
2 5 -2 55.99 2.25
2 5 -2 56.9 2.47
2 5 -2 57.79 2.32
-2 -5 2 56.17 2.28
-2 -5 2 57.72 2.65
1 5 -2 633.59 22.63
1 5 -2 633.97 21.34
1 5 -2 624.3 21.13
1 5 -2 643.37 21.17
1 5 -2 654.83 21.15
1 5 -2 669.13 21.26
1 5 -2 619.42 22.55
1 5 -2 642.31 21.21
-1 -5 2 592.4 26.18
-1 -5 2 668.75 21.08
-1 -5 2 555.63 21.24
-1 -5 2 643.31 21.09
-1 -5 2 668.06 21.4
0 5 -2 231.7 7.9
0 5 -2 242.74 8.05
0 5 -2 244.32 8.25
0 5 -2 220.96 10.88
0 5 -2 237.61 8.03
0 5 -2 237.01 8.12
0 5 -2 232.68 8.05
0 -5 2 227.87 7.85
0 -5 2 220.85 12.36
-1 5 -2 403.56 13.62
-1 5 -2 400.66 13.57
-1 5 -2 397.99 13.8
-1 5 -2 403.62 13.51
-1 5 -2 400.45 13.37
-1 5 -2 404.14 13.69
1 -5 2 405.32 13.33
1 -5 2 379.85 17.85
1 -5 2 402.99 13.34
-2 5 -2 34.66 1.98
-2 5 -2 36.15 1.53
-2 5 -2 37.85 1.84
-2 5 -2 39.65 2.16
-2 5 -2 38.6 6.67
-3 5 -2 5.5 9.21
-3 5 -2 -0.61 0.69
-3 5 -2 0.21 0.52
-3 5 -2 -1.09 1
-3 5 -2 -0.23 1
-3 5 -2 -0.27 0.6
3 -5 2 -0.41 0.43
-4 5 -2 1.53 1.45
-4 5 -2 1.97 0.96
-4 5 -2 2.44 0.76
4 -5 2 1.55 0.6
-5 5 -2 2.09 2.04
5 -5 2 2.22 1.1
-6 5 -2 42.56 3.88
6 4 -2 2.79 1.91
6 4 -2 1.93 1.82
-6 -4 2 2.49 2.64
-6 -4 2 -2.17 1.92
5 4 -2 95.01 4.23
5 4 -2 100.21 4.13
-5 -4 2 97.61 4.6
-5 -4 2 101.12 4.03
-5 -4 2 98.47 5.09
4 4 -2 16.12 1.47
4 4 -2 18.45 1.54
4 4 -2 18.46 1.61
-4 -4 2 17.69 1.46
-4 -4 2 14.77 1.81
-4 -4 2 13.53 1.55
3 4 -2 144.73 5.15
3 4 -2 139.39 5.06
3 4 -2 137.45 5.12
-3 -4 2 143.91 5.42
-3 -4 2 143.72 4.94
2 4 -2 19.81 1.15
2 4 -2 22.32 1.18
2 4 -2 21.95 1.13
2 4 -2 22.73 1.17
-2 -4 2 22.87 1.06
-2 -4 2 21.35 0.99
-2 -4 2 22.68 3.78
-2 -4 2 21.99 1.42
1 4 -2 6.77 0.62
1 4 -2 8.6 0.63
1 4 -2 5.95 1.04
1 4 -2 7.75 0.69
1 4 -2 7.24 0.58
1 4 -2 8.56 0.67
-1 -4 2 6.28 0.53
-1 -4 2 7.95 0.51
-1 -4 2 6.84 2.64
-1 -4 2 6.43 0.5
-1 -4 2 7.31 0.76
0 4 -2 639.64 20.84
0 4 -2 634.83 23.33
0 4 -2 634.2 22.62
0 4 -2 645.34 20.98
0 4 -2 626.01 20.94
0 4 -2 619.09 21.01
0 4 -2 618.93 20.74
0 -4 2 630.48 20.77
0 -4 2 620.55 24.06
0 -4 2 611.52 20.77
-1 4 -2 2.08 2.28
-1 4 -2 4.33 0.45
-1 4 -2 4.16 0.63
-1 4 -2 4.97 0.58
-1 4 -2 4.62 0.64
-1 4 -2 4.48 0.39
-1 4 -2 5.54 0.62
1 -4 2 4.81 0.34
1 -4 2 6.71 2.62
1 -4 2 4.75 0.45
-2 4 -2 348.77 12.26
-2 4 -2 354.11 12.09
-2 4 -2 361.45 12.61
-2 4 -2 358.48 12.15
-2 4 -2 360.97 12.52
-2 4 -2 396.85 20.71
2 -4 2 360.59 12.09
2 -4 2 398.03 16.3
2 -4 2 348.09 12.6
2 -4 2 364 12.16
2 -4 2 369.64 12.1
-3 4 -2 2.97 1
-3 4 -2 2.96 0.99
-3 4 -2 3.14 0.54
-3 4 -2 2.28 0.64
-3 4 -2 3.34 0.9
-3 4 -2 3.45 0.48
-3 4 -2 3.66 6.6
3 -4 2 2.31 0.57
3 -4 2 2.85 0.46
-4 4 -2 18.51 1.86
-4 4 -2 17.44 1.71
-4 4 -2 21.33 1.88
-4 4 -2 17.79 1.26
4 -4 2 17.38 1.16
-5 4 -2 11.62 2.1
-6 4 -2 1.59 2.92
6 3 -2 5.62 1.6
6 3 -2 7.47 1.77
-6 -3 2 2.82 1.58
-6 -3 2 6 2.53
-6 -3 2 7.65 4.23
-6 -3 2 0.46 2.12
5 3 -2 9.72 1.32
5 3 -2 10.88 1.31
-5 -3 2 8.24 1.12
-5 -3 2 5.96 2.04
-5 -3 2 6.9 1.61
4 3 -2 8.04 0.94
4 3 -2 11.23 1.11
4 3 -2 12.14 1.13
-4 -3 2 12.18 1.37
-4 -3 2 11.01 0.86
-4 -3 2 11.2 1.53
3 3 -2 3.06 0.57
3 3 -2 5.55 0.72
-3 -3 2 2.78 0.48
-3 -3 2 5.13 4.85
-3 -3 2 4.44 0.46
-3 -3 2 3.18 1
2 3 -2 126.97 4.74
2 3 -2 135.08 4.69
2 3 -2 125.89 4.66
2 3 -2 136.25 4.64
-2 -3 2 133.44 4.54
-2 -3 2 127.67 4.84
-2 -3 2 144.52 4.7
-2 -3 2 143.78 7.35
1 3 -2 199.42 6.95
1 3 -2 217.18 7.05
1 3 -2 208.68 6.97
1 3 -2 210.82 7
1 3 -2 202.51 6.94
-1 -3 2 198.66 9.26
-1 -3 2 204.43 6.86
-1 -3 2 203.36 6.88
-1 -3 2 211.36 7
0 3 -2 1400.67 47.22
0 3 -2 1375.24 45.7
0 3 -2 1342.58 45.48
0 3 -2 1378.47 45.56
0 3 -2 1404.96 45.68
0 3 -2 1346.45 45.6
0 3 -2 1410.4 45.65
0 -3 2 1412.91 45.52
0 -3 2 1320.91 45.5
0 -3 2 1409.43 47.72
-1 3 -2 112.43 4.1
-1 3 -2 114.19 3.95
-1 3 -2 113.65 4.09
-1 3 -2 115.74 3.87
-1 3 -2 113.14 3.82
-1 3 -2 116.5 6.38
1 -3 2 117.13 6.12
1 -3 2 101.36 3.78
1 -3 2 112.94 4.12
1 -3 2 114.79 3.85
-2 3 -2 596.48 19.61
-2 3 -2 601.17 19.78
-2 3 -2 594.89 23.81
-2 3 -2 577.5 20.07
-2 3 -2 606.41 19.63
-2 3 -2 580.92 19.95
2 -3 2 607.4 19.7
2 -3 2 586.05 19.66
2 -3 2 557.78 20.03
2 -3 2 575.52 19.61
2 -3 2 642.95 22.93
-3 3 -2 0.63 0.5
-3 3 -2 0.79 0.77
-3 3 -2 -0.88 0.39
-3 3 -2 7.98 5.01
-3 3 -2 0.33 0.71
3 -3 2 0.27 0.5
3 -3 2 0.8 0.38
-4 3 -2 0.07 1.05
-4 3 -2 0.27 0.61
-4 3 -2 -0.33 1.17
-4 3 -2 -1.27 1.07
4 -3 2 -0.01 0.78
4 -3 2 -0.25 0.5
-5 3 -2 7.12 1.96
-5 3 -2 10.45 1.15
-5 3 -2 7.21 1.87
5 -3 2 7.32 0.87
-6 3 -2 1.14 2.67
-6 3 -2 1.32 2.94
6 2 -2 1.15 1.53
6 2 -2 0.74 1.3
-6 -2 2 1.35 2.13
-6 -2 2 0.39 1.98
-6 -2 2 1.1 1.42
5 2 -2 23.01 1.92
5 2 -2 20.54 1.76
-5 -2 2 19.02 1.86
-5 -2 2 22.43 2.28
-5 -2 2 23.42 1.65
4 2 -2 20.27 1.45
4 2 -2 18.84 1.38
-4 -2 2 18.71 1.18
-4 -2 2 17.34 1.68
-4 -2 2 22.99 1.89
3 2 -2 70.9 2.91
3 2 -2 76.96 2.92
3 2 -2 76.82 2.86
3 2 -2 81.07 2.92
-3 -2 2 78.04 2.71
-3 -2 2 77.82 3.01
-3 -2 2 76.62 3.09
-3 -2 2 70.91 6.8
-3 -2 2 75.94 2.93
2 2 -2 995.07 31.31
2 2 -2 994.89 31.36
2 2 -2 963.21 31.34
-2 -2 2 937.25 31.21
-2 -2 2 834.38 31.58
1 2 -2 296.44 9.91
1 2 -2 297.57 9.95
1 2 -2 292.65 9.92
1 2 -2 290.94 9.96
1 2 -2 302.32 9.99
-1 -2 2 289.08 9.84
-1 -2 2 298.69 9.84
-1 -2 2 292.42 11.05
-1 -2 2 320.17 11.26
0 2 -2 4317.16 141
0 2 -2 4244.27 141.01
-1 2 -2 139.48 6.67
-1 2 -2 141.64 4.8
-1 2 -2 141 4.88
-1 2 -2 137.13 4.62
-1 2 -2 141.87 4.64
-1 2 -2 138.74 4.75
-1 2 -2 142.13 4.67
-1 2 -2 141.5 4.85
1 -2 2 132.42 4.67
1 -2 2 137.97 4.63
1 -2 2 141.08 4.61
1 -2 2 135.08 4.87
1 -2 2 129.5 6.48
-2 2 -2 357.07 12.42
-2 2 -2 367.71 12.29
-2 2 -2 358.96 12.19
-2 2 -2 369.26 12.07
-2 2 -2 380.43 15.65
-2 2 -2 359.83 12.26
-2 2 -2 351.95 12.06
2 -2 2 381.37 14.91
2 -2 2 357.21 12.04
2 -2 2 369.49 12.09
2 -2 2 346.07 12.41
-3 2 -2 1660.64 55.8
-3 2 -2 1615.28 55.81
-3 2 -2 1696.68 63.09
-3 2 -2 1699.29 55.72
-3 2 -2 1641.28 55.54
3 -2 2 1651.13 55.61
3 -2 2 1757.5 56.4
3 -2 2 1752.06 59.16
3 -2 2 1640.28 55.59
3 -2 2 1709.17 55.61
-4 2 -2 16.21 13.36
-4 2 -2 14.12 1.4
-4 2 -2 16.23 2.06
-4 2 -2 13.62 1.39
-4 2 -2 12.46 1.3
-4 2 -2 12.25 0.87
4 -2 2 10.09 1.54
4 -2 2 13.84 0.96
4 -2 2 13.03 1.11
-5 2 -2 127.63 5.2
-5 2 -2 123.32 5.37
-5 2 -2 119.29 5.38
-5 2 -2 133.8 4.66
5 -2 2 125.57 4.81
5 -2 2 125.02 4.56
-6 2 -2 8.16 2.89
-6 2 -2 9.91 3.5
6 1 -2 13.41 2.44
6 1 -2 10.48 2.75
-6 -1 2 9.72 1.74
-6 -1 2 6.62 2.94
-6 -1 2 7.03 2.74
5 1 -2 35.67 2.19
5 1 -2 32.95 2.05
-5 -1 2 35.42 1.84
-5 -1 2 33.85 2.92
-5 -1 2 30.93 2.5
4 1 -2 37.29 1.83
4 1 -2 43.32 2.37
4 1 -2 38.03 1.9
-4 -1 2 32.68 2.04
-4 -1 2 37.27 1.63
-4 -1 2 37.54 2.18
3 1 -2 829.26 28.42
3 1 -2 840.18 28.49
3 1 -2 862.06 28.53
3 1 -2 875.94 28.49
-3 -1 2 812.87 28.56
-3 -1 2 871.4 32.06
-3 -1 2 868.55 28.31
-3 -1 2 874.09 28.54
-3 -1 2 868.27 28.59
2 1 -2 620.33 21.33
2 1 -2 635.04 21.27
2 1 -2 630.52 21.31
2 1 -2 648.63 21.31
-2 -1 2 654.18 21.17
-2 -1 2 641.84 21.17
-2 -1 2 648.56 21.34
-2 -1 2 639.62 22.71
-2 -1 2 651.47 21.41
1 1 -2 1489.11 52.08
1 1 -2 1637.73 52.08
1 1 -2 1552.74 52.11
1 1 -2 1635.72 52.1
1 1 -2 1577.62 52.07
0 1 -2 405.09 13.49
0 1 -2 404.59 13.39
0 1 -2 411.12 13.52
0 1 -2 414.29 13.46
0 1 -2 403.89 13.41
0 -1 2 396.73 14.01
-1 1 -2 306.52 10.24
-1 1 -2 284.22 10.29
-1 1 -2 300.85 10.14
-1 1 -2 325.73 11.89
-1 1 -2 311.76 10.24
-1 1 -2 302.74 10.1
-1 1 -2 314.69 10.21
1 -1 2 299.37 10.1
1 -1 2 298.49 10.1
1 -1 2 308.77 10.31
1 -1 2 302.38 10.15
1 -1 2 308.89 12.02
-2 1 -2 64.06 2.31
-2 1 -2 60.58 2.15
-2 1 -2 60.79 2.26
-2 1 -2 60.37 4.82
-2 1 -2 63.1 2.41
-2 1 -2 61.45 2.29
-2 1 -2 58.91 2.12
2 -1 2 54.82 4.41
2 -1 2 58.81 2.09
2 -1 2 58.76 2.42
2 -1 2 58.08 2.15
2 -1 2 60.44 2.15
-3 1 -2 340.91 11.51
-3 1 -2 335.75 11.78
-3 1 -2 329.74 11.54
-3 1 -2 328.64 16.19
-3 1 -2 337.28 11.58
-3 1 -2 335.38 11.34
-3 1 -2 338.94 11.34
3 -1 2 346.79 11.4
3 -1 2 351.83 12.23
3 -1 2 334.11 11.37
3 -1 2 354.4 14.67
3 -1 2 334.16 11.41
-4 1 -2 13.83 9.05
-4 1 -2 6.63 0.92
-4 1 -2 6.94 1.13
-4 1 -2 5.38 1.03
-4 1 -2 7.06 1.14
-4 1 -2 8.8 1.1
4 -1 2 6.05 0.64
4 -1 2 5.82 0.72
4 -1 2 8.13 0.9
-5 1 -2 36.91 2.55
-5 1 -2 37.82 2.77
-5 1 -2 39.58 2.15
-5 1 -2 38.33 2.78
5 -1 2 38.46 1.84
5 -1 2 37.26 2.29
5 -1 2 37.65 2
-6 1 -2 1.02 2.51
-6 1 -2 -3.12 2.31
6 0 -2 34.81 2.55
6 0 -2 26.15 2.2
-6 0 2 32.86 3.39
-6 0 2 27.65 2.71
-6 0 2 28.21 2.19
5 0 -2 180.03 6.49
5 0 -2 168.14 6.34
-5 0 2 168.22 7.06
-5 0 2 176.38 6.19
-5 0 2 181.65 6.77
-5 0 2 181.63 6.69
4 0 -2 82.09 3.3
4 0 -2 80.64 3.21
-4 0 2 85.38 3.06
-4 0 2 86.09 3.47
-4 0 2 87.05 3.42
3 0 -2 2.09 0.32
3 0 -2 2.31 0.45
3 0 -2 2.17 0.47
-3 0 2 1.9 0.32
-3 0 2 2.79 3.57
-3 0 2 2.37 0.63
-3 0 2 1.74 0.39
-3 0 2 2.71 0.65
2 0 -2 225.29 7.83
2 0 -2 223.33 7.87
2 0 -2 233.52 7.85
2 0 -2 238.08 7.84
-2 0 2 237.06 7.71
-2 0 2 238.85 7.72
-2 0 2 239.11 7.91
-2 0 2 233.21 7.9
-2 0 2 228.47 9.01
1 0 -2 1292.27 43.17
1 0 -2 1286.12 43.17
1 0 -2 1320.49 43.18
1 0 -2 1320 43.21
1 0 -2 1322.38 43.14
1 0 -2 1310.98 43.19
0 0 -2 29.91 1.13
0 0 -2 29.51 1.04
0 0 -2 31.55 1.11
0 0 -2 28.86 1.06
0 0 -2 30.29 1.1
0 0 -2 30.96 1.1
0 0 2 29.75 1.08
-1 0 -2 93.29 3.11
-1 0 -2 95.15 4.42
-1 0 -2 92.11 3.15
-1 0 -2 95.11 3.26
-1 0 -2 93.43 3.18
-1 0 -2 94.67 3.28
-1 0 -2 90.55 3.21
1 0 2 89.15 3.28
1 0 2 86.44 3.15
1 0 2 91.27 3.11
1 0 2 94.53 4.79
1 0 2 94.84 3.12
-2 0 -2 38.96 1.61
-2 0 -2 35.96 1.4
-2 0 -2 38.48 1.56
-2 0 -2 35.56 3.65
-2 0 -2 38.76 1.43
-2 0 -2 38.18 1.5
-2 0 -2 37.56 1.61
2 0 2 38.51 1.43
2 0 2 37.69 3.68
2 0 2 37.64 1.45
2 0 2 33.87 1.64
2 0 2 37.46 1.42
2 0 2 36.48 1.36
-3 0 -2 63.22 2.66
-3 0 -2 66.89 2.58
-3 0 -2 64.39 2.34
-3 0 -2 59.08 2.63
-3 0 -2 63.42 2.52
-3 0 -2 63.51 2.36
-3 0 -2 55.34 6.71
3 0 2 66.08 5.96
3 0 2 63.07 2.31
3 0 2 66.45 2.39
3 0 2 61.59 2.4
-4 0 -2 411.32 13.92
-4 0 -2 410.23 22.54
-4 0 -2 415.06 14.35
-4 0 -2 436.49 15.1
-4 0 -2 419.18 14.25
-4 0 -2 407.05 14.17
-4 0 -2 382.04 13.97
4 0 2 430.56 17.7
4 0 2 415.13 13.98
4 0 2 417.54 13.89
4 0 2 414.57 14.05
-5 0 -2 0.59 1.39
-5 0 -2 1.15 1.44
-5 0 -2 1.18 1.06
-5 0 -2 0.37 1.42
5 0 2 -0.83 1.06
5 0 2 1.04 0.82
5 0 2 1.16 0.85
-6 0 -2 121.59 5.59
-6 0 -2 115.7 5.62
-6 0 -2 118.76 5.91
6 0 2 112.85 4.98
6 0 2 118.22 4.65
6 -1 -2 9.1 1.73
6 -1 -2 8.54 2
-6 1 2 7.15 2.73
-6 1 2 6.75 1.84
-6 1 2 8.95 4.32
5 -1 -2 205.82 7.45
5 -1 -2 213.16 7.58
-5 1 2 215.68 7.87
-5 1 2 204.31 7.29
-5 1 2 215.88 7.77
4 -1 -2 56.54 2.3
4 -1 -2 53.3 2.36
4 -1 -2 55.61 2.54
-4 1 2 54.8 2.12
-4 1 2 53.39 2.52
-4 1 2 55.68 2.59
3 -1 -2 93.2 3.4
3 -1 -2 94.63 3.37
3 -1 -2 95.2 3.36
3 -1 -2 95.37 3.19
-3 1 2 95.07 3.43
-3 1 2 94.29 3.22
-3 1 2 91.32 3.42
-3 1 2 86.38 6.47
-3 1 2 89.44 3.52
2 -1 -2 17.83 0.73
2 -1 -2 17.76 0.76
2 -1 -2 18.06 0.85
2 -1 -2 17.26 0.86
-2 1 2 20.21 0.74
-2 1 2 17.83 0.87
-2 1 2 17.35 0.84
-2 1 2 18.67 1.73
-2 1 2 16.35 0.91
-2 1 2 17.46 0.68
1 -1 -2 1633.1 50.45
1 -1 -2 1484.55 50.43
1 -1 -2 1486.63 50.46
1 -1 -2 1511.59 50.42
0 1 2 4700.03 157.38
0 1 2 4857.15 157.49
-1 -1 -2 164.08 5.48
-1 -1 -2 161.36 5.51
-1 -1 -2 166.58 5.5
-1 -1 -2 158.89 5.43
-1 -1 -2 174.06 5.58
-1 -1 -2 153.91 5.57
1 1 2 156.54 5.62
1 1 2 164.74 5.43
1 1 2 168.19 7.29
1 1 2 163.55 5.47
1 1 2 159.74 5.42
-2 -1 -2 893.63 30.22
-2 -1 -2 919.68 30.41
-2 -1 -2 902.6 30.32
-2 -1 -2 931.25 30.25
-2 -1 -2 907.24 30.2
-2 -1 -2 908.8 32.96
2 1 2 869.6 30.5
2 1 2 917.2 30.22
2 1 2 940.82 30.22
2 1 2 930.6 30.26
2 1 2 925.21 33.46
-3 -1 -2 25.53 1.53
-3 -1 -2 26.23 1.25
-3 -1 -2 33.05 5.88
-3 -1 -2 25.78 1.41
-3 -1 -2 26.08 1.45
-3 -1 -2 24.97 1.4
-3 -1 -2 26.77 1.23
3 1 2 27.02 1.27
3 1 2 28.86 1.73
3 1 2 27.05 1.33
3 1 2 36.1 5.3
3 1 2 25.85 1.17
-4 -1 -2 519.06 17.85
-4 -1 -2 516.65 17.31
-4 -1 -2 510.14 17.73
-4 -1 -2 509.31 17.59
-4 -1 -2 514.81 17.49
4 1 2 513.17 17.43
4 1 2 507.87 17.34
4 1 2 519.29 21.14
4 1 2 533.62 17.31
-5 -1 -2 25.32 2.94
-5 -1 -2 21.74 2.05
-5 -1 -2 26.84 2.08
-5 -1 -2 26.16 2.6
5 1 2 25.52 2.04
5 1 2 24.05 1.77
-6 -1 -2 143.2 6.35
-6 -1 -2 145.04 6.36
6 1 2 152.17 5.92
6 1 2 144.88 5.58
6 -2 -2 75.87 3.64
-6 2 2 79.88 4.45
-6 2 2 79.03 3.22
5 -2 -2 148.55 5.41
5 -2 -2 151.2 5.54
-5 2 2 143.93 5.83
-5 2 2 149.94 5.99
-5 2 2 147.78 5.26
4 -2 -2 283.86 10.12
4 -2 -2 290.79 10.2
-4 2 2 311.75 10.3
-4 2 2 295.35 10
-4 2 2 302.4 10.41
3 -2 -2 50.45 2.05
3 -2 -2 51.04 2
3 -2 -2 52.94 1.89
-3 2 2 50.98 2.24
-3 2 2 51.76 1.88
-3 2 2 52.46 2.04
-3 2 2 51.94 2.13
-3 2 2 48.48 5.25
-3 2 2 49.05 2.2
2 -2 -2 0.94 0.3
2 -2 -2 1.26 0.28
2 -2 -2 1.22 0.33
-2 2 2 1.07 0.28
-2 2 2 1.97 0.42
-2 2 2 1.2 0.32
-2 2 2 1.03 0.21
-2 2 2 2.49 0.49
-2 2 2 1.3 1.09
1 -2 -2 413.02 13.52
1 -2 -2 422.28 13.55
-1 2 2 386.32 13.49
-1 2 2 399.17 13.46
-1 2 2 421.78 13.58
-1 2 2 403.05 13.47
0 2 2 9999 329.4
-1 -2 -2 653.23 21.56
-1 -2 -2 622.86 21.5
-1 -2 -2 643.51 21.54
-1 -2 -2 655.54 21.56
-1 -2 -2 669.79 21.65
1 2 2 645.43 21.48
1 2 2 654.34 21.52
1 2 2 644.62 21.52
1 2 2 676.3 23.86
1 2 2 638.89 21.5
-2 -2 -2 185.58 7.42
-2 -2 -2 228.43 7.38
-2 -2 -2 190.6 7.59
-2 -2 -2 213.67 7.28
-2 -2 -2 217.48 9.9
-2 -2 -2 221.35 7.24
2 2 2 216.84 7.21
2 2 2 244 12.18
2 2 2 218.36 7.24
2 2 2 221.4 7.32
2 2 2 228.78 7.26
2 2 2 207.15 7.56
-3 -2 -2 6.33 0.69
-3 -2 -2 7.69 0.91
-3 -2 -2 6.27 0.9
-3 -2 -2 8.34 3.76
-3 -2 -2 6.72 0.73
-3 -2 -2 4.85 0.57
-3 -2 -2 5.53 0.62
3 2 2 3.66 4.84
3 2 2 5.43 0.65
3 2 2 6.2 0.56
3 2 2 5.73 0.63
-4 -2 -2 62.55 2.92
-4 -2 -2 63.8 2.62
-4 -2 -2 62.6 2.96
-4 -2 -2 64.35 3.13
-4 -2 -2 59.73 2.65
-4 -2 -2 63.25 2.97
4 2 2 66.46 2.44
4 2 2 65.03 2.64
4 2 2 63.65 2.75
-5 -2 -2 182.86 6.85
-5 -2 -2 182.48 7.5
-5 -2 -2 193.74 7.17
-5 -2 -2 186.42 7.18
5 2 2 180.48 6.7
5 2 2 185.92 6.86
-6 -2 -2 225.16 8.78
-6 -2 -2 213.02 8.65
6 2 2 223.57 8.08
6 2 2 231.53 8.36
6 -3 -2 150.23 5.73
-6 3 2 144.17 6.62
-6 3 2 149.13 5.36
5 -3 -2 58.43 2.78
-5 3 2 63.17 3.5
-5 3 2 59.95 2.45
4 -3 -2 48.7 2.2
-4 3 2 52.15 2.6
-4 3 2 49.69 1.95
-4 3 2 47.01 2.61
3 -3 -2 9.37 0.86
3 -3 -2 9.78 0.78
-3 3 2 9.7 0.92
-3 3 2 10.19 0.65
-3 3 2 9.58 0.95
2 -3 -2 89.95 3.12
2 -3 -2 91.7 3.18
-2 3 2 89.3 5.33
-2 3 2 87.62 3.04
-2 3 2 90.58 3.36
-2 3 2 87.02 3.15
-2 3 2 89.28 3.31
1 -3 -2 2897.64 101.7
1 -3 -2 3205.61 101.66
-1 3 2 3083.62 101.63
-1 3 2 3149.88 101.79
0 -3 -2 1868.8 61.96
0 -3 -2 1889.52 61.99
0 -3 -2 1911.61 61.99
0 3 2 1873.04 61.9
0 3 2 1889.97 61.97
0 3 2 1834.2 61.99
-1 -3 -2 1418.35 46.3
-1 -3 -2 1380.67 46.2
-1 -3 -2 1431.08 46.23
-1 -3 -2 1420.66 46.32
1 3 2 1397.95 46.16
1 3 2 1412.65 46.13
1 3 2 1435.11 46.19
1 3 2 1285.1 48.75
1 3 2 1397.51 46.17
-2 -3 -2 329.84 11.01
-2 -3 -2 333.96 11.27
-2 -3 -2 327.51 11.14
-2 -3 -2 342.12 11.25
-2 -3 -2 335.01 11.07
2 3 2 318.83 14.87
2 3 2 325.23 10.99
2 3 2 329.84 11.06
2 3 2 303.9 11.37
2 3 2 326.24 10.97
2 3 2 343.51 11.06
-3 -3 -2 2.13 0.86
-3 -3 -2 1.64 0.72
-3 -3 -2 0.77 0.51
-3 -3 -2 1.93 0.9
-3 -3 -2 1.72 0.66
-3 -3 -2 2.7 4.25
3 3 2 1.8 0.59
3 3 2 -1.36 5.34
3 3 2 2.09 0.55
3 3 2 2.01 0.59
-4 -3 -2 372.53 12.21
-4 -3 -2 368.53 12.79
-4 -3 -2 357.34 12.74
-4 -3 -2 348.38 12.23
4 3 2 358.36 12.36
4 3 2 347.69 12.21
-5 -3 -2 0.71 1.34
-5 -3 -2 4.71 2.17
-5 -3 -2 1.24 1.64
5 3 2 2.9 1.3
5 3 2 4.12 1.36
-6 -3 -2 57.46 4.31
-6 -3 -2 61.91 4.49
6 3 2 62.87 3.84
6 3 2 72.09 4
6 -4 -2 13.38 1.64
-6 4 2 7.27 2.53
-6 4 2 8.45 1.15
5 -4 -2 48.54 2.43
-5 4 2 46.92 3.39
-5 4 2 48.67 2.11
4 -4 -2 59.65 2.47
4 -4 -2 47.48 3.16
-4 4 2 60.9 2.26
-4 4 2 64.37 3.13
3 -4 -2 102.26 3.67
3 -4 -2 101.55 3.72
-3 4 2 100.56 3.56
-3 4 2 106.57 4.08
2 -4 -2 307.06 10.38
2 -4 -2 305.32 10.36
-2 4 2 299.37 10.26
-2 4 2 334.03 13.83
-2 4 2 298.9 10.66
-2 4 2 310.51 10.59
1 -4 -2 59.07 2.24
1 -4 -2 61.72 2.19
-1 4 2 63.85 2.3
-1 4 2 59.85 2.31
-1 4 2 60.65 2.1
-1 4 2 64.16 4.95
-1 4 2 62.56 2.24
-1 4 2 59.12 2.44
-1 4 2 60.92 2.43
0 -4 -2 1375.33 44.79
0 -4 -2 1354.24 44.74
0 4 2 1273.07 48.12
0 4 2 1374.11 44.68
0 4 2 1387.69 44.78
-1 -4 -2 162.06 5.43
-1 -4 -2 155.9 5.44
-1 -4 -2 157.81 5.4
-1 -4 -2 143.25 5.65
-1 -4 -2 167.02 5.55
1 4 2 162.03 5.36
1 4 2 154.87 8.54
1 4 2 171.25 5.37
1 4 2 158.94 5.3
1 4 2 140.32 5.63
1 4 2 156.33 5.38
-2 -4 -2 564.87 18.59
-2 -4 -2 550.98 18.75
-2 -4 -2 550.41 18.47
-2 -4 -2 564.03 18.53
2 4 2 528.4 18.95
2 4 2 550.09 23.26
2 4 2 567.78 18.53
2 4 2 567.58 18.42
2 4 2 530.75 23.24
2 4 2 561.41 18.48
2 4 2 556.27 18.51
-3 -4 -2 84.55 3.6
-3 -4 -2 79.39 3.28
-3 -4 -2 84.2 3.23
-3 -4 -2 83.26 3.21
-3 -4 -2 80.34 3.41
3 4 2 75.07 10.04
3 4 2 84.18 3.23
3 4 2 81.06 3.13
-4 -4 -2 124.15 5.46
-4 -4 -2 129.29 4.84
-4 -4 -2 126.11 5.2
4 4 2 136.1 4.99
4 4 2 132.21 4.84
-5 -4 -2 13.69 2.14
-5 -4 -2 16.35 1.68
-5 -4 -2 16.5 3.92
5 4 2 17.39 1.72
5 4 2 15.39 1.57
-6 -4 -2 9.47 2.79
-6 -4 -2 10.52 3.08
6 4 2 16.58 2.21
6 4 2 11.24 2.08
6 -5 -2 45.91 2.99
-6 5 2 40.45 2.96
-6 5 2 44.03 2.31
5 -5 -2 27.91 1.96
-5 5 2 21.2 2.53
-5 5 2 27.67 1.56
-5 5 2 27.16 2.06
4 -5 -2 81.12 3.27
4 -5 -2 81.54 3.3
-4 5 2 83.06 4.07
-4 5 2 85.67 3.05
3 -5 -2 84.32 3.17
3 -5 -2 82.86 3.17
-3 5 2 87.77 3
-3 5 2 83.87 3.21
-3 5 2 83.52 3.76
-2 5 2 11.2 3.86
-2 5 2 16.87 1.43
-2 5 2 14.96 0.97
-2 5 2 17 1.56
-2 5 2 16.17 0.74
-2 5 2 15.41 1.22
1 -5 -2 751.08 24.19
1 -5 -2 758.1 24.09
-1 5 2 721.35 28.14
-1 5 2 700.09 24.17
-1 5 2 719.48 24.34
-1 5 2 704.25 24.48
-1 5 2 731.47 24.14
0 -5 -2 50.5 2.03
0 -5 -2 49.9 2.06
0 -5 -2 53.72 1.97
0 5 2 50.13 2.31
0 5 2 52.36 1.96
0 5 2 59.91 8.81
0 5 2 50.83 2.08
0 5 2 51.53 1.92
-1 -5 -2 5.09 0.64
-1 -5 -2 4.79 0.78
-1 -5 -2 5.53 0.51
-1 -5 -2 6.04 0.82
1 5 2 5.15 0.61
1 5 2 6.54 3.22
1 5 2 3.5 0.86
1 5 2 12.68 4.83
1 5 2 6.06 0.55
1 5 2 6.88 0.53
1 5 2 5.3 0.42
-2 -5 -2 120.58 4.37
-2 -5 -2 116.93 4.28
-2 -5 -2 126.44 4.36
2 5 2 109.65 10.38
2 5 2 114.2 4.22
2 5 2 115.77 4.11
2 5 2 114.19 4.22
2 5 2 115.35 4.18
-3 -5 -2 284.76 9.71
-3 -5 -2 280.61 9.74
-3 -5 -2 315.34 9.99
-3 -5 -2 243.08 9.82
-3 -5 -2 274.66 10.12
3 5 2 284.67 9.65
3 5 2 281.78 9.77
-4 -5 -2 13.82 1.32
-4 -5 -2 16.2 2.22
-4 -5 -2 9.14 1.71
4 5 2 15.38 1.45
4 5 2 11.9 1.28
-5 -5 -2 114.82 5.46
-5 -5 -2 115.36 4.81
5 5 2 115.22 4.87
5 5 2 114.23 4.76
-6 -5 -2 8.71 3.56
6 5 2 6.36 2.61
-6 6 2 20.32 1.63
-6 6 2 19.64 2.26
-6 6 2 16.41 3.72
-5 6 2 -1.16 0.84
-5 6 2 0.68 2.73
-5 6 2 -0.65 1.26
4 -6 -2 53.57 2.56
-4 6 2 51.6 2.5
-4 6 2 50.6 2.09
-4 6 2 50.21 3.62
3 -6 -2 44.86 2.07
-3 6 2 43.71 2.06
-3 6 2 44.68 1.74
-3 6 2 43.87 2.88
2 -6 -2 84.73 3.24
-2 6 2 82.24 3.23
-2 6 2 91.11 3.74
1 -6 -2 45.61 1.95
-1 6 2 39.87 6.8
-1 6 2 46.13 2.26
-1 6 2 46.49 1.89
-1 6 2 45.62 2.2
0 -6 -2 7.86 0.79
0 -6 -2 6.58 0.71
0 -6 -2 8.5 0.97
0 6 2 8.1 4.39
0 6 2 12.67 0.96
0 6 2 8.08 0.76
0 6 2 7.57 0.52
0 6 2 3.31 4.17
-1 -6 -2 81.24 3.16
-1 -6 -2 78.71 3.13
-1 -6 -2 88.81 3.39
1 6 2 81.46 9.26
1 6 2 80.51 3.05
1 6 2 79.63 3.03
1 6 2 78.26 2.89
1 6 2 69.12 12.32
1 6 2 86.55 3.1
-2 -6 -2 9.75 1.13
-2 -6 -2 11.37 1.46
-2 -6 -2 11.01 1.35
-2 -6 -2 11.01 0.94
2 6 2 9.95 1.17
2 6 2 10.42 0.89
2 6 2 11.06 0.94
-3 -6 -2 36.38 2.88
-3 -6 -2 47.26 2.63
-3 -6 -2 37.2 2.73
-3 -6 -2 36.49 2.08
3 6 2 39.86 2.08
3 6 2 39.45 2.14
-4 -6 -2 15.31 1.54
-4 -6 -2 11.76 2.5
4 6 2 13.39 1.46
4 6 2 12.97 2.04
-5 -6 -2 1.36 1.76
-5 -6 -2 1.03 2.76
-5 -6 -2 -4.89 3.73
5 6 2 -0.26 1.76
5 6 2 0.18 1.51
-5 7 2 6.77 2.93
-5 7 2 3.95 1.52
4 -7 -2 5.27 1.39
-4 7 2 4.43 2.22
-4 7 2 3.05 1.13
3 -7 -2 59.08 2.64
-3 7 2 60.02 2.63
-3 7 2 57.78 3.65
2 -7 -2 96.39 3.59
-2 7 2 91.73 3.53
-2 7 2 89.18 4.12
1 -7 -2 9.31 0.96
-1 7 2 19.91 8.63
-1 7 2 9.79 1.33
-1 7 2 11.1 0.89
0 -7 -2 11.03 1.02
0 -7 -2 13.18 1.1
0 7 2 11.45 1.31
0 7 2 10.76 0.98
0 7 2 10.12 0.73
0 7 2 9.94 8.55
-1 -7 -2 28.75 1.83
-1 -7 -2 31.95 1.69
1 7 2 29.15 1.59
1 7 2 34.47 1.5
1 7 2 30.82 1.6
-2 -7 -2 69.71 2.95
-2 -7 -2 69.31 3.63
-2 -7 -2 65.26 3.16
-2 -7 -2 74.57 3.06
2 7 2 69.01 3.09
2 7 2 69.75 2.93
2 7 2 71.84 3.71
-3 -7 -2 6.64 2.4
-3 -7 -2 3.15 1.09
3 7 2 5.51 1.09
3 7 2 4.11 1.12
-4 -7 -2 15.74 1.76
-4 -7 -2 12.57 3.13
4 7 2 18.46 1.72
4 7 2 15.57 1.66
-5 -7 -2 2.26 2.13
5 7 2 0.26 1.68
-5 8 2 3.66 5.22
-5 8 2 -0.81 2.29
4 -8 -2 11.61 1.85
-4 8 2 13.93 1.5
-4 8 2 16.14 2.79
3 -8 -2 79.16 3.39
-3 8 2 71.24 3.16
-3 8 2 70.55 4.49
2 -8 -2 180.92 6.43
-2 8 2 170.66 6.85
-2 8 2 175.78 6.31
1 -8 -2 7.46 1.14
-1 8 2 6.81 1.47
-1 8 2 6.52 0.56
-1 8 2 10.16 0.94
0 -8 -2 16.71 1.63
0 -8 -2 18.13 1.42
0 8 2 18.63 1.14
0 8 2 17.2 1.36
0 8 2 17.86 1.37
-1 -8 -2 69.06 3.13
-1 -8 -2 69.48 2.95
1 8 2 64.82 2.83
1 8 2 68.92 2.82
-2 -8 -2 170.63 6.06
-2 -8 -2 166.32 6.26
-2 -8 -2 156.86 6.23
2 8 2 163.69 6.03
2 8 2 160.99 5.94
-3 -8 -2 36.37 2.42
-3 -8 -2 31.42 3.59
3 8 2 37.26 2.47
3 8 2 36.58 2.42
-4 -8 -2 -6.1 7.19
-4 -8 -2 0.97 1.74
4 8 2 0.01 1.53
4 8 2 0.63 1.75
4 -9 -2 31.81 2.67
-4 9 2 25.64 3.66
-4 9 2 32.04 2.57
3 -9 -2 8.94 2.27
-3 9 2 7.94 3.17
-3 9 2 5.95 1.87
2 -9 -2 13.88 1.58
-2 9 2 15.22 1.33
1 -9 -2 113.86 4.71
-1 9 2 105.95 3.91
-1 9 2 107.24 4.26
0 -9 -2 10.15 1.48
0 9 2 12.04 1.12
0 9 2 14.04 1.21
-1 -9 -2 47.71 2.82
1 9 2 47.05 2.45
-2 -9 -2 120.71 4.75
-2 -9 -2 113.12 5.26
2 9 2 113.68 4.58
2 9 2 114.47 4.63
2 9 2 114.05 4.62
-3 -9 -2 55.82 3.35
3 9 2 57.91 3.59
3 9 2 54.18 3.38
-4 -9 -2 1.78 2.11
4 9 2 1.59 1.89
3 -10 -2 0.83 1.89
-3 10 2 -0.19 1.39
1 -10 -2 5.46 1.66
-1 10 2 5.74 1.22
-1 10 2 5.19 1.22
0 -10 -2 20.57 1.98
0 10 2 17.49 1.52
0 10 2 15.96 1.51
-1 -10 -2 1.42 2.3
1 10 2 0.09 1.73
-2 -10 -2 38.37 3.22
2 10 2 40.34 3.01
2 10 2 45.42 2.87
2 10 2 44.56 2.94
-3 -10 -2 1.04 2.18
3 10 2 1.99 1.86
2 -11 -2 6.62 2.16
-2 11 2 2.7 1.62
-2 11 2 2.46 1.68
1 -11 -2 1.99 1.94
-1 11 2 3.09 1.5
-1 11 2 3.88 1.58
0 -11 -2 22.44 3.75
0 11 2 18.44 2.02
0 11 2 27.2 2.47
-1 -11 -2 152.43 7.89
1 11 2 145.15 5.79
1 11 2 147 5.88
1 11 2 137.57 5.79
2 11 2 4.13 2.23
2 11 -3 4.39 1.78
1 11 -3 3.34 2.52
1 11 -3 1.24 1.48
0 11 -3 14.86 1.64
0 11 -3 9.45 2.35
-1 11 -3 3.13 1.35
1 -11 3 5.07 1.97
-2 11 -3 4.39 1.5
2 -11 3 4.22 1.88
3 10 -3 23.25 2.45
3 10 -3 26.78 2.22
2 10 -3 13.27 1.65
2 10 -3 13.19 1.85
1 10 -3 77.82 5.83
1 10 -3 64.8 3.34
1 10 -3 64.2 3.18
0 10 -3 5.54 2.01
0 10 -3 3.57 1.13
0 10 -3 3.89 1.39
0 10 -3 3.84 1.45
0 -10 3 6.23 1.61
-1 10 -3 184.52 6.57
-1 10 -3 176.16 6.43
-1 10 -3 167.84 6.62
1 -10 3 177.19 6.53
-2 10 -3 2.71 2.04
2 -10 3 1.38 2.08
3 -10 3 123.86 5
4 9 -3 3.38 2.07
4 9 -3 4.55 1.88
3 9 -3 25.69 2.55
3 9 -3 26.92 2.07
-3 -9 3 20.22 4.16
2 9 -3 4.54 1.15
2 9 -3 3.37 1.3
-2 -9 3 3.08 3.11
1 9 -3 107.98 4.84
1 9 -3 114.82 5.14
1 9 -3 104.76 4.23
0 9 -3 5.72 0.98
0 9 -3 6.34 1.52
0 9 -3 5.74 1.17
0 9 -3 5.02 1.14
0 -9 3 4.89 1.13
-1 9 -3 25.73 1.97
-1 9 -3 26.36 2.49
-1 9 -3 25.31 2.12
-1 9 -3 25.74 3.23
-2 9 -3 12.32 1.65
-2 9 -3 12.28 1.9
-2 9 -3 16.18 1.54
2 -9 3 14.75 1.3
-3 9 -3 2.59 1.94
-3 9 -3 2.07 2.07
3 -9 3 1.15 1.12
-4 9 -3 178.38 7.55
-4 9 -3 180.29 7.74
4 -9 3 177.07 6.63
5 8 -3 64.18 3.86
5 8 -3 64.38 5.22
-5 -8 3 55.12 5.07
4 8 -3 64.76 3.52
4 8 -3 69.39 3.51
4 8 -3 68.62 3.79
-4 -8 3 66.57 4.61
-4 -8 3 62.75 6.02
-4 -8 3 71.02 4.16
3 8 -3 203.03 7.5
3 8 -3 213.8 7.63
3 8 -3 198.24 7.57
-3 -8 3 216.62 7.56
-3 -8 3 204.7 8.51
-3 -8 3 204.32 7.93
2 8 -3 369.9 12.27
2 8 -3 341.99 12.3
2 8 -3 350.51 12.23
-2 -8 3 363.96 12.18
-2 -8 3 350.82 12.8
1 8 -3 3.96 0.88
1 8 -3 2.23 0.85
1 8 -3 2.67 0.91
1 8 -3 1.75 0.76
-1 -8 3 2.76 1.1
-1 -8 3 2.21 1.87
0 8 -3 196.96 6.98
0 8 -3 191.97 7.55
0 8 -3 196.19 7.17
0 8 -3 197.14 7.12
0 8 -3 194.62 7
0 -8 3 222.19 7.96
0 -8 3 213.25 7.04
0 -8 3 183.09 6.97
-1 8 -3 188.38 6.61
-1 8 -3 191.42 6.9
-1 8 -3 186.35 7.31
1 -8 3 184.69 6.56
-2 8 -3 68.25 2.91
-2 8 -3 63.8 3.6
-2 8 -3 68.55 3.77
-2 8 -3 64.16 3.32
2 -8 3 68.74 2.73
-3 8 -3 352.53 12.65
-3 8 -3 354.14 12.84
3 -8 3 354.6 12.09
-4 8 -3 17.14 3.29
-4 8 -3 13.74 3.86
4 -8 3 21.86 1.92
-5 8 -3 6.61 3.36
-5 8 -3 6.99 3.11
5 -8 3 6.38 2.04
5 7 -3 8.48 1.79
5 7 -3 8.65 2.03
-5 -7 3 5.57 2.77
-5 -7 3 7.64 2.54
4 7 -3 11.63 1.67
4 7 -3 10.98 1.5
4 7 -3 13.52 1.39
4 7 -3 13.87 1.65
-4 -7 3 9.19 2.88
-4 -7 3 12.19 2.29
-4 -7 3 13.55 1.74
3 7 -3 445.74 15.2
3 7 -3 447.45 15.24
3 7 -3 443.28 15.16
-3 -7 3 440.13 15.39
-3 -7 3 440.9 15.04
2 7 -3 37.62 1.91
2 7 -3 33.4 1.93
2 7 -3 37.96 2.39
2 7 -3 35.1 2.05
-2 -7 3 34.75 2.75
1 7 -3 120.87 4.53
1 7 -3 120.74 4.47
1 7 -3 122.64 4.46
1 7 -3 118.45 4.61
1 7 -3 121.97 4.51
1 7 -3 122.69 4.83
-1 -7 3 125.52 4.58
-1 -7 3 127.18 4.43
-1 -7 3 123.36 4.93
0 7 -3 202.27 8.07
0 7 -3 236.36 7.96
0 7 -3 235.69 8.11
0 7 -3 239.32 8.47
0 -7 3 232.04 8.3
0 -7 3 234.27 7.88
0 -7 3 234.98 7.92
-1 7 -3 279.33 9.83
-1 7 -3 276.93 10.24
-1 7 -3 283.32 9.63
-1 7 -3 275.17 10.04
-1 7 -3 274.62 9.92
1 -7 3 298.42 9.94
1 -7 3 287.84 9.63
-2 7 -3 21.13 1.68
-2 7 -3 15.95 1.65
-2 7 -3 19.74 1.85
-2 7 -3 20.51 1.37
-2 7 -3 19.52 1.96
-3 7 -3 59.03 3.4
-3 7 -3 68.37 3.68
-4 7 -3 1.51 1.93
-4 7 -3 0.71 1.78
4 -7 3 0.7 0.91
-5 7 -3 4.25 5.28
-5 7 -3 2.14 2.61
5 -7 3 0.83 1.47
5 6 -3 -1.47 1.46
5 6 -3 1.9 1.64
-5 -6 3 -4.26 3.43
-5 -6 3 -0.55 2.2
-5 -6 3 1.94 1.79
4 6 -3 75.99 3.4
4 6 -3 83.8 4.1
4 6 -3 77.14 3.26
4 6 -3 71.45 3.46
-4 -6 3 72.27 4.48
-4 -6 3 74.86 3.38
-4 -6 3 76.38 4
3 6 -3 63.23 2.87
3 6 -3 66.73 2.83
3 6 -3 67.33 2.92
3 6 -3 62.29 2.82
-3 -6 3 67.11 2.7
-3 -6 3 62.59 3.48
2 6 -3 200.79 7.18
2 6 -3 201.91 7.13
2 6 -3 204.46 7.11
2 6 -3 207.77 7.37
-2 -6 3 201.93 7
-2 -6 3 204.9 7.55
1 6 -3 665.02 22.27
1 6 -3 670.35 22.33
1 6 -3 678.52 22.16
1 6 -3 652.97 22.54
1 6 -3 663.9 22.18
-1 -6 3 650.4 22.49
-1 -6 3 656.62 39.51
-1 -6 3 675.12 22.09
0 6 -3 21.46 1.16
0 6 -3 20.93 1.31
0 6 -3 20.96 3.69
0 6 -3 22.31 1.49
0 6 -3 19.98 1.15
0 -6 3 13.3 6.51
0 -6 3 21.16 1.1
-1 6 -3 244.72 8.54
-1 6 -3 231.12 13.53
-1 6 -3 244.85 8.46
-1 6 -3 210.43 8.54
-1 6 -3 243.1 8.13
-1 6 -3 242.21 8.67
1 -6 3 245.65 8.08
1 -6 3 259.65 16.53
1 -6 3 235.47 8.08
-2 6 -3 16.92 1.83
-2 6 -3 19.56 1.73
-2 6 -3 17.12 1.17
-2 6 -3 17.76 1.5
2 -6 3 15.95 1.01
-3 6 -3 23.7 2.19
-3 6 -3 22.8 2.42
-3 6 -3 17.43 1.73
-3 6 -3 22.47 2.08
-3 6 -3 23.94 1.5
3 -6 3 21.35 1.26
-4 6 -3 3.5 1.82
-4 6 -3 0.63 2.27
-5 6 -3 3.94 3.14
5 -6 3 10.87 1.53
6 5 -3 36.7 3.11
6 5 -3 38.67 3.41
-6 -5 3 32.84 2.9
-6 -5 3 23.14 3.18
5 5 -3 19.76 1.85
5 5 -3 20.28 1.44
5 5 -3 14.35 1.61
-5 -5 3 11.15 2.12
-5 -5 3 14.4 3.04
-5 -5 3 17.78 1.68
4 5 -3 12.99 1.38
4 5 -3 9.72 1.25
4 5 -3 9.74 1.23
-4 -5 3 8.93 1.1
-4 -5 3 5.73 1.63
-4 -5 3 7.4 1.9
3 5 -3 23.78 1.52
3 5 -3 20.28 1.57
3 5 -3 19.22 1.48
-3 -5 3 22.6 1.28
-3 -5 3 21.58 2.08
2 5 -3 12.89 1.14
2 5 -3 12.52 1.05
2 5 -3 10.76 1.09
2 5 -3 13.33 1.04
-2 -5 3 12.08 0.85
-2 -5 3 12.56 1.45
1 5 -3 82.93 3.11
1 5 -3 81.55 3
1 5 -3 78.43 2.95
1 5 -3 79.58 2.91
1 5 -3 78.8 3.13
-1 -5 3 80.53 2.84
-1 -5 3 78.76 8.13
-1 -5 3 79 2.81
-1 -5 3 80.26 3.23
0 5 -3 308.34 12.91
0 5 -3 331.35 11
0 5 -3 330.35 11.41
0 5 -3 325.46 11.23
0 5 -3 329.23 12.63
0 5 -3 337.97 11.07
0 5 -3 336.71 11.26
0 5 -3 352.22 11.22
0 -5 3 322.68 10.97
0 -5 3 332.96 15.73
0 -5 3 317.41 10.99
-1 5 -3 29.74 1.28
-1 5 -3 32.46 4.85
-1 5 -3 29.47 1.68
-1 5 -3 31.3 1.61
-1 5 -3 32.2 1.76
-1 5 -3 30.89 1.58
1 -5 3 27.98 1.2
1 -5 3 21.89 7.32
1 -5 3 29 1.23
-2 5 -3 181.45 6.18
-2 5 -3 182.53 6.43
-2 5 -3 182.31 6.77
-2 5 -3 175.9 12.56
-2 5 -3 180.84 6.59
-2 5 -3 175.45 6.67
2 -5 3 184.94 6.15
-3 5 -3 6.87 1.12
-3 5 -3 5.64 1.16
-3 5 -3 7.73 0.8
-3 5 -3 5.07 1.28
3 -5 3 6.09 0.62
-4 5 -3 141.95 5.98
4 -5 3 138.93 5.04
-5 5 -3 23.88 2.79
-6 5 -3 21.03 4.09
6 4 -3 19.63 2.12
-6 -4 3 18.2 1.97
-6 -4 3 13.67 2.78
5 4 -3 10.09 1.52
5 4 -3 9.59 1.41
5 4 -3 12.45 1.07
-5 -4 3 9.43 1.87
-5 -4 3 13.45 1.88
-5 -4 3 9.58 2.45
4 4 -3 10 1.1
4 4 -3 17 1.38
4 4 -3 11.98 1.23
-4 -4 3 11.77 0.99
-4 -4 3 13.09 1.84
-4 -4 3 14.77 1.66
3 4 -3 42.29 2.02
3 4 -3 40.85 1.99
3 4 -3 46.41 1.98
-3 -4 3 43.94 2.42
-3 -4 3 42.17 1.75
2 4 -3 34.63 1.52
2 4 -3 33.66 1.54
2 4 -3 33.76 1.57
2 4 -3 35.15 1.57
-2 -4 3 50.73 7.57
-2 -4 3 34.17 1.37
-2 -4 3 35.3 1.87
-2 -4 3 21.56 4.82
-2 -4 3 35.37 1.5
1 4 -3 0.67 0.36
1 4 -3 0.45 0.22
1 4 -3 0.44 0.4
1 4 -3 0.58 0.5
1 4 -3 0.64 0.39
1 4 -3 0.52 0.4
1 4 -3 1.4 0.32
-1 -4 3 0.71 0.23
-1 -4 3 -1.54 2.42
0 4 -3 2364.64 78.86
0 4 -3 2385.19 79.72
0 4 -3 2446.27 79.1
0 4 -3 2232.85 79.81
0 4 -3 2403.51 79.07
0 4 -3 2434.33 78.92
0 4 -3 2429.75 79.13
0 -4 3 2369.16 78.86
0 -4 3 2401.12 78.86
0 -4 3 2452.26 82.23
-1 4 -3 301.21 10.34
-1 4 -3 311.06 10.54
-1 4 -3 319.59 10.8
-1 4 -3 309.11 10.65
-1 4 -3 317.41 13.6
-1 4 -3 320.38 10.64
-1 4 -3 309.58 10.36
-1 4 -3 274.69 10.49
1 -4 3 307.81 10.37
1 -4 3 340.27 14.36
-2 4 -3 -0.1 0.38
-2 4 -3 -0.08 0.4
-2 4 -3 0.42 0.64
-2 4 -3 0.19 0.36
-2 4 -3 0.24 0.42
-2 4 -3 1.98 3.9
-2 4 -3 0.2 0.69
2 -4 3 3.14 3.63
2 -4 3 0.34 0.91
2 -4 3 -0.02 0.35
2 -4 3 0.66 0.34
-3 4 -3 8.56 1.11
-3 4 -3 7.58 1.06
-3 4 -3 8.35 0.73
-3 4 -3 7.77 1.18
-3 4 -3 -2.42 7.31
-3 4 -3 8.22 0.65
-3 4 -3 6.96 1.15
3 -4 3 5.77 0.61
-4 4 -3 -0.27 1.35
-4 4 -3 1.38 1.44
-4 4 -3 1.01 1.38
4 -4 3 0.81 0.6
-5 4 -3 175.13 7.12
-5 4 -3 171.44 7.22
5 -4 3 166.91 6.09
-6 4 -3 11.1 3.25
6 3 -3 122.04 5.11
6 3 -3 114.44 4.96
-6 -3 3 120.32 4.81
-6 -3 3 120.6 5.69
5 3 -3 29.92 2.16
5 3 -3 29.59 2.09
-5 -3 3 21.95 2.13
-5 -3 3 28.11 1.89
-5 -3 3 22.85 4.05
4 3 -3 30.82 2.47
4 3 -3 32.71 2.55
4 3 -3 33.79 2.69
-4 -3 3 35.98 2.39
-4 -3 3 36.2 1.69
-4 -3 3 40.02 3.85
3 3 -3 0.31 0.61
3 3 -3 -0.04 0.55
3 3 -3 0.39 0.79
3 3 -3 -0.01 0.31
-3 -3 3 -0.16 0.37
-3 -3 3 0.86 0.87
2 3 -3 102.26 3.7
2 3 -3 101.87 3.71
2 3 -3 100.99 3.66
2 3 -3 105.75 3.76
2 3 -3 105.52 3.72
-2 -3 3 108.22 3.67
-2 -3 3 101.15 3.92
-2 -3 3 108.43 6.25
-2 -3 3 102.1 3.54
-2 -3 3 97.68 6.88
1 3 -3 281.86 9.43
1 3 -3 282.6 9.36
1 3 -3 277.84 9.48
1 3 -3 288.05 9.43
1 3 -3 284.63 9.5
1 3 -3 272.29 9.36
-1 -3 3 250.17 9.39
-1 -3 3 303.91 11.53
-1 -3 3 278.9 9.27
0 3 -3 932.34 31.53
0 3 -3 933.48 31.41
0 3 -3 989.1 31.52
0 3 -3 933.66 31.37
0 3 -3 940.17 31.54
0 3 -3 960.53 31.33
0 -3 3 957.4 31.33
0 -3 3 933.49 31.35
0 -3 3 964.77 33.7
-1 3 -3 5.16 0.54
-1 3 -3 5.68 0.68
-1 3 -3 5.63 0.51
-1 3 -3 5.18 0.68
-1 3 -3 4.98 0.56
-1 3 -3 5.24 0.44
-1 3 -3 5.85 2
1 -3 3 4.9 0.47
1 -3 3 3.54 1.92
1 -3 3 5.48 0.72
1 -3 3 4.71 0.37
-2 3 -3 1.67 0.62
-2 3 -3 3.04 0.74
-2 3 -3 1.89 0.35
-2 3 -3 3.11 0.69
-2 3 -3 1.14 0.41
-2 3 -3 2.73 0.39
-2 3 -3 2.31 0.6
-2 3 -3 2.18 3.32
2 -3 3 1.77 0.3
2 -3 3 2.16 0.61
2 -3 3 2.5 0.38
2 -3 3 2.93 2.58
2 -3 3 1.84 0.36
-3 3 -3 42.96 1.71
-3 3 -3 42.62 2.18
-3 3 -3 41.62 2.06
-3 3 -3 43.06 7.49
-3 3 -3 45.3 2.22
-3 3 -3 40.64 2.3
3 -3 3 41.43 1.73
3 -3 3 43.89 1.84
-4 3 -3 28.98 2.3
-4 3 -3 28.91 2.21
-4 3 -3 27.06 2.36
-4 3 -3 22.49 2.04
4 -3 3 24.96 1.51
-5 3 -3 53.37 3.84
-5 3 -3 53.82 3.57
-5 3 -3 56.16 4.16
5 -3 3 52.13 2.35
-6 3 -3 -0.44 2.99
-6 3 -3 0.41 2.94
6 2 -3 41.52 2.93
6 2 -3 40.41 2.86
-6 -2 3 38.01 3.7
-6 -2 3 42.79 2.57
-6 -2 3 32.43 3.02
5 2 -3 35.65 2.34
5 2 -3 36.71 2.18
-5 -2 3 38.69 2.74
-5 -2 3 37.49 3.19
-5 -2 3 37.54 2
4 2 -3 5.24 0.89
4 2 -3 5.5 0.72
4 2 -3 3.66 0.84
4 2 -3 5.1 0.83
-4 -2 3 7.52 1.24
-4 -2 3 5.16 0.64
-4 -2 3 4.67 1.27
3 2 -3 1.07 0.54
3 2 -3 1.3 0.51
3 2 -3 1.33 0.55
3 2 -3 1.27 0.31
-3 -2 3 1.36 0.78
-3 -2 3 1.28 0.33
2 2 -3 26.55 1.16
2 2 -3 27.15 1.22
2 2 -3 25.59 1.08
2 2 -3 27.03 1.25
2 2 -3 26.49 1.21
-2 -2 3 26.36 1.56
-2 -2 3 26.97 2.81
-2 -2 3 26.54 1.08
-2 -2 3 26.02 1.01
1 2 -3 527.71 17.39
1 2 -3 483.22 17.37
1 2 -3 529.43 17.42
1 2 -3 536.75 17.37
1 2 -3 535.26 17.47
-1 -2 3 516.8 17.3
-1 -2 3 500.78 17.31
-1 -2 3 523.36 18.4
-1 -2 3 530.57 17.28
-1 -2 3 554.92 18.31
0 2 -3 2623.73 86.4
0 2 -3 2613.83 86.39
0 2 -3 2694.35 86.3
0 2 -3 2663.71 86.32
0 2 -3 2631.72 86.23
0 -2 3 2560.54 86.28
0 -2 3 2525.62 87.88
0 -2 3 2623.26 86.24
-1 2 -3 13.04 0.56
-1 2 -3 13.61 2.12
-1 2 -3 13.52 0.94
-1 2 -3 12.99 0.76
-1 2 -3 12.77 0.83
-1 2 -3 13.62 0.69
1 -2 3 12.64 0.8
1 -2 3 14.12 0.66
1 -2 3 10.37 2.02
1 -2 3 13.71 0.57
-2 2 -3 1.34 0.38
-2 2 -3 0.76 0.3
-2 2 -3 1.91 0.58
-2 2 -3 0.94 0.54
-2 2 -3 1.63 0.33
-2 2 -3 1.86 2.33
2 -2 3 0.21 2.23
2 -2 3 1.19 0.34
2 -2 3 1.05 0.39
2 -2 3 0.95 0.28
2 -2 3 1.26 0.84
-3 2 -3 106.27 4.05
-3 2 -3 105.42 3.67
-3 2 -3 97.3 3.99
-3 2 -3 104.52 3.9
-3 2 -3 108.52 9.72
-3 2 -3 99.07 4.61
-3 2 -3 96.28 3.74
3 -2 3 108.2 3.7
3 -2 3 107.33 3.62
-4 2 -3 14.59 1.69
-4 2 -3 17.2 1.64
-4 2 -3 18.12 1.31
-4 2 -3 17.32 1.47
-4 2 -3 16.13 1.59
4 -2 3 16.43 1.09
4 -2 3 13.62 1.45
-5 2 -3 22.5 2.4
-5 2 -3 27.8 2.22
-5 2 -3 24.65 2.34
5 -2 3 28.64 1.6
-6 2 -3 8.31 2.7
-6 2 -3 2.62 3.09
6 1 -3 7.74 1.59
6 1 -3 7.13 1.44
-6 -1 3 7.81 1.3
-6 -1 3 4.69 2.12
-6 -1 3 4.53 2.2
5 1 -3 1.7 0.98
5 1 -3 2.07 1.04
-5 -1 3 3.08 0.81
-5 -1 3 0.65 1.8
-5 -1 3 -0.57 1.38
4 1 -3 17.29 1.39
4 1 -3 19.65 0.97
4 1 -3 16.23 1.36
-4 -1 3 19.11 1.7
-4 -1 3 18.38 1.09
-4 -1 3 19.51 1.8
3 1 -3 416.39 14.02
3 1 -3 430.88 14.1
3 1 -3 432.99 14.07
-3 -1 3 429.73 13.87
-3 -1 3 414.39 14.11
-3 -1 3 450.73 18.09
-3 -1 3 354.82 14.16
2 1 -3 543.16 17.8
2 1 -3 538.94 17.92
2 1 -3 522.17 17.88
2 1 -3 528.76 17.92
-2 -1 3 542.16 18.04
-2 -1 3 555.56 18.04
-2 -1 3 537.86 17.73
-2 -1 3 533.27 17.74
1 1 -3 1411.08 45.72
1 1 -3 1413.91 45.77
1 1 -3 1344.9 45.72
1 1 -3 1376.42 45.77
1 1 -3 1377.26 45.69
0 1 -3 903.53 30.68
0 1 -3 912.32 30.79
0 1 -3 944.98 30.69
0 1 -3 890.61 30.8
0 1 -3 942.6 30.81
0 -1 3 971.34 30.67
0 -1 3 948.77 31.31
-1 1 -3 505.89 16.37
-1 1 -3 500.32 16.3
-1 1 -3 495.11 16.41
-1 1 -3 489.5 16.38
-1 1 -3 517.9 17.57
1 -1 3 470.9 16.29
1 -1 3 467.83 18.5
1 -1 3 465.91 16.47
1 -1 3 506.95 16.21
1 -1 3 487.01 16.23
-2 1 -3 1183.36 39.53
-2 1 -3 1207.63 39.6
-2 1 -3 1243.27 42.76
-2 1 -3 1223.07 39.73
-2 1 -3 1198.57 39.74
-2 1 -3 1202.43 39.77
2 -1 3 1162.07 39.61
2 -1 3 1212.47 39.57
2 -1 3 1161.07 39.94
2 -1 3 1133.51 42.95
2 -1 3 1251.56 39.57
2 -1 3 1189.99 39.54
-3 1 -3 76.44 2.84
-3 1 -3 79.21 3.26
-3 1 -3 80.24 3
-3 1 -3 80.89 3.1
-3 1 -3 81.97 7.98
-3 1 -3 78.12 3.15
-3 1 -3 76.3 3.15
3 -1 3 83.53 7.68
3 -1 3 78.59 2.93
3 -1 3 78 2.88
3 -1 3 81.33 2.88
3 -1 3 80.03 2.82
-4 1 -3 78.07 3.29
-4 1 -3 78.59 3.45
-4 1 -3 84.38 3.64
-4 1 -3 78.63 2.98
-4 1 -3 75.94 3.46
4 -1 3 77.24 2.94
4 -1 3 89.28 3.43
4 -1 3 64.44 2.95
-5 1 -3 9.88 1.95
-5 1 -3 11.23 1.83
-5 1 -3 7.66 1.7
5 -1 3 9.61 0.99
5 -1 3 8.56 1.42
-6 1 -3 10.97 2.74
6 0 -3 5.92 1.48
6 0 -3 2.85 1.25
-6 0 3 1.86 2.04
-6 0 3 3.41 2.29
-6 0 3 4.52 1.12
5 0 -3 16.61 1.32
5 0 -3 15.93 1.68
-5 0 3 16.65 1.34
-5 0 3 14.14 1.71
4 0 -3 61.82 2.64
4 0 -3 62.84 2.56
4 0 -3 65.21 2.3
-4 0 3 57.64 3.09
-4 0 3 61.82 2.79
-4 0 3 63.43 2.35
3 0 -3 1057.1 34.68
3 0 -3 1050.62 34.75
-3 0 3 1046.35 34.76
-3 0 3 1021.44 34.79
-3 0 3 1044.39 34.8
-3 0 3 1048.93 37.29
-3 0 3 1050.17 34.54
2 0 -3 471.26 15.5
2 0 -3 456.37 15.48
2 0 -3 466.09 15.53
2 0 -3 477.76 15.45
-2 0 3 452.28 15.56
-2 0 3 467.8 15.59
1 0 -3 1295.16 42.56
1 0 -3 1221.75 42.59
1 0 -3 1283.16 42.57
1 0 -3 1307.94 42.6
1 0 -3 1323.74 42.59
1 0 -3 1307.2 42.6
0 0 -3 2152.53 69.92
0 0 -3 2220.15 69.92
0 0 -3 2072.71 69.91
0 0 -3 2129.16 69.93
0 0 -3 2023.69 69.88
-1 0 -3 1633.26 55.65
-1 0 -3 1696.46 55.7
-1 0 -3 1685.87 55.67
-1 0 -3 1662.04 55.66
-1 0 -3 1781.28 56.57
-1 0 -3 1720.85 55.74
1 0 3 1662.87 57.83
1 0 3 1651.11 55.58
1 0 3 1673.8 55.64
1 0 3 1691.27 55.56
-2 0 -3 665.51 22.15
-2 0 -3 658.73 22.06
-2 0 -3 687.84 24.79
-2 0 -3 662.03 22.02
-2 0 -3 647.9 22.27
-2 0 -3 666.45 21.95
2 0 3 676.58 25.63
2 0 3 623.7 22.32
2 0 3 666.76 22
2 0 3 660.26 21.95
2 0 3 695.8 21.98
2 0 3 651.11 22.02
-3 0 -3 502.47 16.92
-3 0 -3 481.11 17.19
-3 0 -3 506.94 16.75
-3 0 -3 505.79 17.02
-3 0 -3 500.08 21.38
-3 0 -3 510.35 16.81
3 0 3 505.75 16.79
3 0 3 519.49 21.57
3 0 3 508.37 16.72
3 0 3 497.3 16.83
3 0 3 497.91 16.8
-4 0 -3 83.49 3.48
-4 0 -3 81.46 3.45
-4 0 -3 85.42 3.68
-4 0 -3 78.42 3.37
-4 0 -3 81.22 3.57
-4 0 -3 84.54 3.15
4 0 3 81.05 3.25
4 0 3 82.3 3.13
4 0 3 81.51 3.07
-5 0 -3 64.14 3.33
-5 0 -3 64.75 3.45
-5 0 -3 64.08 3.76
5 0 3 63.47 2.66
5 0 3 63.68 3.12
5 0 3 63.95 2.8
-6 0 -3 3.44 2.52
-6 0 -3 0.78 2.46
6 -1 -3 60.56 3.14
6 -1 -3 61.23 3.01
-6 1 3 62.81 4.07
-6 1 3 59.63 2.73
-6 1 3 56.41 4.31
5 -1 -3 103.37 3.87
5 -1 -3 99.01 3.97
-5 1 3 96.99 3.65
-5 1 3 94.55 4.34
-5 1 3 96.52 4.31
4 -1 -3 0.46 0.64
4 -1 -3 0.32 0.64
-4 1 3 0.25 0.44
-4 1 3 1.21 1.09
-4 1 3 0.33 0.92
3 -1 -3 380.02 12.67
3 -1 -3 371.37 12.59
-3 1 3 371.72 12.45
-3 1 3 375.73 15.6
-3 1 3 359.7 12.73
-3 1 3 385.43 12.66
-3 1 3 379.99 12.65
2 -1 -3 10.41 0.67
2 -1 -3 9.85 0.61
2 -1 -3 9.93 0.62
-2 1 3 9.64 0.58
-2 1 3 9.41 0.72
1 -1 -3 3393.48 111.37
1 -1 -3 3435.58 111.34
1 -1 -3 3378.71 111.37
1 -1 -3 3365.01 111.39
1 -1 -3 3508.9 111.33
1 -1 -3 3190.2 111.33
0 -1 -3 297.92 9.92
0 -1 -3 285.64 10
0 -1 -3 308.57 9.93
0 1 3 297.41 9.87
0 1 3 321.69 10.15
0 1 3 304.86 9.83
0 1 3 267.28 9.94
-1 -1 -3 1637.35 54.35
-1 -1 -3 1610.12 54.37
-1 -1 -3 1668.21 54.34
-1 -1 -3 1662.75 54.25
1 1 3 1713.82 54.26
1 1 3 1656.47 54.24
1 1 3 1566.09 54.25
1 1 3 1648.08 56.6
-2 -1 -3 1841.32 61.37
-2 -1 -3 1856.21 61.6
-2 -1 -3 1859.41 61.5
-2 -1 -3 1676.1 61.46
-2 -1 -3 1862.1 63.9
-2 -1 -3 1879.03 61.41
-2 -1 -3 1859.29 61.32
2 1 3 1838.47 61.38
2 1 3 1943.69 61.34
2 1 3 1874.68 61.32
2 1 3 1902.48 65.35
2 1 3 1881 61.87
2 1 3 1887.43 61.39
-3 -1 -3 78.21 3.09
-3 -1 -3 78 3.2
-3 -1 -3 76.17 7.24
-3 -1 -3 73.89 3.12
-3 -1 -3 74.35 2.96
-3 -1 -3 78.76 2.86
-3 -1 -3 76.12 2.82
3 1 3 76.83 2.9
3 1 3 77.51 8.18
3 1 3 74.86 2.8
3 1 3 77.82 2.76
3 1 3 76.69 2.82
-4 -1 -3 97.16 3.98
-4 -1 -3 97.75 3.7
-4 -1 -3 101.95 4.16
-4 -1 -3 100.47 3.67
-4 -1 -3 97.15 4.24
-4 -1 -3 93.23 4.02
4 1 3 96.54 3.54
4 1 3 93.52 3.74
4 1 3 95.75 3.65
-5 -1 -3 33.68 3.18
-5 -1 -3 25.44 2.45
-5 -1 -3 20.11 2.09
5 1 3 22.67 2.13
5 1 3 22.57 1.82
-6 -1 -3 13.94 2.51
-6 -1 -3 14.14 2.67
6 1 3 13.57 1.75
5 -2 -3 0.46 0.93
5 -2 -3 0.03 0.87
-5 2 3 0.35 1.68
-5 2 3 0.05 0.68
-5 2 3 1.09 1.46
4 -2 -3 10.43 0.95
4 -2 -3 8.66 0.85
-4 2 3 9.62 0.83
-4 2 3 10.9 1.27
-4 2 3 10.44 1.25
3 -2 -3 103.62 3.59
3 -2 -3 100.8 3.66
3 -2 -3 101.67 3.74
-3 2 3 104.51 3.53
-3 2 3 100.72 3.74
-3 2 3 103.07 3.67
2 -2 -3 19.44 0.94
2 -2 -3 20.91 0.96
2 -2 -3 21.03 0.99
2 -2 -3 20.89 0.91
-2 2 3 18.24 2.05
-2 2 3 20.55 0.79
-2 2 3 20.99 1.05
-2 2 3 21.66 1.08
-2 2 3 20.95 0.93
1 -2 -3 38.47 1.47
1 -2 -3 39.45 1.47
1 -2 -3 39.59 1.47
-1 2 3 38.04 1.37
-1 2 3 38.93 1.34
-1 2 3 40.02 1.55
-1 2 3 39.27 1.42
0 -2 -3 2199.98 72.26
0 -2 -3 2247.99 72.25
0 2 3 2091.39 72.37
0 2 3 2224.77 72.21
0 2 3 2184.31 72.18
-1 -2 -3 3631.35 115.94
-1 -2 -3 3501.01 115.8
-1 -2 -3 3556.47 115.82
-1 -2 -3 3410.63 115.81
1 2 3 3589.4 115.71
1 2 3 3376.45 118.32
-2 -2 -3 272.44 9.21
-2 -2 -3 270.88 9.06
-2 -2 -3 273.58 9.34
-2 -2 -3 276.12 9.13
-2 -2 -3 270.76 9.14
-2 -2 -3 274.15 9.06
2 2 3 250.56 9.45
2 2 3 262.55 13.02
2 2 3 263.74 9.09
2 2 3 278.93 9.07
2 2 3 274.94 9.03
-3 -2 -3 1.05 4.65
-3 -2 -3 2.06 0.72
-3 -2 -3 1.15 0.39
-3 -2 -3 0.71 0.64
-3 -2 -3 1.94 0.84
-3 -2 -3 1.8 0.82
-3 -2 -3 3.6 0.62
3 2 3 1.38 0.56
3 2 3 1.43 0.56
3 2 3 1.75 0.58
3 2 3 2.1 0.55
-4 -2 -3 34.01 1.85
-4 -2 -3 33.06 2.07
-4 -2 -3 33.22 2.47
-4 -2 -3 36.76 2.39
-4 -2 -3 31.36 2.2
4 2 3 33.88 1.65
4 2 3 34.19 1.79
4 2 3 33.09 1.91
-5 -2 -3 213.7 8.01
-5 -2 -3 201.34 7.5
5 2 3 204.83 7.38
5 2 3 208.77 7.58
-6 -2 -3 0.55 2.6
-6 -2 -3 0.26 2.37
6 2 3 2.68 2.06
6 -3 -3 34.76 2.54
-6 3 3 35.66 3.76
-6 3 3 34.58 2
-5 3 3 456.87 15.57
-5 3 3 463.38 17.06
4 -3 -3 252.38 8.69
-4 3 3 243.29 8.91
3 -3 -3 5.38 0.66
3 -3 -3 4.95 0.6
-3 3 3 6.43 0.92
-3 3 3 5.71 0.48
-3 3 3 6.35 0.92
2 -3 -3 62.04 2.29
2 -3 -3 62.65 2.27
-2 3 3 64.17 2.46
-2 3 3 62.53 2.13
-2 3 3 57.12 4.38
-2 3 3 58.81 2.42
1 -3 -3 1507 49.16
1 -3 -3 1516.84 49.24
1 -3 -3 1460 49.21
-1 3 3 1469.34 49.24
-1 3 3 1491.57 49.09
0 -3 -3 305.71 10.12
0 -3 -3 306.34 10.06
0 -3 -3 301.69 10.09
0 3 3 306.44 10
0 3 3 282.85 10.16
0 3 3 298.81 10.03
-1 -3 -3 951.24 31.27
-1 -3 -3 938.1 31.28
-1 -3 -3 969.04 31.41
-1 -3 -3 991.62 31.38
1 3 3 834.64 31.48
1 3 3 954.27 34.41
1 3 3 962.76 31.23
1 3 3 967.68 31.2
1 3 3 925.16 31.22
-2 -3 -3 149.63 5.25
-2 -3 -3 155.88 5.34
-2 -3 -3 153.23 5.56
-2 -3 -3 151.35 5.49
-2 -3 -3 149.98 5.39
-2 -3 -3 154.79 5.28
2 3 3 124.1 12.8
2 3 3 152.34 5.2
2 3 3 153.81 5.14
2 3 3 151.82 5.18
2 3 3 145.27 5.18
-3 -3 -3 119.35 4.48
-3 -3 -3 110.78 4.57
-3 -3 -3 116.09 4.43
-3 -3 -3 115.3 4.22
-3 -3 -3 120.44 4.26
3 3 3 115.98 4.17
3 3 3 114.11 4.1
3 3 3 115.76 4.27
-4 -3 -3 281.79 9.97
-4 -3 -3 268.64 9.84
-4 -3 -3 286.37 10.14
-4 -3 -3 280.02 10.23
4 3 3 278.44 9.6
4 3 3 274.35 9.74
-5 -3 -3 69.58 3.49
-5 -3 -3 74.87 4.05
-5 -3 -3 76.24 4.68
5 3 3 72.44 3.37
5 3 3 72.64 3.5
-6 -3 -3 32.97 3.8
-6 -3 -3 30.19 3.12
6 3 3 33.41 3.47
6 -4 -3 0.57 2.16
-6 4 3 -0.67 1.73
-6 4 3 -2.12 4.15
5 -4 -3 43.71 2.41
-5 4 3 49.36 3.45
-5 4 3 45.81 2.02
4 -4 -3 139.07 5.09
-4 4 3 141.8 5.6
-4 4 3 138.65 4.86
3 -4 -3 33.95 1.57
3 -4 -3 29.92 1.69
-3 4 3 32.79 1.34
-3 4 3 37.82 2.07
2 -4 -3 155.43 5.29
2 -4 -3 151.8 5.3
-2 4 3 150.3 5.49
-2 4 3 156.71 8.71
-2 4 3 153.31 5.14
-2 4 3 149.49 5.54
1 -4 -3 58.76 2.31
1 -4 -3 62.44 2.27
-1 4 3 58.28 2.44
-1 4 3 61.28 2.48
-1 4 3 62.06 2.11
-1 4 3 60.73 2.26
-1 4 3 72.28 5.54
0 -4 -3 310.82 10.33
0 -4 -3 313.72 10.34
0 -4 -3 307.46 10.28
0 4 3 319.55 10.25
0 4 3 271.8 10.44
0 4 3 311.92 10.27
-1 -4 -3 287.12 9.39
-1 -4 -3 277.12 9.46
-1 -4 -3 282.5 9.36
-1 -4 -3 271.74 9.3
-1 -4 -3 276.47 9.29
1 4 3 242.86 9.59
1 4 3 278.86 13.04
1 4 3 280.8 9.18
1 4 3 276.43 9.22
1 4 3 277.9 9.27
-2 -4 -3 587.34 19.84
-2 -4 -3 579.64 19.86
-2 -4 -3 583.71 20.08
-2 -4 -3 607.46 19.98
-2 -4 -3 639.34 20.09
2 4 3 582.15 19.79
2 4 3 591.8 19.69
2 4 3 585.45 19.74
2 4 3 569.7 31.58
-3 -4 -3 79.22 3.24
-3 -4 -3 80.74 3.28
-3 -4 -3 78 3.14
-3 -4 -3 77.33 3.6
-3 -4 -3 77.18 3.4
3 4 3 82.59 3.21
3 4 3 84.71 3.02
3 4 3 80.41 3.1
-4 -4 -3 54.27 3.55
-4 -4 -3 61.89 2.72
-4 -4 -3 55.64 3.22
4 4 3 55.6 2.66
4 4 3 61.33 2.82
-5 -4 -3 13.64 1.78
-5 -4 -3 10.52 3.1
-5 -4 -3 15.12 2.38
5 4 3 10.08 1.63
5 4 3 14.46 1.7
-6 -4 -3 0.88 2.69
-6 -4 -3 0.77 3.2
6 4 3 1.21 2.9
6 -5 -3 128.58 5.3
-6 5 3 129.45 6.96
-6 5 3 136.67 4.89
-6 5 3 138.99 5.4
5 -5 -3 0.25 1.04
-5 5 3 -0.22 1.12
-5 5 3 -0.25 2.01
-5 5 3 -0.66 0.71
4 -5 -3 323.5 11.02
4 -5 -3 315.5 11
-4 5 3 325.74 11.63
-4 5 3 317.54 10.79
3 -5 -3 24.09 1.54
3 -5 -3 26.54 1.41
-3 5 3 25.37 1.13
-3 5 3 25.26 1.44
-3 5 3 23.07 2.21
-2 5 3 392.57 12.96
-2 5 3 384.02 13.38
-2 5 3 391.7 13.15
1 -5 -3 1411.93 47.08
1 -5 -3 1457.34 46.97
-1 5 3 1377.68 51.52
-1 5 3 1410.02 47.15
-1 5 3 1442.65 47.05
0 -5 -3 234.89 7.86
0 -5 -3 234.68 7.79
0 5 3 191.99 12.87
0 5 3 238.56 7.78
-1 -5 -3 641.96 21.68
-1 -5 -3 669.89 21.75
-1 -5 -3 632.62 21.63
-1 -5 -3 634.69 21.78
1 5 3 662.14 26.76
1 5 3 644.69 21.54
1 5 3 650.41 21.49
1 5 3 650.13 21.55
1 5 3 648.9 21.6
-2 -5 -3 45.17 1.87
-2 -5 -3 41.35 2.03
-2 -5 -3 39.82 1.85
-2 -5 -3 41.79 2.2
-2 -5 -3 38.85 2.31
2 5 3 20.18 7.27
2 5 3 41.31 1.75
2 5 3 42.32 1.94
2 5 3 41.49 1.84
-3 -5 -3 152.24 5.3
-3 -5 -3 135.12 5.62
-3 -5 -3 138.98 5.36
-3 -5 -3 135.67 5.15
-3 -5 -3 137.85 5.11
3 5 3 124.24 5.65
3 5 3 138.07 5.02
-4 -5 -3 19.56 2.18
-4 -5 -3 20.48 2.61
-4 -5 -3 19.74 1.63
4 5 3 18.65 1.96
4 5 3 19.03 1.52
-5 -5 -3 15.31 2.84
-5 -5 -3 15.63 5.7
-5 -5 -3 19.95 2.06
5 5 3 22.39 1.98
-5 6 3 7.4 2.31
-5 6 3 7.07 1.46
-5 6 3 3.61 2.86
4 -6 -3 19.98 1.68
-4 6 3 18.12 1.72
-4 6 3 18.36 1.23
-4 6 3 19.94 2.39
3 -6 -3 254.51 8.9
-3 6 3 257.21 8.9
2 -6 -3 7.71 0.91
-2 6 3 7.78 0.81
-2 6 3 9.07 1.39
1 -6 -3 23.93 1.4
-1 6 3 20.35 1.75
-1 6 3 21.84 1.22
0 -6 -3 119.9 4.59
0 -6 -3 121.95 4.51
0 6 3 124.22 4.48
0 6 3 139.67 4.41
0 6 3 120.6 11.55
-1 -6 -3 57.74 2.74
-1 -6 -3 56.75 2.47
-1 -6 -3 60.36 2.38
-1 -6 -3 46.1 2.5
1 6 3 38.39 7.6
1 6 3 54 8.68
1 6 3 58.56 2.12
1 6 3 57.73 2.27
1 6 3 67.96 2.53
-2 -6 -3 308.45 10.08
-2 -6 -3 284.15 9.94
-2 -6 -3 288.8 10.29
-2 -6 -3 279.4 9.96
2 6 3 277.25 9.81
2 6 3 286.64 9.89
-3 -6 -3 107.78 5.15
-3 -6 -3 120.43 4.84
-3 -6 -3 113.06 4.5
-3 -6 -3 125.89 4.65
-3 -6 -3 122.22 4.92
3 6 3 109.47 4.38
3 6 3 107.26 4.46
-4 -6 -3 84.12 4.46
-4 -6 -3 76.86 3.56
-4 -6 -3 70.19 4.88
4 6 3 73.38 3.5
4 6 3 77.08 3.59
-5 -6 -3 7.94 4.54
-5 -6 -3 5.89 2
5 6 3 9.95 1.87
-5 7 3 0.68 1.74
-5 7 3 -1.35 3.06
4 -7 -3 3.38 1.58
-4 7 3 3.42 1.18
-4 7 3 1.19 2.32
3 -7 -3 44.34 2.48
-3 7 3 47.64 2.26
-3 7 3 42.07 3.46
2 -7 -3 29.34 1.91
-2 7 3 29.9 2.66
-2 7 3 32.37 1.66
1 -7 -3 52.08 2.34
-1 7 3 46.92 2.14
0 -7 -3 60.98 2.58
0 -7 -3 59.96 2.66
0 7 3 60.17 2.44
0 7 3 58.33 2.19
-1 -7 -3 15.11 1.5
-1 -7 -3 15.08 1.34
1 7 3 17.03 1.26
1 7 3 19.66 1.12
1 7 3 17.12 1.3
-2 -7 -3 246.86 8.93
-2 -7 -3 234.77 8.47
-2 -7 -3 240.46 8.42
-2 -7 -3 235.54 8.51
2 7 3 237.57 8.35
2 7 3 231.07 8.28
-3 -7 -3 29.6 2.49
-3 -7 -3 27.1 3.03
3 7 3 28.65 2.18
3 7 3 27.7 2.13
-4 -7 -3 8.52 2.36
-4 -7 -3 7.26 3.84
4 7 3 15.86 3.14
-5 -7 -3 -2.73 2.39
5 7 3 -1.3 1.86
-5 8 3 0.03 1.82
4 -8 -3 1.77 1.98
-4 8 3 1.36 1.3
-4 8 3 5.08 2.95
3 -8 -3 8.73 1.47
-3 8 3 10.06 1.25
-3 8 3 9.02 2.39
2 -8 -3 19.62 1.92
-2 8 3 20.1 1.58
1 -8 -3 0.48 0.98
-1 8 3 0.28 0.74
-1 8 3 -0.02 0.41
0 -8 -3 1.7 1.29
0 -8 -3 2.58 1.07
0 8 3 0.38 0.56
0 8 3 3.59 0.82
0 8 3 0.99 0.75
-1 -8 -3 5.58 1.34
-1 -8 -3 4.36 1.21
1 8 3 4.03 0.94
1 8 3 3.6 0.89
-2 -8 -3 52.71 3.29
-2 -8 -3 63.32 3.3
2 8 3 59.18 2.89
2 8 3 65.99 2.89
-3 -8 -3 67.82 3.46
3 8 3 67.61 3.46
3 8 3 66.62 3.28
-4 -8 -3 12.86 2.08
4 8 3 15.07 1.91
4 -9 -3 0.1 2.5
-4 9 3 -0.2 1.56
3 -9 -3 65.29 3.93
-3 9 3 74.97 3.47
2 -9 -3 6.21 1.44
-2 9 3 5.13 1.12
1 -9 -3 61.06 3.26
-1 9 3 66.95 2.9
-1 9 3 65.16 2.65
0 -9 -3 6.27 1.46
0 9 3 6.58 1.3
0 9 3 6.08 1.05
-1 -9 -3 30.2 2.63
-1 -9 -3 29.5 2.71
1 9 3 32.19 2.17
1 9 3 33.17 2.08
-2 -9 -3 6.24 1.65
-2 -9 -3 5.82 2.15
2 9 3 7.1 1.55
2 9 3 10.28 1.43
2 9 3 7.67 1.33
-3 -9 -3 18.31 2.11
3 9 3 20.72 1.95
-4 -9 -3 30.76 2.79
4 9 3 36.53 3.34
3 -10 -3 24.68 2.54
-3 10 3 29.3 2.48
2 -10 -3 84.66 4.15
-2 10 3 83.84 3.71
1 -10 -3 2.32 1.56
-1 10 3 0.06 1.25
-1 10 3 1.4 1.14
0 -10 -3 0.11 1.91
0 10 3 1.64 1.38
-1 -10 -3 8.41 3.62
1 10 3 5.15 1.69
2 10 3 1.09 1.53
-3 -10 -3 14.28 2.57
3 10 3 14.26 2.55
2 -11 -3 -1.88 2.85
-2 11 3 0.47 2.53
1 -11 -3 5.58 2.12
-1 11 3 4.72 1.58
0 -11 -3 0.03 2.28
0 11 3 1.29 1.62
-1 -11 -3 4.82 5.05
1 11 3 4.1 1.81
1 11 3 2.55 1.86
2 11 -4 -0.91 2.41
2 11 -4 0.38 1.92
1 11 -4 6.11 2.1
1 11 -4 7.36 1.67
0 11 -4 6.88 2.02
0 11 -4 7.68 1.63
-1 11 -4 0.81 1.93
-1 11 -4 -1.59 1.5
1 -11 4 -1.68 2.11
-2 11 -4 64.45 3.47
2 -11 4 66.46 3.72
3 10 -4 4.49 1.93
3 10 -4 2.48 2.11
2 10 -4 -0.38 1.64
2 10 -4 -0.62 1.45
1 10 -4 25.22 2.42
1 10 -4 25.79 2.22
0 10 -4 10.1 2.43
0 10 -4 8.07 2.02
0 10 -4 5.74 1.81
0 10 -4 10.7 2.59
0 -10 4 5.43 1.91
-1 10 -4 3.64 1.21
-1 10 -4 1.41 1.45
1 -10 4 3.02 1.38
-2 10 -4 42.85 3.12
2 -10 4 41.29 2.61
-3 10 -4 11.16 2.41
3 -10 4 8.94 1.67
4 9 -4 13.16 3.79
4 9 -4 23.18 2.38
3 9 -4 0.8 1.59
3 9 -4 2.53 1.49
-3 -9 4 1.73 2.9
-3 -9 4 5.73 4.19
2 9 -4 84.05 3.85
2 9 -4 91.59 3.79
2 9 -4 82.1 4.1
-2 -9 4 91.97 4.17
-2 -9 4 93.09 5.67
1 9 -4 58.83 2.96
1 9 -4 62.6 2.88
1 9 -4 63.83 3.39
0 9 -4 -0.19 0.87
0 9 -4 0.44 1.06
0 9 -4 1.77 1.29
0 9 -4 0.77 1.12
0 -9 4 0.94 1.09
-1 9 -4 3.55 1.55
-1 9 -4 6.47 2.74
-1 9 -4 3.3 1.03
-1 9 -4 6.44 1.38
1 -9 4 3.95 1.01
-2 9 -4 7.29 1.68
2 -9 4 9.63 1.18
-3 9 -4 0.39 2.43
-3 9 -4 5.23 2.67
3 -9 4 2.38 1.12
-4 9 -4 24.22 3.04
-4 9 -4 25.86 3.44
4 -9 4 31.6 2.57
4 8 -4 82.14 4.01
4 8 -4 85.17 4.09
-4 -8 4 84.88 5.05
-4 -8 4 88.64 4.52
3 8 -4 28.29 2.12
3 8 -4 25.97 2.28
3 8 -4 26.89 2.21
-3 -8 4 23.24 2.53
-3 -8 4 24.66 1.86
-3 -8 4 25.64 3.2
2 8 -4 106.25 4.29
2 8 -4 107.85 4.47
2 8 -4 107.28 4.21
-2 -8 4 103.96 4.18
-2 -8 4 107.66 5.33
1 8 -4 0.21 0.8
1 8 -4 0.6 0.89
1 8 -4 0.85 0.78
1 8 -4 -0.31 0.98
-1 -8 4 -1.09 1.88
-1 -8 4 1.69 1.04
0 8 -4 2.37 1.09
0 8 -4 1.68 0.75
0 8 -4 1.14 0.96
0 8 -4 1.46 0.91
0 8 -4 1.84 0.87
0 -8 4 2.71 1.9
0 -8 4 1.06 0.78
0 -8 4 1.23 1.15
-1 8 -4 91.47 4.26
-1 8 -4 94.42 3.68
-1 8 -4 91.29 3.98
-1 8 -4 96.04 3.96
1 -8 4 93.52 3.53
-2 8 -4 145.97 5.65
-2 8 -4 147.54 6.28
-2 8 -4 138.02 5.72
-2 8 -4 142.73 5.91
2 -8 4 140.03 5.15
-3 8 -4 127.34 5.76
-3 8 -4 123.99 5.59
3 -8 4 136.1 4.83
-4 8 -4 86.28 4.77
-4 8 -4 83.03 4.93
4 -8 4 81.79 3.51
5 7 -4 12.5 2.27
5 7 -4 10.89 1.85
-5 -7 4 4.43 2.78
-5 -7 4 4.74 2.34
4 7 -4 178.52 6.66
4 7 -4 182.93 6.76
4 7 -4 172.87 6.71
-4 -7 4 176.4 7.25
-4 -7 4 162.39 7.87
-4 -7 4 181.25 6.57
3 7 -4 243.22 8.85
3 7 -4 240.61 8.85
3 7 -4 253.71 8.81
3 7 -4 245.95 8.75
-3 -7 4 251.83 8.62
2 7 -4 157.64 5.59
2 7 -4 147.45 5.72
2 7 -4 150.1 5.59
2 7 -4 153.28 5.51
-2 -7 4 147.24 6.17
-2 -7 4 150.06 5.39
1 7 -4 0.11 0.47
1 7 -4 -0.64 1.07
1 7 -4 0.5 0.66
1 7 -4 -0.53 0.78
-1 -7 4 0.46 1.35
-1 -7 4 -0.22 0.78
-1 -7 4 -0.4 0.66
0 7 -4 -0.02 0.59
0 7 -4 0.94 0.89
0 7 -4 0.1 0.74
0 7 -4 0.52 0.57
0 7 -4 0.2 0.77
0 -7 4 0.29 0.56
0 -7 4 0.37 1.34
0 -7 4 -0.37 0.7
-1 7 -4 58.64 2.81
-1 7 -4 59.02 2.92
-1 7 -4 53.03 2.68
-1 7 -4 53.85 2.34
-1 7 -4 47.82 3.67
1 -7 4 53.25 2.35
-2 7 -4 1288.25 45.49
-2 7 -4 1286.46 45.18
-2 7 -4 1507.26 45.78
-2 7 -4 1348.55 45.14
2 -7 4 1311.97 44.65
-3 7 -4 9.74 1.78
-3 7 -4 7.33 1.72
-4 7 -4 139.15 6.01
-4 7 -4 136.21 6.19
-5 7 -4 16.47 2.99
-5 7 -4 9.44 2.73
5 -7 4 15.68 1.66
5 6 -4 2.27 1.77
5 6 -4 0.63 1.58
-5 -6 4 -1.64 4.33
-5 -6 4 -2.02 1.7
-5 -6 4 0.69 2.37
4 6 -4 110.29 4.42
4 6 -4 109.21 4.08
4 6 -4 105.77 4.47
4 6 -4 105.54 4.46
-4 -6 4 110.4 4.27
-4 -6 4 105.61 5.47
-4 -6 4 107.08 4.94
3 6 -4 7.12 1.18
3 6 -4 4.52 0.64
3 6 -4 3.83 1
3 6 -4 3.39 0.96
-3 -6 4 3.71 0.8
-3 -6 4 4.99 1.71
2 6 -4 691.1 23.23
2 6 -4 700.57 23.34
2 6 -4 687.53 23.23
2 6 -4 683.84 23.48
-2 -6 4 696.08 23.67
-2 -6 4 704.34 23.12
1 6 -4 63.5 2.44
1 6 -4 50.44 2.61
1 6 -4 54.06 2.49
1 6 -4 64.61 2.69
1 6 -4 64.98 2.51
1 6 -4 65.08 2.5
-1 -6 4 63.94 2.97
-1 -6 4 47.51 9.94
-1 -6 4 63.96 2.36
-1 -6 4 64.08 2.32
0 6 -4 127.7 4.75
0 6 -4 127.81 4.78
0 6 -4 126.46 4.54
0 -6 4 114.74 14.37
0 -6 4 133.13 4.46
-1 6 -4 40.33 1.7
-1 6 -4 32.45 2.16
-1 6 -4 40.83 2.06
-1 6 -4 31.47 2.08
1 -6 4 39.53 1.62
1 -6 4 40.86 1.62
1 -6 4 56.62 10.19
-2 6 -4 202.48 7.64
-2 6 -4 194.59 7.41
-2 6 -4 199.39 7.51
-2 6 -4 205.4 7.27
2 -6 4 201.25 6.93
2 -6 4 205.66 6.95
-3 6 -4 133.07 6.33
-3 6 -4 154.69 6.13
-3 6 -4 152.98 5.97
-3 6 -4 153.04 6.34
3 -6 4 153.75 5.34
-4 6 -4 2.47 1.7
-4 6 -4 5.91 1.91
4 -6 4 3.78 0.82
-5 6 -4 5.69 2.66
-5 6 -4 7.08 2.41
6 5 -4 11.99 2.32
6 5 -4 13.81 2.12
-6 -5 4 12.95 2.23
-6 -5 4 8.34 2.97
5 5 -4 13.93 3.18
-5 -5 4 9.06 3.06
-5 -5 4 6.35 3.07
4 5 -4 69.95 3.28
4 5 -4 73.76 3.35
4 5 -4 79.51 3.16
4 5 -4 70.81 3.33
-4 -5 4 72.95 4.15
-4 -5 4 75.8 3.8
-4 -5 4 74.02 3.06
3 5 -4 22.39 1.64
3 5 -4 22.29 1.2
3 5 -4 20.71 1.63
3 5 -4 23.87 1.7
-3 -5 4 18.58 1.94
-3 -5 4 21.31 1.38
2 5 -4 61.01 2.51
2 5 -4 62.4 2.6
2 5 -4 65.73 2.45
2 5 -4 60.86 2.48
2 5 -4 56.79 2.5
-2 -5 4 37.37 8.51
-2 -5 4 61.04 2.28
-2 -5 4 59.59 2.9
1 5 -4 122.22 4.4
1 5 -4 124.87 4.39
1 5 -4 122.57 4.49
1 5 -4 122.8 4.52
1 5 -4 118.81 4.27
1 5 -4 118.83 4.27
-1 -5 4 109.98 9.81
-1 -5 4 122.96 4.17
0 5 -4 103.84 4.04
0 5 -4 113.33 3.93
0 5 -4 108.4 4.06
0 5 -4 115.39 4.17
0 5 -4 106.38 3.82
0 -5 4 94.67 8.67
0 -5 4 107.24 3.71
0 -5 4 107.92 3.72
-1 5 -4 21.55 1.11
-1 5 -4 21.2 1.55
-1 5 -4 22.68 1.47
-1 5 -4 21.16 3.57
-1 5 -4 21.75 1.55
-1 5 -4 20.54 1.31
1 -5 4 20.94 0.96
1 -5 4 21.46 1.03
1 -5 4 19.87 5.48
-2 5 -4 117.3 11.19
-2 5 -4 96.64 3.77
-2 5 -4 96.42 4
-2 5 -4 89.45 3.95
-2 5 -4 99.81 3.46
2 -5 4 92.19 3.37
2 -5 4 93.67 3.44
-3 5 -4 52.67 4
-3 5 -4 47.69 2.72
-3 5 -4 47.52 2.64
3 -5 4 55.44 2.25
-4 5 -4 26.27 2.18
-4 5 -4 24.75 2.42
4 -5 4 23.78 1.5
-5 5 -4 7.26 3
5 -5 4 4.55 1.13
-6 5 -4 -0.2 3.91
-6 5 -4 -1.56 2.84
6 4 -4 -0.53 1.87
6 4 -4 -0.82 1.79
-6 -4 4 -2.12 2.54
-6 -4 4 0.43 1.67
5 4 -4 6.84 1.47
5 4 -4 5.75 1.35
-5 -4 4 3.48 2.77
-5 -4 4 7.78 1.26
-5 -4 4 6.35 1.98
4 4 -4 2.24 0.46
4 4 -4 2.06 1.03
4 4 -4 1.75 0.38
4 4 -4 0.66 0.96
4 4 -4 2.76 0.96
-4 -4 4 0.57 1.57
-4 -4 4 2.39 0.75
-4 -4 4 2.52 1.43
3 4 -4 46.42 2.01
3 4 -4 49.03 2.24
3 4 -4 49.21 1.95
3 4 -4 48.99 2.16
3 4 -4 45.71 2.21
-3 -4 4 49.12 1.9
-3 -4 4 47.23 2.67
2 4 -4 13.9 0.83
2 4 -4 15.41 1.05
2 4 -4 14.44 0.87
2 4 -4 15.21 1.11
2 4 -4 17.56 1.66
2 4 -4 14.73 1.08
-2 -4 4 16.34 1.41
-2 -4 4 14.29 0.79
-2 -4 4 18.77 5.11
1 4 -4 44.14 1.77
1 4 -4 47.06 1.82
1 4 -4 43.87 1.8
1 4 -4 45.29 1.87
1 4 -4 46.31 2
1 4 -4 45.88 1.89
-1 -4 4 45.88 1.62
0 4 -4 390.62 13.27
0 4 -4 416.9 13.45
0 4 -4 402.61 13.49
0 4 -4 412.3 13.33
0 4 -4 420.5 13.6
0 4 -4 382.04 13.46
0 -4 4 386.79 13.2
0 -4 4 368.77 16.42
0 -4 4 397.57 13.24
-1 4 -4 21.58 0.99
-1 4 -4 22.15 1.42
-1 4 -4 22.68 2.57
-1 4 -4 20.95 2.83
-1 4 -4 21.76 1.34
-1 4 -4 21.72 1.37
-1 4 -4 20.92 1.04
-1 4 -4 21.65 1.05
-1 4 -4 22.08 1.24
1 -4 4 20.94 0.88
1 -4 4 20.95 1
1 -4 4 16.73 3.63
1 -4 4 24.28 1.96
-2 4 -4 8.42 0.91
-2 4 -4 12.85 4.46
-2 4 -4 7.86 0.93
2 -4 4 9.3 0.66
2 -4 4 9.31 0.8
2 -4 4 7.58 4.36
-3 4 -4 35.81 2.39
-3 4 -4 34.05 2.11
-3 4 -4 34.98 2.11
3 -4 4 35.43 1.59
-4 4 -4 4.79 1.66
-4 4 -4 6.89 1.51
-4 4 -4 6.83 1.71
4 -4 4 4.61 0.7
-5 4 -4 41.99 3.93
5 -4 4 39.68 2.1
-6 4 -4 18.98 4.55
6 3 -4 -0.48 1.88
6 3 -4 3.61 1.87
-6 -3 4 6.58 2.97
-6 -3 4 4.87 1.67
5 3 -4 341.76 11.89
5 3 -4 336.64 11.77
-5 -3 4 339.9 11.57
-5 -3 4 324.37 12.42
-5 -3 4 347.47 12.15
4 3 -4 2.85 0.88
4 3 -4 2.45 0.94
4 3 -4 3.14 0.98
-4 -3 4 3.41 0.67
-4 -3 4 5.57 1.46
-4 -3 4 2.7 1.23
3 3 -4 0.53 0.66
3 3 -4 0.51 0.63
3 3 -4 0.08 0.23
3 3 -4 0.12 0.19
3 3 -4 -0.03 0.6
-3 -3 4 -0.03 0.37
-3 -3 4 -0.02 0.86
2 3 -4 31.94 1.4
2 3 -4 31.5 1.26
2 3 -4 29.18 1.24
2 3 -4 30.23 1.44
2 3 -4 31.58 1.44
2 3 -4 31.21 1.54
-2 -3 4 31.62 1.69
-2 -3 4 29.94 1.15
-2 -3 4 32.08 3.92
1 3 -4 2095.46 67.8
1 3 -4 2022 67.72
1 3 -4 1993.95 67.63
1 3 -4 2086.79 67.68
1 3 -4 2061.34 67.64
-1 -3 4 2028.15 67.54
-1 -3 4 2018.89 67.54
-1 -3 4 2086.82 69.89
0 3 -4 110.45 3.83
0 3 -4 112.64 4.04
0 3 -4 115.61 4.03
0 3 -4 115.8 4.05
0 3 -4 117.11 3.89
0 3 -4 106.92 4.14
0 -3 4 107.29 6.2
0 -3 4 111.27 3.77
0 -3 4 109.71 3.83
-1 3 -4 242.22 8.29
-1 3 -4 248.1 8.15
-1 3 -4 250.96 8.37
-1 3 -4 250.4 8.04
-1 3 -4 241.51 9.14
-1 3 -4 238.04 8.41
-1 3 -4 238.25 8.35
1 -3 4 247.22 8.06
1 -3 4 228.94 8.48
1 -3 4 239.35 8.13
1 -3 4 226.63 11.34
-2 3 -4 3.16 0.8
-2 3 -4 0.55 0.65
-2 3 -4 0.84 0.49
-2 3 -4 5.11 3.23
-2 3 -4 1.39 0.42
2 -3 4 1.3 0.41
2 -3 4 0.99 0.3
2 -3 4 -0.4 3.62
2 -3 4 -0.72 0.87
-3 3 -4 3.51 1.08
-3 3 -4 1.88 6.16
-3 3 -4 0.52 0.5
-3 3 -4 1.08 0.86
-3 3 -4 1.8 0.96
3 -3 4 0.81 0.44
3 -3 4 0.52 0.52
-4 3 -4 168.57 6.63
-4 3 -4 169.34 6.89
-4 3 -4 168.01 6.57
-4 3 -4 170.45 6.67
4 -3 4 168.68 5.96
-5 3 -4 191.31 7.6
-5 3 -4 187.89 7.3
-5 3 -4 187.85 7.79
5 -3 4 184.61 6.65
-6 3 -4 20.55 3.43
6 2 -4 36.24 2.77
6 2 -4 33.89 2.85
-6 -2 4 39.9 3.81
-6 -2 4 35.45 3.15
-6 -2 4 37.5 2.54
5 2 -4 1.39 1.12
5 2 -4 -0.16 1.13
-5 -2 4 0.36 0.88
-5 -2 4 2.79 2.2
4 2 -4 38.26 1.95
4 2 -4 35.99 1.99
4 2 -4 34.82 1.98
-4 -2 4 39.2 2.48
-4 -2 4 37.34 2.28
3 2 -4 6.31 0.8
3 2 -4 5.01 0.69
3 2 -4 5.88 0.7
-3 -2 4 6.71 0.45
2 2 -4 0.8 0.41
2 2 -4 0.57 0.42
2 2 -4 0.78 0.45
2 2 -4 0.79 0.53
-2 -2 4 0.64 0.2
-2 -2 4 0.63 0.15
-2 -2 4 1.05 1.43
-2 -2 4 0.26 1.36
1 2 -4 26.25 1.26
1 2 -4 26.5 0.97
1 2 -4 26.02 1.07
1 2 -4 26.53 1
1 2 -4 26.72 1.15
1 2 -4 27.05 1.12
-1 -2 4 23.63 1.62
-1 -2 4 26.3 1.77
-1 -2 4 26.75 0.91
-1 -2 4 25.23 0.92
-1 -2 4 26.64 1.04
0 2 -4 14.18 0.75
0 2 -4 13.96 0.6
0 2 -4 13.82 0.65
0 2 -4 15.03 0.78
0 2 -4 14.03 0.9
0 2 -4 13.73 0.9
0 -2 4 15.2 2.22
0 -2 4 13.3 0.69
0 -2 4 11.84 0.78
0 -2 4 13.91 0.56
-1 2 -4 259.43 8.66
-1 2 -4 266.76 9.25
-1 2 -4 254.74 8.79
-1 2 -4 252.52 8.85
1 -2 4 261.15 11.65
1 -2 4 239.63 8.89
1 -2 4 257.56 8.64
1 -2 4 267.54 8.61
-2 2 -4 -0.15 2.66
-2 2 -4 -0.58 0.58
-2 2 -4 0.52 0.56
-2 2 -4 -0.05 0.25
-2 2 -4 0.64 0.66
-2 2 -4 0.26 0.45
2 -2 4 0.92 2.92
2 -2 4 0.88 0.81
2 -2 4 -0.3 0.35
2 -2 4 0.48 0.29
-3 2 -4 11.22 0.87
-3 2 -4 8.73 5.18
-3 2 -4 12.15 1.32
-3 2 -4 11.24 1.24
-3 2 -4 10 1.06
3 -2 4 10.77 0.88
3 -2 4 10.87 0.86
-4 2 -4 203.32 7.45
-4 2 -4 194.93 7.23
-4 2 -4 201.68 7.5
-4 2 -4 202.02 7.67
4 -2 4 189.48 6.89
-5 2 -4 48.62 3.52
-5 2 -4 47.85 4.57
5 -2 4 46.89 2.21
-6 2 -4 6.36 2.91
6 -2 4 2.93 1.54
6 1 -4 44.85 2.82
6 1 -4 42.98 2.86
-6 -1 4 43.7 3.78
-6 -1 4 45.11 2.5
-6 -1 4 41.59 3.87
5 1 -4 17.26 1.8
5 1 -4 12.32 1.32
-5 -1 4 17.1 1.4
-5 -1 4 15.7 1.81
4 1 -4 6.02 0.88
4 1 -4 6.95 0.95
-4 -1 4 6.56 0.62
-4 -1 4 7.11 1.29
-4 -1 4 4.49 1.17
3 1 -4 25.87 1.43
3 1 -4 27.11 1.38
3 1 -4 28.19 1.44
-3 -1 4 27.47 1.66
-3 -1 4 28.99 1.08
2 1 -4 0.97 0.51
2 1 -4 0.04 0.39
2 1 -4 0.21 0.38
2 1 -4 1 0.45
-2 -1 4 0.49 0.17
1 1 -4 446.98 14.48
1 1 -4 415.94 14.39
1 1 -4 438.69 14.43
1 1 -4 431.45 14.36
1 1 -4 431.77 14.41
0 1 -4 37.1 1.52
0 1 -4 37.96 1.28
0 1 -4 35.34 1.41
0 1 -4 34.98 1.35
0 1 -4 36.41 1.41
0 1 -4 36.25 1.49
0 -1 4 35.79 2.12
0 -1 4 37.73 1.24
0 -1 4 33.86 1.42
-1 1 -4 53.31 2.06
-1 1 -4 56.09 1.98
-1 1 -4 53.51 2.07
-1 1 -4 49.86 2.05
-1 1 -4 53.09 2.13
1 -1 4 55.51 1.85
1 -1 4 52.41 1.94
1 -1 4 50.5 2.15
1 -1 4 50.46 4.23
-2 1 -4 0.05 0.58
-2 1 -4 1.51 1.97
-2 1 -4 0.54 0.55
-2 1 -4 1.3 0.38
-2 1 -4 0.24 0.6
2 -1 4 2.43 2.7
2 -1 4 0.93 0.29
2 -1 4 0.53 0.35
2 -1 4 0.68 0.42
-3 1 -4 9.42 0.99
-3 1 -4 10.75 1.05
-3 1 -4 10.32 1.14
-3 1 -4 9.19 0.81
-3 1 -4 7.97 1.01
-3 1 -4 11.7 4.75
3 -1 4 6.27 5.63
3 -1 4 10.55 0.85
3 -1 4 9.47 0.83
-4 1 -4 70.2 3.54
-4 1 -4 77.03 3.59
-4 1 -4 75.41 3.33
4 -1 4 71.7 2.85
-5 1 -4 31.32 3.02
-5 1 -4 30.45 2.83
-5 1 -4 27.05 2.5
5 -1 4 28.44 1.91
-6 1 -4 33.79 3.24
-6 1 -4 32.47 3.32
6 0 -4 3.47 1.33
6 0 -4 4.77 1.48
-6 0 4 5.06 1.11
-6 0 4 2.77 2.56
-6 0 4 1.43 2.23
5 0 -4 16.68 1.7
5 0 -4 20.34 1.48
-5 0 4 16.46 1.88
-5 0 4 16.43 1.39
4 0 -4 22.07 1.47
4 0 -4 21.82 1.45
-4 0 4 19.08 1.1
-4 0 4 21.69 1.77
-4 0 4 20.31 1.99
3 0 -4 395.16 12.98
3 0 -4 373.18 13.04
3 0 -4 382.68 12.95
-3 0 4 395.35 13.12
-3 0 4 379.48 12.76
2 0 -4 485.18 16.26
2 0 -4 491.67 16.19
2 0 -4 494.49 16.23
2 0 -4 519.51 16.16
2 0 -4 475.57 16.2
-2 0 4 455.63 16.12
1 0 -4 573.73 19.16
1 0 -4 573.41 19.17
1 0 -4 584.06 19.21
1 0 -4 599.52 19.22
1 0 -4 565.33 19.13
1 0 -4 574.17 19.18
0 0 -4 1.27 0.41
0 0 -4 1.76 0.37
0 0 -4 1.94 0.18
0 0 -4 2.03 0.44
0 0 -4 1.26 0.33
0 0 4 1.67 0.27
-1 0 -4 340.63 11.01
-1 0 -4 337.33 10.97
-1 0 -4 330.54 11.1
-1 0 -4 325.55 11.05
-1 0 -4 329.5 11.02
-1 0 -4 327.74 11.11
1 0 4 314.47 13.42
1 0 4 332.03 10.98
1 0 4 332.58 10.89
1 0 4 310.13 11.18
-2 0 -4 680.44 22.53
-2 0 -4 677.84 22.58
-2 0 -4 686.6 22.48
-2 0 -4 664.59 24.47
-2 0 -4 678.52 22.69
-2 0 -4 688.04 22.44
-2 0 -4 686.77 22.46
2 0 4 652.3 22.31
2 0 4 681.81 22.42
2 0 4 694.4 22.37
2 0 4 651.14 26.53
2 0 4 642.75 22.32
-3 0 -4 686.93 30.86
-3 0 -4 701.38 23.09
-3 0 -4 699.19 23.22
-3 0 -4 662.52 23.46
3 0 4 730.72 23.21
3 0 4 683.27 22.99
3 0 4 691.39 22.96
3 0 4 693.47 29.06
3 0 4 679.08 23.06
-4 0 -4 26.31 1.96
-4 0 -4 24.1 2.41
-4 0 -4 23.25 2.64
-4 0 -4 23.7 2.38
-4 0 -4 24.83 1.72
4 0 4 23.11 1.45
4 0 4 25.32 1.38
4 0 4 24.21 1.75
-5 0 -4 48.77 3.44
5 0 4 50.81 2.35
-6 0 -4 31.67 3.09
-6 0 -4 34.97 3.25
6 -1 -4 1.89 1.37
-6 1 4 1.76 1.02
-6 1 4 2.06 2.18
5 -1 -4 3.7 1.03
5 -1 -4 3.66 0.97
-5 1 4 4.72 0.79
-5 1 4 4.98 1.69
-5 1 4 2.87 1.5
4 -1 -4 27.05 1.54
4 -1 -4 24.37 1.57
-4 1 4 23.12 1.87
-4 1 4 25.8 1.23
3 -1 -4 25.16 1.26
3 -1 -4 24.76 1.3
-3 1 4 24.02 0.98
-3 1 4 23.58 1.46
-3 1 4 25.99 1.47
2 -1 -4 578.68 18.72
2 -1 -4 575.98 18.72
2 -1 -4 561.17 18.8
2 -1 -4 571.83 18.74
-2 1 4 528.85 18.72
-2 1 4 568.22 18.82
1 -1 -4 356.94 11.93
1 -1 -4 359.4 11.9
1 -1 -4 362.19 11.93
1 -1 -4 374.35 11.89
1 -1 -4 360.7 11.92
1 -1 -4 366.58 11.86
-1 1 4 322.93 11.84
0 -1 -4 419.49 13.73
0 -1 -4 407.96 13.61
0 -1 -4 406.23 13.72
0 -1 -4 426.75 13.73
0 1 4 416.57 13.59
0 1 4 387.38 13.76
0 1 4 414.62 13.62
-1 -1 -4 42.3 1.65
-1 -1 -4 41.32 1.74
-1 -1 -4 42.01 1.61
-1 -1 -4 40.64 1.68
-1 -1 -4 40.15 1.72
1 1 4 41.56 1.49
1 1 4 41.62 1.43
1 1 4 38.87 3.77
1 1 4 42.28 1.46
1 1 4 39.16 1.77
-2 -1 -4 13.12 0.94
-2 -1 -4 13.88 0.87
-2 -1 -4 15.04 1.13
-2 -1 -4 11.57 1.05
-2 -1 -4 12.62 0.85
2 1 4 13.04 0.81
2 1 4 13.06 0.71
2 1 4 14.07 0.83
2 1 4 12.05 1.34
2 1 4 13.74 3.62
2 1 4 13.06 0.79
-3 -1 -4 53.34 2.21
-3 -1 -4 54.09 2.48
-3 -1 -4 56.45 2.43
-3 -1 -4 46.74 7.38
3 1 4 44.83 2.24
3 1 4 54.26 2.06
3 1 4 52.86 11.31
3 1 4 55.79 2.12
3 1 4 56.1 2.23
-4 -1 -4 523.73 17.21
-4 -1 -4 508.85 16.87
-4 -1 -4 491.47 16.97
-4 -1 -4 494.1 16.62
4 1 4 478.55 16.63
4 1 4 486.96 16.52
4 1 4 461.12 16.51
-5 -1 -4 1.9 1.63
-5 -1 -4 1.62 1.77
5 1 4 1.94 1.14
5 1 4 1.66 1.1
5 1 4 -1.24 1.45
-6 -1 -4 12.69 2.88
-6 -1 -4 11.32 2.82
6 -2 -4 11.91 1.63
-6 2 4 10.51 1.12
-6 2 4 12.76 2.49
5 -2 -4 31.42 2.2
-5 2 4 28.51 2.87
-5 2 4 33.53 1.78
4 -2 -4 426.64 14.54
4 -2 -4 451.35 15.16
-4 2 4 432.92 14.42
-4 2 4 424.19 14.66
-4 2 4 418.33 14.84
3 -2 -4 6.8 0.67
3 -2 -4 10.73 0.84
3 -2 -4 9.19 0.71
-3 2 4 9.01 0.91
2 -2 -4 727.74 24.02
2 -2 -4 749.99 23.96
2 -2 -4 751.65 23.91
2 -2 -4 718.52 24
-2 2 4 627.22 24.12
-2 2 4 740.02 23.96
-2 2 4 739.84 23.95
1 -2 -4 162.69 5.28
1 -2 -4 158.11 5.29
1 -2 -4 154.61 5.27
-1 2 4 143.75 5.24
0 -2 -4 93.49 3.37
0 -2 -4 94.97 3.39
0 -2 -4 106.09 3.32
0 -2 -4 91.46 3.4
0 2 4 95 3.3
-1 -2 -4 285.05 9.7
-1 -2 -4 289.53 9.69
-1 -2 -4 275.11 9.73
-1 -2 -4 300.05 9.67
1 2 4 302.39 9.53
1 2 4 255.24 9.85
1 2 4 301.58 12.67
-2 -2 -4 996.82 32.68
-2 -2 -4 1004.61 32.67
-2 -2 -4 1007.46 32.76
-2 -2 -4 997.84 32.91
2 2 4 992.89 32.54
2 2 4 976.05 32.61
2 2 4 985.17 37.59
2 2 4 895.69 33.05
2 2 4 994.29 32.53
-3 -2 -4 4.02 0.8
-3 -2 -4 3.44 0.56
-3 -2 -4 4.39 0.72
-3 -2 -4 5.22 1.1
-3 -2 -4 3.74 0.96
3 2 4 5.35 0.71
3 2 4 4.74 0.74
3 2 4 3.8 0.6
-4 -2 -4 104.42 4.32
-4 -2 -4 101.5 4.37
-4 -2 -4 104.83 4.1
4 2 4 105.44 3.77
4 2 4 88.04 4.29
4 2 4 100.64 3.99
-5 -2 -4 138.82 5.54
-5 -2 -4 138.49 5.71
-5 -2 -4 127.1 5.82
5 2 4 144.99 5.5
-6 -2 -4 130.11 6.04
-6 -2 -4 126.44 6.57
6 -3 -4 124.99 5.1
-6 3 4 130.6 6.1
-6 3 4 129.32 4.69
5 -3 -4 6.33 1.16
-5 3 4 6.07 0.77
-5 3 4 3.97 1.78
4 -3 -4 432.01 15
-4 3 4 451.43 15.3
-4 3 4 442.85 14.77
3 -3 -4 3.21 0.74
3 -3 -4 2.78 0.58
-3 3 4 5.07 1.58
-3 3 4 3.65 0.4
2 -3 -4 22.22 1.12
2 -3 -4 21.33 1.04
2 -3 -4 19.59 1.47
-2 3 4 20.54 1.32
-2 3 4 19.21 1.14
-2 3 4 17.39 3.04
-2 3 4 21 0.82
1 -3 -4 625.46 19.92
1 -3 -4 603.1 19.94
1 -3 -4 606.62 19.9
-1 3 4 585.82 19.77
-1 3 4 589.51 19.9
-1 3 4 582.19 19.93
0 -3 -4 351.06 11.64
0 -3 -4 363.37 11.59
0 -3 -4 348.07 11.61
0 3 4 350.39 11.54
0 3 4 315.2 11.75
-1 -3 -4 319.97 10.39
-1 -3 -4 298.03 10.33
-1 -3 -4 307.75 10.37
-1 -3 -4 299.86 10.34
1 3 4 315.86 10.2
1 3 4 314.62 10.26
1 3 4 304.74 10.24
1 3 4 282.07 13.52
-2 -3 -4 443.13 14.56
-2 -3 -4 426.38 14.47
-2 -3 -4 429.54 14.41
-2 -3 -4 431.8 14.42
-2 -3 -4 423.6 14.65
2 3 4 430.33 14.26
2 3 4 431.84 14.31
2 3 4 388.97 19.54
2 3 4 433.1 14.27
-3 -3 -4 1.41 0.84
-3 -3 -4 3.16 1.09
-3 -3 -4 1.53 0.69
-3 -3 -4 0.95 1.11
-3 -3 -4 1.49 0.54
3 3 4 0.33 0.63
3 3 4 1.43 0.68
3 3 4 0.82 0.69
3 3 4 2.53 0.73
-4 -3 -4 43.1 2.87
-4 -3 -4 40.77 2.31
-4 -3 -4 44.87 2.5
-4 -3 -4 42.58 3.15
4 3 4 49.35 2.26
4 3 4 41.41 2.24
4 3 4 43.06 2.37
-5 -3 -4 6.2 2.13
-5 -3 -4 4.69 1.78
-5 -3 -4 5.79 1.63
5 3 4 7.48 1.63
-6 -3 -4 53.55 4.36
-6 -3 -4 43.15 3.98
6 -4 -4 80.47 3.71
-6 4 4 73.82 5.34
-6 4 4 82.92 3.22
5 -4 -4 217.49 7.9
-5 4 4 225.72 7.61
-5 4 4 221.17 8.62
4 -4 -4 7.02 0.93
-4 4 4 6.84 1.56
-4 4 4 6.64 0.64
3 -4 -4 63.01 3.18
3 -4 -4 76.98 2.88
-3 4 4 77.36 2.63
-3 4 4 76.11 3.29
2 -4 -4 992.12 32.56
-2 4 4 969.54 32.37
-2 4 4 977.65 32.67
1 -4 -4 43.4 1.77
1 -4 -4 41.91 1.8
-1 4 4 43.19 2
-1 4 4 42.44 1.71
0 -4 -4 375.21 12.41
0 -4 -4 367.18 12.35
0 -4 -4 354.61 12.35
0 4 4 372.49 12.3
-1 -4 -4 483.3 16.76
-1 -4 -4 518.49 16.66
-1 -4 -4 481.29 16.6
-1 -4 -4 495.91 16.57
-1 -4 -4 506.65 16.66
1 4 4 492.98 16.52
1 4 4 477.23 20.82
1 4 4 503.53 16.45
1 4 4 494.67 16.47
-2 -4 -4 825.92 27.86
-2 -4 -4 820.6 27.62
-2 -4 -4 860.58 27.73
-2 -4 -4 840.16 27.61
-2 -4 -4 823.92 27.6
2 4 4 838.3 27.43
2 4 4 743.94 33.74
2 4 4 842.5 27.51
2 4 4 831.45 27.44
-3 -4 -4 7.44 0.93
-3 -4 -4 2.64 1.05
-3 -4 -4 1.44 1.4
-3 -4 -4 3.87 1.31
-3 -4 -4 3.67 0.71
3 4 4 3.86 0.82
3 4 4 4.14 0.89
3 4 4 3.45 0.82
-4 -4 -4 99.23 7.35
-4 -4 -4 93.94 4.42
-4 -4 -4 90.2 4.34
-4 -4 -4 90.55 3.81
4 4 4 90.81 3.86
4 4 4 83.8 3.98
-5 -4 -4 9.08 2.78
-5 -4 -4 7.83 1.86
5 4 4 9.34 1.9
-6 -4 -4 7.04 3.14
-6 -4 -4 15.74 3.97
6 -5 -4 8.75 1.77
-6 5 4 11.78 1.25
-6 5 4 11.24 2.91
-6 5 4 9.25 3.66
5 -5 -4 1.13 1.23
-5 5 4 1.17 0.84
-5 5 4 -0.36 1.29
-5 5 4 -0.91 2.36
4 -5 -4 19.91 1.56
-4 5 4 21.53 2.26
-4 5 4 21.83 1.19
3 -5 -4 495.59 17.15
3 -5 -4 511.7 17.15
-3 5 4 516.1 17.53
-3 5 4 511.19 17.17
-3 5 4 509.42 16.93
2 -5 -4 60.12 2.52
-2 5 4 58.65 2.15
-2 5 4 62.56 2.92
-2 5 4 62.93 2.45
1 -5 -4 809.39 26.45
-1 5 4 807.1 26.6
-1 5 4 771.5 26.49
0 -5 -4 11.64 1.08
0 -5 -4 11.02 1.04
0 5 4 8.83 5.03
0 5 4 11.03 0.54
0 5 4 10.95 0.81
-1 -5 -4 918.06 28.56
-1 -5 -4 861.56 28.02
-1 -5 -4 847.33 28
1 5 4 820.56 27.79
1 5 4 822.98 27.76
1 5 4 769.1 33.22
1 5 4 821.76 27.86
-2 -5 -4 2.14 1.21
-2 -5 -4 1.3 0.39
-2 -5 -4 2.29 0.9
-2 -5 -4 3.03 1.29
2 5 4 1.97 0.65
2 5 4 1.54 0.72
-3 -5 -4 3.37 1.6
-3 -5 -4 3.56 1.75
-3 -5 -4 5.21 1.02
-3 -5 -4 2.63 1.26
-3 -5 -4 4.17 0.68
3 5 4 4.1 0.91
3 5 4 3.53 1.04
-4 -5 -4 171.62 7.82
-4 -5 -4 181.26 6.69
-4 -5 -4 173.24 7.63
4 5 4 184.41 6.72
-5 -5 -4 16.45 3.26
-5 -5 -4 21.77 2.32
5 5 4 27.09 2.24
-5 6 4 -2.1 1.35
-5 6 4 -1.32 2.85
-5 6 4 -0.04 0.76
-4 6 4 0.4 0.54
-4 6 4 -1.81 2.14
-4 6 4 1.92 1.02
3 -6 -4 33.61 2.19
-3 6 4 37.34 3.07
-3 6 4 35.91 1.48
-3 6 4 33.19 1.91
2 -6 -4 33.55 1.92
-2 6 4 32.36 1.71
-2 6 4 33.01 2.95
1 -6 -4 166.07 6
-1 6 4 167.83 5.88
0 -6 -4 12.03 1.09
0 -6 -4 13.95 1.14
0 6 4 12.62 0.68
0 6 4 6.25 7.49
0 6 4 11.83 0.99
-1 -6 -4 33.28 1.78
-1 -6 -4 35.43 1.59
-1 -6 -4 33.07 1.91
1 6 4 20.44 8.46
1 6 4 33.35 1.9
1 6 4 32.37 1.41
1 6 4 23.14 10.26
1 6 4 30.29 1.57
-2 -6 -4 33.24 2.1
-2 -6 -4 37.07 1.72
-2 -6 -4 29.94 1.94
-2 -6 -4 34.72 2.77
2 6 4 29.07 1.7
2 6 4 30.36 1.9
2 6 4 34.09 1.81
-3 -6 -4 0.63 1.1
-3 -6 -4 -0.03 2.13
-3 -6 -4 1.77 0.82
-3 -6 -4 0.55 1.52
3 6 4 0.08 0.93
-4 -6 -4 42.41 2.83
-4 -6 -4 41.37 4.05
4 6 4 42.69 2.75
-5 -6 -4 49.09 3.76
5 6 4 48.27 3.52
-5 7 4 9 1.72
-5 7 4 5.84 4.24
-4 7 4 111.39 4.52
-4 7 4 113.27 5.96
3 -7 -4 72.77 3.36
-3 7 4 66.64 4.4
-3 7 4 72.12 3.84
2 -7 -4 14.87 1.41
-2 7 4 16.43 1.36
1 -7 -4 156.94 5.87
-1 7 4 160.12 5.68
0 -7 -4 11.68 1.26
0 -7 -4 11.2 1.21
0 7 4 9.76 0.77
0 7 4 10.19 0.91
-1 -7 -4 91.79 3.68
-1 -7 -4 89.08 3.77
1 7 4 92.42 3.52
1 7 4 88.44 3.48
1 7 4 90.12 3.3
-2 -7 -4 30.54 2.32
-2 -7 -4 31.93 2.1
-2 -7 -4 30.26 1.75
-2 -7 -4 29.14 2.88
2 7 4 30.29 1.89
2 7 4 23.57 2.09
-3 -7 -4 0.96 3.01
-3 -7 -4 3.22 1.39
-3 -7 -4 3.97 2.2
-3 -7 -4 2.2 1.19
3 7 4 1.89 1.14
-4 -7 -4 -1.65 1.73
4 7 4 -0.43 1.51
-5 -7 -4 27.07 3.02
-5 -7 -4 24.95 3.64
5 7 4 35.21 3.55
-4 8 4 14.15 1.62
3 -8 -4 15.59 1.84
-3 8 4 14.93 1.46
2 -8 -4 37.47 2.5
-2 8 4 34.75 2.04
1 -8 -4 13.59 1.49
-1 8 4 11.33 0.87
-1 8 4 13.43 1.15
0 -8 -4 39.49 2.4
0 -8 -4 39.1 2.56
0 8 4 35.03 1.95
0 8 4 35.46 1.64
0 8 4 34.27 2.02
-1 -8 -4 -0.56 1.32
-1 -8 -4 1.79 1.35
1 8 4 0.78 0.83
1 8 4 0.92 0.89
1 8 4 1.5 1.09
-2 -8 -4 33.31 2.53
-2 -8 -4 33.76 2.8
2 8 4 35.53 2.24
-3 -8 -4 -0.68 2.4
3 8 4 0.31 1.46
-4 -8 -4 1.26 2.13
4 8 4 -1.44 1.77
-4 9 4 3.82 1.83
3 -9 -4 3.15 1.88
-3 9 4 5.86 1.41
2 -9 -4 -0.19 1.55
-2 9 4 0.82 0.62
-2 9 4 -0.07 1.09
1 -9 -4 1.64 1.38
-1 9 4 0.63 0.67
-1 9 4 2.54 1.16
-1 9 4 1.21 0.98
0 -9 -4 31.61 2.73
0 9 4 33.89 1.89
0 9 4 34.57 2.05
0 9 4 29.49 2.28
-1 -9 -4 -0.26 1.68
-1 -9 -4 -1.76 1.79
1 9 4 0.59 1.14
-2 -9 -4 25.01 2.58
-2 -9 -4 25.61 2.31
2 9 4 28.12 2.3
2 9 4 31.73 2.43
-3 -9 -4 5.49 2.23
3 9 4 8.87 1.92
3 -10 -4 7.19 2.65
-3 10 4 6.89 1.63
2 -10 -4 29.1 2.61
-2 10 4 32.98 2.45
1 -10 -4 2.01 1.79
-1 10 4 1.43 1.25
0 -10 -4 -0.85 1.95
0 10 4 0.3 1.28
-1 -10 -4 1.61 2.25
1 10 4 1.44 1.46
-2 -10 -4 10.28 2.6
2 10 4 12.85 1.8
1 -11 -4 0.52 2.49
-1 11 4 1.4 1.86
0 -11 -4 5.15 2.77
0 11 4 2.62 1.76
-1 -11 -4 0.67 3.19
1 11 4 1.12 1.89
1 11 4 -0.92 1.99
1 11 -5 4.6 2.22
1 11 -5 -1.09 3.77
0 11 -5 -1.23 1.93
0 11 -5 1.82 1.71
-1 11 -5 1.26 2.75
-1 11 -5 4.04 2.46
3 10 -5 1.22 2.07
3 10 -5 0.55 2.13
2 10 -5 32.1 2.7
2 10 -5 27.7 2.27
1 10 -5 20.16 1.96
1 10 -5 14.91 1.69
0 10 -5 17.5 2.34
0 10 -5 13.25 2.3
-1 10 -5 33.54 2.61
-1 10 -5 35.8 2.44
1 -10 5 34.67 2.56
-2 10 -5 3.07 2.88
-2 10 -5 3.72 1.54
-3 10 -5 3.39 2.36
3 -10 5 5.67 1.69
4 9 -5 3.94 2.15
4 9 -5 2.63 2.21
-4 -9 5 8.25 4.9
3 9 -5 1.57 1.68
3 9 -5 -1.81 1.64
-3 -9 5 7.77 3.85
-3 -9 5 -2.09 4.61
-3 -9 5 -4.91 5.18
2 9 -5 2.59 1.53
2 9 -5 5.83 1.45
2 9 -5 5.38 1.96
-2 -9 5 4 2.11
-2 -9 5 2.03 3.64
1 9 -5 16.67 1.52
1 9 -5 18.77 2.15
1 9 -5 17.4 1.63
-1 -9 5 16.34 1.75
-1 -9 5 16.52 4.74
0 9 -5 211.56 7.96
0 9 -5 217.1 7.84
0 9 -5 219.94 8.12
0 9 -5 238.51 8.78
0 -9 5 216.13 7.82
-1 9 -5 23.46 2.66
-1 9 -5 18.72 1.78
-1 9 -5 14.54 1.85
-1 9 -5 15.77 1.4
1 -9 5 17.13 1.63
-2 9 -5 -1.57 1.57
2 -9 5 0.69 0.98
-3 9 -5 4.96 2.06
3 -9 5 4.76 1.24
-4 9 -5 27.5 3.3
-4 9 -5 26.51 3.11
4 -9 5 30.57 2.63
4 8 -5 0.56 2.88
4 8 -5 0.32 1.74
-4 -8 5 -0.08 2.88
-4 -8 5 6.09 2.02
3 8 -5 0.03 1.35
3 8 -5 3.75 1.4
-3 -8 5 0.25 1.33
-3 -8 5 1.36 2.99
2 8 -5 18.37 1.52
2 8 -5 15.01 1.49
2 8 -5 16.42 1.64
-2 -8 5 17.3 2.78
-2 -8 5 17.99 1.44
1 8 -5 240.63 9.61
1 8 -5 250.93 8.99
1 8 -5 255.86 8.89
1 8 -5 260.39 9.13
-1 -8 5 263.92 9.63
-1 -8 5 253.23 8.83
0 8 -5 21.91 1.95
0 8 -5 21.97 1.77
0 8 -5 19.97 1.83
0 8 -5 20.85 1.59
0 8 -5 21.54 1.58
0 -8 5 18.77 1.5
0 -8 5 16.91 1.43
0 -8 5 21.6 2.59
-1 8 -5 25.53 3.13
-1 8 -5 28.09 2.2
-1 8 -5 31.67 2.31
1 -8 5 30.31 1.63
-2 8 -5 97.35 4.49
-2 8 -5 101.43 4.64
-2 8 -5 109.05 5.52
-2 8 -5 95.2 4.88
-3 8 -5 116.33 5.25
-3 8 -5 112.97 5.41
-4 8 -5 46.83 4.37
-4 8 -5 45.08 4.84
4 -8 5 58.77 3.04
5 7 -5 11.24 2.9
-5 -7 5 12.83 2.38
-5 -7 5 14.04 4.96
4 7 -5 15.35 1.79
4 7 -5 13.2 1.71
-4 -7 5 11.43 1.57
-4 -7 5 9.51 3.5
-4 -7 5 7.94 2.42
3 7 -5 47 2.65
3 7 -5 48.96 2.67
3 7 -5 49.2 2.26
-3 -7 5 50.45 2.45
-3 -7 5 43.15 3.98
2 7 -5 14.09 1.34
2 7 -5 12.63 1.21
2 7 -5 14.18 1.23
-2 -7 5 12.18 2.1
-2 -7 5 13.34 1.1
1 7 -5 29.12 1.96
1 7 -5 31.72 1.79
1 7 -5 30.35 1.73
1 7 -5 29.69 1.76
-1 -7 5 29.6 1.65
-1 -7 5 27 2.69
0 7 -5 8.94 1.17
0 7 -5 14.38 1.13
0 7 -5 11.46 1.19
0 7 -5 11.69 1.25
0 7 -5 14.1 1.18
0 -7 5 11.93 0.95
-1 7 -5 83.07 3.68
-1 7 -5 82.89 3.93
-1 7 -5 85.42 3.7
1 -7 5 82.51 3.24
1 -7 5 87.7 3.16
-2 7 -5 27.66 2.35
-2 7 -5 26.48 2.28
-2 7 -5 23.38 2.1
-2 7 -5 26.58 2.48
2 -7 5 26.26 1.47
-3 7 -5 87.34 4.2
-3 7 -5 77.25 4.1
-3 7 -5 76.83 4.26
-3 7 -5 82.95 4.52
3 -7 5 80.02 3.2
-4 7 -5 7.93 2.3
-4 7 -5 14.28 2.38
-5 7 -5 11.63 3.48
-5 7 -5 13.88 4.27
5 -7 5 9.03 1.71
5 6 -5 2.16 1.99
5 6 -5 -0.1 2.36
-5 -6 5 0.62 3.02
4 6 -5 51.2 2.85
4 6 -5 53.01 2.99
4 6 -5 48.74 2.85
-4 -6 5 45.63 4.29
-4 -6 5 48.5 3.59
-4 -6 5 49.71 2.58
3 6 -5 301.74 10.31
3 6 -5 290.93 10.37
3 6 -5 284.81 10.12
3 6 -5 291.28 10.26
-3 -6 5 301.06 10.08
-3 -6 5 300.06 10.98
2 6 -5 119.18 4.72
2 6 -5 112.6 4.34
2 6 -5 111.73 4.43
2 6 -5 114.53 4.36
-2 -6 5 115.76 4.11
-2 -6 5 109.69 4.88
1 6 -5 27.26 1.55
1 6 -5 25.64 1.47
1 6 -5 25.21 1.48
1 6 -5 25.09 1.71
-1 -6 5 27.96 1.34
-1 -6 5 27.13 1.28
0 6 -5 42.74 2.13
0 6 -5 41.62 2.12
0 6 -5 43.44 2.24
0 6 -5 41.6 1.98
0 6 -5 44.04 1.87
0 -6 5 46.98 1.74
0 -6 5 28.78 9.68
-1 6 -5 103.21 4.19
-1 6 -5 102.95 4.14
-1 6 -5 101.14 4.21
-1 6 -5 102.07 4.1
1 -6 5 100.47 3.64
1 -6 5 102.21 3.61
-2 6 -5 36.09 2.46
-2 6 -5 40.55 2.35
-2 6 -5 37.87 2.38
-2 6 -5 39.31 2.52
2 -6 5 39.21 1.7
2 -6 5 35.05 1.78
-3 6 -5 1177.69 39.93
-3 6 -5 1158.72 39.95
-3 6 -5 1181.52 39.69
-3 6 -5 1209.04 40.41
3 -6 5 1200.59 39.41
-4 6 -5 6.21 2.09
-4 6 -5 6.4 1.91
4 -6 5 4.89 0.92
-5 6 -5 76.83 5.22
-5 6 -5 66.81 5.96
5 5 -5 1.28 1.87
5 5 -5 3.48 2.13
-5 -5 5 3.54 3.56
-5 -5 5 1.1 1.99
-5 -5 5 -1.39 2.74
4 5 -5 7.88 1.39
4 5 -5 5.23 1.32
4 5 -5 8.65 1.5
-4 -5 5 4.52 0.97
-4 -5 5 8.83 2.23
-4 -5 5 7.66 1.76
3 5 -5 1112.15 38.13
3 5 -5 1139.45 38.3
3 5 -5 1158.6 38.29
3 5 -5 1163.04 38.41
-3 -5 5 1139.36 38.77
-3 -5 5 1184.01 38.13
2 5 -5 116.27 4.25
2 5 -5 119.64 4.23
2 5 -5 102.43 4.18
2 5 -5 114.08 4.37
2 5 -5 115.26 4.29
2 5 -5 115.37 4.21
-2 -5 5 117.56 4.73
-2 -5 5 116.33 4.04
1 5 -5 79.56 3.16
1 5 -5 91.04 3.4
1 5 -5 82.16 3.12
1 5 -5 85.24 3.23
1 5 -5 85.24 3.29
-1 -5 5 83.68 2.96
-1 -5 5 92.29 9.98
0 5 -5 21.69 1.52
0 5 -5 22.23 1.29
0 5 -5 21.35 1.44
0 5 -5 22.51 1.18
0 5 -5 20.71 1.28
0 -5 5 23.39 1.09
0 -5 5 23.01 0.97
0 -5 5 22.69 5.46
-1 5 -5 51.86 2.53
-1 5 -5 56.21 2.12
-1 5 -5 51.95 2.53
-1 5 -5 51.93 2.47
-1 5 -5 54.16 2.72
1 -5 5 51.5 2.07
1 -5 5 54.44 2.04
-2 5 -5 133.56 4.78
-2 5 -5 135.88 5.14
-2 5 -5 137.75 5.3
-2 5 -5 137.11 5.27
-2 5 -5 135.1 5.36
2 -5 5 136.11 4.79
2 -5 5 134.87 4.68
-3 5 -5 212.57 8.07
-3 5 -5 213.99 7.86
-3 5 -5 202.65 7.87
-3 5 -5 207.82 7.62
3 -5 5 209.82 7.28
-4 5 -5 0.18 1.86
-4 5 -5 4.7 1.74
-4 5 -5 1.5 1.72
4 -5 5 1.83 0.75
-5 5 -5 4.75 2.71
-5 5 -5 0.77 2.06
5 -5 5 2.22 1.09
6 4 -5 5.41 2.44
6 4 -5 5.66 2.94
-6 -4 5 8.04 1.95
-6 -4 5 8.46 2.95
5 4 -5 5.81 1.52
5 4 -5 4.21 1.52
-5 -4 5 8.32 1.26
-5 -4 5 3.64 2.02
-5 -4 5 5.9 3.19
4 4 -5 -0.64 1
4 4 -5 2.27 1.12
4 4 -5 0.35 1.08
-4 -4 5 1.84 1.78
-4 -4 5 0.6 0.73
-4 -4 5 -0.08 1.42
3 4 -5 1.05 0.85
3 4 -5 1.1 0.79
3 4 -5 0.35 0.83
-3 -4 5 -0.08 1.13
-3 -4 5 0.75 0.49
2 4 -5 51.35 2.37
2 4 -5 52.77 2.24
2 4 -5 54.12 2.22
2 4 -5 57.65 2.3
2 4 -5 53.04 2.26
2 4 -5 50.97 2.02
-2 -4 5 54.8 2.63
-2 -4 5 54.31 1.95
-2 -4 5 47.44 6.88
1 4 -5 191.8 6.87
1 4 -5 193.62 6.65
1 4 -5 186.67 6.68
1 4 -5 188.73 6.75
1 4 -5 203.23 6.62
1 4 -5 203.06 6.79
-1 -4 5 196.99 10.34
-1 -4 5 192.83 6.51
0 4 -5 522 17.29
0 4 -5 536.64 17.61
0 4 -5 511.91 17.53
0 4 -5 513.86 17.53
0 4 -5 509.5 17.36
0 4 -5 542.37 17.4
0 -4 5 496.35 21.09
0 -4 5 521.09 17.28
0 -4 5 519.55 17.23
-1 4 -5 45.39 1.95
-1 4 -5 51.2 2.24
-1 4 -5 48.87 2.18
-1 4 -5 48 2.27
-1 4 -5 48.22 1.93
-1 4 -5 49.29 2.28
1 -4 5 52.04 6.96
1 -4 5 47.29 1.77
1 -4 5 51.83 1.91
-2 4 -5 35.83 1.88
-2 4 -5 34.52 4.31
-2 4 -5 32.08 2.04
-2 4 -5 33.31 1.89
-2 4 -5 32.31 2
-2 4 -5 33.43 1.54
2 -4 5 30.02 1.6
2 -4 5 34.09 1.5
2 -4 5 21.45 6.33
-3 4 -5 4.25 1.37
-3 4 -5 5.77 1.22
-3 4 -5 3.46 0.84
3 -4 5 7.76 0.97
-4 4 -5 19.72 2.45
-4 4 -5 21.63 1.99
-4 4 -5 22.09 2.29
4 -4 5 20.02 1.42
-5 4 -5 3.29 2.93
-6 4 -5 7.3 3.04
6 3 -5 4.89 1.81
6 3 -5 7.38 1.84
-6 -3 5 3.7 1.48
-6 -3 5 0.18 2.66
5 3 -5 -0.09 1.25
5 3 -5 0.81 1.26
-5 -3 5 3.01 1.86
-5 -3 5 1.9 1.01
4 3 -5 5.62 1.09
4 3 -5 5.48 1.14
4 3 -5 3.55 1
-4 -3 5 4.61 1.35
-4 -3 5 6.2 0.72
-4 -3 5 4.79 1.69
3 3 -5 56.65 2.4
3 3 -5 56.71 2.46
3 3 -5 52.54 2.42
-3 -3 5 57.39 2.1
-3 -3 5 59.69 2.9
2 3 -5 101.77 3.66
2 3 -5 102.46 3.81
2 3 -5 101.91 3.73
2 3 -5 97.04 3.67
-2 -3 5 102.12 3.44
-2 -3 5 106.03 6.75
1 3 -5 342.31 11.61
1 3 -5 353.6 11.73
1 3 -5 315.14 11.73
1 3 -5 355.77 11.69
1 3 -5 351.63 11.66
1 3 -5 354.94 11.6
1 3 -5 358.82 11.83
-1 -3 5 337.4 13.96
-1 -3 5 354.29 11.51
0 3 -5 2749.17 90.05
0 3 -5 2780.54 90.28
0 3 -5 2702.78 90.14
0 3 -5 2722.43 90.27
0 -3 5 2781.72 90.09
0 -3 5 2754.17 90.02
0 -3 5 2619.53 93.14
-1 3 -5 1.64 0.39
-1 3 -5 1.66 0.65
-1 3 -5 0.64 0.64
-1 3 -5 1 0.44
-1 3 -5 -0.14 0.58
1 -3 5 0.9 0.4
1 -3 5 0.99 0.26
1 -3 5 0.88 2.79
-2 3 -5 8.98 1.08
-2 3 -5 9.18 0.89
-2 3 -5 10.53 1.05
-2 3 -5 10.57 0.98
-2 3 -5 10.28 3.15
2 -3 5 9.76 0.68
2 -3 5 15.74 5.34
2 -3 5 9.8 0.8
-3 3 -5 -0.17 1.09
-3 3 -5 0.17 0.96
-3 3 -5 -1.39 1.15
-3 3 -5 -0.68 0.86
-3 3 -5 -0.04 0.53
3 -3 5 0.75 0.57
3 -3 5 0.29 0.54
-4 3 -5 31.41 2.54
-4 3 -5 30.6 2.77
-4 3 -5 32.14 2.51
-4 3 -5 33.55 2.51
4 -3 5 31.32 1.7
-5 3 -5 71.75 4.82
-5 3 -5 65.59 3.98
-5 3 -5 65.39 4.23
5 -3 5 63.61 2.83
6 -3 5 19.36 2.38
6 2 -5 142.54 6.89
6 2 -5 112.61 5.97
-6 -2 5 139.1 6.07
-6 -2 5 109.35 7.05
5 2 -5 29.97 2.18
5 2 -5 30.62 2.25
-5 -2 5 31.87 3.24
-5 -2 5 29.51 2.43
-5 -2 5 30.5 1.86
4 2 -5 18.18 1.67
4 2 -5 19.2 1.63
4 2 -5 19.88 1.66
-4 -2 5 24.11 1.82
-4 -2 5 22.39 1.19
-4 -2 5 19.62 1.98
3 2 -5 81.08 3.11
3 2 -5 79.6 3.05
3 2 -5 78.63 3.1
-3 -2 5 78.46 2.78
-3 -2 5 76.75 8.62
-3 -2 5 81.39 3.45
2 2 -5 134.03 4.68
2 2 -5 133.09 4.67
2 2 -5 134.3 4.74
2 2 -5 128.33 4.7
2 2 -5 139.26 4.82
-2 -2 5 136.5 4.46
1 2 -5 168.61 5.76
1 2 -5 173.92 5.85
1 2 -5 172.28 5.95
1 2 -5 170.98 5.83
1 2 -5 165.23 5.76
-1 -2 5 168.43 5.74
-1 -2 5 169.34 5.64
-1 -2 5 171.11 6.33
-1 -2 5 170.46 6.51
0 2 -5 556.98 18.33
0 2 -5 562.23 18.4
0 2 -5 543.78 18.35
0 2 -5 534.62 18.18
0 2 -5 561.62 18.41
0 -2 5 557.94 18.27
0 -2 5 527.02 20.5
0 -2 5 550.75 18.17
-1 2 -5 183.8 6.07
-1 2 -5 180.02 6.09
-1 2 -5 167.79 6.02
-1 2 -5 170.03 6.08
-1 2 -5 170.31 5.91
1 -2 5 173.08 5.88
1 -2 5 177.63 5.78
1 -2 5 168.8 9.37
1 -2 5 155.62 6.21
-2 2 -5 121.84 6.36
-2 2 -5 125.83 4.55
-2 2 -5 124.96 4.37
-2 2 -5 122.2 4.61
-2 2 -5 123.93 4.65
-2 2 -5 125.73 4.67
2 -2 5 119.54 4.23
2 -2 5 122.77 4.35
2 -2 5 123.32 10.69
-3 2 -5 5.59 0.86
-3 2 -5 4.23 5.39
-3 2 -5 4.85 1.23
-3 2 -5 3.41 1.08
-3 2 -5 4.52 1.02
-3 2 -5 4.09 0.8
3 -2 5 4.82 0.59
3 -2 5 3.95 0.63
-4 2 -5 149.97 6.14
-4 2 -5 151.8 6.05
-4 2 -5 149.58 5.81
4 -2 5 150.71 5.4
-5 2 -5 5.22 2.14
-5 2 -5 6.63 1.89
5 -2 5 6.81 1.04
-6 2 -5 9.68 3.14
6 -2 5 8.3 1.57
6 1 -5 0.86 1.53
6 1 -5 -0.11 1.43
-6 -1 5 1.89 2.71
-6 -1 5 0.78 1.24
-6 -1 5 0.2 2.37
5 1 -5 31.45 2.11
5 1 -5 28.39 2.11
-5 -1 5 27.14 2.3
-5 -1 5 30.04 1.73
4 1 -5 0.19 0.79
4 1 -5 0.56 1.23
-4 -1 5 -0.06 1.36
-4 -1 5 1.46 1.25
-4 -1 5 1.28 0.51
3 1 -5 20.95 1.5
3 1 -5 29.11 1.92
3 1 -5 24.55 1.37
-3 -1 5 22.67 0.96
-3 -1 5 21.24 3.79
-3 -1 5 24.45 1.72
2 1 -5 4.6 0.55
2 1 -5 3.74 0.5
2 1 -5 4.4 0.51
2 1 -5 5.39 0.62
1 1 -5 134.77 4.68
1 1 -5 134.54 4.7
1 1 -5 141.16 4.78
1 1 -5 139.29 4.85
1 1 -5 141.29 4.75
0 1 -5 342.35 11.08
0 1 -5 332.58 11.09
0 1 -5 332.45 11.14
0 1 -5 330.09 11.11
0 -1 5 328.95 10.92
0 -1 5 350.63 12.43
0 -1 5 295.11 11.14
-1 1 -5 70.4 2.65
-1 1 -5 69.84 2.6
-1 1 -5 71.78 2.55
-1 1 -5 70.46 2.62
1 -1 5 63.83 5.39
1 -1 5 62.51 2.84
1 -1 5 68.26 2.51
1 -1 5 68.79 2.38
-2 1 -5 829.97 27.31
-2 1 -5 823.04 27.27
-2 1 -5 827.19 27.4
-2 1 -5 815.18 27.46
-2 1 -5 824.27 27.18
2 -1 5 761.91 31.85
2 -1 5 815.62 27.06
2 -1 5 832.56 27.17
-3 1 -5 3.2 0.75
-3 1 -5 3.31 1.13
-3 1 -5 3.34 0.62
-3 1 -5 3.38 1.05
-3 1 -5 3.25 0.95
-3 1 -5 1.71 4.58
3 -1 5 2.56 0.52
3 -1 5 2.15 0.55
-4 1 -5 16.7 2.08
-4 1 -5 15.46 1.77
-4 1 -5 10.6 1.65
-4 1 -5 14.85 1.59
4 -1 5 15.81 1.24
-5 1 -5 6.81 1.86
-5 1 -5 3.74 1.97
5 -1 5 4.67 1.04
-6 1 -5 2.3 2.93
-6 1 -5 -1.17 2.81
6 0 -5 9.45 1.6
6 0 -5 8.7 1.55
-6 0 5 9.36 1.2
-6 0 5 5.83 2.29
5 0 -5 9.17 1.24
5 0 -5 11.94 1.36
-5 0 5 12.05 1.92
-5 0 5 11.07 0.97
4 0 -5 17.61 1.42
4 0 -5 16.38 1.21
-4 0 5 19.19 1.39
-4 0 5 16.14 1.54
-4 0 5 13.85 1.62
3 0 -5 2.69 0.72
3 0 -5 3.45 0.65
3 0 -5 3.82 0.63
-3 0 5 3.43 0.9
-3 0 5 3.1 0.29
2 0 -5 9.49 0.78
2 0 -5 9.66 0.72
2 0 -5 11.8 0.85
2 0 -5 9.34 0.76
2 0 -5 8.37 0.8
2 0 -5 8.51 0.84
1 0 -5 15.63 0.99
1 0 -5 13.64 0.88
1 0 -5 14.38 0.74
1 0 -5 14.88 0.74
1 0 -5 13.6 0.89
0 0 -5 1.72 0.43
0 0 -5 1.97 0.54
0 0 -5 2.44 0.2
0 0 -5 2.86 0.47
0 0 -5 2.58 0.54
0 0 5 1.68 0.8
0 0 5 2.55 0.19
0 0 5 2.38 0.41
0 0 5 2.06 0.25
-1 0 -5 31.89 1.36
-1 0 -5 30.79 1.37
-1 0 -5 31.19 1.49
-1 0 -5 31.49 1.33
1 0 5 31.28 1.3
1 0 5 26.14 1.61
1 0 5 31.3 1.14
1 0 5 33.95 4.07
-2 0 -5 208.35 7.03
-2 0 -5 201.75 7.05
-2 0 -5 198.18 7.21
-2 0 -5 206.2 7.14
-2 0 -5 214.97 7.08
-2 0 -5 199.61 7.21
2 0 5 204.67 7
2 0 5 202.7 6.91
2 0 5 199.73 6.88
-3 0 -5 39.55 2.19
-3 0 -5 45.14 2.49
-3 0 -5 43.2 2.32
-3 0 -5 43.16 2.17
-3 0 -5 41.59 5.77
-3 0 -5 43.79 2.1
3 0 5 40.34 1.71
3 0 5 38.77 1.81
3 0 5 41.54 1.92
-4 0 -5 76.76 3.61
-4 0 -5 80.44 3.56
-4 0 -5 79.62 3.75
-4 0 -5 72.52 3.25
4 0 5 77.32 3.03
-5 0 -5 19.16 2.15
-5 0 -5 23.63 2.51
5 0 5 20.88 1.76
-6 0 -5 7.58 2.77
-6 0 -5 3.79 2.89
6 -1 -5 5.31 1.46
-6 1 5 8.53 2.5
-6 1 5 4.34 1.08
5 -1 -5 1.12 1.01
5 -1 -5 -0.19 0.99
-5 1 5 0.31 1.98
-5 1 5 0.24 0.77
-5 1 5 0.67 1.64
4 -1 -5 8.94 0.97
4 -1 -5 10 0.97
-4 1 5 10.89 1.36
-4 1 5 8.91 0.72
3 -1 -5 386.42 13.19
3 -1 -5 395.77 13.1
-3 1 5 394.17 13.19
-3 1 5 385.79 12.9
-3 1 5 386.46 13.23
2 -1 -5 313.58 10.28
2 -1 -5 308.09 10.34
2 -1 -5 297.23 10.36
2 -1 -5 306.36 10.26
1 -1 -5 421.54 13.84
1 -1 -5 422.55 13.82
1 -1 -5 421.71 13.85
1 -1 -5 429.16 13.81
-1 1 5 376.4 13.74
0 -1 -5 98.05 3.16
0 -1 -5 94.02 3.32
0 -1 -5 99.57 3.15
0 -1 -5 91.37 3.31
0 1 5 78.78 3.34
0 1 5 92.74 3.16
-1 -1 -5 406.63 13.52
-1 -1 -5 406.1 13.45
-1 -1 -5 415.96 13.49
-1 -1 -5 414.7 13.48
-1 -1 -5 402.9 13.44
1 1 5 400.25 16.58
1 1 5 411.54 13.28
1 1 5 342.21 13.65
-2 -1 -5 213.3 7.77
-2 -1 -5 222.4 7.87
-2 -1 -5 235.22 7.96
-2 -1 -5 228.8 7.8
-2 -1 -5 221.13 7.93
2 1 5 236.3 7.71
2 1 5 228.79 7.74
2 1 5 223.75 7.62
-3 -1 -5 14.2 1.28
-3 -1 -5 12.55 1.08
-3 -1 -5 13.04 1.23
-3 -1 -5 10.98 1.3
3 1 5 13.12 1.07
3 1 5 13.65 1.01
3 1 5 14.4 1.27
-4 -1 -5 0.55 1.19
-4 -1 -5 3.5 1.09
-4 -1 -5 1.03 1.4
-4 -1 -5 1.42 0.76
4 1 5 2.27 1.14
4 1 5 2.11 0.78
-5 -1 -5 5.5 1.87
-5 -1 -5 3.51 2.03
5 1 5 3.12 1.11
-6 -1 -5 22.52 3.06
-6 -1 -5 30.2 3.51
6 -2 -5 0.66 1.48
-6 2 5 1.07 1.04
-6 2 5 1.26 3.87
5 -2 -5 0 1.02
-5 2 5 0.39 0.72
-5 2 5 0.68 1.79
4 -2 -5 7.17 0.92
4 -2 -5 6.75 0.85
-4 2 5 7.39 0.64
-4 2 5 4.96 1.32
3 -2 -5 -0.18 0.54
3 -2 -5 0.64 0.52
-3 2 5 -0.65 0.88
-3 2 5 1.05 0.41
2 -2 -5 21.45 1.19
2 -2 -5 21.91 1.06
2 -2 -5 21.16 1.14
-2 2 5 18.16 1.17
1 -2 -5 11.89 0.69
1 -2 -5 12.07 0.9
1 -2 -5 11.75 0.88
1 -2 -5 10.93 0.98
0 -2 -5 87.58 3.17
0 -2 -5 83.18 3.18
0 -2 -5 92.97 3.03
0 -2 -5 87.3 3.17
0 2 5 86.12 3.03
-1 -2 -5 510.73 16.81
-1 -2 -5 489.93 16.81
-1 -2 -5 493.67 16.83
-1 -2 -5 498.16 16.79
-1 -2 -5 500.55 16.81
1 2 5 506.19 16.63
1 2 5 511.72 20.43
-2 -2 -5 16.2 1.24
-2 -2 -5 13.6 0.89
-2 -2 -5 13.95 1.14
2 2 5 13.88 0.82
2 2 5 12.24 5.11
2 2 5 11.77 0.96
-3 -2 -5 259.61 8.85
-3 -2 -5 249.3 8.9
-3 -2 -5 250.69 8.66
-3 -2 -5 228.6 8.87
-3 -2 -5 254.96 8.66
3 2 5 251.75 8.62
3 2 5 247.41 8.46
3 2 5 249.92 8.56
-4 -2 -5 2.11 1.56
-4 -2 -5 -0.36 1.21
-4 -2 -5 2.4 1.27
-4 -2 -5 0.39 1.07
4 2 5 1.45 0.86
4 2 5 1.18 1.08
-5 -2 -5 25.94 2.38
-5 -2 -5 19.61 2.09
-5 -2 -5 26.07 2.71
-6 -2 -5 31.24 3.83
-6 -2 -5 34.08 3.45
6 -3 -5 12.12 1.67
-6 3 5 13.24 1.17
-6 3 5 11.93 2.99
5 -3 -5 11.55 1.3
-5 3 5 10.18 2.09
-5 3 5 10.42 0.88
4 -3 -5 75.86 3.1
-4 3 5 80.17 2.78
-4 3 5 68.44 3.58
3 -3 -5 16.61 1.45
3 -3 -5 15.8 1.15
-3 3 5 17.91 1.69
-3 3 5 14.99 0.82
2 -3 -5 5.22 0.71
2 -3 -5 5.97 0.73
2 -3 -5 5.75 0.57
-2 3 5 6.18 0.85
-2 3 5 6.48 0.43
1 -3 -5 3110.87 107.96
1 -3 -5 3236.68 107.91
-1 3 5 3196.43 107.89
-1 3 5 3771.03 139.02
-1 3 5 3232.49 107.75
0 -3 -5 113.82 4.03
0 -3 -5 114.87 4.06
0 -3 -5 112.19 3.94
0 -3 -5 112.63 4.09
0 3 5 115.26 3.94
-1 -3 -5 2209.7 72.43
-1 -3 -5 2246.84 72.42
-1 -3 -5 2224.85 72.46
1 3 5 2183.7 72.25
1 3 5 2096.2 76.54
1 3 5 2175.11 72.29
-2 -3 -5 1.07 0.33
-2 -3 -5 1.12 0.62
-2 -3 -5 1.58 0.95
-2 -3 -5 1.07 0.68
2 3 5 3.99 5.94
2 3 5 1.07 0.57
2 3 5 1 0.41
-3 -3 -5 73.76 3.41
-3 -3 -5 72.86 3.08
-3 -3 -5 66.84 3.07
-3 -3 -5 72.86 3.02
3 3 5 72.76 2.82
3 3 5 77.03 2.91
3 3 5 73.53 3
-4 -3 -5 314.22 11.68
-4 -3 -5 341.78 11.67
-4 -3 -5 319.97 11.53
-4 -3 -5 317.44 11.27
4 3 5 320.99 11.29
4 3 5 326.67 11.07
-5 -3 -5 3.13 2.31
-5 -3 -5 7.83 3.67
-5 -3 -5 4.62 1.89
5 3 5 5.28 1.88
-6 -3 -5 5.64 3.15
-6 -3 -5 6.77 3.83
6 -4 -5 1.08 1.57
-6 4 5 -0.2 0.99
-6 4 5 -3.11 5.46
-6 4 5 0.12 1.69
5 -4 -5 40.68 2.34
-5 4 5 41.91 1.88
-5 4 5 40.71 3.8
4 -4 -5 11.06 1.06
-4 4 5 11.33 0.93
-4 4 5 9.24 1.8
3 -4 -5 386.4 12.71
3 -4 -5 360.49 12.35
-3 4 5 343.42 12.59
-3 4 5 362.82 12.11
2 -4 -5 235.66 8.08
2 -4 -5 236.74 8.13
-2 4 5 240.02 7.86
-2 4 5 235.13 8.07
-2 4 5 229.29 8.24
1 -4 -5 36.53 1.66
1 -4 -5 32.87 1.83
-1 4 5 34.39 1.52
0 -4 -5 261.94 8.92
0 -4 -5 259.12 8.98
0 4 5 253.8 8.88
0 4 5 276.13 8.89
0 4 5 263.84 8.89
-1 -4 -5 119.95 4.37
-1 -4 -5 112.47 4.28
-1 -4 -5 125.17 4.19
1 4 5 114.71 4.08
1 4 5 104.53 4.07
1 4 5 125.18 11.07
-2 -4 -5 1.62 0.38
-2 -4 -5 1.1 0.7
-2 -4 -5 4.46 1.22
-2 -4 -5 2.2 0.85
2 4 5 -8.63 7.88
2 4 5 0.72 0.65
2 4 5 0.68 0.48
-3 -4 -5 660.79 22.04
-3 -4 -5 661.85 22.06
-3 -4 -5 681.6 22.22
-3 -4 -5 664.64 22.22
3 4 5 567.74 21.77
3 4 5 658.59 21.87
3 4 5 677.43 22.07
-4 -4 -5 4.16 1.98
-4 -4 -5 1.18 2.09
-4 -4 -5 2.62 1.52
4 4 5 3.13 1.29
-5 -4 -5 16.61 2.21
-5 -4 -5 13.19 2.39
-5 -4 -5 16.11 3.11
5 4 5 14.99 2.14
5 -5 -5 1.41 1.69
-5 5 5 1.06 1.68
-5 5 5 3.44 3.03
-5 5 5 1.36 0.99
4 -5 -5 222.16 7.85
-4 5 5 223.39 7.56
-4 5 5 227.14 7.93
-4 5 5 214.76 8.62
3 -5 -5 142.5 5.17
3 -5 -5 145.26 5.32
-3 5 5 147.32 5.23
-3 5 5 140.39 4.89
-3 5 5 138.93 5.8
2 -5 -5 94.41 3.7
-2 5 5 90.36 4.89
-2 5 5 98.95 3.6
1 -5 -5 428.49 14.15
1 -5 -5 407.88 14.26
-1 5 5 423.98 14.15
0 -5 -5 19.35 1.36
0 -5 -5 18.74 1.43
0 5 5 20.24 1.16
0 5 5 19.45 0.83
0 5 5 17.78 5.21
0 5 5 19.69 1.11
-1 -5 -5 182.54 6.47
-1 -5 -5 179.18 6.4
-1 -5 -5 188.49 6.37
1 5 5 179.52 6.14
1 5 5 160.22 13.96
1 5 5 179.38 6.25
-2 -5 -5 1464.34 45.61
-2 -5 -5 1334.7 45.56
-2 -5 -5 1339.11 45.52
2 5 5 1342.59 45.37
2 5 5 1355.79 45.28
-3 -5 -5 152.23 5.59
-3 -5 -5 159.11 6.19
-3 -5 -5 145.84 5.64
-3 -5 -5 143.57 5.59
3 5 5 135.59 5.48
3 5 5 149.25 5.38
-4 -5 -5 160.26 6.82
-4 -5 -5 149.86 5.95
4 5 5 147.29 5.91
-5 -5 -5 2.93 2.52
-5 -5 -5 3.43 4.37
5 5 5 1.29 2.02
-5 6 5 2.26 2.02
-5 6 5 2.41 5.87
-4 6 5 189.43 6.41
-4 6 5 185.12 7.97
-4 6 5 184.59 6.83
3 -6 -5 13.11 1.53
-3 6 5 13 1.25
2 -6 -5 136.3 5.18
-2 6 5 139.1 5.03
1 -6 -5 13.73 1.24
-1 6 5 15.38 1.17
0 -6 -5 22.57 1.67
0 -6 -5 26.74 1.76
0 6 5 23.01 1.33
0 6 5 23.38 1.03
-1 -6 -5 47.88 2.07
-1 -6 -5 48.07 2.35
1 6 5 48.54 2.11
1 6 5 45.06 1.87
-2 -6 -5 32.94 2.3
-2 -6 -5 35.11 2.16
-2 -6 -5 34.76 1.77
2 6 5 36.77 2.19
-3 -6 -5 5.5 0.9
-3 -6 -5 4.92 1.34
-3 -6 -5 4.51 1.7
3 6 5 7.07 1.9
-4 -6 -5 7.85 2.16
4 6 5 6.32 1.94
-5 -6 -5 1.23 3.91
-5 -6 -5 2.94 2.93
5 6 5 1.95 3.82
-5 7 5 14.63 2.5
-4 7 5 10.67 1.64
3 -7 -5 1.55 1.54
-3 7 5 1.76 1
2 -7 -5 0.01 1.17
-2 7 5 0.29 0.84
1 -7 -5 7.1 1.21
-1 7 5 4.88 0.84
0 -7 -5 102.93 4.4
0 -7 -5 113.46 4.34
0 7 5 110.21 4.08
0 7 5 108.28 3.82
-1 -7 -5 203.36 7.31
-1 -7 -5 200.13 7.4
1 7 5 204.55 7.13
1 7 5 198.63 6.93
-2 -7 -5 26.79 2.18
-2 -7 -5 19.28 1.87
-2 -7 -5 21.4 2.19
2 7 5 25.64 1.93
-3 -7 -5 69.38 3.35
-3 -7 -5 63.23 3.53
-3 -7 -5 65.43 3.91
3 7 5 65.12 3.27
-4 -7 -5 36.75 3.36
4 7 5 37.47 3.12
-4 8 5 3.15 1.48
3 -8 -5 3.23 3.28
-3 8 5 5.85 1.62
2 -8 -5 -0.34 1.44
-2 8 5 1.09 0.99
1 -8 -5 1.66 1.38
-1 8 5 1.04 0.64
-1 8 5 0.76 1.02
0 8 5 177.91 6.2
0 8 5 180.14 6.45
-1 -8 -5 2.33 1.49
-1 -8 -5 2.31 1.59
1 8 5 4.44 1.1
1 8 5 3.93 0.99
-2 -8 -5 12.37 1.8
-2 -8 -5 6.4 1.88
2 8 5 8.26 1.46
-3 -8 -5 5.78 1.98
3 8 5 4.72 1.58
-4 -8 -5 -1.53 3.68
-4 -8 -5 1.16 3.88
4 8 5 -0.12 2.45
3 -9 -5 6.46 2.33
-3 9 5 3.04 1.71
2 -9 -5 -0.64 1.91
-2 9 5 -0.68 0.74
-2 9 5 0.15 1.23
1 -9 -5 0.23 1.59
-1 9 5 0.53 0.74
-1 9 5 1.03 1.07
0 -9 -5 9.19 1.9
0 9 5 9.58 1.29
0 9 5 9.11 1.06
-1 -9 -5 21.9 3.94
1 9 5 18.73 2.09
-2 -9 -5 2.28 2.4
-2 -9 -5 0.14 2.03
2 9 5 2.21 1.37
-3 -9 -5 -1.18 2.39
3 9 5 0.44 1.76
2 -10 -5 13.88 2.48
-2 10 5 13.4 1.28
-2 10 5 13.65 1.72
1 -10 -5 7.53 2.11
-1 10 5 15.69 1.78
0 -10 -5 1.84 2.07
0 10 5 2.02 1.45
-1 -10 -5 1.83 2.47
1 10 5 6.03 1.76
-2 -10 -5 42.01 4.03
2 10 5 30.36 2.99
0 11 -6 6.6 2.22
0 11 -6 12.37 2.26
2 10 -6 5.29 1.91
2 10 -6 6.36 2.02
1 10 -6 -0.22 2.03
1 10 -6 0.34 1.67
0 10 -6 14.61 1.78
0 10 -6 14.74 1.82
-1 10 -6 10.66 1.91
-1 10 -6 8.5 1.98
-1 10 -6 9.17 2.41
1 -10 6 8.01 2.04
-2 10 -6 1.43 1.99
-2 10 -6 1.17 1.96
2 -10 6 -0.19 1.62
3 9 -6 3.95 1.86
3 9 -6 4.85 1.92
-3 -9 6 1.7 2.14
-3 -9 6 2.87 3.17
2 9 -6 0.44 1.46
2 9 -6 -1.57 1.53
-2 -9 6 3.78 1.69
-2 -9 6 -0.69 4.25
1 9 -6 2.21 1.31
1 9 -6 1.47 1.37
-1 -9 6 1.82 1.62
-1 -9 6 2.3 3.63
0 9 -6 6.28 1.31
0 9 -6 6.96 1.49
0 9 -6 9.07 1.46
0 9 -6 7.19 1.72
-1 9 -6 1.34 2.61
-1 9 -6 0.47 1.68
-1 9 -6 -1.49 1.22
-1 9 -6 0.17 1.41
1 -9 6 -0.38 1.08
-2 9 -6 9.23 1.87
-2 9 -6 7.37 2.37
-2 9 -6 10.39 1.57
2 -9 6 11.32 1.31
-3 9 -6 -0.48 2.06
3 -9 6 0.4 1.26
4 8 -6 6.03 2.05
4 8 -6 6.69 1.99
-4 -8 6 9.42 3.21
-4 -8 6 7.37 2.06
3 8 -6 0.84 1.58
3 8 -6 2.91 2.07
-3 -8 6 -1.39 3.4
-3 -8 6 -1.05 2.31
2 8 -6 7.53 1.37
2 8 -6 7.46 1.06
2 8 -6 5.55 1.32
-2 -8 6 6.51 1.23
-2 -8 6 7.13 3.51
1 8 -6 244.36 8.62
1 8 -6 242.57 8.9
1 8 -6 249.27 8.86
1 8 -6 238.39 8.68
-1 -8 6 243.24 9.53
-1 -8 6 243.72 8.51
0 8 -6 44.36 2.27
0 8 -6 39.02 2.52
0 8 -6 46.02 3.12
0 8 -6 50.83 3.55
0 -8 6 43.86 2.16
0 -8 6 39.83 3.91
0 -8 6 41.14 2.42
-1 8 -6 28.99 2.56
-1 8 -6 38.03 2.63
-1 8 -6 35.23 2.46
1 -8 6 35.41 2.52
-2 8 -6 3.45 1.56
-2 8 -6 0.96 1.73
-2 8 -6 5.08 1.66
-3 8 -6 10.42 2.66
-3 8 -6 9.66 3.73
-4 8 -6 11.56 2.76
-4 8 -6 6.37 2.76
4 -8 6 6.06 1.42
4 7 -6 17.75 2
4 7 -6 18.46 1.99
-4 -7 6 21.32 1.72
-4 -7 6 15.23 4.18
-4 -7 6 20.38 2.74
3 7 -6 127.97 5.07
3 7 -6 124.08 5.13
-3 -7 6 138.5 4.85
-3 -7 6 122.19 6.31
2 7 -6 81.1 3.45
2 7 -6 77.67 3.41
-2 -7 6 77.45 3.18
-2 -7 6 81.75 4.5
1 7 -6 2.64 0.95
1 7 -6 0.02 0.55
1 7 -6 2.14 1.1
1 7 -6 1.86 0.94
-1 -7 6 1.29 1.79
-1 -7 6 0.33 0.75
0 7 -6 9.82 1.22
0 7 -6 6.63 1.1
0 7 -6 8 1.24
0 7 -6 6.88 0.96
0 -7 6 6.81 0.8
-1 7 -6 30.33 2.08
-1 7 -6 29.67 2.2
-1 7 -6 28.28 1.77
-1 7 -6 23.75 2.26
1 -7 6 33.22 1.95
1 -7 6 28.23 1.72
-2 7 -6 1.73 1.27
-2 7 -6 1.78 1.44
-2 7 -6 0.75 1.41
-2 7 -6 0.2 1.41
2 -7 6 0.4 0.79
-3 7 -6 0.07 1.72
-3 7 -6 2.9 2.29
-3 7 -6 -1.62 1.83
-3 7 -6 1.81 1.91
3 -7 6 -0.19 0.87
-4 7 -6 37.04 3.66
-4 7 -6 35.95 3.18
5 6 -6 5.21 2.02
-5 -6 6 6.82 1.77
-5 -6 6 3.36 2.73
4 6 -6 29.22 2.51
4 6 -6 27.16 2.14
-4 -6 6 26.52 2.6
-4 -6 6 30.06 2.09
-4 -6 6 17.56 3.13
3 6 -6 34.14 2.21
3 6 -6 30.04 2.33
-3 -6 6 33.65 4.04
-3 -6 6 32.9 2.27
2 6 -6 2.32 0.96
2 6 -6 2.11 0.96
2 6 -6 2.01 1.09
2 6 -6 1.74 0.46
-2 -6 6 1.76 0.68
-2 -6 6 1.94 1.67
1 6 -6 2.81 0.56
1 6 -6 2.5 0.83
1 6 -6 2.16 0.81
1 6 -6 2.96 0.97
-1 -6 6 2.98 0.53
0 6 -6 63.84 2.79
0 6 -6 60.92 2.9
0 6 -6 61 2.49
0 6 -6 58.21 2.73
0 -6 6 62.87 2.32
-1 6 -6 56.12 2.84
-1 6 -6 58.87 2.93
-1 6 -6 54.84 2.72
1 -6 6 56.5 2.27
1 -6 6 55.65 2.18
-2 6 -6 207.09 7.67
-2 6 -6 202.13 7.79
-2 6 -6 212.23 7.82
-2 6 -6 207.79 7.96
2 -6 6 211.65 7.23
-3 6 -6 2.36 1.7
-3 6 -6 -0.43 1.83
-3 6 -6 0.7 2.25
-3 6 -6 2.96 1.59
-4 6 -6 21.58 3.38
-4 6 -6 20.3 2.69
4 -6 6 16.4 1.8
-5 6 -6 -6.15 4.47
-5 6 -6 -0.08 2.5
5 5 -6 62.05 3.75
5 5 -6 74.88 3.87
-5 -5 6 74.95 3.35
-5 -5 6 64.12 4.44
-5 -5 6 57.67 6.69
4 5 -6 45.72 2.71
4 5 -6 47.55 2.85
4 5 -6 44.04 2.77
-4 -5 6 46.88 2.25
-4 -5 6 45.19 3.37
-4 -5 6 44.35 3.98
3 5 -6 387.9 13.26
3 5 -6 386.06 13.22
3 5 -6 390.09 13.35
-3 -5 6 378.39 13.81
-3 -5 6 388.73 13.01
2 5 -6 678.05 22.62
2 5 -6 660.59 22.25
2 5 -6 695.75 22.58
2 5 -6 629.21 22.26
2 5 -6 670.44 22.42
-2 -5 6 686.15 22.95
1 5 -6 57.68 2.28
1 5 -6 59.11 2.37
1 5 -6 55.57 2.66
1 5 -6 59.26 2.38
1 5 -6 56.53 2.46
-1 -5 6 59.4 2.12
0 5 -6 132.54 4.82
0 5 -6 122.72 4.76
0 5 -6 125.17 4.51
0 5 -6 131.47 4.88
0 5 -6 126.88 4.56
0 -5 6 125.83 4.36
0 -5 6 113.83 11.74
0 -5 6 131.9 4.45
-1 5 -6 1.84 0.55
-1 5 -6 2.35 1.01
-1 5 -6 2.01 0.65
-1 5 -6 3.26 1.06
1 -5 6 2.15 0.39
1 -5 6 3.07 7.67
1 -5 6 1.85 0.57
-2 5 -6 1675.84 54.51
-2 5 -6 1572.14 54.71
-2 5 -6 1605.13 54.47
-2 5 -6 1604.32 54.05
-2 5 -6 1719.24 54.68
2 -5 6 1654.13 54.1
2 -5 6 1602.63 53.96
-3 5 -6 35.72 2.51
-3 5 -6 32.54 2.56
-3 5 -6 34.23 2.57
-3 5 -6 34.42 2.8
3 -5 6 34.09 1.75
-4 5 -6 0.88 1.83
-4 5 -6 -0.34 1.71
-4 5 -6 6.73 2.16
4 -5 6 0.94 0.86
-5 5 -6 11.85 3.23
-5 5 -6 7.66 2.65
5 -5 6 9.51 1.43
5 4 -6 3.2 1.87
5 4 -6 3.31 1.75
-5 -4 6 4.56 2.28
-5 -4 6 6.14 5.19
-5 -4 6 3.93 1.26
4 4 -6 93.28 3.85
4 4 -6 94.06 3.9
4 4 -6 94.24 4.18
-4 -4 6 92.19 4.2
-4 -4 6 76.33 5.49
3 4 -6 113.86 4.61
3 4 -6 112.37 4.32
3 4 -6 114.47 4.4
-3 -4 6 113.45 4
-3 -4 6 110.59 4.92
2 4 -6 396.46 13.27
2 4 -6 381.3 13.28
2 4 -6 408.24 13.49
2 4 -6 384.88 13.38
-2 -4 6 396.06 13.1
1 4 -6 26.98 1.12
1 4 -6 25.85 1.43
1 4 -6 27.57 1.39
1 4 -6 27.2 1.36
1 4 -6 23.82 1.68
-1 -4 6 25.77 1.03
-1 -4 6 35.08 5.32
0 4 -6 8.84 0.79
0 4 -6 10.86 0.62
0 4 -6 9.03 1.04
0 4 -6 11.09 1.05
0 4 -6 10.07 0.92
0 4 -6 8.71 0.7
0 -4 6 9.62 0.58
0 -4 6 8.4 0.84
0 -4 6 4.57 4.38
-1 4 -6 88.76 3.59
-1 4 -6 86.34 3.49
-1 4 -6 86.34 3.52
-1 4 -6 86.11 3.22
1 -4 6 94.16 3.22
1 -4 6 69.15 9.71
1 -4 6 86.51 3.05
-2 4 -6 204.67 7.28
-2 4 -6 210.14 7.49
-2 4 -6 196.79 7.36
-2 4 -6 196.03 7.34
2 -4 6 194.6 17.08
2 -4 6 197.67 6.83
2 -4 6 204.27 6.98
-3 4 -6 0.93 1.22
-3 4 -6 2.15 1.28
-3 4 -6 3.65 1.46
-3 4 -6 0.68 0.88
3 -4 6 1.6 0.63
3 -4 6 1.6 0.71
-4 4 -6 341.41 13.21
-4 4 -6 310.5 11.66
4 -4 6 326.71 11.16
-5 4 -6 40.2 3.92
-5 4 -6 41.55 3.89
5 -4 6 39.51 2.24
6 3 -6 38.44 2.73
6 3 -6 37.78 3.56
-6 -3 6 14.03 4.72
-6 -3 6 40.39 2.71
5 3 -6 23.04 1.86
5 3 -6 20.7 1.87
-5 -3 6 21.08 3.71
-5 -3 6 25.35 2.52
-5 -3 6 26.58 1.87
4 3 -6 4.37 1.12
4 3 -6 3.38 1.11
4 3 -6 3.15 1.2
-4 -3 6 4.1 0.7
-4 -3 6 -1.64 1.89
3 3 -6 8.08 0.99
3 3 -6 7.85 1.02
3 3 -6 9.79 1.09
-3 -3 6 9.97 0.66
-3 -3 6 9.17 1.55
2 3 -6 11 0.97
2 3 -6 8.9 0.82
2 3 -6 8.9 0.83
2 3 -6 7.76 1.17
-2 -3 6 5.21 3.58
-2 -3 6 9.1 0.5
1 3 -6 813.63 27.3
1 3 -6 807.66 27.18
1 3 -6 813.28 27.06
1 3 -6 837.56 27.2
-1 -3 6 815.48 30.01
-1 -3 6 819.49 27.03
-1 -3 6 805.3 26.96
0 3 -6 67.28 2.52
0 3 -6 65.12 2.7
0 3 -6 65.34 2.52
0 3 -6 64.64 2.73
0 3 -6 68.73 2.41
0 3 -6 64.42 2.38
0 -3 6 68.05 2.47
0 -3 6 67.92 2.32
0 -3 6 63.65 6.3
-1 3 -6 134.18 4.68
-1 3 -6 131.44 4.92
-1 3 -6 131.82 4.86
-1 3 -6 136.04 4.88
1 -3 6 117.52 9.57
1 -3 6 136.15 4.64
1 -3 6 129.47 4.51
-2 3 -6 290.12 10.17
-2 3 -6 293.86 10.25
-2 3 -6 285.19 10.08
-2 3 -6 306.18 10.33
2 -3 6 285.26 9.83
2 -3 6 270.91 17.32
2 -3 6 283.25 9.7
-3 3 -6 230.39 8.5
-3 3 -6 229.42 7.81
-3 3 -6 233.42 8.23
-3 3 -6 230.57 8.37
3 -3 6 232.79 7.8
3 -3 6 191.5 7.6
-4 3 -6 -2.92 2.02
-4 3 -6 -0.54 1.32
-4 3 -6 3.18 1.56
4 -3 6 0.18 0.79
-5 3 -6 54.72 3.98
5 -3 6 52.73 2.53
6 2 -6 9.89 1.97
6 2 -6 8.79 1.82
-6 -2 6 14.16 1.55
-6 -2 6 11.99 3.16
5 2 -6 21.59 1.76
5 2 -6 17.03 1.66
-5 -2 6 20.11 1.34
-5 -2 6 20.49 2.3
4 2 -6 54.06 2.6
4 2 -6 52.42 2.67
4 2 -6 53.33 2.58
-4 -2 6 55.75 2.16
-4 -2 6 54.25 3.44
-4 -2 6 53.91 2.97
3 2 -6 45.01 2.09
3 2 -6 43.41 2.04
3 2 -6 44.03 2.03
-3 -2 6 44.96 10.4
-3 -2 6 39.48 1.61
-3 -2 6 44.02 2.55
2 2 -6 23.73 1.31
2 2 -6 26.72 1.31
2 2 -6 25.32 1.39
2 2 -6 25.5 1.56
2 2 -6 26.84 1.35
-2 -2 6 25.35 0.92
1 2 -6 684.56 22.23
1 2 -6 674.59 22.24
1 2 -6 703.41 22.36
1 2 -6 676.9 22.36
1 2 -6 667.7 22.47
-1 -2 6 697.61 23.21
-1 -2 6 669.48 22.27
-1 -2 6 561.67 25.01
-1 -2 6 692.65 22.15
0 2 -6 168.31 5.83
0 2 -6 169.3 5.95
0 2 -6 166.48 5.75
0 2 -6 168.37 5.9
0 2 -6 179.04 5.68
0 -2 6 166.3 5.76
0 -2 6 146.9 8.53
0 -2 6 171.13 5.63
-1 2 -6 274.64 9.53
-1 2 -6 280.34 9.39
-1 2 -6 284.23 9.54
-1 2 -6 275.35 9.52
1 -2 6 265.58 13.78
1 -2 6 270.76 9.34
1 -2 6 276.73 9.22
-2 2 -6 0.2 0.9
-2 2 -6 1.19 0.79
-2 2 -6 -0.14 0.61
-2 2 -6 1.18 0.46
2 -2 6 0.17 0.48
2 -2 6 8.67 6.3
-3 2 -6 60.65 3.08
-3 2 -6 61.8 3.15
-3 2 -6 60 2.84
-3 2 -6 58.46 2.55
-3 2 -6 60.4 2.89
3 -2 6 59.19 2.44
3 -2 6 58.42 2.31
-4 2 -6 -0.74 1.54
-4 2 -6 0.2 1.41
-4 2 -6 1.88 1.2
4 -2 6 1.07 0.79
-5 2 -6 32.62 2.73
-5 2 -6 30.88 2.97
5 -2 6 34.95 2.2
6 -2 6 32.58 2.79
6 1 -6 21.33 2.06
6 1 -6 21.49 2.01
-6 -1 6 24.21 2.97
-6 -1 6 22.88 1.64
5 1 -6 44.32 2.63
5 1 -6 45.2 2.63
-5 -1 6 47.1 3.31
-5 -1 6 48.28 2.2
4 1 -6 73.31 3.09
4 1 -6 72.74 3.06
-4 -1 6 70.88 2.67
-4 -1 6 71.78 3.44
-4 -1 6 72.94 3.73
3 1 -6 27.11 1.5
3 1 -6 24.59 1.48
3 1 -6 26.79 1.63
-3 -1 6 27.27 2.01
-3 -1 6 24.08 1.12
2 1 -6 33.5 1.5
2 1 -6 32.47 1.57
2 1 -6 32.94 1.52
2 1 -6 36.36 1.8
2 1 -6 31.8 1.5
1 1 -6 150.8 5.05
1 1 -6 150.3 5.19
1 1 -6 144.83 5.07
1 1 -6 147.48 5.13
1 1 -6 151.51 5.28
0 1 -6 219.7 7.65
0 1 -6 224.47 7.66
0 1 -6 221.19 7.49
0 1 -6 229.24 7.73
0 1 -6 230.24 7.47
0 -1 6 227.49 7.6
0 -1 6 206.11 9.57
0 -1 6 227.94 7.44
-1 1 -6 340.73 11.28
-1 1 -6 334.53 11.26
-1 1 -6 338.76 11.27
-1 1 -6 337.45 11.19
1 -1 6 331.63 11.01
1 -1 6 325.2 11.14
1 -1 6 296.45 14.89
-2 1 -6 85.9 3.31
-2 1 -6 71.92 3.3
-2 1 -6 86.06 3.34
2 -1 6 85.14 2.95
2 -1 6 74.36 9.47
2 -1 6 85.59 3.1
-3 1 -6 12.3 1.2
-3 1 -6 13.08 1.46
-3 1 -6 12.91 1.1
-3 1 -6 15.24 1.38
3 -1 6 14.37 1.07
3 -1 6 15.44 1.14
-4 1 -6 4.47 1.62
-4 1 -6 3.85 1.4
-4 1 -6 3.96 1.5
-4 1 -6 5.6 1.26
4 -1 6 4.88 0.9
-5 1 -6 10.6 2.1
-5 1 -6 13.67 2.4
5 -1 6 11.28 1.27
-6 1 -6 4.05 3.2
6 0 -6 12.28 1.81
6 0 -6 15.41 1.82
-6 0 6 16.21 1.38
-6 0 6 14.37 2.71
5 0 -6 56.63 2.77
5 0 -6 51.47 2.78
-5 0 6 57.91 2.39
-5 0 6 50.67 3.66
4 0 -6 45.68 2.25
4 0 -6 49.92 2.29
-4 0 6 48.24 2.74
-4 0 6 44.65 1.85
3 0 -6 12.05 1.07
3 0 -6 10.72 0.92
3 0 -6 10.99 0.91
-3 0 6 11.86 1.34
2 0 -6 1.42 0.54
2 0 -6 1.1 0.45
2 0 -6 1.26 0.83
2 0 -6 1.18 0.66
2 0 -6 1.21 0.55
1 0 -6 9.95 0.76
1 0 -6 9.47 0.82
1 0 -6 9.85 0.88
1 0 -6 8.13 0.71
1 0 -6 10.05 0.67
0 0 -6 2.5 0.55
0 0 -6 1.59 0.48
0 0 -6 3.03 0.61
0 0 -6 2.05 0.15
0 0 -6 1.8 0.67
0 0 6 1.97 0.19
-1 0 -6 121.34 4.44
-1 0 -6 121.82 4.37
-1 0 -6 119.72 4.34
-1 0 -6 124.93 4.42
-1 0 -6 123.59 4.36
1 0 6 122.94 4.15
1 0 6 111.81 7.98
1 0 6 124.42 4.31
-2 0 -6 109.83 4.21
-2 0 -6 113.41 4.1
-2 0 -6 113.61 4.34
-2 0 -6 116.17 4.31
2 0 6 108.11 10.54
2 0 6 108.72 3.89
2 0 6 111.89 4.04
-3 0 -6 10.28 1.06
-3 0 -6 9.98 1.31
-3 0 -6 10.96 1.05
-3 0 -6 9.19 1.37
3 0 6 9.19 0.74
3 0 6 13.34 1
-4 0 -6 -0.41 0.82
-4 0 -6 -0.18 1.57
-4 0 -6 0.69 1.37
-4 0 -6 -0.09 1.18
4 0 6 1.27 0.82
-5 0 -6 2.41 2.26
-5 0 -6 1.1 1.91
5 0 6 3.81 1.12
-6 0 -6 6.59 3.73
-6 0 -6 -0.76 3.03
6 -1 -6 31.37 2.61
-6 1 6 22.87 3
-6 1 6 28.16 1.96
5 -1 -6 23.4 2
5 -1 -6 22.42 1.97
-5 1 6 23.08 1.46
-5 1 6 20.78 2.27
4 -1 -6 13.41 1.13
4 -1 -6 16.44 1.43
-4 1 6 13.62 2.21
-4 1 6 14.07 1.01
3 -1 -6 25.3 1.43
3 -1 -6 27.59 1.44
-3 1 6 27.31 2.04
2 -1 -6 67.67 2.51
2 -1 -6 69.44 2.63
2 -1 -6 69.17 2.6
2 -1 -6 67.92 2.58
1 -1 -6 22.34 1.21
1 -1 -6 20.63 0.98
1 -1 -6 21.3 1.31
1 -1 -6 20.27 1.15
0 -1 -6 104.56 3.78
0 -1 -6 93.21 4.32
0 -1 -6 109.34 3.51
0 -1 -6 103.21 3.77
0 1 6 102.86 3.5
0 1 6 105.95 3.58
0 1 6 110.78 5.41
-1 -1 -6 59.58 2.47
-1 -1 -6 60.86 2.45
-1 -1 -6 67.27 2.57
-1 -1 -6 60.51 2.56
-1 -1 -6 64.22 2.36
1 1 6 62.29 2.21
1 1 6 59.96 6.22
-2 -1 -6 197.34 7.45
-2 -1 -6 208.56 7.21
-2 -1 -6 207.46 7.18
-2 -1 -6 206.42 7.29
-2 -1 -6 202.73 7.28
2 1 6 198.15 7.03
2 1 6 220.94 7.3
2 1 6 206.09 7.13
-3 -1 -6 12.64 1.54
-3 -1 -6 10.63 1.08
-3 -1 -6 11.24 1.31
-3 -1 -6 10.28 1.08
3 1 6 9.9 0.79
3 1 6 7.89 1.73
3 1 6 8.93 0.92
-4 -1 -6 65.39 3.72
-4 -1 -6 66.92 3.11
-4 -1 -6 66.2 3.44
-4 -1 -6 66.52 3.27
4 1 6 68.63 2.86
-5 -1 -6 8.38 2.17
-5 -1 -6 10.51 2.56
5 1 6 10.9 1.38
-6 -1 -6 4.46 3.57
-6 -1 -6 10.04 3.04
6 -2 -6 0.97 1.51
-6 2 6 4.1 2.9
-6 2 6 -0.11 1.01
5 -2 -6 10.04 1.33
-5 2 6 10.53 0.92
-5 2 6 12.92 2.13
4 -2 -6 108.74 4.28
-4 2 6 114.17 3.95
-4 2 6 114.15 4.74
3 -2 -6 0.09 0.6
-3 2 6 0.47 0.36
2 -2 -6 76.68 2.76
2 -2 -6 64.53 2.88
2 -2 -6 74.76 2.81
1 -2 -6 35.97 1.65
1 -2 -6 34.33 1.61
0 -2 -6 55.61 2.31
0 -2 -6 57.61 2.32
0 -2 -6 56.86 2
0 -2 -6 57.52 2.29
0 2 6 58.79 1.97
0 2 6 57.29 2.09
-1 -2 -6 132.9 4.84
-1 -2 -6 139.91 4.71
1 2 6 120.64 9.24
-2 -2 -6 22.79 1.7
-2 -2 -6 25.57 2.34
-2 -2 -6 25.48 1.48
-2 -2 -6 23.4 1.52
-2 -2 -6 22.51 1.25
2 2 6 13.79 7
2 2 6 24.55 1.16
2 2 6 24.92 1.35
-3 -2 -6 1.33 0.54
-3 -2 -6 1.2 0.92
-3 -2 -6 1.14 1.29
-3 -2 -6 0.92 0.94
-3 -2 -6 1.99 1.38
3 2 6 2.04 0.95
3 2 6 1.24 0.64
3 2 6 0.56 0.73
-4 -2 -6 24.73 2.45
-4 -2 -6 25.09 2.13
-4 -2 -6 28.32 2.56
-4 -2 -6 29.01 2.15
4 2 6 24.45 1.8
-5 -2 -6 5.03 2.53
-5 -2 -6 7.51 2.14
6 -3 -6 32.79 2.66
-6 3 6 27.81 4.13
-6 3 6 38.14 2.08
5 -3 -6 1.88 1.12
-5 3 6 0.05 2.17
-5 3 6 0.58 0.73
4 -3 -6 57.14 2.61
-4 3 6 59.06 3.36
-4 3 6 58.87 2.23
-3 3 6 243.1 7.79
-3 3 6 220.37 8.29
2 -3 -6 134.56 4.93
2 -3 -6 139.33 4.86
2 -3 -6 136.33 4.85
-2 3 6 137.92 5.02
1 -3 -6 29.84 1.54
1 -3 -6 30.7 1.6
-1 3 6 29.11 1.36
0 -3 -6 93.14 3.55
0 -3 -6 91.5 3.54
0 -3 -6 101.96 3.75
0 3 6 97.19 3.26
0 3 6 94.88 3.38
0 3 6 95.65 6.8
-1 -3 -6 33.78 1.84
-1 -3 -6 32.96 1.75
-1 -3 -6 34.81 1.7
1 3 6 21.82 5.65
1 3 6 34.39 1.33
1 3 6 35.27 1.49
-2 -3 -6 95.55 3.65
-2 -3 -6 92.26 3.95
-2 -3 -6 95.8 3.7
-2 -3 -6 100.33 3.62
-2 -3 -6 94.12 3.8
2 3 6 90.54 3.54
2 3 6 89.57 3.37
2 3 6 102.67 14.4
-3 -3 -6 8.12 1.22
-3 -3 -6 11.05 1.51
-3 -3 -6 8.61 1.71
-3 -3 -6 8.44 1.16
-3 -3 -6 9.25 1.03
3 3 6 9.26 0.89
3 3 6 9.58 1.01
3 3 6 10.04 1.12
-4 -3 -6 354.34 13.89
-4 -3 -6 363.86 12.47
-4 -3 -6 346.16 12.4
-4 -3 -6 340.51 12.21
4 3 6 333.91 12.11
4 3 6 348.47 11.92
-5 -3 -6 -0.08 2.05
-5 -3 -6 3.04 2.92
-5 -3 -6 -0.54 2.16
5 -4 -6 3.74 1.85
4 -4 -6 65.39 2.91
-4 4 6 70.5 2.54
-4 4 6 65.17 3.97
3 -4 -6 82.2 3.27
3 -4 -6 88.28 3.58
-3 4 6 84.26 2.96
-3 4 6 82.9 3.91
2 -4 -6 224.04 8.06
-2 4 6 232.79 7.97
-2 4 6 236.15 7.72
1 -4 -6 7.93 0.93
1 -4 -6 8.41 0.92
-1 4 6 7.7 0.73
0 -4 -6 13.48 1.29
0 -4 -6 7.33 1.35
0 4 6 13.84 0.93
0 4 6 13.46 0.62
0 4 6 16.24 4.49
-1 -4 -6 14.52 1.15
-1 -4 -6 15.78 1.32
-1 -4 -6 14.89 0.84
-1 -4 -6 16.8 1.43
1 4 6 17.34 7.4
1 4 6 13.62 1.1
1 4 6 13.75 0.82
-2 -4 -6 159.24 6.16
-2 -4 -6 159.23 5.93
-2 -4 -6 162.39 5.91
-2 -4 -6 156.62 6.04
-2 -4 -6 172.54 5.86
2 4 6 160.36 5.78
2 4 6 160.19 5.62
-3 -4 -6 66.09 3.26
-3 -4 -6 67.92 3.17
-3 -4 -6 74.44 3.07
-3 -4 -6 69.45 3.93
-3 -4 -6 68.51 3.56
3 4 6 76.3 2.94
3 4 6 67.21 2.96
3 4 6 68.34 3.12
-4 -4 -6 41.81 3.24
-4 -4 -6 37.89 2.78
-4 -4 -6 39.21 3.3
-4 -4 -6 38.37 3.24
4 4 6 35.04 2.68
-5 -4 -6 3.56 2.99
-5 -4 -6 2.62 2.64
-5 -4 -6 -2.88 3.6
-5 5 6 1.21 0.74
-5 5 6 1.29 1.44
-4 5 6 361.21 12.55
-4 5 6 365.01 12.17
3 -5 -6 513.15 17.12
-3 5 6 496.75 16.72
-3 5 6 499.04 17.04
2 -5 -6 6.64 1.18
1 -5 -6 138.14 5.18
1 -5 -6 142.77 5.1
-1 5 6 136.69 4.96
0 -5 -6 1.9 0.9
0 -5 -6 0.57 0.86
0 5 6 2.24 0.32
0 5 6 1.69 0.6
-1 -5 -6 7.58 1.12
-1 -5 -6 6.38 1.42
-1 -5 -6 7.54 0.68
-1 -5 -6 7.72 1.05
1 5 6 7.06 0.83
1 5 6 8.07 0.61
-2 -5 -6 1289.29 40.81
-2 -5 -6 1194.36 40.79
-2 -5 -6 1225.37 40.97
-2 -5 -6 1207.34 40.78
2 5 6 1190.56 40.5
-3 -5 -6 187.87 6.97
-3 -5 -6 180.53 7.14
-3 -5 -6 181.72 7.23
3 5 6 189.58 6.71
3 5 6 190.14 6.87
-4 -5 -6 119.76 5.46
-4 -5 -6 113.2 4.95
4 5 6 106.56 4.84
-5 -5 -6 1.28 2.87
-5 -5 -6 -0.55 2.58
-5 6 6 4.12 1.75
-4 6 6 12.49 2.08
3 -6 -6 221.45 8.25
-3 6 6 229.05 8.04
2 -6 -6 649.26 22.24
-2 6 6 665.27 22.09
1 -6 -6 1.36 1.11
-1 6 6 2.64 0.76
0 -6 -6 72.25 3.24
0 -6 -6 75.72 3.32
0 6 6 73.95 2.68
0 6 6 76.05 2.94
-1 -6 -6 407.11 13.89
-1 -6 -6 378.91 13.71
-1 -6 -6 404.57 13.81
1 6 6 418.18 13.64
1 6 6 402.01 13.49
-2 -6 -6 29.54 2.46
-2 -6 -6 26.32 2.38
-2 -6 -6 28.89 2.22
2 6 6 28.12 1.76
-3 -6 -6 3.67 2.2
-3 -6 -6 2.62 1.53
-3 -6 -6 5.22 1.82
-3 -6 -6 1.15 1.02
3 6 6 0.91 1.23
-4 -6 -6 8.31 2.73
-4 -6 -6 14.18 2.24
4 6 6 13.34 1.99
-4 7 6 11.17 1.56
3 -7 -6 43.03 3.34
-3 7 6 40.53 2.37
2 -7 -6 -0.25 1.44
-2 7 6 1.26 0.98
1 -7 -6 233.92 8.47
-1 7 6 229.86 7.85
-1 7 6 234.55 8.15
0 -7 -6 6.22 1.34
0 -7 -6 6.41 1.51
0 7 6 7.93 0.66
0 7 6 6.97 0.98
-1 -7 -6 1.45 1.39
-1 -7 -6 0.77 1.39
1 7 6 0.22 0.64
1 7 6 0.22 0.98
-2 -7 -6 0.74 1.62
-2 -7 -6 -1.48 1.47
-2 -7 -6 0.13 0.69
2 7 6 2 1.58
-3 -7 -6 35.79 3.02
-3 -7 -6 34 2.83
-3 -7 -6 39.56 3.42
3 7 6 36.84 2.71
-4 -7 -6 14.37 3.56
-4 -7 -6 16.09 2.68
4 7 6 16.14 2.28
-4 8 6 15.83 1.87
3 -8 -6 24.88 2.67
-3 8 6 29.27 2.27
2 -8 -6 70.99 3.93
-2 8 6 74.76 3.24
1 -8 -6 0.45 1.54
-1 8 6 0.05 0.54
-1 8 6 -0.05 0.95
0 -8 -6 71.36 3.68
0 8 6 67.82 3.11
0 8 6 74.9 2.81
-1 -8 -6 62.86 3.63
-1 -8 -6 66.85 3.71
1 8 6 69.82 2.84
1 8 6 64.36 3.13
-2 -8 -6 9.41 2.12
-2 -8 -6 11.7 2.03
-3 -8 -6 16.04 2.55
3 8 6 14.6 2.17
3 -9 -6 6.84 4.47
-3 9 6 10.83 0.92
-3 9 6 14.46 1.8
2 -9 -6 -0.51 2.1
-2 9 6 1.88 1.31
-2 9 6 -0.26 0.72
1 -9 -6 34.76 2.96
-1 9 6 31.93 1.77
-1 9 6 33 2.63
0 -9 -6 24.14 3.29
0 9 6 24.8 2.45
-1 -9 -6 71.75 4.2
1 9 6 67.78 3.57
-2 -9 -6 0.87 2.58
-2 -9 -6 -2.5 2.47
2 9 6 1.43 1.52
2 -10 -6 1.26 2.73
-2 10 6 1.43 1.27
-2 10 6 1.14 1.81
1 -10 -6 2.98 2.33
-1 10 6 6.38 1.72
0 -10 -6 -0.53 2.4
0 10 6 1.9 1.8
-1 -10 -6 -1.6 4.6
2 10 -7 32.69 3.24
1 10 -7 5.25 3.77
1 10 -7 2.39 1.77
0 10 -7 16.71 1.97
-1 10 -7 -2.59 2.47
-1 10 -7 1.73 1.73
-2 10 -7 0.42 2.05
2 -10 7 2.58 1.95
3 9 -7 19.37 2.57
3 9 -7 25.62 3.66
-3 -9 7 11.98 3.67
-3 -9 7 17.69 2.32
2 9 -7 11.18 1.88
2 9 -7 9.18 2.27
-2 -9 7 6.53 2.91
1 9 -7 -0.75 1.55
1 9 -7 -0.93 1.65
-1 -9 7 -2 4.55
-1 -9 7 0.17 1.69
0 9 -7 5.09 1.72
0 9 -7 5 1.48
0 -9 7 6.58 2.92
-1 9 -7 0.33 1.81
-1 9 -7 2.84 1.56
1 -9 7 0.29 1.28
-2 9 -7 6.02 1.96
-2 9 -7 5.93 4.2
2 -9 7 4.69 1.99
3 -9 7 5.34 1.71
4 8 -7 1.24 2.21
4 8 -7 2.65 2.66
-4 -8 7 1.72 2.1
-4 -8 7 0.66 3.43
3 8 -7 0.34 1.91
3 8 -7 -1.31 1.64
-3 -8 7 -0.85 4.25
-3 -8 7 2.81 1.43
2 8 -7 -1.79 1.68
2 8 -7 -1.08 1.33
-2 -8 7 -4.3 3.06
-2 -8 7 -0.55 1.67
1 8 -7 5.84 1.03
1 8 -7 6.26 1.43
1 8 -7 5.91 1.51
1 8 -7 5.37 1.27
-1 -8 7 5.76 3
-1 -8 7 6.32 1.2
0 8 -7 22.93 1.7
0 8 -7 22.01 1.98
0 8 -7 18.47 1.88
0 -8 7 20.62 3.19
0 -8 7 20.22 1.51
-1 8 -7 6.58 1.41
-1 8 -7 7.1 1.43
-1 8 -7 9.21 1.59
-1 8 -7 6.41 1.63
1 -8 7 5.55 1.42
-2 8 -7 11.93 2.61
-2 8 -7 10.18 2.31
-3 8 -7 50.08 3.73
-4 8 -7 75.18 5.08
4 7 -7 0.3 2.02
4 7 -7 0.1 1.86
-4 -7 7 1.74 1.5
-4 -7 7 0.15 2.72
3 7 -7 46.31 3.13
3 7 -7 46.62 3.22
-3 -7 7 45.68 4.98
-3 -7 7 51.99 2.78
2 7 -7 31.64 2.21
2 7 -7 30.03 2.41
-2 -7 7 36.22 1.91
-2 -7 7 28.16 3.05
1 7 -7 105.37 4.29
1 7 -7 105.6 4.5
1 7 -7 104.25 4.22
1 7 -7 109.16 4.23
-1 -7 7 106.37 5.2
-1 -7 7 112.74 4.02
0 7 -7 44.2 2.48
0 7 -7 40.73 2.64
0 7 -7 45.1 2.28
0 7 -7 43.12 2.39
0 -7 7 41.17 2.04
-1 7 -7 27.03 2.48
-1 7 -7 32.08 2.04
-1 7 -7 29.72 2.29
-1 7 -7 27.85 2.06
1 -7 7 25.44 1.72
-2 7 -7 113.69 4.97
-2 7 -7 107.93 4.93
-2 7 -7 119.77 5.17
2 -7 7 111.31 4.25
-3 7 -7 1.99 2.37
3 -7 7 0.49 1.45
-4 7 -7 11.81 2.68
-4 7 -7 10.47 2.84
4 -7 7 9.73 1.31
5 6 -7 0.58 2.45
-5 -6 7 0.29 1.81
-5 -6 7 2.68 3.11
4 6 -7 4.25 1.76
4 6 -7 3.53 1.72
-4 -6 7 7.24 3.54
-4 -6 7 1.92 2.43
-4 -6 7 2.88 1.23
3 6 -7 1.55 1.38
3 6 -7 0.71 1.34
-3 -6 7 -0.6 0.89
-3 -6 7 -2.51 2.38
2 6 -7 86.4 3.64
2 6 -7 82.37 3.6
2 6 -7 86.41 3.79
-2 -6 7 89.81 3.31
-2 -6 7 86.2 4.67
1 6 -7 50.33 2.69
1 6 -7 52.2 2.44
1 6 -7 47.5 2.11
-1 -6 7 52.53 2.05
0 6 -7 119.94 4.84
0 6 -7 114.27 4.62
0 6 -7 118.26 4.64
0 6 -7 122.37 4.42
0 -6 7 124.27 4.21
-1 6 -7 4.94 0.88
-1 6 -7 5.35 1.33
-1 6 -7 6.43 1.45
-1 6 -7 5.56 1.01
1 -6 7 7.55 0.69
-2 6 -7 -1.02 1.42
-2 6 -7 1.63 1.24
-2 6 -7 -0.27 1.39
2 -6 7 1.18 0.82
2 -6 7 2.42 0.82
-3 6 -7 7.55 2
-3 6 -7 6.1 1.87
-3 6 -7 7.1 1.85
3 -6 7 8.56 1.04
-4 6 -7 4.6 2.33
-4 6 -7 0.53 2.41
-4 6 -7 1.88 2.6
4 -6 7 1.36 1.04
5 5 -7 10.15 2.1
-5 -5 7 9.11 2.86
-5 -5 7 8.8 1.59
4 5 -7 0.35 1.54
4 5 -7 0.56 1.57
-4 -5 7 -0.95 0.95
-4 -5 7 2.06 2.93
3 5 -7 9.43 1.38
3 5 -7 8.89 1.38
-3 -5 7 6.66 2.06
-3 -5 7 9.13 0.87
2 5 -7 86.59 3.74
2 5 -7 91.15 3.56
2 5 -7 87.19 3.58
-2 -5 7 83.59 4.21
-2 -5 7 91.04 3.2
1 5 -7 108.54 4.11
1 5 -7 107 4
1 5 -7 103.52 3.8
-1 -5 7 111.52 3.75
0 5 -7 101.33 4.03
0 5 -7 101.93 4.19
0 5 -7 104.74 3.86
0 5 -7 102.1 3.83
0 5 -7 103.74 3.95
0 -5 7 102.95 3.58
-1 5 -7 2.42 0.6
-1 5 -7 4.27 1.19
-1 5 -7 2.38 0.76
1 -5 7 1.49 0.69
1 -5 7 2 0.64
-2 5 -7 165.57 6.51
-2 5 -7 168.31 5.97
-2 5 -7 166.39 6.5
-2 5 -7 173.36 6.46
-2 5 -7 169.84 6.44
2 -5 7 167.15 5.95
2 -5 7 166.52 5.8
-3 5 -7 366.42 13.29
-3 5 -7 357.97 13.37
-3 5 -7 364.94 13.14
-3 5 -7 388.8 13.95
-4 5 -7 -0.09 2.18
-4 5 -7 -1.24 2.55
-5 5 -7 42.61 4.27
5 -5 7 41.95 2.54
5 4 -7 0.78 2.05
5 4 -7 1.54 1.9
-5 -4 7 0.7 5.87
-5 -4 7 0.64 1.3
-5 -4 7 -2.21 2.45
4 4 -7 124.64 5.15
4 4 -7 136.58 5.09
4 4 -7 122.06 5.04
-4 -4 7 122.93 6.18
-4 -4 7 130.83 4.64
3 4 -7 567.09 19.5
3 4 -7 588.95 19.37
-3 -4 7 581.39 19.16
-3 -4 7 561.18 19.98
2 4 -7 60.58 2.7
2 4 -7 60.04 2.65
2 4 -7 63.56 2.88
-2 -4 7 62.78 2.23
1 4 -7 157.47 5.8
1 4 -7 159.22 6
1 4 -7 173.49 5.7
1 4 -7 161.22 5.75
-1 -4 7 161.52 5.49
0 4 -7 1.02 0.82
0 4 -7 -0.3 0.58
0 4 -7 0.19 0.28
0 4 -7 -0.49 0.9
0 4 -7 -0.18 0.23
0 -4 7 0.29 0.31
0 -4 7 -0.15 0.63
-1 4 -7 60.45 2.63
-1 4 -7 59.01 2.88
-1 4 -7 67.31 2.51
-1 4 -7 59.91 2.86
1 -4 7 57.41 2.42
1 -4 7 62.3 2.24
-2 4 -7 14.67 1.56
-2 4 -7 16.7 2.06
-2 4 -7 14.52 1.32
-2 4 -7 16.3 1.56
-2 4 -7 13.9 1.33
2 -4 7 14.11 0.99
2 -4 7 14.1 1.45
-3 4 -7 701.44 24.56
-3 4 -7 716.88 24.8
-3 4 -7 697.56 24.43
-3 4 -7 731.32 24.51
3 -4 7 722.73 24.12
3 -4 7 745.58 23.94
-4 4 -7 24.74 3.06
-4 4 -7 24.19 2.42
-4 4 -7 31.61 2.51
4 -4 7 26.52 1.75
-5 4 -7 -0.41 2.68
-5 4 -7 -1.6 2.43
5 -4 7 0.89 1.15
5 3 -7 23.39 2.12
5 3 -7 30.62 2.62
-5 -3 7 25.36 2.91
-5 -3 7 30.73 2.06
4 3 -7 1.67 1.27
4 3 -7 0.27 1.28
-4 -3 7 0.84 0.73
-4 -3 7 1.53 2.47
3 3 -7 457.07 15.66
3 3 -7 457.33 15.54
3 3 -7 462.3 15.57
-3 -3 7 446.05 16.09
-3 -3 7 474.67 15.32
2 3 -7 347.72 11.19
2 3 -7 293.11 11.13
2 3 -7 297.81 11.23
2 3 -7 349.37 11.14
-2 -3 7 351.33 10.83
-2 -3 7 309.71 17.44
1 3 -7 0.01 0.71
1 3 -7 -0.05 0.57
1 3 -7 0.21 0.89
-1 -3 7 -0.03 0.26
-1 -3 7 -0.62 0.69
-1 -3 7 1.75 4.33
0 3 -7 35.01 1.37
0 3 -7 37.94 2.02
0 3 -7 39.92 1.9
0 3 -7 35.77 1.66
0 3 -7 34.47 1.46
0 -3 7 30.69 5.77
0 -3 7 37.45 1.64
0 -3 7 35.63 1.37
-1 3 -7 8.02 1.06
-1 3 -7 7.79 0.74
-1 3 -7 5.91 1.07
-1 3 -7 6.37 0.78
1 -3 7 6.18 0.49
1 -3 7 8.03 0.76
-2 3 -7 8.63 1.32
-2 3 -7 12.17 1.04
-2 3 -7 11.5 1.1
-2 3 -7 10.67 1.35
-2 3 -7 11.9 1.3
2 -3 7 10.56 0.85
2 -3 7 12.23 1.09
-3 3 -7 309.23 11.26
-3 3 -7 304.81 10.71
-3 3 -7 330.49 11.16
-3 3 -7 307.28 11.06
-3 3 -7 309.98 11.17
3 -3 7 310.91 10.7
3 -3 7 309.59 10.52
-4 3 -7 332.03 11.83
-4 3 -7 335.43 12.24
4 -3 7 320.83 11.32
-5 3 -7 2.12 2.45
-5 3 -7 6.83 2.57
5 -3 7 4.21 1.17
6 2 -7 -1.29 2.03
-6 -2 7 -0.31 1.55
-6 -2 7 0.3 3.04
5 2 -7 1.01 1.44
5 2 -7 2.92 1.58
-5 -2 7 1.55 1.04
-5 -2 7 -0.23 2.24
4 2 -7 133.91 5.19
4 2 -7 131.07 5.09
4 2 -7 132.93 5.07
-4 -2 7 135.39 4.68
-4 -2 7 137.53 6.03
-4 -2 7 130.68 5.46
3 2 -7 72.03 3.03
3 2 -7 77.66 3.06
3 2 -7 74.51 3.15
-3 -2 7 72.09 2.59
2 2 -7 243.83 8.18
2 2 -7 241.99 8.3
2 2 -7 243.7 8.2
2 2 -7 221.01 8.25
-2 -2 7 248.57 7.96
1 2 -7 40.22 1.78
1 2 -7 41.99 1.81
1 2 -7 35.47 2.13
-1 -2 7 42.38 1.79
-1 -2 7 40.33 5.1
-1 -2 7 42.02 1.46
0 2 -7 31.67 1.73
0 2 -7 39.87 2.21
0 2 -7 34.77 1.95
0 2 -7 33.21 1.27
0 2 -7 37.25 1.24
0 -2 7 31.84 5.17
0 -2 7 33.75 1.3
0 -2 7 32.04 1.57
-1 2 -7 803.52 26.49
-1 2 -7 779.25 26.42
-1 2 -7 809.74 26.35
-1 2 -7 814.81 26.48
1 -2 7 797.04 26.31
1 -2 7 717.56 31.68
1 -2 7 791.79 26.15
-2 2 -7 99.3 4.23
-2 2 -7 108.99 4.23
-2 2 -7 105.83 3.95
-2 2 -7 105.76 4.13
-2 2 -7 105.46 4.17
2 -2 7 109.04 3.91
2 -2 7 104.62 3.72
2 -2 7 95.55 14.19
-3 2 -7 10.45 1.45
-3 2 -7 10.07 1.3
-3 2 -7 10.51 1.18
3 -2 7 9.79 0.82
3 -2 7 8.79 0.91
-4 2 -7 2.43 1.66
-4 2 -7 1.64 1.34
4 -2 7 2.46 0.93
-5 2 -7 34.57 2.96
5 -2 7 32.72 2.19
6 1 -7 3.66 1.87
-6 -1 7 -0.05 4.27
5 1 -7 2.39 1.71
5 1 -7 2.58 1.34
-5 -1 7 2.43 2.22
-5 -1 7 2.78 0.97
4 1 -7 133.01 5.03
4 1 -7 131.68 5.07
-4 -1 7 135.23 4.67
-4 -1 7 138.57 5.46
3 1 -7 0.57 0.85
3 1 -7 0.35 1.03
3 1 -7 1.22 0.76
-3 -1 7 0.71 1.35
2 1 -7 22.57 1.49
2 1 -7 25.56 1.78
2 1 -7 21.79 1.36
2 1 -7 22.42 1.26
1 1 -7 320.57 11.21
1 1 -7 330.4 11.13
1 1 -7 336.53 11.06
1 1 -7 335.06 11.32
0 1 -7 124.41 4.43
0 1 -7 122.6 4.41
0 1 -7 123.6 4.54
0 -1 7 117.59 7.71
0 -1 7 123.08 4.36
0 -1 7 123.54 4.16
-1 1 -7 74.74 3.18
-1 1 -7 79.09 3
-1 1 -7 77.93 3.11
1 -1 7 78.48 2.74
1 -1 7 62.82 8.46
1 -1 7 83.06 3.31
-2 1 -7 95.72 3.8
-2 1 -7 79.08 4.62
-2 1 -7 94.68 3.56
-2 1 -7 97.24 3.67
2 -1 7 88.25 13.12
2 -1 7 93.26 3.49
2 -1 7 91.8 3.31
-3 1 -7 1.61 0.98
-3 1 -7 3.62 0.9
-3 1 -7 3.46 1.17
3 -1 7 2.17 0.64
3 -1 7 1.97 0.68
-4 1 -7 11.04 1.4
-4 1 -7 11 1.74
-4 1 -7 12.44 1.95
4 -1 7 10.49 1.13
-5 1 -7 4.73 2.18
5 -1 7 6.66 1.32
6 0 -7 8.37 2.65
-6 0 7 5.15 5.88
-6 0 7 14.03 1.94
5 0 -7 6.49 1.47
5 0 -7 7 1.35
-5 0 7 6.8 0.96
4 0 -7 2.6 1.11
4 0 -7 1.92 0.94
-4 0 7 2.43 0.59
-4 0 7 2.82 1.61
3 0 -7 3.12 0.85
3 0 -7 1.96 0.71
-3 0 7 3.97 1.38
1 0 -7 316.03 10.4
1 0 -7 292.5 11.06
1 0 -7 308.05 10.57
1 0 -7 321.05 10.51
0 0 -7 225.25 7.61
0 0 -7 229.3 7.61
0 0 -7 193.04 7.58
0 0 -7 220.02 7.53
0 0 7 215.69 10.24
0 0 7 223.27 7.26
-1 0 -7 56.95 2.33
-1 0 -7 55.08 2.23
-1 0 -7 51.54 2.56
-1 0 -7 58.45 2.37
-1 0 -7 56.28 2.51
1 0 7 56.55 2.27
1 0 7 50.46 7.67
1 0 7 57.89 2.04
-2 0 -7 78.01 3.27
-2 0 -7 78.01 3.07
-2 0 -7 74.16 3.05
2 0 7 76.08 2.79
2 0 7 63.03 10.28
2 0 7 79.64 3
-3 0 -7 0.54 0.95
-3 0 -7 -0.2 0.57
-3 0 -7 2.29 1.37
-3 0 -7 1.07 1.2
3 0 7 0.48 0.73
3 0 7 1.22 0.62
-4 0 -7 1.24 1.54
-4 0 -7 -1.03 1.07
-4 0 -7 -0.65 1.78
-4 0 -7 0.15 1.42
4 0 7 1.18 0.91
-5 0 -7 9.06 2.24
-5 0 -7 9.99 2.69
5 0 7 9.83 1.42
6 -1 -7 27.91 2.97
-6 1 7 15.29 3.48
-6 1 7 30.9 2.12
5 -1 -7 1.34 1.35
-5 1 7 0.32 2.3
-5 1 7 -0.16 0.96
4 -1 -7 9.41 1.11
4 -1 -7 5.13 1.12
-4 1 7 8.27 0.71
3 -1 -7 1.67 0.69
2 -1 -7 31.07 1.51
2 -1 -7 35.43 1.8
2 -1 -7 32.02 1.65
1 -1 -7 24.97 1.76
1 -1 -7 25.85 1.48
1 -1 -7 25.36 1.71
0 -1 -7 60.13 2.43
0 -1 -7 60.51 2.52
0 -1 -7 59.98 2.4
0 1 7 50.54 5.21
0 1 7 58.41 2.04
-1 -1 -7 106.56 4.17
-1 -1 -7 114.71 4.17
-1 -1 -7 123.25 4.06
1 1 7 110.12 3.89
1 1 7 101.4 9.75
-2 -1 -7 22.07 1.77
-2 -1 -7 21.4 1.54
-2 -1 -7 19.99 1.46
-2 -1 -7 21.73 1.2
2 1 7 6.07 14.94
2 1 7 21.28 1.11
2 1 7 20.42 1.36
-3 -1 -7 6.29 1.39
-3 -1 -7 7.45 1.59
-3 -1 -7 9.29 1.16
-3 -1 -7 10.72 1.14
3 1 7 9.65 1
-4 -1 -7 65.93 3.57
-4 -1 -7 43.55 4.1
-4 -1 -7 63.88 3.98
-4 -1 -7 68.7 3.35
4 1 7 65.15 2.87
-5 -1 -7 6.52 2.24
-5 -1 -7 5.94 2.73
5 1 7 3.31 1.4
6 -2 -7 8.44 1.78
-6 2 7 10.13 1.21
-6 2 7 7.42 3.72
5 -2 -7 3.27 1.23
-5 2 7 5.01 2.35
-5 2 7 4.44 0.83
4 -2 -7 26.94 1.77
-4 2 7 25.83 2.67
-4 2 7 25.64 1.33
3 -2 -7 -0.36 0.65
-3 2 7 0.13 1.33
-3 2 7 -0.4 0.39
2 -2 -7 33.09 1.93
2 -2 -7 35.2 2.17
2 -2 -7 32.57 1.56
1 -2 -7 70.98 2.75
-1 2 7 67.19 2.58
0 -2 -7 73.86 3.05
0 -2 -7 75.6 3.04
0 -2 -7 78.12 3
0 2 7 75.16 2.62
0 2 7 76.45 6.83
-1 -2 -7 294.21 10.29
-1 -2 -7 281.39 10.23
-1 -2 -7 293.41 10.26
-1 -2 -7 319.54 10.12
1 2 7 287.06 17.23
1 2 7 305.7 9.99
-2 -2 -7 97.01 4.03
-2 -2 -7 97.38 3.84
-2 -2 -7 98.28 3.73
-2 -2 -7 100.07 3.88
2 2 7 98.41 3.54
2 2 7 99.37 3.75
-3 -2 -7 9.07 1.23
-3 -2 -7 8.66 1.78
-3 -2 -7 11.09 1.56
-3 -2 -7 9.2 1.06
3 2 7 9.01 1.05
3 2 7 6.77 0.87
-4 -2 -7 0.73 1.76
-4 -2 -7 -1.24 1.38
-4 -2 -7 -1.87 2.15
-4 -2 -7 1.14 1.08
4 2 7 1.1 1.09
-5 -2 -7 18.16 2.57
-5 -2 -7 20.43 3.31
5 -3 -7 66.29 3.16
-5 3 7 71.04 4.91
-5 3 7 69.2 2.69
4 -3 -7 2.46 0.91
-4 3 7 2.39 2
-4 3 7 0.77 0.55
3 -3 -7 8.79 0.93
-3 3 7 10.06 0.7
-3 3 7 8.13 1.64
2 -3 -7 17.85 1.7
2 -3 -7 20.12 1.59
-2 3 7 19.44 0.77
-2 3 7 14.75 1.21
1 -3 -7 159.77 5.8
1 -3 -7 163.83 6.35
-1 3 7 161.03 5.62
0 -3 -7 5.58 1.15
0 -3 -7 7.18 0.89
0 -3 -7 6.01 0.94
0 3 7 6.98 1
0 3 7 6.86 0.48
-1 -3 -7 10.59 0.64
-1 -3 -7 7.86 0.99
-1 -3 -7 8.79 0.98
1 3 7 10.61 0.71
-2 -3 -7 284.31 9.46
-2 -3 -7 261.79 9.5
-2 -3 -7 256.28 9.51
-2 -3 -7 258.05 9.58
2 3 7 299.14 10.18
2 3 7 273.97 9.23
-3 -3 -7 1.34 1.14
-3 -3 -7 1.8 0.55
-3 -3 -7 1.9 1.47
-3 -3 -7 1.98 1.9
-3 -3 -7 0.38 1.21
3 3 7 2.95 1.03
3 3 7 0.81 0.81
3 3 7 2.81 1.16
-4 -3 -7 1.82 2.54
-4 -3 -7 3.52 1.86
-4 -3 -7 3.72 1.58
-4 -3 -7 2.87 0.97
4 3 7 3.42 1.24
-5 -3 -7 55.1 4.09
-5 -3 -7 64.6 5.63
-5 -3 -7 65.13 4.57
5 -4 -7 18.15 1.6
-5 4 7 14.68 1.29
-5 4 7 13.08 1.72
4 -4 -7 127.45 4.92
-4 4 7 131.29 4.52
-4 4 7 130.98 5.01
-3 4 7 13.05 1.16
-3 4 7 13.36 0.79
2 -4 -7 123.33 4.69
-2 4 7 120.72 4.48
1 -4 -7 188.06 6.71
1 -4 -7 193.95 6.81
-1 4 7 187.98 6.59
0 -4 -7 4.59 1.01
0 -4 -7 3.54 0.92
0 4 7 5.24 0.7
0 4 7 4.32 0.38
-1 -4 -7 0.34 0.88
-1 -4 -7 -1.04 1.32
-1 -4 -7 1.06 1.22
-1 -4 -7 0.68 0.28
1 4 7 0.04 0.41
-2 -4 -7 6.33 1.25
-2 -4 -7 4.37 1.52
-2 -4 -7 6.16 1.18
-2 -4 -7 6.6 0.75
2 4 7 7.09 0.75
2 4 7 7.3 1.03
-3 -4 -7 31.62 2.52
-3 -4 -7 33.97 1.89
-3 -4 -7 31.36 2.87
3 4 7 32.94 2.02
3 4 7 30.96 2.06
3 4 7 26.17 2.33
-4 -4 -7 1.08 1.87
-4 -4 -7 2.37 1.61
-5 -4 -7 12.49 3.12
-5 -4 -7 9.88 3.59
-5 5 7 3.69 1.76
-5 5 7 6.05 0.86
-4 5 7 3.12 1.38
-4 5 7 4.49 0.63
-3 5 7 108.98 4.59
2 -5 -7 43.04 2.68
-2 5 7 45.53 2.19
1 -5 -7 144.99 5.36
1 -5 -7 144.93 5.45
-1 5 7 142.06 5.16
0 -5 -7 92.22 3.92
0 -5 -7 100.48 3.87
0 5 7 91.28 3.56
0 5 7 98.01 3.35
-1 -5 -7 283.41 9.77
-1 -5 -7 278.05 9.69
-1 -5 -7 264.95 9.47
1 5 7 276.63 9.33
-2 -5 -7 96.03 4.39
-2 -5 -7 92.95 4.07
-2 -5 -7 92.88 4.01
-2 -5 -7 85.37 4
2 5 7 99.61 3.77
2 5 7 91.35 3.51
-3 -5 -7 4.9 1.69
-3 -5 -7 2.5 1.53
-3 -5 -7 8.34 1.26
-3 -5 -7 6.51 2.17
3 5 7 4.71 1.42
3 5 7 6.04 1.39
-4 -5 -7 33.11 2.62
-4 -5 -7 28.68 3.07
4 5 7 32.74 3.38
-5 6 7 2.65 2
-4 6 7 85.74 3.88
3 -6 -7 17.9 2.33
-3 6 7 16.46 1.51
2 -6 -7 450.74 15.64
-2 6 7 456.32 15.42
1 -6 -7 7.34 1.43
-1 6 7 9.4 1.02
-1 6 7 10.66 0.69
0 -6 -7 3.19 1.28
0 -6 -7 1.5 1.35
0 6 7 1.67 0.46
0 6 7 1.75 0.88
-1 -6 -7 40.75 2.56
-1 -6 -7 38.93 2.62
1 6 7 38.62 1.78
-2 -6 -7 259.41 9.46
-2 -6 -7 259.12 9.23
-2 -6 -7 260.36 9.48
2 6 7 261.89 9.03
2 6 7 266.82 9.21
-3 -6 -7 594.69 19.68
-3 -6 -7 542.61 21.12
-3 -6 -7 587.87 20.18
-3 -6 -7 560.75 20.31
3 6 7 542.4 19.56
-4 -6 -7 52.19 3.9
-4 -6 -7 51.11 4.89
4 6 7 51.06 3.9
-4 7 7 31.32 2.76
3 -7 -7 148.57 7.73
-3 7 7 154.96 5.99
2 -7 -7 95.89 4.53
-2 7 7 98.79 3.96
1 -7 -7 7.54 1.74
-1 7 7 8.02 0.64
-1 7 7 7.68 1.1
0 -7 -7 4.5 1.8
0 -7 -7 2.1 1.55
0 7 7 2.54 1.09
0 7 7 3.3 0.63
-1 -7 -7 18.44 1.99
-1 -7 -7 23.5 2.06
1 7 7 23.72 1.54
-2 -7 -7 47.48 3.35
-2 -7 -7 44.13 3.23
2 7 7 44.52 2.91
2 7 7 49.29 3.74
-3 -7 -7 56.41 4.33
-3 -7 -7 64.46 3.98
3 7 7 66.24 3.68
-3 8 7 1.22 1.51
2 -8 -7 -0.96 2.13
-2 8 7 1.6 0.6
-2 8 7 0.65 1.29
1 -8 -7 7.83 3.15
-1 8 7 7.51 0.94
-1 8 7 4.95 1.29
0 -8 -7 6.41 1.88
0 8 7 7.11 1.42
0 8 7 11.78 0.97
-1 -8 -7 2.87 2.12
-1 -8 -7 5.26 1.98
1 8 7 3.16 1.15
-2 -8 -7 35.58 2.93
-2 -8 -7 31.68 2.75
-3 -8 -7 17.93 3.53
3 8 7 11.32 2.36
2 -9 -7 -1.48 2.59
-2 9 7 1.95 1.6
-2 9 7 1.94 0.86
1 -9 -7 1.96 4.39
-1 9 7 3.19 1
-1 9 7 4.31 1.51
0 -9 -7 74.26 4.54
0 9 7 83.11 3.55
-1 -9 -7 2.15 2.48
-2 -9 -7 4.67 3
-2 -9 -7 2.95 3.07
2 9 7 4.29 2.55
0 -10 -7 66.15 4.86
1 10 -8 29.19 2.58
0 10 -8 0.08 1.89
2 9 -8 1.14 1.83
-2 -9 8 3.91 1.91
-1 -9 8 0.8 1.82
0 9 -8 2.91 1.63
0 9 -8 1.06 1.9
0 -9 8 5 2.3
-1 9 -8 -3.64 1.84
-1 9 -8 0.11 2.01
-2 9 -8 5.05 2.01
-2 9 -8 5.89 3.33
2 -9 8 3.59 1.82
3 8 -8 1.99 1.89
-3 -8 8 1.29 1.57
2 8 -8 1.17 1.6
-2 -8 8 2.17 1.35
-2 -8 8 -4.12 3.72
1 8 -8 0.92 1.35
1 8 -8 -0.06 1.65
-1 -8 8 0.26 1.28
0 8 -8 0.5 1.27
0 8 -8 0.34 1.57
0 8 -8 0.48 1.6
0 -8 8 2.41 1.29
0 -8 8 0.02 3.57
-1 8 -8 0.94 1.66
-1 8 -8 -0.73 1.46
1 -8 8 0.69 1.48
-2 8 -8 -1.49 1.82
-2 8 -8 0.4 2.06
-3 8 -8 17.31 5.24
-3 8 -8 14.25 2.4
4 7 -8 10.45 3
-4 -7 8 10.32 3.54
-4 -7 8 9.43 2.35
3 7 -8 2.66 1.69
-3 -7 8 -0.86 3.96
-3 -7 8 1.93 1.22
2 7 -8 2.49 1.34
-2 -7 8 1.21 3.11
-2 -7 8 0.12 0.99
1 7 -8 3.99 1.23
1 7 -8 4.2 1.39
-1 -7 8 3.91 2.51
-1 -7 8 4.05 0.9
0 7 -8 165.37 6.58
0 7 -8 171.03 6.35
0 7 -8 167.02 6.28
0 -7 8 174.68 6
-1 7 -8 37.73 2.56
-1 7 -8 29.81 2.83
1 -7 8 35.61 1.99
-2 7 -8 39.67 4.61
-2 7 -8 41.08 3.25
-2 7 -8 40.26 3.06
2 -7 8 40.77 2.3
-3 7 -8 9.13 2.42
-3 7 -8 6.76 2.24
3 -7 8 5.84 1.3
-4 7 -8 54.41 4.75
4 -7 8 57.68 3.02
4 6 -8 0.32 2.02
-4 -6 8 -1.59 4
3 6 -8 -0.54 1.43
-3 -6 8 1.74 2.92
-3 -6 8 -0.33 0.98
2 6 -8 1.01 1.38
2 6 -8 0.93 1.22
-2 -6 8 1.03 2.38
-2 -6 8 -0.39 0.8
1 6 -8 0.94 1.21
1 6 -8 1.65 1.11
-1 -6 8 0.85 0.6
0 6 -8 6.33 1.46
0 6 -8 10.49 1.34
0 -6 8 8.47 0.73
-1 6 -8 0.91 1.42
-1 6 -8 -0.13 0.75
-1 6 -8 -0.91 1.23
1 -6 8 0.59 0.95
1 -6 8 0.56 0.65
-2 6 -8 -0.16 0.97
-2 6 -8 1.77 1.62
-2 6 -8 1.79 1.64
2 -6 8 -0.4 0.93
2 -6 8 1.67 0.91
-3 6 -8 46.83 4.54
-4 6 -8 59.43 4.67
-4 6 -8 61.82 4.63
4 -6 8 64.78 2.99
-5 -5 8 1.77 3.21
-5 -5 8 1.48 1.68
4 5 -8 3.93 1.91
-4 -5 8 8.31 1.26
-4 -5 8 7.31 3.86
3 5 -8 54.8 3.04
-3 -5 8 57.46 2.44
-3 -5 8 61.55 4.48
2 5 -8 83.42 3.81
2 5 -8 83.91 3.62
-2 -5 8 92.29 3.16
-2 -5 8 80.67 4.43
1 5 -8 202.54 7.55
1 5 -8 205.52 7.32
-1 -5 8 206.36 6.95
0 5 -8 70.45 2.75
0 5 -8 68.43 3.11
0 5 -8 69.79 3.37
0 5 -8 70.48 2.9
0 -5 8 73.57 2.59
-1 5 -8 7.75 1.48
-1 5 -8 7.03 0.97
-1 5 -8 6.97 0.88
-1 5 -8 6.16 1.37
1 -5 8 3.97 0.56
1 -5 8 7.95 0.99
-2 5 -8 121.9 5.15
-2 5 -8 123.27 4.62
-2 5 -8 120.78 5.2
2 -5 8 125.4 4.57
-3 5 -8 24.55 2.46
-3 5 -8 16.26 2.11
-3 5 -8 20.6 2.32
3 -5 8 19.44 1.64
-4 5 -8 19.58 2.69
-4 5 -8 20.75 2.78
4 -5 8 24.06 1.82
-5 -4 8 10.05 2.94
-5 -4 8 6.88 1.46
4 4 -8 62.44 3.54
-4 -4 8 61.74 5.29
-4 -4 8 67.94 2.75
3 4 -8 34.72 2.34
-3 -4 8 20.5 4.32
-3 -4 8 34.73 1.65
2 4 -8 28.55 2.2
2 4 -8 30.55 1.97
-2 -4 8 29.13 1.25
1 4 -8 176.91 6.36
1 4 -8 179.14 6.4
1 4 -8 176.71 6.63
-1 -4 8 182.6 6.05
0 4 -8 15.74 1.57
0 4 -8 17.41 1.12
0 4 -8 17.72 0.89
0 4 -8 15.49 1.74
0 -4 8 20.97 1.43
0 -4 8 19.85 0.93
-1 4 -8 111.69 4.13
-1 4 -8 113.27 4.51
-1 4 -8 91.47 4.22
1 -4 8 114.87 3.83
1 -4 8 114.76 4.05
-2 4 -8 72.17 3.28
-2 4 -8 71.39 3.03
-2 4 -8 73.92 3.56
-2 4 -8 76.09 3.71
2 -4 8 73.96 2.99
2 -4 8 73.71 2.77
-3 4 -8 1.69 1.69
-3 4 -8 1.88 1.08
-3 4 -8 0.56 1.51
3 -4 8 1.2 0.82
3 -4 8 -0.5 0.92
-4 4 -8 42.13 3.53
-4 4 -8 36.93 3.15
4 -4 8 39.95 2.17
-5 4 -8 -1.57 3.04
-5 4 -8 -1.82 3.1
5 -4 8 -0.31 2
-5 -3 8 2.42 3.02
4 3 -8 65.64 3.63
4 3 -8 87.5 4.44
-4 -3 8 67.94 2.76
-4 -3 8 63.86 5.01
3 3 -8 422.56 14.5
-3 -3 8 422.83 15.06
-3 -3 8 423.33 14.11
2 3 -8 607.98 20.82
2 3 -8 616.21 20.72
2 3 -8 621.69 20.88
1 3 -8 97.05 3.67
1 3 -8 99.35 3.69
1 3 -8 95.68 3.96
-1 -3 8 93.66 3.32
0 3 -8 49.19 2.6
0 3 -8 49.81 2.21
0 3 -8 51.29 2.38
0 -3 8 50.29 1.88
0 -3 8 51.5 2.2
-1 3 -8 0.19 0.74
-1 3 -8 1.03 0.38
-1 3 -8 0.83 1.16
-1 3 -8 2.51 1.11
1 -3 8 1.15 0.71
1 -3 8 1.26 0.43
-2 3 -8 1149.06 38.88
-2 3 -8 1153.5 38.85
-2 3 -8 1164.66 38.84
-2 3 -8 1132.18 38.56
2 -3 8 1174.74 38.38
2 -3 8 1174.96 38.55
-3 3 -8 44.27 2.93
-3 3 -8 47.04 2.54
-3 3 -8 44.12 3.05
-3 3 -8 45.7 2.88
3 -3 8 40.17 2.17
3 -3 8 45.51 2.06
-4 3 -8 86.33 4.76
-4 3 -8 90.68 4.62
4 -3 8 96.57 3.75
-5 3 -8 1.4 2.82
-5 3 -8 0.75 3.01
5 -3 8 2.57 1.26
5 2 -8 5.24 1.69
-5 -2 8 6.24 1.19
-5 -2 8 6.67 2.66
4 2 -8 33.35 2.32
-4 -2 8 30.84 3.53
-4 -2 8 36.63 1.67
3 2 -8 21.13 1.75
3 2 -8 20.21 1.74
-3 -2 8 21 2.31
-3 -2 8 22.46 1.04
2 2 -8 58.45 2.46
2 2 -8 55.52 2.59
2 2 -8 56.53 2.8
-2 -2 8 56.4 1.98
1 2 -8 251.86 8.36
1 2 -8 240.46 8.53
1 2 -8 233.81 8.33
-1 -2 8 238.09 8.04
-1 -2 8 241.33 8.37
0 2 -8 0.32 0.99
0 2 -8 0.19 0.67
0 2 -8 -0.39 0.98
0 -2 8 0.23 0.69
0 -2 8 -1.76 7.57
0 -2 8 0.13 0.33
-1 2 -8 62.87 2.52
-1 2 -8 68.88 3.12
-1 2 -8 68.31 2.64
-1 2 -8 70.43 3.12
-1 2 -8 69.24 2.84
1 -2 8 70.96 2.5
1 -2 8 71.21 2.76
-2 2 -8 38.73 2.42
-2 2 -8 39.36 2.51
2 -2 8 36.22 1.88
2 -2 8 38.19 1.64
-3 2 -8 174.06 6.86
-3 2 -8 179.64 6.95
-3 2 -8 176.42 6.53
3 -2 8 183.09 6.23
3 -2 8 179.75 6.42
-4 2 -8 49.31 3.23
-4 2 -8 44.29 3.37
-4 2 -8 42.84 3.8
4 -2 8 45.26 2.37
-5 2 -8 2.59 2.56
-5 2 -8 4.33 3.25
5 -2 8 3.45 1.31
5 1 -8 21.14 1.91
-5 -1 8 24.77 1.85
4 1 -8 18.15 1.9
-4 -1 8 16.22 2.13
-4 -1 8 16.54 1.23
3 1 -8 27.12 1.77
-3 -1 8 28.32 2.88
2 1 -8 0.41 0.78
2 1 -8 2.76 1.47
2 1 -8 -0.35 0.67
1 1 -8 167.9 7
1 1 -8 184.89 6.4
-1 -1 8 187.45 6.09
0 1 -8 6.02 1.13
0 1 -8 10.96 1.04
0 1 -8 8.9 0.93
0 -1 8 8.53 0.6
0 -1 8 7.93 0.81
0 -1 8 8.35 6.23
-1 1 -8 769.86 25.74
-1 1 -8 770.93 25.97
-1 1 -8 791.66 25.86
-1 1 -8 746.06 25.83
1 -1 8 770.36 25.79
1 -1 8 781.71 25.61
-2 1 -8 70.54 3.04
-2 1 -8 68.97 2.8
-2 1 -8 68.73 3.2
-2 1 -8 62.47 3.27
2 -1 8 63.57 2.64
2 -1 8 67.97 2.78
-3 1 -8 17.69 1.52
-3 1 -8 20.71 1.86
-3 1 -8 18.25 2.19
-3 1 -8 17.02 1.51
3 -1 8 19.39 1.52
3 -1 8 17.93 1.37
-4 1 -8 129.38 5.45
-4 1 -8 123.7 5.44
4 -1 8 123.02 4.79
-5 1 -8 1.07 2.44
5 -1 8 4.66 1.43
5 0 -8 52.06 2.85
-5 0 8 47.32 4.17
-5 0 8 44.64 2.28
4 0 -8 2.02 1.12
-4 0 8 3.41 0.73
3 0 -8 6.58 0.94
2 0 -8 81.01 3.12
2 0 -8 76.39 2.97
1 0 -8 11.57 1.03
1 0 -8 14.49 1.79
1 0 -8 15.29 1.43
0 0 -8 13.49 1.12
0 0 -8 14.37 1.31
0 0 -8 13.84 1.2
0 0 8 12.84 5.34
0 0 8 13.91 0.72
-1 0 -8 140.04 5.14
-1 0 -8 148.87 4.89
-1 0 -8 123.16 5.25
-1 0 -8 138.04 5.12
1 0 8 142.65 4.82
1 0 8 145.22 5.08
-2 0 -8 4.2 0.57
-2 0 -8 4.61 1.6
-2 0 -8 6.35 1.2
2 0 8 3.45 0.8
2 0 8 4.8 0.6
-3 0 -8 27.6 2.45
-3 0 -8 29.04 1.79
-3 0 -8 29.27 2.04
3 0 8 29.62 1.81
3 0 8 26 1.6
-4 0 -8 5.03 1.64
-4 0 -8 2.75 1.74
-4 0 -8 3.36 1.13
4 0 8 3.4 1.12
-5 0 -8 18.49 2.76
5 0 8 15.54 1.69
5 -1 -8 0.78 1.32
-5 1 8 0.36 0.91
-5 1 8 1.06 2.54
4 -1 -8 1.07 1.01
-4 1 8 -0.27 0.65
3 -1 -8 106.7 4.03
2 -1 -8 27.94 1.71
2 -1 -8 27.91 1.47
1 -1 -8 270.42 10.09
1 -1 -8 317.92 10.12
0 -1 -8 34.77 1.76
0 -1 -8 35.2 1.83
0 -1 -8 29.27 2.27
0 1 8 31.7 1.25
-1 -1 -8 38.15 2.24
-1 -1 -8 38.49 1.47
-1 -1 -8 37.19 2.01
-1 -1 -8 34.66 1.92
1 1 8 36.78 1.83
1 1 8 36.64 1.5
-2 -1 -8 4.98 1.03
-2 -1 -8 6.86 1.34
-2 -1 -8 6.5 1.02
2 1 8 6.73 0.66
2 1 8 8.1 0.96
-3 -1 -8 43.29 2.86
-3 -1 -8 47.17 2.5
3 1 8 46.07 2.12
3 1 8 44.73 2.32
-4 -1 -8 22.76 2.39
-4 -1 -8 24.56 2.04
-4 -1 -8 22.24 2.3
4 1 8 22.39 2
-5 -1 -8 5.56 2.51
5 1 8 3.91 1.61
5 -2 -8 5.55 1.38
-5 2 8 4.68 0.86
4 -2 -8 25.49 1.84
-4 2 8 23.85 2.5
-4 2 8 23.5 1.27
3 -2 -8 41.18 2.05
2 -2 -8 3.29 1.19
2 -2 -8 4.26 1.04
1 -2 -8 19.01 1.58
1 -2 -8 18.87 1.49
0 -2 -8 91.67 3.66
0 -2 -8 97.51 3.79
0 -2 -8 91.08 3.62
0 2 8 93.59 3.23
-1 -2 -8 9.2 1.1
-1 -2 -8 9.37 0.56
-1 -2 -8 10.51 1.37
-1 -2 -8 7.26 1.01
1 2 8 9.67 0.76
-2 -2 -8 91.48 3.45
-2 -2 -8 89.79 3.98
-2 -2 -8 88.14 3.7
-2 -2 -8 88.72 3.76
2 2 8 94.66 3.62
2 2 8 89.82 3.33
-3 -2 -8 -0.01 0.65
-3 -2 -8 -0.32 1.17
-3 -2 -8 0 1.53
3 2 8 -0.84 0.94
3 2 8 0.3 0.85
-4 -2 -8 13.71 2.29
-4 -2 -8 10.3 1.79
4 2 8 9.68 1.41
-5 -2 -8 -3.63 2.56
5 -3 -8 6.37 1.46
-5 3 8 7.41 0.87
4 -3 -8 39.33 2.23
-4 3 8 39.27 1.66
3 -3 -8 1.51 0.79
-3 3 8 1.08 0.41
2 -3 -8 24.17 2
2 -3 -8 24.09 2.08
-2 3 8 26.58 1.68
1 -3 -8 16.76 1.56
1 -3 -8 17.46 1.42
0 -3 -8 269.8 9.54
0 -3 -8 270.71 9.58
0 3 8 281.78 9.19
-1 -3 -8 115.17 4.41
-1 -3 -8 118.65 4.07
-1 -3 -8 113.25 4.46
-1 -3 -8 111.03 4.61
1 3 8 111.03 4.02
-2 -3 -8 60.09 3.37
-2 -3 -8 62.13 3.08
-2 -3 -8 67.33 3.03
-2 -3 -8 69.64 2.63
2 3 8 61.81 2.86
2 3 8 63.9 2.57
-3 -3 -8 1.63 0.67
-3 -3 -8 1.14 1.73
-3 -3 -8 3.74 1.39
-3 -3 -8 1.43 1.32
3 3 8 1.51 1.11
-4 -3 -8 20.04 2.96
-4 -3 -8 21.24 2.25
4 3 8 30.46 3.11
-5 -3 -8 14.65 3.05
-5 4 8 0.62 0.77
-5 4 8 1.61 1.84
-4 4 8 52.92 3.65
-4 4 8 47.04 2.08
2 -4 -8 4.4 1.45
-2 4 8 7.83 1.08
1 -4 -8 -0.02 1.13
1 -4 -8 0.98 1.09
-1 4 8 0.75 0.28
-1 4 8 0.1 0.83
0 -4 -8 215.92 7.88
0 -4 -8 228.04 8
0 4 8 222.97 7.51
-1 -4 -8 458.34 15.58
-1 -4 -8 441.38 15.28
-1 -4 -8 448.53 15.61
1 4 8 471.96 15.24
-2 -4 -8 3.43 1.28
-2 -4 -8 6.22 1.84
-2 -4 -8 3.57 1.37
2 4 8 2.58 1.08
2 4 8 3.21 0.78
-3 -4 -8 67.59 4.21
-3 -4 -8 66.07 3.62
-3 -4 -8 72.78 3.06
-3 -4 -8 65.24 3.57
3 4 8 74.38 3.15
3 4 8 67.86 3.25
-4 -4 -8 24.13 2.96
-4 -4 -8 31.6 2.53
-5 5 8 0.83 2.09
-4 5 8 4.56 1.57
-3 5 8 1.98 1.27
2 -5 -8 2.79 1.61
-2 5 8 5.04 1.09
1 -5 -8 144.1 5.42
1 -5 -8 139.53 5.52
-1 5 8 140.93 4.82
-1 5 8 141.13 5.14
0 -5 -8 42.8 2.52
0 -5 -8 43.14 2.66
0 5 8 46.34 1.8
-1 -5 -8 18.68 1.7
-1 -5 -8 17.17 1.69
1 5 8 19.84 1.24
-2 -5 -8 53.65 3.15
-2 -5 -8 55.9 2.43
-2 -5 -8 56.69 3.11
2 5 8 54.68 2.79
2 5 8 55.29 2.49
-3 -5 -8 18.94 1.87
-3 -5 -8 13.25 2.58
-4 -5 -8 73.3 4.3
-4 -5 -8 69.62 5.3
-4 6 8 53.04 3.19
-3 6 8 86.28 3.79
2 -6 -8 14.6 2.1
-2 6 8 16.45 1.47
1 -6 -8 16.88 1.92
-1 6 8 15.88 1.38
-1 6 8 17.7 0.97
0 -6 -8 14.35 1.79
0 -6 -8 11.45 1.8
0 6 8 10.58 0.8
-1 -6 -8 5.41 1.62
-1 -6 -8 4.25 1.65
1 6 8 4.69 0.79
-2 -6 -8 12.69 1.97
-2 -6 -8 13.8 1.91
2 6 8 17 1.69
2 6 8 13.59 1.33
-3 -6 -8 236.89 8.91
-3 -6 -8 236.16 8.84
3 6 8 228.97 8.68
-4 -6 -8 63.96 4.52
-4 7 8 0.96 2.01
-3 7 8 166.58 6.66
2 -7 -8 15.91 2.43
-2 7 8 23.49 2.11
-2 7 8 22.78 1.16
1 -7 -8 41.37 3.26
-1 7 8 42.9 1.78
-1 7 8 39.69 2.47
0 -7 -8 0.12 1.75
0 7 8 0.72 0.67
-1 -7 -8 6.52 2.84
-1 -7 -8 7.28 2.13
1 7 8 6.53 1.59
-2 -7 -8 168.54 6.95
-2 -7 -8 167.91 6.9
2 7 8 176.02 6.59
-3 -7 -8 230.69 9.51
-3 -7 -8 241.18 9.24
3 7 8 255.76 10.33
-3 8 8 155.42 6.14
-3 8 8 155.34 5.42
2 -8 -8 85.25 4.98
-2 8 8 77.07 3.77
-2 8 8 83.11 3.07
1 -8 -8 6.64 2.35
-1 8 8 5.2 0.87
0 -8 -8 30.36 2.66
0 8 8 27.03 1.82
-1 -8 -8 0.1 2.98
-1 -8 -8 0.48 2.22
1 8 8 -1.53 2.26
-2 -8 -8 67.52 4.61
-2 -8 -8 72.34 4.67
2 8 8 66.62 3.83
1 -9 -8 7.61 3.22
-1 9 8 8.1 1.51
0 -9 -8 -1.11 2.64
0 9 8 2.26 1.47
-1 -9 -8 -0.45 2.74
1 9 -9 8.93 2.87
-1 -9 9 9.52 2.15
0 9 -9 0.32 2.25
0 9 -9 -1.25 1.78
-1 9 -9 7.79 2.74
2 8 -9 -0.55 1.84
-2 -8 9 0.24 1.51
1 8 -9 25.53 2.54
1 8 -9 23.93 2.32
-1 -8 9 13.88 5.01
-1 -8 9 28.25 2.4
0 8 -9 1.27 1.7
0 8 -9 2.75 1.61
0 -8 9 6.29 1.5
-1 8 -9 16.39 1.91
-1 8 -9 9.76 2.04
1 -8 9 12.15 2.67
-2 8 -9 1.48 2.34
-2 8 -9 0.44 1.99
3 7 -9 2.9 2.09
-3 -7 9 1.84 1.36
2 7 -9 0.78 1.65
-2 -7 9 1.5 1.12
-2 -7 9 -1.44 3.89
1 7 -9 30.82 2.78
1 7 -9 28.88 2.58
-1 -7 9 31.25 2.01
-1 -7 9 26.02 3.62
0 7 -9 -0.02 1.49
0 7 -9 0.79 1.26
0 -7 9 -1.15 0.9
-1 7 -9 1.16 2.3
-1 7 -9 1.34 2.5
1 -7 9 2.56 1.91
-2 7 -9 5.02 1.92
-2 7 -9 9.06 2.24
-3 7 -9 -1.21 2.34
-3 7 -9 -1.81 2.53
3 -7 9 -2.88 1.53
4 6 -9 -2.3 2.52
-4 -6 9 1.06 1.53
-4 -6 9 4.48 3.04
3 6 -9 6.39 1.93
-3 -6 9 3.5 1.13
-3 -6 9 0.82 3.76
2 6 -9 17.24 1.84
2 6 -9 17.36 1.93
-2 -6 9 19.57 3.36
-2 -6 9 23.8 1.65
1 6 -9 45.39 2.99
1 6 -9 45.55 2.64
-1 -6 9 48.18 2.06
0 6 -9 25.85 2.63
0 6 -9 24.7 2.11
0 -6 9 30.12 1.49
-1 6 -9 11.96 1.91
-1 6 -9 12.34 1.69
1 -6 9 11.39 0.96
-2 6 -9 0.93 1.77
-2 6 -9 2.24 1.81
-2 6 -9 -0.68 1.84
2 -6 9 2.03 1.21
2 -6 9 -0.51 1.03
-3 6 -9 -0.32 2.25
-3 6 -9 -2.01 2.25
3 -6 9 0.35 1.21
-4 6 -9 -0.43 3.19
-4 6 -9 0.9 3.17
4 -6 9 3.71 1.48
4 5 -9 2.91 2.38
-4 -5 9 0.61 1.19
3 5 -9 41.66 3
-3 -5 9 42.19 2.07
-3 -5 9 39.33 4
2 5 -9 10.67 1.7
2 5 -9 7.15 1.51
-2 -5 9 8.94 2.52
-2 -5 9 9.8 0.83
1 5 -9 -1.13 1.31
1 5 -9 0.69 1.16
-1 -5 9 0.19 0.52
0 5 -9 17.72 1.62
0 5 -9 16.81 1.55
0 5 -9 18.44 1.93
0 -5 9 22.07 1.11
-1 5 -9 30.43 1.73
-1 5 -9 33.76 2.51
-1 5 -9 35.74 3.06
-1 5 -9 30.14 1.97
1 -5 9 33.16 2.06
1 -5 9 39.17 1.94
-2 5 -9 8.9 1.88
-2 5 -9 12.58 1.43
-2 5 -9 13.34 2.01
2 -5 9 9.99 0.94
2 -5 9 9.99 1.17
-3 5 -9 174.59 6.94
-3 5 -9 161.75 6.98
3 -5 9 170.89 6.17
-4 5 -9 59.39 4.59
-4 5 -9 54.87 4.88
4 -5 9 62.14 2.91
-4 -4 9 34.27 2.01
-4 -4 9 25.42 5.12
3 4 -9 16.3 1.95
-3 -4 9 18.32 1.39
-3 -4 9 14.73 3
2 4 -9 30.95 2.3
2 4 -9 28.76 2.49
-2 -4 9 29.65 1.33
1 4 -9 20.58 1.87
1 4 -9 23.47 1.68
1 4 -9 25.35 1.88
-1 -4 9 23.92 1.1
0 4 -9 14.11 1.2
0 4 -9 6.88 1.25
0 4 -9 11.2 1.69
0 -4 9 11.69 0.86
0 -4 9 11.16 1.29
-1 4 -9 579.23 19.68
-1 4 -9 566 19.32
-1 4 -9 556.43 19.28
-1 4 -9 566.27 19.5
1 -4 9 578.55 19.25
1 -4 9 588.53 19.09
-2 4 -9 1.4 1.11
-2 4 -9 2.6 1.78
-2 4 -9 0.93 1.53
-2 4 -9 2.04 0.81
-3 4 -9 3.6 2.19
-3 4 -9 4.84 1.31
-3 4 -9 2.84 1.88
3 -4 9 1.33 1.02
3 -4 9 2.85 1.03
-4 4 -9 37.36 3.64
-4 4 -9 48.89 4.95
4 -4 9 41.7 2.57
-5 -3 9 4.37 3.46
-5 -3 9 11.08 2.06
-4 -3 9 9.36 1
-3 -3 9 1.43 2.41
-3 -3 9 2.9 0.68
2 3 -9 10.82 1.5
2 3 -9 8.48 1.59
2 3 -9 9.06 1.1
-2 -3 9 10.85 0.7
1 3 -9 334.98 11.65
1 3 -9 337.48 11.9
1 3 -9 338.24 11.63
-1 -3 9 345.81 11.32
0 3 -9 11.27 1.27
0 3 -9 11.15 1.06
0 3 -9 10.89 1.52
0 -3 9 12.83 0.83
0 -3 9 13.88 1.21
-1 3 -9 7.75 0.68
-1 3 -9 9.19 1.12
-1 3 -9 6.91 1.5
-1 3 -9 11.34 1.57
1 -3 9 6.94 0.99
1 -3 9 7.02 0.65
-2 3 -9 65.15 3.69
-2 3 -9 72.9 3.56
-2 3 -9 63.94 3.03
2 -3 9 70.62 2.96
2 -3 9 67.84 2.64
-3 3 -9 184.74 6.89
-3 3 -9 187.46 7.35
-3 3 -9 184.6 7.5
-3 3 -9 196.18 7.31
3 -3 9 191.14 6.6
3 -3 9 182.37 6.76
-4 3 -9 -1.42 2.17
-4 3 -9 5.07 2.74
4 -3 9 0.83 1.1
-5 -2 9 0.8 1.27
-4 -2 9 187.09 7.48
-4 -2 9 182.52 6.38
-3 -2 9 120.22 5.76
-3 -2 9 121.37 4.16
2 2 -9 231.47 8.22
2 2 -9 240.24 8.45
-2 -2 9 232.38 7.82
1 2 -9 -0.49 0.8
1 2 -9 0.69 1.32
-1 -2 9 1 1.01
-1 -2 9 0.86 0.4
0 2 -9 21.48 1.97
0 2 -9 24.06 1.8
0 2 -9 22.94 1.58
0 -2 9 22.91 1.08
0 -2 9 22.15 1.61
-1 2 -9 384.45 12.14
-1 2 -9 367.91 12.55
-1 2 -9 357.59 12.18
-1 2 -9 354.99 12.66
-1 2 -9 352.54 12.45
1 -2 9 356.12 12.38
1 -2 9 362.65 12.17
-2 2 -9 10.08 1.28
-2 2 -9 5.18 1.49
-2 2 -9 11.31 1.94
-2 2 -9 8.46 0.96
2 -2 9 9.42 1.09
2 -2 9 8.46 0.78
-3 2 -9 134.19 5.32
-3 2 -9 142.76 5.97
-3 2 -9 131.54 5.66
-3 2 -9 137.7 5.42
3 -2 9 136.7 4.93
3 -2 9 135.03 5.12
-4 2 -9 145.99 6.36
4 -2 9 150.89 5.61
-5 2 -9 32.56 3.56
5 -2 9 37.04 2.67
-5 -1 9 5.91 1.21
4 1 -9 37.79 2.49
-4 -1 9 36.21 4.6
-4 -1 9 33.2 1.73
-3 -1 9 65.14 4.28
2 1 -9 165.02 5.96
1 1 -9 7.27 1.48
1 1 -9 6.31 0.98
-1 -1 9 6.49 1.01
-1 -1 9 6.46 0.48
0 1 -9 6.25 1.36
0 1 -9 4.59 0.94
0 -1 9 4.32 0.57
0 -1 9 4.72 0.88
-1 1 -9 95.97 3.86
-1 1 -9 96.98 3.38
-1 1 -9 99.41 3.37
-1 1 -9 99.23 4.15
1 -1 9 98.64 3.81
1 -1 9 97.43 3.5
-2 1 -9 72.33 2.93
-2 1 -9 72.76 3.18
-2 1 -9 75.76 3.59
2 -1 9 74.15 3.09
2 -1 9 71.22 2.78
-3 1 -9 10.68 1.43
-3 1 -9 11.15 1.5
-3 1 -9 12.28 1.92
3 -1 9 10.44 1.02
3 -1 9 6.84 1.08
4 -1 9 61.89 3.56
-5 1 -9 -1.49 2.78
5 -1 9 0.06 1.6
5 0 -9 3.09 1.69
-5 0 9 5.44 3.37
-5 0 9 5.36 1.11
4 0 -9 203.15 7.24
-4 0 9 198.36 6.81
3 0 -9 3.61 1.07
2 0 -9 181.38 6.5
1 0 -9 36.74 2.09
1 0 -9 39.17 2.79
-1 0 9 36.81 1.39
0 0 -9 58.34 3
0 0 -9 58.54 2.64
0 0 9 57.09 2.55
0 0 9 59.78 2.16
-1 0 -9 35.48 3.38
-1 0 -9 45.75 2.25
-1 0 -9 45.54 1.58
1 0 9 44.57 1.79
1 0 9 45.19 2.19
-2 0 -9 29.42 1.99
-2 0 -9 27.44 2.49
-2 0 -9 29.4 1.46
2 0 9 29.92 1.49
2 0 9 26.96 1.82
-3 0 -9 50.28 2.41
-3 0 -9 46.21 3.22
-3 0 -9 42.25 2.69
3 0 9 46.08 2.42
3 0 9 47.16 2.23
-4 0 -9 19.81 3.31
-4 0 -9 17.54 3.33
4 0 9 23.28 2.31
-5 0 -9 -0.96 2.95
5 0 9 -0.11 1.72
5 -1 -9 4.89 1.69
-5 1 9 5.63 0.98
4 -1 -9 17.41 1.56
3 -1 -9 6.98 1.07
2 -1 -9 30.46 1.96
1 -1 -9 27.8 1.83
1 -1 -9 25.53 1.94
-1 1 9 27.18 1.06
0 -1 -9 -0.17 0.86
0 -1 -9 1.43 1
0 -1 -9 0.28 1.38
0 1 9 -0.31 0.39
-1 -1 -9 0.83 0.88
-1 -1 -9 1.44 0.99
1 1 9 1.13 0.48
1 1 9 1.19 0.84
-2 -1 -9 285.13 10.2
-2 -1 -9 290.16 10.39
-2 -1 -9 300.73 10
2 1 9 289.83 10.12
2 1 9 285.06 9.87
-3 -1 -9 8.73 1.51
-3 -1 -9 9.76 1.24
-3 -1 -9 10.38 1.98
3 1 9 10.82 1.07
3 1 9 12.03 1.32
-4 -1 -9 22.04 2.63
-4 -1 -9 26.23 2.3
4 1 9 26.43 2.22
5 -2 -9 1.43 1.56
-5 2 9 2.64 1.27
4 -2 -9 69.09 3.17
2 -2 -9 78.18 3.37
1 -2 -9 -0.56 1.83
1 -2 -9 2.54 1.07
-1 2 9 2.13 0.32
0 -2 -9 5.45 1.13
0 -2 -9 7.33 1.08
0 2 9 6.5 0.52
-1 -2 -9 61.24 2.87
-1 -2 -9 62.26 2.98
-1 -2 -9 62.52 3.4
1 2 9 63.59 2.77
1 2 9 62.8 2.39
-2 -2 -9 48.88 2.8
-2 -2 -9 56.49 2.52
-2 -2 -9 48 3.32
-2 -2 -9 56.01 2.78
2 2 9 56.8 2.67
2 2 9 56.45 2.29
-3 -2 -9 1.62 1.91
-3 -2 -9 1.25 0.69
-3 -2 -9 1.24 1.39
3 2 9 -1.3 1.12
3 2 9 -0.54 0.97
-4 -2 -9 -0.42 2.28
-4 -2 -9 -0.59 1.91
4 2 9 0.12 1.47
-5 3 9 0.17 2.13
-5 3 9 0.75 0.82
-4 3 9 59.49 3.33
-4 3 9 63.78 2.35
-3 3 9 40.48 2.53
2 -3 -9 4.18 1.62
1 -3 -9 -0.53 1.14
1 -3 -9 -0.06 1.18
-1 3 9 0.52 0.33
0 -3 -9 27.35 1.95
0 -3 -9 27.56 2.08
0 3 9 26.51 1.22
-1 -3 -9 2.8 1.89
-1 -3 -9 0.85 1.12
-1 -3 -9 0.45 1.17
1 3 9 1.54 0.56
-2 -3 -9 34.25 3.13
-2 -3 -9 33.26 2.52
-2 -3 -9 36.28 2.41
-2 -3 -9 36.27 1.64
2 3 9 35.75 1.89
2 3 9 34.44 2.22
-3 -3 -9 4.18 2.21
-3 -3 -9 6.8 0.96
-3 -3 -9 9.17 1.67
3 3 9 6.41 1.23
3 3 9 7.65 1.37
-4 -3 -9 1.58 2.69
-4 -3 -9 -0.64 2.11
4 3 9 -0.05 1.69
-4 4 9 1.08 1.9
-3 4 9 7.29 1.52
2 -4 -9 2.08 1.68
1 -4 -9 45.92 2.8
1 -4 -9 48.11 2.73
-1 4 9 46.96 1.78
0 -4 -9 2.19 1.25
0 -4 -9 0.43 1.27
0 4 9 1.65 0.48
-1 -4 -9 15.11 2.1
-1 -4 -9 11.38 1.53
1 4 9 13.77 1.11
-2 -4 -9 1.39 1.49
-2 -4 -9 2.84 1.47
-2 -4 -9 3.37 2.39
2 4 9 1.6 1.24
2 4 9 2.83 0.89
-3 -4 -9 3 1.8
3 4 9 3.16 2.05
-4 -4 -9 9.53 2.38
-4 -4 -9 9.57 3.38
-4 5 9 1.44 1.93
-3 5 9 11.05 1.88
2 -5 -9 0.78 1.88
-2 5 9 -0.01 0.39
1 -5 -9 173.75 6.66
-1 5 9 171.12 5.88
0 -5 -9 22.74 2
0 -5 -9 25.19 2.39
0 5 9 26.91 1.32
-1 -5 -9 94.47 4.35
-1 -5 -9 102.74 4.51
1 5 9 105.25 3.79
-2 -5 -9 4.72 1.77
-2 -5 -9 5.07 1.78
2 5 9 4.33 1.07
2 5 9 4.65 1.45
-3 -5 -9 4.19 2.15
-3 -5 -9 3.3 2.05
3 5 9 1.59 2.89
2 -6 -9 33.84 2.83
-2 6 9 31.16 1.41
1 -6 -9 1.78 1.83
-1 6 9 1.2 0.56
0 -6 -9 7.02 1.88
0 -6 -9 5.02 1.91
0 6 9 7 0.79
-1 -6 -9 2.43 2.35
-1 -6 -9 1.08 1.99
1 6 9 0.95 0.94
-2 -6 -9 8.77 2.19
-2 -6 -9 14.95 2.2
2 6 9 14.91 2.01
2 6 9 13.57 1.83
2 6 9 13.83 1.47
-3 -6 -9 1.03 2.51
-3 -6 -9 1.6 2.39
-3 7 9 31.99 1.56
2 -7 -9 125.3 6.11
-2 7 9 124.76 4.5
1 -7 -9 2.22 2.27
-1 7 9 1.67 0.73
0 -7 -9 52.13 3.8
0 7 9 54.65 2.36
-1 -7 -9 3.25 2.15
-1 -7 -9 2.36 2.29
1 7 9 1.17 1.14
-2 -7 -9 139.71 6.25
-2 -7 -9 139.42 6.32
2 7 9 145.94 5.93
2 -8 -9 345.67 13.06
-2 8 9 353.16 11.8
1 -8 -9 2.14 2.76
-1 8 9 3.1 0.94
0 -8 -9 12.15 2.68
0 8 9 13.59 1.26
-1 -8 -9 9.94 2.72
1 8 9 11.26 1.7
1 8 9 11.7 2.39
2 8 -10 11.67 2.55
-2 -8 10 10.88 1.9
1 8 -10 4.68 2.18
1 8 -10 4.67 2.08
-1 -8 10 3.42 1.69
0 8 -10 1.39 2.08
0 8 -10 0.56 1.87
0 -8 10 2.42 1.76
-1 8 -10 24.52 2.67
-1 8 -10 20.53 2.56
3 7 -10 12.6 3.95
-3 -7 10 9.79 1.66
2 7 -10 16.07 2.28
-2 -7 10 16.65 1.55
1 7 -10 72.12 3.78
1 7 -10 73.58 4
-1 -7 10 76.48 3.21
-1 -7 10 68.46 6.88
0 7 -10 1.02 1.81
0 7 -10 1.43 1.68
0 -7 10 -0.54 1.08
-1 7 -10 -0.7 1.99
-1 7 -10 -0.3 1.72
1 -7 10 1.59 1.42
-2 7 -10 1.36 2.46
-2 7 -10 -0.48 2.08
3 6 -10 3.32 2.7
-3 -6 10 2.3 1.3
2 6 -10 29.3 2.96
2 6 -10 33.52 3.16
-2 -6 10 18.2 4.27
-2 -6 10 34.74 2.1
1 6 -10 60.67 3.51
1 6 -10 58.81 3.77
-1 -6 10 57.75 2.5
0 6 -10 2.26 1.71
0 6 -10 0.03 1.56
0 -6 10 0.28 0.77
-1 6 -10 0.83 1.62
-1 6 -10 3.74 1.93
1 -6 10 0.98 0.89
-2 6 -10 7.6 2.33
-2 6 -10 6.58 2.1
2 -6 10 7.75 1.33
-3 6 -10 6.09 4.54
-3 6 -10 0.43 2.69
3 -6 10 3.7 2.14
-4 -5 10 -1.12 1.43
-4 -5 10 3.48 3.19
-3 -5 10 1.36 1.06
-3 -5 10 -1.77 4.7
2 5 -10 14.2 2.11
2 5 -10 16.83 2.1
-2 -5 10 15.68 1.11
-2 -5 10 10.31 3.11
1 5 -10 13.69 1.86
1 5 -10 16.66 1.76
-1 -5 10 15.27 1.13
0 5 -10 140.87 5.33
0 5 -10 144.73 5.91
0 5 -10 139.16 5.46
-1 5 -10 2.74 1.85
-1 5 -10 5.63 1.29
-1 5 -10 2.99 1.59
1 -5 10 3.75 0.74
-2 5 -10 69.13 4.04
-2 5 -10 63.26 3.39
-2 5 -10 67.93 3.88
2 -5 10 67.82 3.16
2 -5 10 66 2.77
-3 5 -10 3.61 2.66
-3 5 -10 0.57 3.92
3 -5 10 4.04 1.37
-4 -4 10 11.42 1.34
-4 -4 10 10.61 2.99
-3 -4 10 -0.98 3.63
-3 -4 10 4.53 0.97
2 4 -10 9.92 1.93
-2 -4 10 12.05 1.02
1 4 -10 13.47 1.72
1 4 -10 13.24 1.34
1 4 -10 15.37 1.93
-1 -4 10 17.65 1
0 4 -10 24.21 1.83
0 4 -10 23.62 2.19
0 4 -10 20.63 2.07
0 -4 10 23.32 1.25
-1 4 -10 6.64 1.7
-1 4 -10 5.89 1.74
-1 4 -10 6.64 1.25
1 -4 10 7.42 0.75
1 -4 10 6.99 1.27
-2 4 -10 49.92 2.42
-2 4 -10 43.62 3.57
-2 4 -10 45.29 2.65
-2 4 -10 50.37 3.4
2 -4 10 48.59 2.56
2 -4 10 50.88 2.22
-3 4 -10 25.87 3.07
-3 4 -10 16.93 2.51
3 -4 10 21.75 2.03
-4 4 -10 23.31 3.24
4 -4 10 24.89 2.39
-4 -3 10 103.45 5.63
-4 -3 10 110.39 4.08
-3 -3 10 17.33 3.43
-3 -3 10 19.52 1.44
2 3 -10 92.67 4.63
-2 -3 10 98.94 3.37
1 3 -10 -1 1.58
1 3 -10 2.01 0.99
-1 -3 10 0.31 0.44
0 3 -10 49.44 3.19
0 3 -10 50.26 2.52
0 -3 10 51.4 2.6
0 -3 10 50.03 1.99
-1 3 -10 113.57 4.88
1 -3 10 104.38 3.94
1 -3 10 103.64 4.18
-2 3 -10 148.52 5.74
-2 3 -10 149.56 6.25
2 -3 10 156 5.67
2 -3 10 154.32 5.39
-3 3 -10 0.61 2.05
3 -3 10 1.93 1.13
-4 3 -10 219.42 8.89
4 -3 10 225.58 7.99
-4 -2 10 46.67 2.25
-3 -2 10 23.59 3.47
-3 -2 10 27.13 1.4
2 2 -10 250.59 8.78
-2 -2 10 244.68 8.27
1 2 -10 136.64 5.17
1 2 -10 140.65 5.6
-1 -2 10 135.65 4.71
0 2 -10 49.67 2.47
0 2 -10 45.15 3.02
0 -2 10 48.83 1.94
0 -2 10 50.66 2.53
-1 2 -10 135.53 5.12
-1 2 -10 128.43 5.51
1 -2 10 134.39 5.07
1 -2 10 136.87 4.74
-2 2 -10 4.31 1.32
-2 2 -10 5.12 0.67
-2 2 -10 3.73 1.66
2 -2 10 2.85 0.74
2 -2 10 3.36 1.08
-3 2 -10 15.03 3.42
3 -2 10 14.85 1.89
3 -2 10 15.27 1.98
-4 2 -10 114.88 5.79
4 -2 10 117.19 4.68
2 1 -10 1.64 1.12
-2 -1 10 1.58 0.46
1 1 -10 93.64 4.32
1 1 -10 89.12 3.68
-1 -1 10 88.27 3.72
-1 -1 10 90.83 3.18
0 1 -10 232.81 8.59
0 1 -10 229.41 8.32
0 -1 10 242.48 7.96
0 -1 10 233.39 8.28
-1 1 -10 5.26 1.22
-1 1 -10 7.51 1.67
1 -1 10 6.23 0.68
1 -1 10 7.75 1.15
-2 1 -10 69.15 2.64
-2 1 -10 68.04 3.24
-2 1 -10 67.22 3.69
2 -1 10 69.24 3.1
2 -1 10 67.31 2.72
-3 1 -10 54.95 3.24
-3 1 -10 53.01 3.18
-3 1 -10 59.77 4.15
3 -1 10 57.53 2.87
3 -1 10 55.89 2.58
-4 1 -10 2.48 2.48
4 -1 10 6.01 1.51
2 0 -10 3.27 1.24
1 0 -10 396.37 13.33
-1 0 10 383.43 12.9
-1 0 10 383.39 13.26
0 0 -10 35.32 2.87
0 0 -10 36.41 2.15
0 0 10 34.58 1.5
0 0 10 33 2.07
-1 0 -10 280.5 10.31
-1 0 -10 286.68 10.12
1 0 10 292.43 10.07
1 0 10 290.93 9.75
-2 0 -10 6.17 1.37
-2 0 -10 9.64 1.88
-2 0 -10 8.92 0.76
2 0 10 7.02 1.17
2 0 10 7.02 0.83
-3 0 -10 24.15 2.08
-3 0 -10 21.1 2.14
-3 0 -10 25.03 2.79
3 0 10 27.06 2.26
3 0 10 21.92 1.5
-4 0 -10 17.69 2.68
4 0 10 12.97 1.57
2 -1 -10 5.01 1.37
1 -1 -10 18.7 1.68
1 -1 -10 16.98 1.54
-1 1 10 17.23 0.95
0 -1 -10 0.65 1.1
0 -1 -10 1.02 1.16
0 1 10 2.88 1.02
0 1 10 1.55 0.51
-1 -1 -10 1.52 1.75
-1 -1 -10 1.22 1.08
1 1 10 0.56 0.59
1 1 10 1.55 1.01
-2 -1 -10 32.54 2.4
-2 -1 -10 35.55 3.19
-2 -1 -10 38.41 1.53
2 1 10 34.59 1.86
2 1 10 37.59 2.28
-3 -1 -10 7.1 1.95
-3 -1 -10 7.25 2.35
3 1 10 7.91 1.26
3 1 10 5.19 1.33
-4 -1 -10 8.52 2.88
-4 -1 -10 11.29 2.35
4 1 10 10.36 1.61
1 -2 -10 0.89 1.4
1 -2 -10 1.51 1.33
-1 2 10 2.08 0.45
0 -2 -10 4.72 1.23
0 -2 -10 4.39 1.34
0 2 10 5.69 0.6
-1 -2 -10 278.92 10.39
-1 -2 -10 284.56 10.41
-1 -2 -10 291.9 10.97
1 2 10 285.09 9.9
1 2 10 301.32 10.4
-2 -2 -10 49.52 3.73
-2 -2 -10 45 2.79
2 2 10 46.26 2.64
2 2 10 51.87 2.23
-3 -2 -10 53.69 4.45
-3 -2 -10 65.93 5.03
3 2 10 61.09 3.74
-4 -2 -10 0.81 3.09
-4 -2 -10 5.55 3.4
4 2 10 -2.36 1.95
-2 3 10 -0.08 0.39
-1 3 10 2.09 0.49
0 -3 -10 36.2 2.89
0 -3 -10 36.39 2.61
0 3 10 37.07 1.63
-1 -3 -10 9.75 1.43
-1 -3 -10 8.59 1.56
1 3 10 11.11 1.36
1 3 10 10.81 0.86
-2 -3 -10 2.75 2.57
-2 -3 -10 1.91 1.51
-2 -3 -10 0.78 1.45
2 3 10 1.56 0.87
2 3 10 3.76 1.29
-3 -3 -10 24.23 3.15
-3 -3 -10 21.43 2.18
3 3 10 22.26 1.89
3 3 10 24.26 1.75
-4 -3 -10 1.82 2.51
-4 -3 -10 -0.83 3.65
4 3 10 -0.64 2.11
-2 4 10 8.43 0.61
1 -4 -10 4.55 1.74
1 -4 -10 0.02 1.61
-1 4 10 1.61 0.52
0 -4 -10 7.36 1.63
0 -4 -10 6.15 1.57
0 4 10 8.22 0.75
-1 -4 -10 17.21 1.79
-1 -4 -10 16.41 1.88
1 4 10 15.69 1.6
1 4 10 15.93 1.12
-2 -4 -10 17.11 2.04
-2 -4 -10 19.84 2.08
2 4 10 22.6 1.83
2 4 10 19.51 1.76
-3 -4 -10 4.4 2.05
3 4 10 2.59 1.73
-3 5 10 4.02 0.59
-2 5 10 3.15 0.99
1 -5 -10 1.37 2.16
-1 5 10 1.21 0.69
0 -5 -10 117.95 5.15
0 -5 -10 117.66 5
0 5 10 118.87 4.25
-1 -5 -10 0.08 1.75
-1 -5 -10 1.06 1.85
1 5 10 -0.57 1.39
1 5 10 -0.21 0.86
-2 -5 -10 0.51 1.94
-2 -5 -10 0.65 2.02
2 5 10 -0.42 1.23
2 5 10 2.54 1.63
-3 -5 -10 16.82 2.99
3 5 10 9.14 2.33
-3 6 10 0.01 0.74
-2 6 10 2.92 0.88
1 -6 -10 0.38 2.24
-1 6 10 -0.11 0.7
0 -6 -10 151.13 6.33
0 6 10 152.8 5.4
-1 -6 -10 0.53 2.49
-1 -6 -10 -0.48 2.16
1 6 10 2.15 1.64
1 6 10 0.2 1.11
-2 -6 -10 7.22 2.41
-2 -6 -10 8.13 2.44
2 6 10 4.3 2.01
2 6 10 8.89 1.73
-2 7 10 7.81 1.22
1 -7 -10 0.94 2.68
-1 7 10 0.37 0.89
0 -7 -10 0.65 2.47
0 7 10 -0.52 1.04
-1 -7 -10 -0.09 3.57
-1 -7 -10 0.72 2.6
1 7 10 1.18 2.13
1 7 10 1.93 2.82
1 7 -11 -0.45 2.43
1 7 -11 3.8 2.57
-1 -7 11 0.92 1.46
0 7 -11 2.19 4
0 7 -11 4.45 2.15
0 -7 11 6.46 1.4
-1 7 -11 1.86 2.89
-1 7 -11 -0.02 2.37
1 -7 11 -1.19 1.65
-2 -6 11 55.26 2.9
-1 -6 11 3.1 1.13
0 6 -11 1.65 2.46
0 6 -11 1.1 2.04
0 -6 11 0.97 0.93
-1 6 -11 -0.05 2.16
-1 6 -11 0.08 1.99
1 -6 11 1.13 1.09
-2 6 -11 5.75 2.49
-3 -5 11 0.84 1.32
2 5 -11 44.89 4.48
-2 -5 11 54.53 2.36
-2 -5 11 38.75 5.09
1 5 -11 5.83 2.11
-1 -5 11 11.72 1.13
0 5 -11 -0.74 2.7
0 5 -11 -0.34 1.3
0 -5 11 -0.85 0.72
-1 5 -11 5.83 2.14
-1 5 -11 5.66 1.49
-2 5 -11 15.99 3.05
2 -5 11 14.82 1.84
2 -5 11 17.25 1.4
-3 5 -11 2.4 2.83
3 -5 11 8.28 1.86
-3 -4 11 0.4 1.08
2 4 -11 -0.69 2.69
-2 -4 11 -2.21 3.65
1 4 -11 75.13 4.01
1 4 -11 69.24 3.28
0 4 -11 12.02 2.11
0 4 -11 16.75 1.57
0 -4 11 14.81 1.19
-1 4 -11 14.87 3.56
-1 4 -11 7.51 1.59
1 -4 11 11.47 1.31
-2 4 -11 9.32 1.66
-2 4 -11 7.93 2.37
2 -4 11 10.02 1.09
2 -4 11 9.59 1.59
-3 4 -11 3.17 2.59
3 -4 11 -2.08 1.5
-3 -3 11 3.98 1.44
-2 -3 11 5.11 1
1 3 -11 3.57 2.07
1 3 -11 5.63 1.28
-1 -3 11 5.7 0.64
0 3 -11 2.37 1.95
0 3 -11 0.72 1.19
0 -3 11 1.48 0.61
-1 3 -11 223.94 8.95
-1 3 -11 237.99 8.5
1 -3 11 248.68 8.49
1 -3 11 238.33 8.13
-2 3 -11 11.94 3.14
-2 3 -11 9.89 1.81
2 -3 11 8.95 1.26
2 -3 11 9.64 1.62
-3 3 -11 9.99 2.53
3 -3 11 13.52 1.66
2 2 -11 27.23 2.22
-2 -2 11 27.8 1.27
1 2 -11 200.63 7.3
1 2 -11 198.85 7.77
-1 -2 11 202.43 6.82
0 2 -11 33.4 2.23
0 2 -11 30.27 2.65
0 -2 11 35.65 1.59
0 -2 11 32.97 2.48
-1 2 -11 235.77 8.75
-1 2 -11 237.79 9.14
1 -2 11 252.04 8.37
1 -2 11 251.41 8.72
-2 2 -11 -0.64 1.65
-2 2 -11 -1.72 2.14
2 -2 11 0.13 1.01
2 -2 11 0.92 1.92
-3 2 -11 109.03 5.14
-3 2 -11 105.59 6.87
3 -2 11 124.33 4.61
3 -2 11 140.96 5.94
2 1 -11 57.93 3.04
-2 -1 11 58.78 2.18
1 1 -11 117.82 4.72
-1 -1 11 121.64 4.16
-1 -1 11 117.75 4.84
0 1 -11 220.32 8.34
0 1 -11 217.84 7.98
0 -1 11 222.85 7.54
0 -1 11 222.76 7.95
-1 1 -11 0.39 2.02
-1 1 -11 -1.99 1.28
1 -1 11 0.9 0.68
1 -1 11 0.32 1.16
-2 1 -11 3.92 2.94
-2 1 -11 5.84 1.69
2 -1 11 5.57 1
2 -1 11 5.19 1.31
-3 1 -11 -0.22 2.34
-3 1 -11 1.11 2.15
3 -1 11 -0.92 2.42
3 -1 11 2.85 1.35
2 0 -11 13.28 1.66
-2 0 11 16.37 1.05
1 0 -11 35.53 2.43
-1 0 11 36.82 2.55
-1 0 11 37.59 1.6
0 0 -11 207.87 7.72
0 0 11 216.31 7.28
0 0 11 214.75 7.7
-1 0 -11 211.31 8.35
-1 0 -11 216.76 7.97
1 0 11 222.59 7.89
1 0 11 221.6 7.52
-2 0 -11 41.82 3.42
-2 0 -11 36.45 2.86
2 0 11 36.7 2.66
2 0 11 38.27 2.12
-3 0 -11 2.36 2.81
-3 0 -11 5.38 2.09
3 0 11 2.05 1.53
3 0 11 5.38 1.38
2 -1 -11 58.95 3.28
1 -1 -11 23.29 1.84
-1 1 11 19.93 1.19
-1 1 11 21.01 1.76
0 -1 -11 1.09 1.36
0 1 11 0.57 1.25
0 1 11 1.15 0.62
-1 -1 -11 9.56 1.56
-1 -1 -11 7.03 2.53
1 1 11 8.74 0.89
1 1 11 12.14 1.49
-2 -1 -11 1.92 2.5
-2 -1 -11 3.71 1.58
2 1 11 2.89 1.24
2 1 11 4.03 0.97
-3 -1 -11 0.45 2.69
-3 -1 -11 0.04 2.23
3 1 11 0.96 1.94
3 1 11 1.14 1.34
-2 2 11 8.69 0.68
1 -2 -11 2.2 1.78
1 -2 -11 2.11 1.56
-1 2 11 2.77 0.63
0 -2 -11 1.2 1.56
0 -2 -11 0.26 1.46
0 2 11 0.73 1.27
0 2 11 3.66 0.68
-1 -2 -11 110.08 4.62
1 2 11 111.22 4.06
1 2 11 110.98 4.55
-2 -2 -11 105.62 6.4
-2 -2 -11 109.38 5.68
2 2 11 96.09 4.5
-3 -2 -11 40.9 3.32
-3 -2 -11 43.52 3.97
3 2 11 46.52 2.99
3 2 11 49.73 3.08
1 -3 -11 46.12 3.22
1 -3 -11 50.55 3.41
-1 3 11 50.03 2.01
0 -3 -11 7.32 1.85
0 -3 -11 11.61 1.79
0 3 11 14.46 1.17
0 3 11 14.74 1.61
-1 -3 -11 42.59 2.95
-1 -3 -11 48.07 3.13
1 3 11 43.1 2.11
1 3 11 45.44 2.75
-2 -3 -11 36.26 3.02
2 3 11 42.3 2.22
2 3 11 38.49 2.76
-3 -3 -11 5.9 2.13
3 3 11 6.67 2.06
-3 4 11 0.47 0.87
-2 4 11 0.98 0.68
1 -4 -11 2.69 2.17
0 -4 -11 2.7 3.05
0 -4 -11 7.17 3.15
0 4 11 2.53 0.81
-1 -4 -11 1.76 1.74
-1 -4 -11 0.73 1.87
1 4 11 2.08 0.92
1 4 11 1.78 1.49
-2 -4 -11 11.9 2.08
2 4 11 18.78 1.91
2 4 11 17.43 1.47
-3 5 11 0.56 0.91
-2 5 11 3.79 0.8
1 -5 -11 -0.85 2.65
-1 5 11 0.16 0.78
0 -5 -11 18.22 2.44
0 5 11 22.3 1.59
-1 -5 -11 11.25 2.33
-1 -5 -11 9.94 2.17
1 5 11 14.92 1.83
1 5 11 14.95 1.3
-2 -5 -11 -3.82 2.84
2 5 11 -1.65 1.97
2 5 11 0.5 1.52
-2 6 11 -0.29 0.95
1 -6 -11 21.03 4.92
-1 6 11 21.8 1.64
0 -6 -11 5.53 2.63
0 6 11 5.13 1.1
-1 -6 -11 40.28 3.47
-1 -6 -11 37.34 3.25
1 6 11 44.3 3.33
1 6 11 39.3 2.51
1 6 -12 7.57 2.78
-1 -6 12 8.67 1.38
0 6 -12 0.13 2.41
0 -6 12 1.44 1.27
-1 6 -12 86.97 5.22
1 -6 12 91.89 3.85
-2 -5 12 3.11 1.35
1 5 -12 -2.46 2.56
-1 -5 12 2.41 0.99
0 5 -12 4.48 2.43
0 -5 12 1.47 0.93
-1 5 -12 4.77 2.56
-1 5 -12 4.44 1.81
1 -5 12 6.86 1.11
-2 -4 12 10.11 1.09
1 4 -12 3.46 3.04
-1 -4 12 0.7 0.76
0 4 -12 0.55 2.39
0 4 -12 1.99 1.49
0 -4 12 0.09 0.74
-1 4 -12 0.61 2.4
-1 4 -12 -0.89 1.84
1 -4 12 -1.08 0.91
-2 4 -12 7 2.18
-2 4 -12 2.89 2.74
2 -4 12 0.83 1.6
2 -4 12 6.6 1.92
-2 -3 12 51.35 2.22
1 3 -12 0.23 1.44
-1 -3 12 0.54 0.67
0 3 -12 0.66 1.36
0 3 -12 -2.32 2.44
0 -3 12 -0.19 0.73
-1 3 -12 12.47 1.72
-1 3 -12 8.28 2.55
1 -3 12 11.79 1.02
1 -3 12 10.82 1.81
-2 3 -12 13.99 2.9
-2 3 -12 12.97 1.96
2 -3 12 14 1.3
2 -3 12 11.43 1.78
-2 -2 12 11.42 0.79
1 2 -12 24.7 2.35
0 2 -12 39.41 2.62
0 -2 12 38.54 1.79
-1 2 -12 97.25 5.34
-1 2 -12 107.93 4.48
1 -2 12 107.12 3.89
1 -2 12 104.96 4.51
-2 2 -12 15.3 1.94
-2 2 -12 12.1 2.69
2 -2 12 14.67 1.23
2 -2 12 14.31 1.73
-3 2 -12 -0.34 3.04
3 -2 12 1.39 1.69
2 1 -12 48.87 3.1
-2 -1 12 51.44 2
1 1 -12 5.05 1.53
-1 -1 12 5.34 0.74
0 1 -12 -1.27 1.4
0 -1 12 0.52 1.61
0 -1 12 -0.32 0.73
-1 1 -12 17.99 2.87
-1 1 -12 20.1 2.15
1 -1 12 20.07 1.53
1 -1 12 17.17 1.91
-2 1 -12 34.91 3.37
2 -1 12 50.3 4.26
2 -1 12 33.18 2.51
-3 1 -12 -1.29 2.4
-3 1 -12 0.55 3.17
3 -1 12 -0.21 1.66
2 0 -12 39.01 3
1 0 -12 199.1 7.36
-1 0 12 200.16 7.47
-1 0 12 195.65 6.76
0 0 -12 12 1.69
0 0 12 11.28 0.95
0 0 12 13.74 1.81
-1 0 -12 23.08 2.06
1 0 12 22.94 1.53
1 0 12 18.95 1.87
-2 0 -12 5.07 3.01
2 0 12 -1.67 1.9
-3 0 -12 3.59 2.43
-3 0 -12 3.36 3.49
3 0 12 -0.43 1.65
2 -1 -12 3.6 2.49
1 -1 -12 204.96 7.92
-1 1 12 166.94 7.68
0 -1 -12 309.75 10.94
0 1 12 301.89 10.31
0 1 12 298.71 10.94
-1 -1 -12 35.12 2.78
1 1 12 30.07 2.62
1 1 12 33.4 1.85
-2 -1 -12 -0.73 1.91
2 1 12 2.17 1.08
2 1 12 0.17 1.51
-2 2 12 13.57 1
1 -2 -12 41.67 3.16
-1 2 12 42.4 1.92
-1 2 12 41.07 2.96
0 -2 -12 21.98 2.15
0 2 12 19.05 1.47
0 2 12 20.61 1.94
-1 -2 -12 3.25 1.84
1 2 12 2.79 1.53
1 2 12 3.74 0.94
-2 -2 -12 4.7 2.05
2 2 12 3.62 1.59
2 2 12 5.21 1.21
-2 3 12 22.58 1.56
1 -3 -12 7.8 2.61
-1 3 12 9.33 0.98
-1 3 12 9.31 1.99
0 -3 -12 52.24 3.65
0 3 12 50.67 3.09
0 3 12 50.63 2.28
-1 -3 -12 6.55 2.05
1 3 12 5.28 1.7
1 3 12 5.39 1.04
-2 -3 -12 31.46 4.29
2 3 12 32.82 2.61
2 3 12 29.26 3.29
-2 4 12 79.39 3.13
-1 4 12 -0.5 1.84
-1 4 12 0.04 0.9
0 -4 -12 3.14 2.54
0 -4 -12 2.43 2.4
0 4 12 4.46 1.79
0 4 12 3.71 0.99
-1 -4 -12 -0.81 2.4
1 4 12 -1.96 1.75
1 4 12 1.43 1.15
-1 5 12 0.57 1.05
0 -5 -12 2.56 2.8
0 5 12 -0.53 2
0 5 12 0.22 1.12
-1 -4 13 4.06 1.08
0 4 -13 11.58 1.99
0 4 -13 15.14 3.45
0 -4 13 16.65 1.2
1 3 -13 1.61 1.72
-1 -3 13 2.18 0.89
0 3 -13 0.7 1.73
0 -3 13 -0.43 0.87
-1 3 -13 8.87 2.08
-1 3 -13 8.27 3.37
1 -3 13 8.53 1.21
1 2 -13 0.38 1.75
-1 -2 13 0.16 0.8
0 2 -13 8.27 1.79
0 -2 13 10.13 0.97
-1 2 -13 3.68 1.89
1 -2 13 1.4 0.96
1 1 -13 2.15 1.79
-1 -1 13 1.18 0.82
0 1 -13 27.09 2.19
0 -1 13 25.75 1.66
-1 1 -13 1.63 1.82
1 -1 13 -2.28 1.91
1 -1 13 0.2 0.97
1 0 -13 18.98 2.19
-1 0 13 22.13 1.55
0 0 -13 60.15 3.6
0 0 13 67.98 2.71
0 0 13 69.44 3.9
-1 0 -13 144.21 6.03
1 0 13 150.54 5.35
1 0 13 151.06 6.03
1 -1 -13 27.16 2.52
-1 1 13 25.45 1.72
0 -1 -13 197.93 7.55
0 1 13 198.02 7.55
0 1 13 201.02 6.91
-1 -1 -13 44.94 3.48
1 1 13 52.19 3.68
1 1 13 48.86 2.38
1 -2 -13 18.2 2.72
-1 2 13 17.05 2.49
0 -2 -13 239.78 9.26
0 2 13 229.68 8.29
0 2 13 257.35 9.24
-1 -2 -13 9.79 2.35
1 2 13 11.47 1.27
1 2 13 8.82 1.97
-1 3 13 6.89 2.42
-1 3 13 7.48 1.14
0 -3 -13 -0.33 2.67
0 3 13 1.41 2.03
0 3 13 0.31 1.12
