#------------------------------------------------------------------------------
#$Date: 2020-10-06 15:01:34 +0300 (Tue, 06 Oct 2020) $
#$Revision: 258160 $
#$URL: file:///home/coder/svn-repositories/cod/cif/1/55/92/1559272.cif $
#------------------------------------------------------------------------------
#
# This file is available in the Crystallography Open Database (COD),
# http://www.crystallography.net/
#
# All data on this site have been placed in the public domain by the
# contributors.
#
data_1559272
loop_
_publ_author_name
'HOSSAIN, Md Awlad'
'HIRABAYASHI, Kazunori'
'NISHINAGA, Tohru'
'SHIMIZU, Toshio'
'SUGIURA, Ken-ichi'
_publ_section_title
;
 Crystal Structure Refinement of 1,4,5,8-Tetrabromonaphthalene: A Twisted
 Chiral Naphthalene Induced by Steric Repulsion
;
_journal_issue                   0
_journal_name_full               'X-ray Structure Analysis Online'
_journal_page_first              35
_journal_page_last               37
_journal_paper_doi               10.2116/xraystruct.36.35
_journal_volume                  36
_journal_year                    2020
_chemical_formula_moiety         'C10 H4 Br4'
_chemical_formula_sum            'C10 H4 Br4'
_chemical_formula_weight         443.76
_space_group_crystal_system      monoclinic
_space_group_IT_number           14
_space_group_name_Hall           '-P 2ybc'
_space_group_name_H-M_alt        'P 1 21/c 1'
_atom_sites_solution_hydrogens   geom
_atom_sites_solution_primary     direct
_atom_sites_solution_secondary   difmap
_cell_angle_alpha                90.0000
_cell_angle_beta                 92.147(9)
_cell_angle_gamma                90.0000
_cell_formula_units_Z            4
_cell_length_a                   9.470(3)
_cell_length_b                   15.530(4)
_cell_length_c                   7.340(2)
_cell_measurement_reflns_used    3652
_cell_measurement_temperature    93
_cell_measurement_theta_max      27.40
_cell_measurement_theta_min      3.10
_cell_volume                     1078.7(5)
_computing_cell_refinement       'CrystalClear-SM Expert 2.1 b45'
_computing_data_collection
'CrystalClear-SM Expert 2.1 b45 (Rigaku, 2015)'
_computing_data_reduction        'CrystalClear-SM Expert 2.1 b45'
_computing_molecular_graphics    'CrystalStructure 4.2'
_computing_publication_material  'CrystalStructure 4.2 (Rigaku, 2015)'
_computing_structure_refinement  'SHELXL Version 2014/7 (Sheldrick, 2008)'
_computing_structure_solution    'SHELXT (Sheldrick, 2014)'
_diffrn_ambient_temperature      93
_diffrn_detector_area_resol_mean 5.814
_diffrn_measured_fraction_theta_full 0.995
_diffrn_measured_fraction_theta_max 0.959
_diffrn_measurement_device_type  'Rigaku XtaLAB P200'
_diffrn_measurement_method       \w
_diffrn_radiation_type           'Mo K\a'
_diffrn_radiation_wavelength     0.71075
_diffrn_reflns_av_R_equivalents  0.0779
_diffrn_reflns_Laue_measured_fraction_full 0.995
_diffrn_reflns_Laue_measured_fraction_max 0.959
_diffrn_reflns_limit_h_max       11
_diffrn_reflns_limit_h_min       -12
_diffrn_reflns_limit_k_max       18
_diffrn_reflns_limit_k_min       -19
_diffrn_reflns_limit_l_max       9
_diffrn_reflns_limit_l_min       -9
_diffrn_reflns_number            16428
_diffrn_reflns_point_group_measured_fraction_full 0.995
_diffrn_reflns_point_group_measured_fraction_max 0.959
_diffrn_reflns_theta_full        25.242
_diffrn_reflns_theta_max         27.516
_diffrn_reflns_theta_min         3.071
_diffrn_standards_number         0
_exptl_absorpt_coefficient_mu    14.920
_exptl_absorpt_correction_T_max  0.551
_exptl_absorpt_correction_T_min  0.178
_exptl_absorpt_correction_type   multi-scan
_exptl_absorpt_process_details   'REQAB (Rigaku, 1998)'
_exptl_crystal_colour            colorless
_exptl_crystal_density_diffrn    2.732
_exptl_crystal_density_method    'not measured'
_exptl_crystal_description       prism
_exptl_crystal_F_000             816.00
_exptl_crystal_size_max          0.270
_exptl_crystal_size_mid          0.040
_exptl_crystal_size_min          0.040
_refine_diff_density_max         0.85
_refine_diff_density_min         -0.66
_refine_ls_extinction_method     none
_refine_ls_goodness_of_fit_ref   0.715
_refine_ls_hydrogen_treatment    constr
_refine_ls_number_parameters     127
_refine_ls_number_reflns         2389
_refine_ls_number_restraints     0
_refine_ls_R_factor_all          0.0332
_refine_ls_R_factor_gt           0.0249
_refine_ls_shift/su_max          0.001
_refine_ls_structure_factor_coef Fsqd
_refine_ls_weighting_details
'w = 1/[\s^2^(Fo^2^)+(0.0433P)^2^] where P=(Fo^2^+2Fc^2^)/3'
_refine_ls_weighting_scheme      calc
_refine_ls_wR_factor_gt          0.0555
_refine_ls_wR_factor_ref         0.0572
_reflns_Friedel_coverage         0.000
_reflns_number_gt                1945
_reflns_number_total             2390
_reflns_threshold_expression     F^2^>2.0\s(F^2^)
_cod_data_source_file            36_35_1.txt
_cod_data_source_block           20200424_2
_cod_database_code               1559272
_shelx_res_file
;

    shelxl.res created by SHELXL-2014/7

TITL 20200424_2
CELL  0.71075 9.47000 15.53000 7.34000 90.00000 92.14700 90.00000
ZERR  4 0.00300 0.00400 0.00200 0.00000 0.00900 0.00000
LATT 1
SYMM    -X, .50+Y, .50-Z
SFAC C H BR
UNIT 40 16 16
L.S. 5
FMAP 2
PLAN 25
WPDB -2
HTAB
BOND $H
CONF
LIST 4
TEMP -180.0
ACTA
SIZE 0.040 0.040 0.270
OMIT 2 1 3
WGHT    0.043300
FVAR       0.27468
BR1   3    0.184562    0.513631    0.401431    11.00000    0.02777    0.01698 =
         0.03082    0.00118    0.00262   -0.00157
BR2   3    0.599171    0.848529    0.317959    11.00000    0.02208    0.02602 =
         0.04251   -0.00566    0.00179   -0.00616
BR3   3    0.330433    0.966152    0.398508    11.00000    0.02804    0.01829 =
         0.02898   -0.00122   -0.00554   -0.00171
BR4   3   -0.069955    0.628447    0.231303    11.00000    0.02316    0.02416 =
         0.04140    0.00537   -0.00454   -0.00670
C1    1    0.281009    0.618566    0.352162    11.00000    0.02652    0.01815 =
         0.01659    0.00027    0.00228   -0.00512
C2    1    0.425263    0.608988    0.361630    11.00000    0.02886    0.02140 =
         0.03037    0.00096   -0.00105    0.00207
AFIX  43
H2    2    0.465428    0.553338    0.377934    11.00000   -1.20000
AFIX   0
C3    1    0.513165    0.680672    0.347401    11.00000    0.02083    0.03099 =
         0.02716   -0.00171    0.00129   -0.00128
AFIX  43
H3    2    0.612565    0.673077    0.343876    11.00000   -1.20000
AFIX   0
C4    1    0.457277    0.761326    0.338558    11.00000    0.02238    0.02220 =
         0.01807    0.00092   -0.00143   -0.00637
C5    1    0.307301    0.776890    0.333842    11.00000    0.02288    0.02053 =
         0.01418    0.00116   -0.00193   -0.00252
C6    1    0.240512    0.859674    0.336153    11.00000    0.02531    0.02114 =
         0.01941    0.00334    0.00058   -0.00546
C7    1    0.096942    0.869167    0.305771    11.00000    0.02676    0.01954 =
         0.02968    0.00365   -0.00015   -0.00050
AFIX  43
H7    2    0.055429    0.924841    0.307096    11.00000   -1.20000
AFIX   0
C8    1    0.013019    0.796915    0.273153    11.00000    0.02222    0.02681 =
         0.03498    0.00705   -0.00095   -0.00064
AFIX  43
H8    2   -0.084512    0.804140    0.241865    11.00000   -1.20000
AFIX   0
C9    1    0.068280    0.715576    0.285272    11.00000    0.02276    0.02366 =
         0.02036    0.00358    0.00053   -0.00616
C10   1    0.215347    0.700678    0.323904    11.00000    0.02270    0.02154 =
         0.01700    0.00097   -0.00048   -0.00068
HKLF 4

REM  20200424_2
REM R1 =  0.0249 for    1945 Fo > 4sig(Fo)  and  0.0332 for all    2389 data
REM    127 parameters refined using      0 restraints

END

WGHT      0.0174      0.0000

REM Instructions for potential hydrogen bonds
EQIV $1 -x, y+1/2, -z+1/2
HTAB C7 Br1_$1

REM Highest difference peak  0.852,  deepest hole -0.665,  1-sigma level  0.126
Q1    1   0.0016  0.5990  0.1812  11.00000  0.05    0.85
Q2    1   0.1728  0.5159  0.2822  11.00000  0.05    0.67
Q3    1   0.6838  0.6782  0.3345  11.00000  0.05    0.58
Q4    1  -0.0672  0.6289  0.3724  11.00000  0.05    0.55
Q5    1   0.1195  0.5192  0.4998  11.00000  0.05    0.50
Q6    1   0.4140  0.9751  0.3046  11.00000  0.05    0.50
Q7    1  -0.1391  0.7989  0.1640  11.00000  0.05    0.49
Q8    1   0.5260  0.8942  0.2562  11.00000  0.05    0.48
Q9    1   0.0225  0.9554  0.3977  11.00000  0.05    0.48
Q10   1   0.6840  0.8556  0.2332  11.00000  0.05    0.48
Q11   1   0.5287  0.8853  0.3030  11.00000  0.05    0.47
Q12   1   0.2659  0.7420  0.3045  11.00000  0.05    0.47
Q13   1  -0.1418  0.6274  0.3564  11.00000  0.05    0.46
Q14   1   0.2462  0.9666  0.5028  11.00000  0.05    0.45
Q15   1   0.4461  0.9741  0.3988  11.00000  0.05    0.43
Q16   1   0.6168  0.8437  0.4441  11.00000  0.05    0.43
Q17   1   0.1268  0.5584  0.4124  11.00000  0.05    0.42
Q18   1   0.5196  0.8387  0.4250  11.00000  0.05    0.40
Q19   1   0.2810  0.8769  0.1631  11.00000  0.05    0.40
Q20   1   0.3779  0.9252  0.4141  11.00000  0.05    0.39
Q21   1   0.4598  0.6383  0.2859  11.00000  0.05    0.38
Q22   1   0.2601  0.5403  0.4661  11.00000  0.05    0.38
Q23   1   0.0000  0.5000  0.5000  10.50000  0.05    0.37
Q24   1   0.6795  0.8166  0.4191  11.00000  0.05    0.36
Q25   1   0.2786  0.9209  0.3912  11.00000  0.05    0.36
;
_shelx_res_checksum              79451
_shelx_hkl_file
;
   0   1  -1   41.76    6.88
   0  -1   1   42.01    8.92
   0   1   1   41.06    6.50
   0   1   1   37.53    6.69
   0  -1  -1   37.19    6.34
   0  -1  -1   42.33    9.37
   0   1  -1   41.81    9.36
   0   1  -1   44.19   14.13
  -1  -2   0   34.75    9.27
   1  -2   0   26.92    8.06
   1   2   0   27.93    8.61
   1   2   0   27.14    7.48
  -1   2   0   20.27    5.21
  -1   2   0   25.22    6.96
  -1   2   0   29.17    7.32
   1  -2   0   27.19    7.41
   1  -2   0   25.59    5.13
  -1   0   1    0.83    6.14
   1   0  -1    0.81    7.79
   1   0  -1    1.57    5.29
  -1   0   1   -1.70    7.02
  -1   0  -1   -0.21    6.08
  -1   0  -1   -0.71    4.81
  -1   0  -1   -0.38    6.10
   1   0   1   -0.40    4.61
   1   0   1    9.58    7.31
   1   0   1   -0.38    5.56
   1  -1  -1  448.99   30.89
  -1   1   1  448.40   29.29
  -1  -1   1  600.22   45.03
   1   1  -1  445.72   31.74
   1  -1  -1  363.09   25.71
   1   1  -1  545.11   38.77
  -1   1   1  415.85   31.66
  -1  -1   1  457.52   30.99
   1   1   1  638.05   42.87
   1  -1   1  556.19   39.05
   1  -1   1  550.36   43.88
  -1  -1  -1  597.17   37.68
  -1   1  -1  573.95   41.13
   1  -1   1  565.08   37.54
   1   1   1  617.76   40.95
  -1   1  -1  536.29   35.87
  -1  -1  -1  549.93   42.45
   1   1   1  567.58   42.01
  -1   1  -1  568.37   36.53
  -1  -1  -1  568.89   37.80
   0  -2   1    2.72    5.98
   0   2  -1    2.66    3.84
   0  -2  -1    0.46    6.94
   0   2  -1    2.89    6.67
   0  -2   1    2.85    6.31
   0   2  -1    1.28    6.68
   0   2  -1    1.66    3.77
   0   2   1    1.99    3.19
   0  -3   0   -2.18   18.24
   0   3   0   -0.50    6.25
   0   3   0    1.49   10.97
   0  -3   0    0.80    4.25
  -2   0   0    4.42    4.39
   2   0   0    3.71    4.51
  -2   0   0    4.48   12.41
   2   0   0    3.61   10.19
  -1   2  -1 1884.31  110.50
  -1  -2  -1 1884.97  117.29
   1  -2   1 1751.74  105.25
   1  -2   1 1783.62  110.23
  -1   2  -1 1825.48  109.23
  -1   2  -1 1738.76  108.56
  -1  -2  -1 1874.62  110.38
   1   2   1 1665.12   98.60
  -1  -2  -1 1792.63  113.97
   1   2   1 1549.77  107.38
   1   2   1 1919.55  113.89
   1  -2   1 1831.99  110.15
   1   3   0  151.36   14.52
   1  -3   0  143.59   12.56
  -1   3   0  144.99   13.26
  -1   3   0  158.38   13.16
  -1   3   0  144.53   14.90
  -1  -3   0  149.56   20.03
   1  -3   0  159.73   13.57
   1  -3   0  145.19   15.42
  -2   1   0   30.27    6.30
   2   1   0   26.59    7.26
  -2  -1   0   24.70    7.97
   2   1   0   32.14    9.53
  -2  -1   0   27.80    6.80
   0   3  -1  319.42   26.81
   0   3  -1  296.39   20.96
   0   3   1  309.08   22.26
   0   3  -1  339.46   23.80
   0   3  -1  348.11   24.78
   0  -3   1  320.80   24.74
   0   3   1  321.95   25.56
   0   3   1  316.66   27.74
   0  -3  -1  316.55   26.41
   0  -3   1  313.35   27.47
   0   3  -1  267.16   23.08
   0   3   1  281.68   23.91
  -2   0   1   -0.23    3.83
   2   0  -1    1.06    4.12
  -2   0   1   -0.60    5.88
   2   0  -1    1.05    7.25
   2   0  -1    1.95    3.77
  -2   0   1   -0.48    3.98
   2   2   0 2384.78  143.50
   2  -2   0 1858.48  126.66
   2  -2   0 1648.83   97.63
  -2  -2   0 2319.60  137.12
   2   2   0 2154.02  131.64
  -2   2   0 1947.21  121.96
   2  -2   0 2390.98  143.03
  -2  -2   0 2262.00  140.05
  -2   2   0 2483.33  145.48
  -2   1   1    0.46    4.24
  -2  -1   1    2.12    4.71
  -2  -1   1    2.47    6.85
   2  -1  -1    0.23    5.54
   2  -1  -1    3.36    6.13
   2  -1  -1    2.52    3.62
  -2  -1   1    1.17    4.40
   2   1  -1    3.16    3.70
   2  -1  -1    2.51    4.67
  -2   1   1    1.54    4.05
   2   1  -1    1.70    4.46
   2   1  -1    1.72    6.07
  -2   0  -1   -0.38    4.02
   2   0   1    2.10    5.24
  -2   0  -1    0.43    4.67
  -2   0  -1    0.72    4.19
   2   0   1    0.01    3.82
   2   0   1   -0.99    5.03
  -1  -3   1  367.50   25.20
   1  -3  -1  371.09   25.50
   1  -3  -1  323.47   26.56
  -1  -3   1  279.38   25.83
   1  -3  -1  355.19   25.90
   1  -3  -1  356.23   26.60
  -1   3   1  364.88   24.89
  -1   3   1  341.11   25.41
  -1   3   1  349.92   26.61
   1   3  -1  333.05   24.68
   0  -4   0  108.49   11.17
   0  -4   0   95.30   10.87
   0   4   0   94.81   12.89
   0   4   0   89.37   11.23
   1   3   1  235.67   24.07
   1   3   1  182.17   16.55
   1  -3   1  233.29   23.66
  -1   3  -1  225.86   19.28
  -1   3  -1  194.53   18.33
   1   3   1  239.30   18.72
   1  -3   1  230.84   19.92
  -1   3  -1  222.64   17.33
  -1  -3  -1  231.50   22.60
  -1  -3  -1  226.21   17.45
  -1   3  -1  220.84   16.83
   1  -3   1  220.36   16.81
  -1  -3  -1  248.80   19.37
   2   1   1  233.02   18.96
  -2   1  -1  257.71   18.79
  -2  -1  -1  271.45   19.98
  -2   1  -1  142.84   13.05
   2   1   1  240.76   18.56
   2  -1   1  246.32   21.34
  -2  -1  -1  273.04   20.45
  -2  -1  -1  233.48   18.36
   2  -1   1  231.64   19.29
  -2  -1  -1  259.44   19.83
   2   1   1  226.57   17.87
   2  -1   1  216.97   17.19
   0   0  -2 3119.88  191.28
   0   0  -2 3552.24  209.57
   0   0   2 3753.03  223.07
   0   0  -2 4009.36  236.19
  -1   4   0   36.08    6.10
   1  -4   0   32.18    6.09
  -1  -4   0   34.29    8.94
   1  -4   0   35.66    6.43
  -1   4   0   32.41    8.01
   1  -4   0   29.83    8.17
   1   4   0   33.52   10.18
  -1   4   0   31.21    6.81
   2  -2  -1  199.91   17.19
   2  -2  -1  197.44   15.48
   2   2  -1  167.60   14.94
  -2  -2   1  200.90   16.35
  -2  -2   1  168.85   17.55
   2   2  -1  183.30   17.87
  -2   2   1  195.12   14.98
  -2  -2   1  197.81   16.17
  -2   2   1  211.09   17.41
   2   2  -1  180.43   14.13
   2  -2  -1  177.78   15.08
   0   1   2 3126.61  186.64
   0  -1   2 3149.47  202.80
   0   1  -2 3284.86  189.72
   0   1   2 3035.28  176.14
   0  -1   2 3165.77  187.04
   0   1   2 4188.26  245.67
   0  -1  -2 2925.27  169.95
   0   1  -2 3087.87  182.62
   0   1  -2 3041.83  175.66
   0  -1  -2 3442.59  204.72
   0  -1  -2 3277.24  193.54
   0   1  -2 3230.74  192.28
   0   1  -2 3505.33  206.89
   2   3   0  319.42   24.15
  -2  -3   0  320.66   23.60
  -2  -3   0  336.79   27.70
   2   3   0  347.47   26.88
   2  -3   0  333.34   24.19
  -2   3   0  395.98   27.28
   2  -3   0  365.25   27.90
  -2   3   0  371.51   27.20
  -2   3   0  314.08   22.87
   2  -3   0  335.59   22.91
  -2   2  -1  187.95   16.08
   2   2   1  199.56   17.68
   2  -2   1  205.66   15.76
   2  -2   1  195.54   19.39
   2   2   1  199.41   17.24
  -2   2  -1  215.65   16.16
   2   2   1  221.64   17.35
  -2   2  -1  237.30   18.23
   2   2   1  219.43   18.87
   2  -2   1  209.60   18.56
  -2  -2  -1  207.97   17.37
  -2  -2  -1  201.76   16.55
  -2  -2  -1  222.03   17.27
  -1   0   2 6938.93  491.00
   1   0  -2 6996.06  490.85
   1   0  -2 6487.14  377.70
  -1   0   2 6520.76  402.92
   0  -4   1   58.43   12.71
   0  -4   1   61.49   11.93
   0   4  -1   58.79    8.63
   0  -4  -1   51.57    9.42
   0   4  -1   57.57    7.32
   0   4  -1   62.28    7.63
   0   4   1   60.93    7.74
   0   4   1   59.36   11.00
   0   4   1   56.21    7.18
   0   4  -1   62.06   10.10
   0   4   1   55.58   11.00
   0   4  -1   55.49   10.17
   1   1  -2  359.12   27.79
  -1   1   2  390.68   26.20
   1  -1  -2  340.66   26.38
   1  -1  -2  379.09   25.47
  -1  -1   2  368.61   28.83
  -1  -1   2  389.28   27.00
  -1   1   2  369.38   29.22
  -1  -1   2  359.21   29.57
   1   1  -2  391.25   27.26
  -1   0  -2 2008.18  119.85
  -1   0  -2 2158.14  129.88
   1   0   2 2227.17  129.95
  -1   0  -2 2201.26  135.61
  -1   0  -2 1691.87  104.61
  -1   0  -2 2303.34  137.93
   1   0   2 2278.55  138.84
   0   2  -2 1696.57  105.75
   0   2   2 1606.48  105.37
   0   2  -2 1792.28  110.04
   0  -2  -2 1815.40  115.02
   0  -2  -2 1792.81  106.92
   0   2  -2 1736.84  102.44
   0   2   2 1701.17  102.01
   0   2  -2 1820.99  106.97
   0   2  -2 1799.24  111.97
   0   2  -2 1888.51  118.62
   0  -2   2 1876.96  115.13
   1   1   2 1657.93  101.87
   1   1   2 1373.79   83.29
  -1   1  -2 1595.12   96.18
  -1  -1  -2 1602.89   97.68
  -1   1  -2 1480.68   87.59
  -1  -1  -2 1565.99  101.80
   1  -1   2 1572.90   97.47
  -1   1  -2 1751.62  107.74
  -1   1  -2 1682.81  102.98
  -1   4   1  322.43   22.35
  -1  -4   1  325.33   22.76
   1  -4  -1  309.20   21.67
  -1   4   1  330.21   25.33
   1   4  -1  286.59   22.99
  -1   4   1  331.52   23.45
   1  -4  -1  320.73   25.99
   1  -4  -1  335.31   23.56
   1  -4  -1  298.43   23.06
  -1   4   1  256.62   21.60
   1  -4   1   38.95   10.51
   1   4   1   39.37    6.82
  -1  -4  -1   33.49    6.16
   1   4   1   35.67    5.84
  -1   4  -1   37.26    6.16
  -1   4  -1   38.36    8.78
   1   4   1   39.88   10.27
   1  -4   1   40.28    8.50
  -1   4  -1   38.57    6.93
  -1   4  -1   34.30    5.64
  -1  -4  -1   40.31   10.18
   1  -4   1   35.99    6.19
   1  -4   1   37.47    9.17
  -1  -4  -1   37.91    6.83
   2  -3  -1 4393.47  277.05
   2  -3  -1 5208.30  319.71
   2  -3  -1 4764.35  287.93
  -2   3   1 5173.47  296.20
  -2   3   1 4608.31  264.59
  -2  -3   1 5279.27  302.25
   2   3  -1 4421.54  282.80
   2   3  -1 3137.71  267.12
  -2  -3   1 3868.21  289.92
   2   3  -1 5073.21  297.37
  -1  -2   2 2193.08  128.24
   1   2  -2 2041.78  123.34
   1   2  -2 1900.28  115.85
  -1  -2   2 2187.42  135.47
  -1   2   2 2061.42  125.38
   1   2  -2 2188.43  129.57
   1  -2  -2 2174.88  126.71
  -1  -2   2 2125.41  130.25
  -1   2   2 2142.71  124.79
   3   0   0  251.69   19.40
  -3   0   0  343.23   24.57
   3   0   0  338.46   24.80
  -3   0   0  374.15   29.85
   3   0   0  327.02   26.06
  -2   3  -1 4151.16  240.16
   2  -3   1 4256.99  245.11
  -2   3  -1 4767.06  274.15
   2   3   1 4094.19  257.53
  -2   3  -1 4456.29  265.76
   2   3   1 4902.86  283.60
  -2  -3  -1 4387.51  251.86
  -2   3  -1 3996.29  232.60
  -2  -3  -1 4543.72  266.07
  -2  -3  -1 4741.95  279.88
  -2  -3  -1 4560.22  272.30
   2  -3   1 4728.98  273.60
   0  -5   0    1.29    4.72
   0   5   0   -0.88    5.13
   0   5   0   -1.13    6.12
   0   5   0    0.57    4.73
   0  -5   0    3.64    5.09
   1   2   2 2256.86  132.75
  -1  -2  -2 2219.40  129.40
   1  -2   2 2312.25  134.53
  -1   2  -2 2241.53  130.43
  -1   2  -2 2136.34  129.90
   1  -2   2 2206.93  133.43
  -1   2  -2 2087.09  123.57
  -1   2  -2 2310.09  139.06
  -1  -2  -2 2276.39  133.08
   1  -2   2 2172.33  131.51
   1  -2   2 2290.54  135.18
  -1  -2  -2 2227.87  132.04
   1   2   2 1979.17  120.91
   1   2   2 2216.27  132.95
  -2   4   0 2869.10  168.83
  -2  -4   0 2603.81  160.80
  -2  -4   0 2632.57  154.09
   2  -4   0 2497.94  144.69
  -2  -4   0 3018.20  182.62
  -2   4   0 2784.00  161.15
  -2   4   0 2561.03  153.96
   2   4   0 2799.79  165.47
   2  -4   0 2562.01  158.46
   2  -4   0 2909.77  168.75
   0   3  -2  669.60   48.31
   0  -3   2  619.55   43.91
   0   3  -2  596.03   39.27
   0   3   2  612.30   39.19
   0   3  -2  607.30   42.27
   0  -3  -2  464.34   33.56
   0   3   2  627.26   39.82
   0   3  -2  620.90   39.28
   0   3   2  639.05   42.05
   0  -3  -2  571.57   39.07
   0   3  -2  618.35   41.42
   2   0  -2 3680.97  213.31
  -2   0   2 3965.97  227.99
   2   0  -2 4023.81  235.62
   2   0  -2 4067.73  235.71
  -2   0   2 3414.20  200.12
   1  -5   0 3610.15  208.63
  -1   5   0 3945.68  226.61
   1  -5   0 3770.41  223.71
  -1  -5   0 3525.63  207.38
   1  -5   0 3955.23  232.06
   1   5   0 3697.88  219.27
  -1   5   0 3482.13  202.83
  -1   5   0 3592.80  210.79
  -3   0   1    1.60    5.97
  -3   0   1    1.41    4.89
  -3   0   1   -0.62    4.33
   3   0  -1    0.47    4.59
   3   0  -1    0.31    3.86
   3   0  -1    0.09    7.40
   3  -2   0   17.58    6.82
  -3   2   0   20.23    5.50
   3   2   0   20.00    8.24
  -3  -2   0   15.78    7.01
   3   2   0   19.52    6.60
  -3  -2   0   17.79    6.40
   3   2   0   12.68    5.33
   2  -1  -2   42.34    9.43
   2   1  -2   30.05    6.72
   2  -1  -2   29.72    5.56
   2  -1  -2   27.66    6.41
  -2  -1   2   29.99    6.39
  -2  -1   2   25.81    7.15
   2   1  -2   32.47    6.23
  -2   1   2   33.11    6.02
   2  -1  -2   28.83    7.72
   2   1  -2   29.24    9.41
  -2   1   2   26.35    7.29
   3   1  -1 1357.84   81.92
   3  -1  -1 1641.28   97.85
  -3  -1   1 1721.56  101.85
   3   1  -1 1559.10   96.41
  -3   1   1 1570.18   94.53
  -3  -1   1 1598.95   98.11
  -3  -1   1 1590.50   99.87
   3  -1  -1 1628.55  100.54
   3   1  -1 1464.69   87.41
   3  -1  -1 1581.50   94.51
  -3   1   1 1738.48  102.53
  -1   3   2   34.65    5.69
   1   3  -2   30.94    8.53
  -1  -3   2   33.51    6.01
   1  -3  -2   32.97    5.85
  -1  -3   2   34.54    9.60
   1   3  -2   30.29    7.99
   1   3  -2   33.04    6.45
   0  -5  -1  115.00   12.92
   0  -5   1  139.47   17.34
   0   5  -1  119.91   11.25
   0   5  -1  135.81   13.68
   0   5   1  120.35   11.13
   0   5  -1  133.57   15.43
   0   5   1  120.87   14.20
   0   5   1  129.57   11.60
   0   5   1  129.59   15.34
   0   5  -1  127.01   11.68
   0  -5   1  125.07   14.08
   0   5  -1  137.55   13.08
   3   0   1    1.37    5.72
  -3   0  -1   -1.07    4.69
   3   0   1    0.07    3.89
  -3   0  -1    0.73    4.88
  -3   0  -1   -1.50    8.95
  -3   0  -1   -0.39    3.72
   3   0   1    0.91    6.33
   2   0   2  413.38   30.88
  -2   0  -2  423.60   30.46
  -2   0  -2  436.59   29.64
  -2   0  -2  413.78   27.95
   2   0   2  402.41   28.81
   2   0   2  403.52   27.28
  -1   3  -2 1112.32   66.95
   1  -3   2  960.21   59.80
   1  -3   2 1101.51   71.14
   1  -3   2 1109.17   68.58
  -1   3  -2 1074.37   69.20
  -1  -3  -2 1130.04   74.27
  -1   3  -2 1023.42   63.80
   1   3   2 1170.47   87.60
   1  -3   2 1049.08   68.07
  -1  -3  -2 1122.69   67.72
   1   3   2 1046.32   66.76
  -1  -3  -2 1070.26   66.75
   3   1   1 3434.12  207.90
   3   1   1 4022.71  233.42
   3  -1   1 3026.57  275.48
   3  -1   1 3676.90  212.60
  -3   1  -1 3852.07  222.31
  -3  -1  -1 3885.59  223.95
  -3  -1  -1 3364.36  196.54
   3   1   1 3388.28  224.16
  -3  -1  -1 3448.39  202.32
   3   1   1 3259.43  191.52
  -2  -4   1 1030.04   62.67
  -2   4   1  829.52   54.21
   2  -4  -1  964.38   59.93
  -2   4   1 1036.68   63.54
  -2   4   1 1088.28   66.89
   2  -4  -1 1051.85   69.23
   2   4  -1  988.52   65.70
   2   4  -1  686.67   69.19
  -2  -4   1 1060.80   65.77
   2  -4  -1 1078.03   66.39
   2  -4  -1  963.07   60.11
  -2   4   1 1070.90   64.68
   2   4  -1  955.89   77.82
   2  -1   2    3.07    3.82
  -2   1  -2    4.41    6.63
   2   1   2    3.39    5.74
  -2   1  -2    2.95    3.86
   2  -1   2    1.78    5.15
  -2   1  -2    4.51    4.50
   2   1   2    5.28    4.61
  -2  -1  -2    2.50    4.31
   2   1   2    3.47    4.35
  -2   1  -2    3.67    4.07
  -2  -1  -2    2.80    4.76
  -2  -1  -2    1.77    3.76
   2  -1   2    3.74    5.95
  -2   1  -2    2.82    5.68
   2   2  -2   22.93    6.29
  -2   2   2   24.56    5.19
  -2  -2   2   16.96    6.49
   2  -2  -2   21.09    6.63
   2   2  -2   22.44    6.09
   2  -2  -2   22.88    5.21
   2  -2  -2   20.45    5.39
  -2   2   2   47.22   13.37
  -2  -2   2   24.09    6.11
  -2   2   2   20.06    6.68
   2  -4   1  315.27   21.98
  -2  -4  -1  315.58   24.71
   2  -4   1  312.58   27.15
  -2  -4  -1  304.97   21.79
   2   4   1  328.14   23.83
  -2   4  -1  356.25   24.65
   2   4   1  355.42   26.38
  -2   4  -1  327.00   22.69
   2  -4   1  301.28   24.65
  -2   4  -1  316.73   24.69
  -2  -4  -1  361.29   26.83
  -2   4  -1  309.90   21.89
  -2  -4  -1  308.48   27.45
   2  -4   1  340.52   25.53
  -1   5   1   23.56    5.32
  -1  -5   1   17.74    4.56
  -1  -5   1   28.35    5.85
   1   5  -1   24.19    5.62
  -1   5   1   19.55    7.24
  -1  -5   1   18.58    5.16
   1  -5  -1   25.34    8.09
  -1   5   1   26.24    7.31
   1  -5  -1   26.70    5.61
  -1  -5   1   30.20   10.93
  -1   5   1   26.21    5.91
   1  -5  -1   27.64    5.67
   1  -5  -1   21.96    6.63
   3   2  -1    1.45    6.24
  -3  -2   1    5.04    4.77
   3  -2  -1    1.87    4.20
   3   2  -1    2.45    4.98
  -3   2   1    1.61    3.92
  -3   2   1    3.44    4.80
   3   2  -1    0.76    3.85
   3  -2  -1    0.33    4.86
   3  -2  -1    0.30    3.96
   3  -2  -1    0.34    4.15
  -3  -2   1    2.05    4.57
   3  -2  -1    0.64    4.96
  -3  -2   1    0.94    7.18
   1   5   1 1415.37   84.71
  -1  -5  -1 1437.18   90.78
  -1   5  -1 1131.23   68.27
   1  -5   1 1413.44   85.77
  -1   5  -1 1297.53   81.83
  -1  -5  -1 1263.32   76.87
   1  -5   1 1278.43   81.53
  -1   5  -1 1276.02   76.36
   1  -5   1 1377.97   88.28
  -1  -5  -1 1339.75   80.99
   1   5   1 1295.61   78.23
   1  -5   1 1370.07   81.68
  -1   5  -1 1345.20   80.71
   1   5   1 1251.07   81.24
   3  -3   0  931.21   61.89
  -3  -3   0  878.43   59.53
  -3  -3   0  821.73   53.01
  -3   3   0  951.03   59.08
   3   3   0  800.09   51.16
   3  -3   0  829.73   51.15
   3   3   0  762.33   49.75
   3   3   0  939.89   61.84
   3  -3   0  756.03   47.21
  -3   3   0  768.61   47.92
   3  -2   1  715.00   44.61
  -3   2  -1  699.39   43.50
   3   2   1  667.94   45.37
   3   2   1  639.51   44.83
   3   2   1  844.51   54.32
  -3  -2  -1  707.92   45.15
   3   2   1  750.80   50.43
  -3   2  -1  525.96   36.46
   3  -2   1  751.31   49.24
  -3  -2  -1  618.16   41.87
  -3  -2  -1  642.50   41.90
  -2  -2  -2  180.07   20.15
  -2  -2  -2  181.03   15.16
   2  -2   2  190.61   18.46
   2   2   2  166.40   15.32
  -2  -2  -2  183.59   16.60
   2   2   2  193.32   16.47
  -2  -2  -2  173.86   14.76
  -2   2  -2  175.72   13.80
  -2   2  -2  191.82   17.85
  -2  -2  -2  163.81   13.12
   2   2   2  184.95   17.47
  -2   2  -2  172.35   17.14
   2  -2   2  176.88   15.62
  -2   2  -2  176.82   15.53
   2  -2   2  177.90   13.98
   0   4  -2 3200.00  185.71
   0   4   2 2947.99  199.06
   0  -4  -2 3269.37  193.90
   0   4  -2 2908.95  178.27
   0   4   2 3406.04  199.29
   0   4   2 2773.64  169.25
   0   4  -2 3144.40  186.97
   0  -4   2 2983.68  178.26
   0   4  -2 3051.70  177.05
   0   4   2 2874.15  180.04
  -2   5   0  643.33   41.83
   2  -5   0  818.50   50.97
   2  -5   0  685.22   46.69
   2  -5   0  713.16   44.41
  -2   5   0  760.57   47.16
   2   5   0  782.28   50.60
  -2  -5   0  740.65   47.83
  -2  -5   0  715.79   49.15
  -2  -5   0  737.85   52.05
  -2   5   0  791.22   51.92
   0   6   0 3353.65  200.79
   0  -6   0 3469.70  201.45
   0   6   0 4125.13  237.71
   0   6   0 3533.62  208.84
   0  -6   0 3811.25  220.41
   1  -4  -2  751.61   49.84
  -1   4   2  772.00   47.80
   1   4  -2  765.88   53.52
  -1  -4   2  855.92   52.59
   1  -4  -2  774.04   51.11
   1   4  -2  753.38   50.87
   1   4  -2  823.83   51.14
   1   4  -2  764.13   50.52
   1  -4  -2  789.65   49.24
  -1  -4   2  775.43   52.87
  -2   3   2   82.50   10.92
  -2  -3   2  120.63   11.56
   2   3  -2  113.03   11.23
   2   3  -2  123.56   12.37
   2  -3  -2  113.82   10.46
  -2   3   2  119.23   10.65
  -2   3   2  111.36   10.94
   2  -3  -2  126.91   12.59
  -3   3   1  807.86   51.64
   3  -3  -1  659.06   43.93
  -3  -3   1  745.15   47.44
   3   3  -1  619.29   48.89
  -3  -3   1  651.43   43.22
   3   3  -1  719.22   50.22
   3   3  -1  683.66   44.72
  -3   3   1  737.49   45.59
  -3  -3   1  603.51   43.66
   3  -3  -1  649.76   43.39
   3  -3  -1  694.81   47.43
   1   4   2 3350.13  211.97
  -1  -4  -2 3354.86  194.47
   1   4   2 2838.68  195.70
  -1  -4  -2 3361.86  203.47
   1  -4   2 2932.57  172.37
   1  -4   2 2855.60  170.94
   1   4   2 3035.07  178.93
  -1   4  -2 3023.94  176.79
  -1   4  -2 3028.37  175.49
   1  -4   2 2977.61  173.87
  -1  -4  -2 3489.76  208.11
  -1   4  -2 3060.88  182.16
   1   4   2 3287.75  196.86
  -3  -3  -1 1495.72   90.18
   3  -3   1 1597.11   94.48
  -3   3  -1 1594.88   94.30
   3   3   1 1552.72   94.69
  -3   3  -1 1503.11   91.76
  -3   3  -1 1681.06   99.57
   3   3   1 1849.52  111.68
  -3  -3  -1 1550.31   95.61
   3   3   1 1469.56   93.65
   3  -3   1 1321.17   85.01
  -3  -3  -1 1616.54   96.76
  -3   3  -1 1601.56   95.52
   3  -3   1 1718.55  103.53
  -1   6   0   46.78    9.25
   1  -6   0   49.57    7.68
   1  -6   0   42.24    9.75
   1  -6   0   45.51    7.22
  -1  -6   0   41.42    8.49
  -1   6   0   47.67    9.11
   1   6   0   38.45    9.91
  -1   6   0   49.59    7.30
  -2   3  -2  497.76   37.23
   2  -3   2  481.49   33.39
  -2   3  -2  485.61   33.55
  -2  -3  -2  477.70   37.63
  -2  -3  -2  478.80   34.27
   2  -3   2  495.43   37.13
  -2  -3  -2  484.96   32.05
   2  -3   2  454.78   35.26
   2   3   2  478.68   33.64
   2   3   2  461.90   32.63
   2   3   2  482.00   35.02
  -2   3  -2  501.95   32.38
   2  -3   2  472.76   31.96
  -2  -3  -2  470.71   34.57
   2  -5  -1 2251.49  138.89
   2  -5  -1 2053.51  120.66
  -2   5   1 2430.48  144.11
   2  -5  -1 2297.95  139.18
   2   5  -1 2152.71  131.28
  -2  -5   1 2320.94  137.52
   2   5  -1 2006.61  162.65
  -2  -5   1 2322.02  137.18
   2  -5  -1 2581.06  151.23
  -2   5   1 2662.14  155.89
  -2  -5   1 2442.14  149.20
  -2   5   1 2391.91  146.38
  -2   5   1 2408.71  141.41
  -3   4   0  343.72   25.00
  -3   4   0  347.27   24.71
   3  -4   0  327.73   23.77
  -3  -4   0  321.94   28.34
   3   4   0  300.14   22.93
   3   4   0  341.96   27.00
  -3  -4   0  299.72   23.00
   3  -4   0  302.79   21.29
  -3   4   0  277.12   29.77
   3   4   0  269.43   21.98
   3  -4   0  310.37   27.85
   0   0  -3    0.92    4.66
   0   0  -3   -0.70    5.45
   0   0   3   -0.55    6.39
   0   0  -3   -0.52    7.25
   0   0  -3    0.76    5.92
   0   6  -1  432.12   29.20
   0   6   1  419.59   28.44
   0  -6   1  456.64   36.12
   0   6   1  404.79   27.48
   0   6  -1  408.71   31.34
   0  -6   1  480.20   32.62
   0   6  -1  404.29   38.95
   0   6   1  415.01   31.63
   0   6  -1  451.80   31.18
   0   6  -1  426.88   32.67
   0  -6  -1  392.74   29.33
   0   6   1  432.83   34.76
  -3   0   2   93.65   11.18
  -3   0   2   95.46   12.21
   3   0  -2  110.29   10.89
   3   0  -2  121.14   12.63
  -3   0   2  112.20   10.78
   3   0  -2  113.79   14.47
   2  -5   1 1496.78   94.62
  -2   5  -1 1503.35   89.41
   2  -5   1 1378.08   82.68
   2  -5   1 1294.82   93.47
   2   5   1 1496.84   90.62
  -2   5  -1 1238.40   77.78
  -2   5  -1 1318.18   83.06
  -2  -5  -1 1254.16   89.80
  -2  -5  -1 1388.05   85.89
   2  -5   1 1458.58   88.21
  -2  -5  -1 1322.00   85.05
  -2  -5  -1 1230.23   73.89
   2   5   1 1347.84   90.10
  -2   5  -1 1380.89   83.55
   0   1  -3  615.67   44.14
   0   1   3  366.49   30.84
   0   1  -3  346.13   24.25
   0  -1   3  440.93   36.40
   0   1  -3  379.05   29.44
   0   1  -3  422.48   33.27
   0   1   3  649.02   46.49
   0   1  -3  379.58   26.40
   0   1   3  348.89   24.22
   0  -1  -3  439.87   34.89
   0   1  -3  412.91   31.79
   0  -1  -3  348.48   24.87
   0   1   3  332.00   23.43
   0  -1  -3  406.50   31.31
   3  -1  -2 1391.48   85.41
  -3  -1   2 1096.03   70.51
   3   1  -2 1079.98   92.77
   3   1  -2 1254.24   81.05
  -3   1   2 1199.61   74.95
   3  -1  -2 1195.64   75.49
   3   1  -2 1303.97   79.31
   3  -1  -2 1185.71   73.19
  -3  -1   2 1040.96   66.44
  -3  -1   2 1300.38   78.44
  -3   1   2 1277.39   76.33
   1   0  -3    0.58    6.35
   1   0  -3   -0.20    3.63
  -1   0   3    0.25    6.49
  -1   0   3    0.59    4.08
   1   0  -3   -0.07   15.10
   1   0  -3   -0.08    6.01
  -1  -6   1 1147.12   70.20
  -1  -6   1 1159.26   69.97
   1  -6  -1 1131.45   70.38
   1   6  -1 1057.39   82.27
  -1   6   1 1026.18   62.01
   1  -6  -1 1031.49   64.54
  -1   6   1  845.60   75.87
   1   6  -1 1132.12   74.73
   1  -6  -1  991.59   65.16
  -1   6   1 1056.42   63.85
   1  -6  -1 1162.35   72.45
   1   6  -1  940.53   60.91
  -1  -6   1 1191.21   78.34
  -1   6   1 1115.78   70.55
   0   5   2  218.85   18.41
   0  -5  -2  212.32   19.75
   0   5   2  208.64   20.58
   0   5   2  223.60   18.67
   0   5   2  218.83   17.38
   0   5  -2  219.51   16.79
   0   5  -2  227.95   17.69
   0  -5   2  245.36   19.69
   0  -5   2  214.56   20.90
   0   5  -2  234.25   21.69
   0   5  -2  229.76   17.70
   4   0   0  762.91   49.11
   4   0   0  729.00   49.27
  -4   0   0  679.19   48.31
   4   0   0  734.72   47.23
  -4   0   0  747.46   48.90
   1  -1  -3  218.78   16.32
  -1  -1   3  227.65   21.67
  -1   1   3  243.25   17.91
   1   1  -3  233.72   17.61
  -1  -1   3  255.21   18.90
   1   1  -3  257.11   22.87
   1   1  -3  248.73   22.57
   1  -1  -3  239.53   21.50
   1  -1  -3  200.16   17.84
   1  -1  -3  203.72   16.36
  -1  -1   3  216.90   19.51
  -1   1   3  225.94   22.01
   1  -6   1   28.25    5.70
  -1   6  -1   29.80    8.84
   1   6   1   29.79    6.31
  -1   6  -1   30.55    6.51
  -1  -6  -1   30.61    9.18
  -1   6  -1   25.47    6.11
   1  -6   1   28.98    7.00
   1  -6   1   29.85    9.40
   1   6   1   27.02    9.32
  -1   6  -1   25.00    5.60
   1   6   1   26.31    5.92
   1  -6   1   26.74    8.66
  -1  -6  -1   23.99    5.54
   2   4  -2  665.82   51.09
   2  -4  -2  669.98   51.85
  -2  -4   2  711.81   53.37
  -2   4   2  592.96   45.32
   2  -4  -2  724.70   57.05
   2  -4  -2  673.03   50.53
   2   4  -2  671.37   51.16
  -2   4   2  700.07   52.27
  -2  -4   2  735.28   59.41
  -3   0  -2 1429.92  105.19
   3   0   2 1421.78  103.36
  -3   0  -2 1472.33  106.20
  -3   0  -2 1528.90  109.93
   3   0   2 1336.26   97.25
   3   0   2 1369.56  120.74
  -1   0  -3    0.12    5.25
  -1   0  -3    0.57    3.57
  -1   0  -3    0.19    7.36
   1   0   3    0.38    3.25
  -1   0  -3    0.45    6.21
   1   0   3    1.84    5.94
  -1   0  -3    1.22    5.37
  -1   0  -3    1.05    3.98
   3  -4  -1  128.93   14.19
  -3   4   1  152.41   14.22
   3   4  -1  135.24   15.40
  -3  -4   1  154.01   15.06
   3   4  -1  139.71   14.54
   3  -4  -1  142.76   15.66
  -3  -4   1  130.54   14.60
  -3   4   1  161.36   15.60
  -3   4   1  129.48   12.82
   3  -4  -1  154.03   15.37
  -3  -4   1  116.28   15.29
   3  -4  -1  141.49   13.99
   3   4  -1  141.83   17.62
   4   1   0   -0.65    4.42
   4  -1   0  -16.54    8.61
  -4   1   0    1.18    4.97
  -4  -1   0    0.86    6.35
   4   1   0    1.26    5.76
  -4  -1   0    0.90    4.83
   4   1   0    2.88    7.31
   4  -1   0    2.06    6.17
   4  -1   0    2.37    4.10
   4  -1   0    3.89    5.40
   0   2  -3  308.54   29.36
   0  -2  -3  328.90   30.18
   0   2  -3  294.26   27.33
   0   2   3  345.29   29.74
   0   2  -3  331.99   30.73
   0  -2   3  297.21   27.41
   0   2  -3  284.66   25.26
   0  -2  -3  311.96   26.82
   0   2  -3  289.74   23.69
   0   2   3  276.60   23.04
   0   2  -3  305.39   25.13
   0   2   3  294.16   24.49
   0  -2  -3  346.52   32.39
   0   2   3  272.35   29.03
   3  -2  -2   19.28    6.60
   3   2  -2   18.46    5.95
  -3  -2   2   19.48    5.72
   3  -2  -2   12.65    6.55
   3  -2  -2   15.66    5.06
  -3   2   2   20.00    7.84
   3   2  -2   19.99    8.61
  -3  -2   2   20.02    7.89
  -3  -2   2   17.48    6.24
   3   2  -2   22.82    6.12
   3  -2  -2   20.12    5.15
  -3   2   2   21.10    5.05
  -3   1  -2  507.92   41.78
  -3   1  -2  622.90   46.85
  -3  -1  -2  602.03   46.16
  -3  -1  -2  646.76   48.96
   3   1   2  659.64   50.98
  -3  -1  -2  620.37   47.37
   3   1   2  596.87   46.62
   3  -1   2  537.43   41.13
   3  -1   2  566.24   44.70
  -3   1  -2  598.23   46.72
   3   1   2  587.59   48.19
   3  -1   2  553.81   53.56
  -3   1  -2  574.34   43.64
  -3   1  -2  618.69   51.07
  -1   1  -3    1.40    7.52
  -1  -1  -3    0.94    7.44
  -1  -1  -3    2.14    5.59
   1   1   3    0.47    5.06
  -1   1  -3    0.40    6.26
   1   1   3    1.37    8.68
   1   1   3    1.33    5.64
   1  -1   3    2.50    5.24
  -1   1  -3    4.10   10.98
  -1  -1  -3    1.22    4.70
  -1   1  -3    1.35    6.12
  -1   1  -3    1.19    5.14
   1   1   3    0.34   16.14
  -1  -1  -3    0.85    4.85
  -1   1  -3    1.58    5.42
   1  -1   3    3.30    6.18
  -1  -5   2   16.44    9.12
  -1   5   2   15.06    4.90
   1  -5  -2   18.28    7.95
   1   5  -2   15.05    5.22
  -1   5   2   11.98    7.33
   1   5  -2   20.93    8.61
   1  -5  -2   16.58    9.12
   1   5  -2   17.23    5.44
   1  -5  -2   16.66    5.20
  -1  -5   2   19.19    5.26
   1   5  -2   15.12    6.72
   1  -5  -2   15.83    4.62
  -3   4  -1    3.31    4.34
  -3   4  -1    4.67    6.12
   3  -4   1    2.88    6.04
  -3  -4  -1    4.62    5.33
   3  -4   1    3.35    4.23
   3   4   1    2.01    4.57
   3   4   1    4.83    6.22
   3  -4   1    2.40    5.83
  -3  -4  -1    3.54    5.16
  -3   4  -1    1.81    4.40
   3   4   1    2.60    6.06
  -3   4  -1    2.56    3.71
  -3  -4  -1    3.09    5.40
  -2  -4  -2   58.76    7.99
   2   4   2   59.64    8.58
   2  -4   2   62.61    8.01
  -2  -4  -2   58.03   12.40
  -2   4  -2   64.44    8.12
   2  -4   2   61.18   10.17
   2   4   2   60.40    8.50
   2   4   2   60.23    9.10
  -2  -4  -2   70.48   10.70
   2  -4   2   64.42    9.90
  -2   4  -2   59.64    9.00
  -2  -4  -2   57.00    8.12
  -2   4  -2   63.75   10.30
  -1   5  -2  397.10   31.74
  -1   5  -2  386.18   33.32
  -1  -5  -2  420.53   34.30
   1   5   2  428.03   35.30
   1   5   2  403.19   33.00
   1  -5   2  397.18   32.57
  -1   5  -2  396.64   31.06
   1  -5   2  386.09   30.46
   1   5   2  436.95   36.42
  -1  -5  -2  429.80   33.97
   1   5   2  372.46   43.35
   1  -5   2  388.31   34.87
  -1  -5  -2  456.61   40.13
   1  -2  -3 1209.70   91.04
  -1  -2   3 1181.17   89.10
   1  -2  -3 1187.94   86.41
  -1   2   3 1215.05   88.15
   1   2  -3 1268.45   93.00
  -1  -2   3 1267.39   92.15
  -1  -2   3 1194.72   92.06
   1   2  -3 1357.21  105.45
   1  -2  -3  884.38   83.12
  -1   2   3 1243.54   95.10
   1   2  -3 1396.52  104.91
   4   0  -1    0.30    4.40
  -4   0   1    0.81    5.41
  -4   0   1    0.34    4.67
   4   0  -1    0.31    4.19
   4   0  -1    0.32    6.96
  -4   0   1   -1.16    6.26
  -2  -6   0  173.78   21.80
  -2  -6   0  218.17   22.98
   2  -6   0  211.54   21.84
   2  -6   0  227.34   20.73
  -2   6   0  217.92   21.03
  -2   6   0  216.03   18.63
   2   6   0  211.86   20.00
  -2  -6   0  195.00   18.84
   2  -6   0  203.24   17.79
  -2   6   0  189.62   17.96
   4  -2   0  130.39   12.88
  -4  -2   0  132.41   16.18
   4   2   0  125.42   13.89
   4  -2   0  140.76   16.25
  -4   2   0  165.02   15.94
   4   2   0  140.15   16.77
   4  -2   0  162.05   18.53
   4   2   0  136.12   14.87
  -4  -2   0  128.10   13.70
  -4   1   1 4979.86  367.37
  -4  -1   1 4966.37  361.43
   4  -1  -1 4863.04  343.25
   4   1  -1 4628.57  330.87
  -4   1   1 5497.60  350.28
  -4  -1   1 5483.66  350.80
   4   1  -1 4923.91  350.21
   4  -1  -1 5940.25  385.11
  -4  -1   1 5060.59  330.07
   4  -1  -1 4555.03  333.84
   4   1  -1 4670.92  421.82
   3   2   2    2.65    5.75
  -3  -2  -2    1.32    4.57
  -3   2  -2   -0.52    6.12
   3   2   2    0.26    4.40
  -3  -2  -2    1.27    4.14
  -3   2  -2    0.94    9.30
  -3   2  -2    1.92    5.42
  -3  -2  -2    1.77    4.94
   3   2   2    0.63    4.71
  -3   2  -2    0.27    4.15
   3  -2   2    1.19    4.24
  -3   2  -2    0.83    6.06
   3  -2   2    2.48    6.51
   3   2   2    0.03    5.54
  -3  -2  -2    2.27    4.97
   3  -2   2    1.67    5.79
   1  -2   3   34.74    8.45
  -1   2  -3   41.70    9.72
  -1  -2  -3   39.13    7.22
   1  -2   3   39.05    6.18
   1   2   3   36.55    7.08
  -1   2  -3   39.98    9.66
  -1   2  -3   38.39    5.86
  -1   2  -3   40.81   11.03
   1  -2   3   35.78    8.76
   1   2   3   38.50    8.98
   1   2   3   38.41   11.69
  -1  -2  -3   37.72    8.31
  -1   2  -3   35.30    7.47
   1   2   3   32.28    6.49
   4   0   1    3.43   10.71
   4   0   1    0.27    5.66
  -4   0  -1   -2.34   10.40
  -4   0  -1    0.22    5.29
   4   0   1    0.36    5.91
  -4   0  -1   -1.04    5.01
   4   0   1    2.11    4.70
  -4   0  -1   -0.96    4.16
   0   7   0    6.73    5.42
   0   7   0    7.57    7.15
   0  -7   0    3.35    4.97
   0   7   0    4.25    6.11
   0  -7   0    3.16    5.84
  -3  -5   0 1993.05  144.85
   3  -5   0 2262.35  171.96
  -3   5   0 2404.30  171.63
   3   5   0 2036.42  149.90
   3  -5   0 2183.62  167.70
  -3   5   0 2359.03  171.46
   3  -5   0 2115.21  150.62
   3   5   0 1976.26  154.18
  -3   5   0 2131.89  153.91
   3   5   0 1810.77  135.58
  -3  -5   0 2003.82  153.53
   0   3   3  614.43   47.08
   0  -3  -3  680.51   52.02
   0   3  -3  732.08   58.40
   0   3  -3  699.49   55.77
   0   3  -3  717.52   53.83
   0  -3  -3  670.42   53.14
   0  -3   3  734.19   58.40
   0   3  -3  737.96   55.71
   0   3   3  636.69   47.71
   0   3  -3  752.85   59.54
   0   3  -3  745.15   60.03
   0   3   3  481.57   42.50
   2   0  -3    0.69    3.90
   2   0  -3   -1.20    7.56
  -2   0   3    0.96    4.51
  -2   0   3    0.59    6.50
  -3  -3   2  829.47   63.48
   3  -3  -2  930.99   70.12
   3   3  -2  881.91   66.57
   3   3  -2  857.81   66.81
   3  -3  -2  844.58   67.13
   3  -3  -2  985.48   79.05
   3   3  -2  824.97   81.03
   3  -3  -2  835.76   62.16
  -3   3   2  933.31   68.36
  -3  -3   2  892.11   70.26
  -3  -3   2  920.20   68.46
  -3   3   2 1178.71   91.95
   4   1   1 2039.78  149.50
   4   1   1 1825.91  133.40
  -4  -1  -1 1858.89  138.22
   4   1   1 1730.15  158.68
   4  -1   1 1726.19  131.13
   4  -1   1 1473.37  115.47
  -4   1  -1 2061.60  147.11
   4   1   1 1811.52  133.50
  -4  -1  -1 1778.96  131.35
   4  -1   1 2145.02  164.50
   4  -1   1 1856.08  140.43
  -4  -1  -1 2104.55  150.66
  -4   2   1    1.25    5.60
  -4   2   1    3.62    4.75
   4   2  -1    2.50    4.94
   4  -2  -1    4.77    4.23
   4  -2  -1    3.67    6.32
   4  -2  -1    3.85    4.31
   4   2  -1    6.07    6.35
  -4  -2   1    3.22    4.84
   4  -2  -1    1.63    4.48
  -4  -2   1    4.71    7.08
  -4  -2   1    5.02    5.84
   4   2  -1    1.38    4.88
   4  -2  -1    2.45    5.99
   2  -1  -3 1895.74  136.37
  -2  -1   3 2077.99  148.98
   2   1  -3 3093.42  224.69
  -2   1   3 2016.90  143.92
  -2  -1   3 2061.21  151.96
  -2   1   3 1969.68  146.04
   2  -1  -3 2648.57  194.37
   2   1  -3 2031.00  145.35
   2  -6  -1  559.04   46.16
  -2   6   1  605.71   47.48
   2   6  -1  523.58   47.39
  -2   6   1  552.41   42.14
   2  -6  -1  560.87   44.15
   2  -6  -1  589.90   45.94
  -2   6   1  983.03   84.56
  -2  -6   1  589.45   44.76
  -2  -6   1  552.94   46.46
  -2  -6   1  551.32   44.95
   2  -6  -1  510.46   51.93
  -2   6   1  577.14   44.41
  -1   3   3    2.16    6.34
   1   3  -3    1.52    6.56
  -1  -3   3    2.46    3.82
  -1  -3   3    1.42    7.65
  -1   3   3    2.53    4.66
   1   3  -3    1.54    4.32
  -1   3   3    2.21    3.65
   1  -3  -3    1.77    3.80
   1   3  -3   -1.10    6.67
  -1  -3   3    0.34    6.69
   1  -3  -3    1.75    6.42
   1  -7   0  984.12   72.84
  -1   7   0  977.45   74.77
   1  -7   0 1017.93   78.87
  -1   7   0 1042.79   76.23
  -1   7   0 1519.91  117.14
   1  -7   0  943.41   73.31
  -1  -7   0  968.58   73.86
   1   7   0  971.66   76.33
  -2   6  -1 2031.97  147.70
   2  -6   1 2143.22  154.35
  -2   6  -1 2304.32  164.12
   2   6   1 2018.19  166.54
   2  -6   1 2413.80  176.58
  -2  -6  -1 1852.72  140.81
  -2  -6  -1 2281.60  164.92
  -2   6  -1 1997.39  145.50
   2  -6   1 2266.05  162.67
  -2  -6  -1 2199.95  161.58
  -2   6  -1 2098.23  151.54
   2  -6   1 2022.85  149.49
  -2  -6  -1 2101.76  149.89
   2   6   1 2305.68  168.32
   4  -3   0    6.62    5.52
   4  -3   0   51.16    9.59
   4   3   0   44.66    8.25
  -4  -3   0   41.13    7.72
  -4  -3   0   39.90    9.54
   4  -3   0   44.03    7.27
  -4   3   0   48.53    7.89
   4   3   0   49.18   10.37
   4   3   0   40.62    7.68
   4   2   1 1198.82   89.93
   4   2   1 1049.14   82.94
  -4  -2  -1 1101.08   85.17
   4  -2   1 1084.56   79.64
   4   2   1 1047.05   83.22
   4   2   1 1030.86   77.26
   4  -2   1  966.64   73.04
  -4  -2  -1 1073.99   80.25
  -4  -2  -1 1196.16   87.33
  -4   2  -1 1219.63   88.76
   2  -5  -2  287.34   23.76
  -2   5   2  325.05   27.01
   2  -5  -2  317.42   28.26
   2  -5  -2  298.09   28.74
   2  -5  -2  300.55   25.78
  -2  -5   2  326.56   31.59
  -2  -5   2  326.59   26.43
   2   5  -2  237.71   21.99
  -2   5   2  333.05   26.96
   2   5  -2  304.95   29.84
  -2   0  -3    0.44    4.70
  -2   0  -3    0.03    6.07
  -2   0  -3    0.82    5.04
   2   0   3    0.65    6.48
  -2   0  -3    2.21    6.00
  -2   0  -3   -2.06    8.18
  -2   0  -3    1.12    4.45
   2   0   3   -0.71    3.76
   3  -3   2  119.20   13.99
   3   3   2  113.45   12.20
   3  -3   2  116.06   14.60
  -3  -3  -2  121.93   13.62
   3  -3   2  130.81   17.62
  -3   3  -2  108.77   12.07
  -3  -3  -2  117.87   12.67
  -3  -3  -2  141.23   19.92
  -3   3  -2  121.79   11.94
   3  -3   2  119.16   11.95
  -3   3  -2  114.29   12.74
  -3  -3  -2  130.83   13.25
   3   3   2  119.21   13.88
   3   3   2  109.88   13.01
  -1   3  -3    7.65    6.69
  -1   3  -3    7.58    8.07
  -1  -3  -3    5.82    4.90
   1   3   3    6.47    4.84
   1  -3   3    9.54    6.66
  -1   3  -3    7.09    5.12
  -1   3  -3    6.55    4.03
  -1   3  -3    8.38    7.02
   1  -3   3    5.20    6.62
   1   3   3    6.45    3.97
  -1  -3  -3    7.64    5.11
   3  -5  -1 1922.92  140.72
   3   5  -1 1983.47  147.51
  -3  -5   1 1728.82  131.22
   3   5  -1 1706.25  126.11
  -3   5   1 1320.11  120.82
  -3   5   1 1994.32  142.96
   3  -5  -1 1666.49  151.65
   3  -5  -1 2066.20  148.34
   3   5  -1 1805.96  155.27
  -3  -5   1 1986.28  142.66
  -3   5   1 2116.83  151.24
  -3   5   1 2053.52  147.33
   3  -5  -1 2031.85  149.60
   0   7  -1   12.85    7.56
   0  -7  -1   14.82    5.36
   0   7   1   13.02    5.50
   0   7   1   13.11    7.52
   0   7  -1   13.48    5.43
   0  -7  -1   14.40    7.84
   0  -7   1   14.12    5.54
   0   7  -1   12.54    6.08
   0   7  -1   10.92    4.94
   0   7   1   13.61    5.66
   0   7   1   11.43    7.67
   0   7  -1   16.11    8.03
   0  -7   1   14.04    8.89
  -2   2   3   53.43    7.42
  -2   2   3   52.84   10.36
   2   2  -3  100.21   17.78
   2  -2  -3   48.04    6.83
  -2  -2   3   53.14    8.11
   2   2  -3   49.64    7.91
  -2  -2   3   34.98    9.04
   2  -2  -3   84.62   14.70
  -2  -2   3   56.92   10.92
   2   1   3   -4.64    3.29
   0   6   2   59.07   11.91
   0   6   2   55.40    8.27
   0   6  -2   61.26    8.22
   0   6   2   55.46    7.75
   0   6   2   44.77    8.02
   0   6  -2   61.12   10.77
   0   6  -2   57.09    8.02
   0   6   2   47.13    9.14
   0  -6   2   50.51   11.82
   0  -6   2   58.01    8.66
   0  -6  -2   56.22   10.46
   0   6  -2   55.73    7.41
   0   6  -2   58.01   11.30
  -3   5  -1  378.42   30.27
  -3  -5  -1  425.49   34.85
   3  -5   1  441.54   38.33
  -3  -5  -1  376.77   32.51
   3  -5   1  389.78   33.84
  -3   5  -1  411.73   32.10
   3   5   1  429.85   35.62
  -3   5  -1  437.84   36.43
   3  -5   1  439.64   35.61
  -3   5  -1  435.53   33.83
   3  -5   1  401.37   32.00
   3   5   1  350.24   34.89
  -3  -5  -1  402.83   32.01
  -3  -5  -1  410.79   38.13
  -2  -5  -2  323.77   29.09
  -2  -5  -2  318.45   30.69
   2  -5   2  307.05   27.26
   2   5   2  320.15   27.56
  -2   5  -2  314.11   26.11
   2  -5   2  322.16   26.05
  -2   5  -2  319.30   25.78
   2   5   2  311.16   28.21
  -2   5  -2  265.67   24.79
   2  -5   2  306.44   28.90
  -2  -5  -2  298.73   25.43
  -2   5  -2  317.97   27.03
   2   5   2  308.26   26.62
   4  -3  -1  158.10   17.37
   4  -3  -1  144.72   15.32
   4   3  -1  153.47   18.10
   4  -3  -1  135.34   13.99
  -4   3   1  146.23   13.85
   4   3  -1  121.08   15.82
  -4  -3   1  160.74   15.58
   4   3  -1  143.23   14.87
  -4   3   1  125.49   13.43
  -4  -3   1  131.71   16.38
  -4  -3   1  141.27   15.35
   4  -3  -1  125.45   14.06
  -1  -7   1    5.01    8.09
   1  -7  -1    1.04    5.52
  -1   7   1   -0.05    5.69
  -1   7   1   -0.30    4.78
   1   7  -1   -0.89    4.86
   1   7  -1    2.54    6.01
   1  -7  -1   -0.61    4.46
  -1   7   1    1.19    4.34
   1  -7  -1   -0.12    4.15
   1   7  -1    0.09   10.26
  -1  -7   1    0.94    8.02
  -1  -7   1    1.77    4.71
  -1   7   1    0.50    5.70
   1  -7  -1    1.15    5.39
   1  -6  -2   33.55    6.02
  -1   6   2   29.72    7.19
  -1   6   2   31.68    6.11
   1  -6  -2   37.60    6.86
   1   6  -2   34.03    9.74
  -1  -6   2   33.02   10.72
  -1   6   2   32.35    9.33
  -1  -6   2   36.42    6.83
   1  -6  -2   46.48   11.24
   1   6  -2   35.29    6.44
   0   4  -3  129.61   15.95
   0   4   3  130.19   13.50
   0  -4  -3  120.92   12.49
   0   4  -3  140.25   16.46
   0  -4   3  138.49   16.91
   0   4  -3  136.12   14.41
   0   4  -3  141.60   13.57
   0   4   3  136.89   13.62
   0  -4  -3  112.93   13.90
   0   4   3  117.21   11.53
   0   4  -3  139.72   13.42
   0   4  -3  139.87   17.35
  -1   7  -1  460.95   39.17
  -1   7  -1  457.16   35.77
   1   7   1  452.20   35.73
   1  -7   1  407.51   37.40
   1  -7   1  504.29   43.54
   1   7   1  430.77   37.10
  -1  -7  -1  428.43   36.73
  -1   7  -1  448.20   36.76
   1   7   1  416.57   39.49
  -1   7  -1  421.83   33.47
   1  -7   1  424.33   33.31
   1  -7   1  495.61   39.09
   3  -4  -2    7.73    5.50
   3   4  -2    9.95    5.37
   3  -4  -2   11.69    6.08
  -3   4   2    9.31    5.43
  -3  -4   2   10.24    8.28
   3   4  -2    9.93    4.44
  -3  -4   2   10.35    5.56
  -3   4   2    9.98    4.79
   3  -4  -2   10.83    4.94
   3   4  -2    9.34    7.85
  -2  -2  -3  430.00   33.59
  -2   2  -3  423.28   34.20
  -2   2  -3  445.21   34.30
  -2  -2  -3  440.98   37.02
   2  -2   3  443.95   34.32
   2   2   3  447.31   37.91
  -2   2  -3  483.83   40.13
  -2  -2  -3  434.31   35.00
  -2   2  -3  477.60   40.66
   2  -2   3  469.90   40.02
   2   2   3  397.15   31.79
   2  -2   3  468.05   37.87
   1   6   2  475.57   37.95
  -1   6  -2  517.36   39.57
  -1  -6  -2  632.08   52.68
   1   6   2  523.16   45.49
   1   6   2  541.02   42.66
   1   6   2  552.57   48.18
  -1   6  -2  526.11   40.24
   1  -6   2  575.07   45.49
  -1  -6  -2  554.35   44.56
  -1   6  -2  552.93   44.03
   1  -6   2  524.05   39.89
   1  -6   2  476.02   40.62
  -1   6  -2  587.76   48.48
   1  -6   2  546.37   47.01
   4  -3   1   18.12    8.71
  -4  -3  -1   16.55    7.72
   4   3   1   16.01    5.81
  -4  -3  -1   19.21    6.22
  -4   3  -1   13.93    5.48
   4  -3   1   13.95    9.25
  -4   3  -1   16.96    5.27
   4   3   1   20.32    8.01
   4  -3   1   20.66    7.77
   4   3   1   18.76    7.97
   4   3   1   14.37    6.69
   4  -3   1   17.85    5.38
  -4  -3  -1   16.59    6.05
  -4   3  -1   19.61    6.32
  -1   4   3  503.78   39.57
   1   4  -3  686.35   51.75
   1   4  -3  752.72   60.19
   1   4  -3  643.34   51.27
  -1  -4   3  673.43   54.89
   1  -4  -3  629.52   48.86
   1   4  -3  661.94   52.86
  -1   4   3  626.31   46.97
  -1  -4   3  694.10   51.80
  -2   3   3  473.89   36.38
   2   3  -3  630.20   51.45
  -2  -3   3  497.23   42.45
  -2   3   3  439.74   39.85
   2  -3  -3  391.27   33.32
   2  -3  -3  442.21   34.56
   2  -3  -3  917.54   75.10
   2   3  -3  479.51   38.53
  -2  -3   3  506.36   39.10
  -2  -3   3  454.07   39.48
   4   0  -2   35.72    6.92
   4   0  -2   38.47    7.18
   4   0  -2   40.51   10.42
  -4   0   2   38.88    6.95
  -4   0   2   34.04    7.35
  -4   0   2   37.02    8.71
  -4   4   0  173.11   16.44
   4  -4   0  170.61   18.47
   4  -4   0  160.52   14.86
   4  -4   0  149.68   14.76
   4  -4   0  165.41   15.42
   4   4   0  156.08   17.14
  -4  -4   0  138.11   16.65
   4   4   0  140.57   14.84
  -4  -4   0  155.81   15.77
  -4   4   0  129.94   16.60
   4   4   0  149.33   15.96
  -4   4   0  158.10   15.08
   3   4   2   51.75    7.87
   3   4   2   59.21    9.95
   3   4   2   49.37    8.29
  -3   4  -2   50.31    8.22
  -3  -4  -2   48.84    7.69
  -3   4  -2   49.78    7.16
   3  -4   2   49.34    7.23
   3  -4   2   48.45    9.62
  -3  -4  -2   54.08    8.99
  -3  -4  -2   53.16   12.61
  -3  -4  -2   50.38    8.22
   3  -4   2   54.40    9.96
  -3   4  -2   50.78    7.41
  -2   7   0  219.69   18.91
  -2  -7   0  240.46   24.21
   2  -7   0  229.19   23.39
  -2   7   0  229.67   22.04
   2  -7   0  219.92   19.10
  -2  -7   0  240.61   21.99
  -2  -7   0  153.15   24.67
   2   7   0  212.68   19.72
   2  -7   0  257.21   22.35
  -2   7   0  191.37   18.34
  -1   4  -3   28.19    5.68
   1   4   3   28.86    5.78
  -1   4  -3   32.28    8.71
   1   4   3   28.63    7.24
   1  -4   3   32.15    9.37
  -1  -4  -3   34.62   10.86
   1   4   3   29.26    8.42
  -1  -4  -3   27.50    6.24
   1  -4   3   27.33    8.68
  -1  -4  -3   26.25    5.84
   1  -4   3   30.91    7.50
  -1   4  -3   27.75    5.76
  -1   4  -3   25.71    6.47
  -1   4  -3   31.70    9.25
   1   4   3   26.83    5.75
   4  -1  -2    1.78    7.36
   4   1  -2   -2.52    6.88
  -4   1   2    0.48    4.45
   4   1  -2   -0.13    4.88
   4  -1  -2    0.69    4.28
  -4  -1   2   -0.24    5.18
  -4   1   2    1.71    5.23
  -4  -1   2   -0.30    5.22
   4  -1  -2    1.27   16.47
   4  -1  -2    2.15    5.58
   4   1  -2    1.17    4.46
  -4  -1   2   -0.08    6.05
   3   6   0  102.60   13.06
  -3  -6   0   85.83   13.05
   3   6   0   77.78   10.02
  -3  -6   0  111.93   16.75
   3  -6   0  108.53   11.80
   3  -6   0   94.41   10.20
  -3   6   0   86.84   10.98
  -3   6   0  113.17   13.53
   3  -6   0   89.56   12.45
  -3   6   0  108.28   11.60
  -3  -6   0   88.40   10.82
   2  -3   3   38.52    6.36
   2   3   3   33.71    8.23
   2  -3   3   34.87    8.60
  -2  -3  -3   37.27    6.26
  -2  -3  -3   35.94    6.42
  -2  -3  -3   37.72    6.86
  -2  -3  -3   26.55    9.39
   2   3   3   33.80    6.91
  -2   3  -3   37.30    9.11
   2   3   3   39.97    7.72
  -2   3  -3   36.62    6.02
  -2   3  -3   36.39    7.56
   2  -3   3   37.17    9.28
   2  -3   3   41.96    8.56
  -2   3  -3   35.12    8.94
   3   0  -3    1.48    7.08
   3   0  -3   -0.54    4.46
  -3   0   3    0.19    5.51
  -3   0   3   -0.56    4.47
   3   0  -3   -0.03    4.19
   3   0  -3    3.51    9.09
   4   4  -1  510.10   43.95
   4   4  -1  451.06   36.39
  -4  -4   1  412.16   36.52
  -4   4   1  825.01   64.70
   4  -4  -1  444.60   43.23
   4   4  -1  422.51   46.48
   4  -4  -1  442.35   38.53
  -4  -4   1  530.03   41.22
  -4   4   1  514.74   39.27
  -4  -4   1  423.62   37.10
   4  -4  -1  449.38   39.81
  -4  -2   2   21.04    6.20
   4  -2  -2   19.76    5.85
   4  -2  -2   20.80    5.87
   4   2  -2   23.99    5.97
  -4  -2   2   22.21    8.25
  -4   2   2   18.45    6.07
   4  -2  -2   21.82    7.59
   4   2  -2   19.62    6.12
  -4  -2   2   26.28    6.45
   4  -2  -2   23.29    6.79
   4   2  -2   24.37    8.60
  -4   2   2   22.70    5.89
  -4   0  -2  528.56   42.78
   4   0   2  576.75   49.75
  -4   0  -2  611.41   46.82
  -4   0  -2  587.68   44.73
   4   0   2  444.75   36.54
   4   0   2  565.98   44.02
  -3   1   3  230.94   19.63
   3  -1  -3  289.88   26.68
  -3  -1   3  184.06   19.43
   3  -1  -3  214.44   21.22
   3   1  -3  235.53   21.02
   3   1  -3  252.35   25.54
   3   1  -3  228.78   20.95
  -3  -1   3  237.67   20.77
   3  -1  -3  214.72   18.77
  -3   1   3  186.68   19.13
  -3  -1   3  195.14   19.87
   3  -1  -3  216.66   19.94
  -2  -6   2 1117.36   93.86
   2  -6  -2 1407.06  106.33
   2  -6  -2 1495.95  108.83
  -2   6   2 1213.63   98.09
  -2   6   2 1727.36  125.06
  -2   6   2 1589.80  114.46
   2   6  -2 1649.85  126.33
   2  -6  -2 1455.41  131.48
   2  -6  -2 1495.44  113.58
  -2  -6   2 1679.47  120.48
   2  -7  -1  378.37   30.61
  -2   7   1  381.49   30.06
   2   7  -1  360.34   35.42
  -2  -7   1  397.68   31.47
  -2   7   1  401.52   33.76
  -2   7   1  405.52   32.29
   2  -7  -1  389.80   31.82
  -2  -7   1  361.31   30.90
   2  -7  -1  390.36   34.76
  -2   7   1  455.12   40.29
  -2  -7   1  353.35   31.71
   2  -7  -1  359.74   31.37
   3  -6  -1 2000.90  143.34
   3   6  -1 2048.83  152.45
   3  -6  -1 1816.37  142.45
   3  -6  -1 1817.78  134.14
  -3   6   1 1985.83  142.74
   3  -6  -1 1849.03  133.21
  -3  -6   1 1755.59  138.14
  -3   6   1 2014.90  143.91
   3   6  -1 1778.14  156.75
  -3   6   1 2051.71  147.27
  -3  -6   1 1955.14  139.85
  -3  -6   1 1705.33  125.59
  -3   6   1 1548.55  147.76
   0  -8   0 2462.41  176.39
   0   8   0 2400.47  177.56
   0  -8   0 2576.85  194.48
   0   8   0 2399.32  175.44
   0   8   0 2755.02  195.87
  -4  -1  -2  158.94   15.44
   4   1   2  145.52   16.91
   4  -1   2  148.89   14.20
  -4  -1  -2  147.11   15.37
  -4   1  -2  158.82   15.54
   4   1   2  122.94   14.20
   4   1   2  161.69   16.64
   4   1   2  156.86   15.58
  -4  -1  -2  164.97   16.05
   4  -1   2  144.54   15.43
   4  -1   2  151.52   17.79
  -4  -1  -2  153.76   15.72
  -4   1  -2  150.74   14.09
  -4   4  -1  121.29   13.38
  -4  -4  -1  111.40   14.50
   4  -4   1  119.15   15.25
   4   4   1  129.11   15.28
  -4   4  -1  114.35   11.83
   4   4   1  115.35   13.76
  -4  -4  -1  110.40   12.36
   4  -4   1  136.05   15.02
  -4   4  -1  130.67   13.95
   4  -4   1  127.17   15.37
   4  -4   1  124.58   12.68
   4   4   1  120.87   14.12
  -4  -4  -1  132.34   13.83
  -4   4  -1  126.86   12.55
   2  -7   1 2177.87  149.37
  -2  -7  -1 2421.05  161.88
   2   7   1 2501.45  184.66
  -2  -7  -1 2289.26  149.85
   2   7   1 2156.79  155.50
  -2   7  -1 2160.05  164.16
   2  -7   1 2347.42  153.73
  -2   7  -1 2247.05  148.93
  -2   7  -1 2493.76  161.19
   2   7   1 2567.06  175.56
  -2  -7  -1 1848.28  140.19
   2  -7   1 2549.61  185.89
   2  -7   1 2464.63  160.28
  -2   7  -1 2288.66  150.59
   0   5   3   32.41    8.99
   0  -5  -3   55.71   11.48
   0   5   3   50.41    8.28
   0  -5  -3   47.03    7.27
   0   5   3   47.44    7.18
   0  -5   3   51.76   10.90
   0   5  -3   52.90    7.29
   0   5  -3   51.06   10.35
   0   5  -3   51.86    7.31
   0   5  -3   52.15   11.17
   0   5  -3   47.48    7.95
   0   5  -3   43.71   10.10
   0   5   3   48.00    7.03
  -3  -6  -1  489.37   36.83
   3   6   1  508.92   38.53
  -3   6  -1  452.94   33.00
   3  -6   1  532.56   41.76
  -3  -6  -1  447.72   36.17
   3  -6   1  419.64   34.25
  -3   6  -1  490.21   37.38
  -3  -6  -1  457.75   38.39
  -3   6  -1  501.47   35.50
   3  -6   1  467.35   33.37
  -3   6  -1  481.27   34.58
   3  -6   1  505.03   36.98
   3   6   1  430.95   33.94
  -3  -6  -1  458.68   33.19
   2  -4  -3  144.56   12.91
   2   4  -3  147.92   14.72
  -2   4   3  149.52   13.11
   2   4  -3  156.88   14.62
   2   4  -3  143.03   16.09
   2  -4  -3  145.01   15.16
  -2  -4   3  157.58   18.04
  -2   4   3  146.62   16.96
  -2  -4   3  165.58   14.57
   3   5  -2  812.35   60.42
   3  -5  -2  767.76   56.20
  -3   5   2  678.93   46.92
   3  -5  -2  788.49   61.15
  -3   5   2  796.27   53.95
   3   5  -2  768.93   54.71
  -3  -5   2  811.56   55.57
   3   5  -2  698.88   53.27
  -3  -5   2 1250.62   90.15
   3  -5  -2  729.35   53.62
  -3  -5   2  545.65   43.82
  -2   6  -2  337.55   25.10
  -2  -6  -2  322.48   24.44
   2   6   2  363.69   35.29
   2  -6   2  316.16   26.88
  -2  -6  -2  336.83   29.22
  -2   6  -2  338.44   25.85
   2  -6   2  346.00   31.23
   2   6   2  304.94   27.47
   2  -6   2  353.94   26.41
  -2   6  -2  345.88   28.55
   2  -6   2  264.45   26.80
  -2   6  -2  328.74   24.80
  -2  -6  -2  337.71   30.24
   2   6   2  321.97   27.11
  -3   2   3 1465.42   99.88
  -3  -2   3 1827.56  120.26
   3  -2  -3 1405.77   96.36
   3   2  -3 1875.32  127.11
  -3   2   3 1840.97  120.93
   3   2  -3 1607.23  116.75
   3  -2  -3 1668.16  109.88
   3   2  -3 1753.28  116.98
  -3  -2   3 1567.17  106.28
   3  -2  -3 1435.64   95.92
   3  -2  -3 1701.90  113.24
  -1   8   0  555.56   42.45
  -1  -8   0  428.81   33.10
   1  -8   0  579.46   42.85
  -1   8   0  589.93   41.25
  -1  -8   0 1046.34   78.37
   1  -8   0  561.27   40.05
  -1   8   0  550.25   42.93
   1   8   0  557.09   44.52
   3   0   3    0.07    3.86
  -3   0  -3    1.35    4.05
  -3   0  -3   -0.55    4.36
   3   0   3    0.77    6.72
  -3   0  -3   -0.46    5.64
   3   0   3   -1.95    6.15
  -3   0  -3   -0.37    4.65
  -3   0  -3    0.36    4.57
   0   7  -2 1948.68  133.73
   0   7   2 1612.56  113.54
   0   7   2 1756.38  120.85
   0  -7  -2 1662.18  111.57
   0   7  -2 1955.84  128.96
   0  -7   2 1787.91  118.85
   0   7  -2 1917.48  127.42
   0   7  -2 1916.09  126.52
   0   7   2 1586.96  113.59
   0   7  -2 1826.23  123.71
   0  -7   2 1664.03  115.96
   0   7   2 1740.28  114.35
   4   2   2  113.00   13.00
   4  -2   2  121.88   13.82
  -4   2  -2  100.50   11.23
  -4  -2  -2  118.10   11.98
   4   2   2  109.17   11.73
  -4   2  -2  128.12   12.03
   4  -2   2  121.21   11.73
   4   2   2  110.66   11.77
  -4  -2  -2  114.12   12.67
  -4   2  -2  118.10   12.53
   4   2   2  112.77   13.99
   4  -2   2  110.39   14.03
  -4  -2  -2  114.82   12.56
   1  -5  -3  197.42   19.46
   1   5  -3  262.52   24.69
   1   5  -3  244.90   22.97
  -1   5   3  233.66   18.56
   1  -5  -3  233.87   19.23
  -1  -5   3  257.66   20.10
   1   5  -3  256.63   20.51
   1   5  -3  236.02   20.22
  -1  -5   3  245.06   23.88
   5   0   0  155.58   17.09
  -5   0   0  140.30   14.36
   5   0   0  133.57   15.10
   5   0   0  161.54   15.67
  -5   0   0  157.58   16.85
  -3  -1  -3  658.46   46.59
  -3   1  -3  751.57   52.26
   3   1   3  681.32   47.90
  -3  -1  -3  636.61   43.78
  -3   1  -3  689.78   48.76
   3  -1   3  699.92   48.10
   3   1   3  630.13   46.91
   3  -1   3  708.61   50.47
   3  -1   3  672.42   50.61
  -3   1  -3  745.00   53.33
  -3   1  -3  660.47   45.35
  -3   1  -3  686.72   51.21
  -3  -1  -3  680.90   47.67
   3   1   3  667.12   47.08
  -4  -3   2    5.61    8.61
   4  -3  -2    6.18    6.22
   4   3  -2    2.56    5.69
   4   3  -2    5.09    4.59
  -4  -3   2    8.20    5.70
  -4   3   2    5.88    5.21
   4   3  -2    6.25    7.59
   4  -3  -2    4.78    5.69
   4  -3  -2    7.08    6.11
   4  -3  -2    6.57    4.85
  -4   3   2    6.46    4.56
  -4  -3   2    3.94    5.36
   4  -3  -2    5.25    5.50
   4   5   0  132.33   13.99
   4   5   0  146.89   15.65
   4  -5   0  112.31   11.55
   4  -5   0  149.30   13.96
   4  -5   0  137.15   15.64
  -4  -5   0  143.92   17.08
  -4   5   0  145.69   13.50
  -4   5   0  157.49   14.88
   4   5   0  133.41   14.04
  -4  -5   0  134.24   13.95
   4  -5   0  148.18   13.28
  -4   5   0  132.09   13.77
   5  -1   0   65.02   10.37
  -5  -1   0   66.87    9.33
  -5  -1   0   79.93   12.56
   5  -1   0   56.65    8.27
   5   1   0   47.39   13.22
  -5   1   0   68.73    9.27
   5   1   0   70.47   10.41
   5   1   0   78.85   12.35
   5   1   0   71.67    9.99
   5  -1   0   70.48    9.65
   5  -1   0   17.17   15.89
   0   8  -1  544.73   45.45
   0  -8  -1  565.50   42.88
   0  -8   1  639.40   49.46
   0  -8   1  601.22   43.24
   0   8   1  569.32   40.52
   0   8  -1  598.10   45.82
   0   8   1  509.79   36.35
   0   8   1  587.78   45.39
   0   8   1  577.90   44.98
   0   8  -1  549.17   42.71
   0  -8  -1  949.05   70.49
   0   8  -1  616.36   43.31
   0   8   1  555.13   42.97
   0   8  -1  435.06   35.81
  -2  -4  -3  241.28   21.16
   2  -4   3  266.55   24.53
  -2   4  -3  253.12   23.51
  -2  -4  -3  233.05   19.47
   2   4   3  279.99   22.91
   2  -4   3  230.63   22.13
   2   4   3  239.12   21.99
  -2   4  -3  268.05   23.94
  -2   4  -3  255.59   21.64
   2  -4   3  254.53   21.56
  -2  -4  -3  245.92   19.44
   2   4   3  243.10   21.08
  -2   4  -3  247.41   19.22
   2  -4   3  252.74   19.77
  -2  -4  -3  254.21   24.96
  -3  -5  -2 1887.44  128.84
   3   5   2 1711.69  161.27
  -3  -5  -2 1849.53  121.08
  -3  -5  -2 1807.59  122.81
  -3   5  -2 2130.76  138.56
   3  -5   2 1979.09  128.65
  -3   5  -2 1784.80  119.59
  -3   5  -2 2006.69  130.85
  -3  -5  -2 2077.67  137.78
  -3   5  -2 1955.48  128.69
   3   5   2 2025.41  136.51
   3  -5   2 1904.45  126.86
   3   5   2 1871.05  123.20
   1   5   3  170.52   20.52
   1  -5   3  194.20   19.86
  -1   5  -3  191.21   15.73
   1  -5   3  204.98   18.60
  -1   5  -3  199.98   20.33
  -1  -5  -3  212.65   22.47
   1  -5   3  169.34   17.92
  -1   5  -3  193.52   17.62
   1   5   3  168.86   14.81
  -1   5  -3  199.56   20.45
   1   5   3  162.64   19.26
   1   5   3  170.89   14.80
   1   5   3  200.38   18.85
  -1  -5  -3  149.13   14.29
  -1   5  -3  197.47   16.57
   1   7  -2   18.34    5.49
  -1   7   2   17.32    5.27
   1  -7  -2   19.74    5.41
  -1   7   2   18.04    5.65
  -1   7   2   21.23    6.97
   1   7  -2   21.27    8.18
  -1  -7   2   19.28   10.10
   1  -7  -2   27.09   10.92
  -1  -7   2   17.84    5.27
  -1   7   2   16.53    8.31
   1  -7  -2   18.67    5.94
  -1   7  -2  253.30   21.23
   1   7   2  234.95   18.94
  -1   7  -2  280.22   25.40
   1   7   2  247.23   25.41
   1  -7   2  232.53   24.88
  -1   7  -2  241.57   19.01
  -1  -7  -2  232.33   22.72
   1   7   2  237.62   19.22
  -1  -7  -2  268.53   24.96
   1   7   2  238.32   19.23
   1  -7   2  262.02   22.87
  -1   7  -2  252.34   20.23
  -1   7  -2  260.30   20.40
   5   0  -1   -1.10    4.88
  -5   0   1   -0.89    6.11
   5   0  -1    2.72    7.19
   5   0  -1    0.25    4.72
  -5   0   1    3.35    6.45
  -5   0   1    0.20    5.37
   1  -8  -1  710.43   51.38
   1   8  -1  687.93   48.46
  -1   8   1  604.05   46.61
   1   8  -1  616.89   47.86
  -1   8   1  669.67   46.28
   1   8  -1  599.28   53.48
   1  -8  -1  622.49   44.82
  -1   8   1  697.97   47.88
  -1  -8   1  698.58   49.09
   1  -8  -1  648.09   46.09
  -1   8   1  672.18   49.95
  -1  -8   1  685.50   57.30
  -3  -2  -3   93.77   10.56
  -3   2  -3   83.83    9.50
   3  -2   3   96.66   12.11
  -3   2  -3   94.71   11.08
  -3  -2  -3   89.92   10.21
  -3   2  -3   98.94   12.70
   3  -2   3   93.90    9.57
   3  -2   3   97.56   13.26
   3   2   3   95.00   10.73
  -3   2  -3   98.19   10.09
   3   2   3   89.71   12.63
  -3  -2  -3   84.16    9.08
   3   2   3   92.66   10.81
  -3   2  -3   91.94   12.69
  -3   3   3  517.65   41.24
   3   3  -3  284.68   24.04
  -3  -3   3  304.17   23.91
  -3  -3   3  302.85   26.67
   3  -3  -3  304.15   24.55
   3   3  -3  283.99   25.68
   3   3  -3  315.68   25.96
   3  -3  -3  286.23   22.07
   3  -3  -3  288.33   23.28
  -3   3   3  296.35   22.75
  -3   3   3  224.82   20.75
   5  -2   0   14.03    5.24
   5  -2   0   12.63    5.48
  -5   2   0   14.30    6.38
   5  -2   0   13.56    7.02
   5   2   0   20.39    6.81
  -5  -2   0   14.76    6.33
   5   2   0   11.94    6.21
   5   2   0   15.16    7.70
   5  -2   0   13.95    7.43
  -5  -2   0   12.27    7.21
  -1   8  -1  826.94   58.81
  -1   8  -1  810.48   59.78
   1  -8   1 1008.61   72.58
  -1   8  -1  913.17   65.61
  -1   8  -1  906.52   61.36
   1   8   1  869.49   66.75
   1  -8   1  967.09   66.30
  -1  -8  -1  774.67   56.11
   1   8   1  794.09   55.56
   1   8   1  826.35   58.06
  -5   1   1  881.63   66.18
   5   1  -1  872.18   63.92
   5  -1  -1  987.19   71.15
  -5  -1   1  902.38   65.28
   5  -1  -1  697.40   53.36
   5  -1  -1  893.03   62.41
   5  -1  -1  935.16   69.71
  -5  -1   1  870.81   64.09
   5   1  -1  824.16   58.31
  -5  -1   1 1010.96   68.11
  -5   1   1  968.05   65.07
   5   1  -1  637.66   83.64
  -4   5   1   48.93    7.06
   4   5  -1   58.71   10.96
   4   5  -1   46.25    7.85
  -4  -5   1   39.99    8.18
   4  -5  -1   51.37    7.75
   4  -5  -1   46.56    9.25
  -4   5   1   56.10    7.49
   4  -5  -1   49.12    7.73
  -4   5   1   58.99    8.49
  -4  -5   1   45.32   10.13
  -4  -5   1   61.16    8.91
   4  -5  -1   56.29    8.28
   4   5  -1   45.87    8.09
   0   0   4  936.13   69.43
   0   0  -4  776.40   53.54
   0   0  -4  827.25   58.92
   0   0  -4  879.87   63.33
   0   0  -4 1023.28   73.53
  -4  -3  -2  680.16   49.24
  -4  -3  -2  705.71   49.11
   4   3   2  628.69   49.03
  -4  -3  -2  671.07   50.45
   4   3   2  663.52   49.08
   4  -3   2  555.53   42.48
   4  -3   2  732.78   52.50
  -4   3  -2  718.20   48.90
   4   3   2  659.31   54.43
   4   3   2  611.81   50.98
   4  -3   2  702.65   49.18
  -4   3  -2  650.65   46.52
   0  -1  -4  509.16   37.49
   0   1  -4  588.78   44.78
   0  -1   4  640.06   51.23
   0   1  -4  566.21   43.80
   0  -1  -4  474.47   36.64
   0  -1  -4  676.34   51.64
   0  -1  -4  601.79   46.00
   0   1  -4  638.54   49.13
   0   1   4  535.28   48.00
  -5   0  -1   -0.16    6.35
   5   0   1    0.93    6.10
   5   0   1    3.87    6.26
   5   0   1   -0.02    6.11
   5   0   1   -1.87    4.84
  -5   0  -1    0.18    5.67
  -5   0  -1    1.16    4.89
   3  -7   0   31.36    6.78
  -3   7   0   32.15    6.39
  -3  -7   0   24.82    8.62
  -3   7   0   24.15    6.62
   3  -7   0   30.86    5.96
  -3  -7   0   27.32    6.39
   3  -7   0   29.42    8.30
   3   7   0   27.73    7.06
  -3  -7   0   30.40    9.09
  -3   7   0   31.75    8.32
   3   7   0   27.90    8.29
   1   0  -4  146.86   16.84
  -1   0   4  148.83   15.12
  -1   0   4  134.56   16.64
   1   0  -4  170.71   18.71
   1   0  -4  158.45   16.39
   1   0  -4  129.59   12.76
   1   0  -4  140.55   15.52
  -4  -5  -1   -0.64    5.59
   4   5   1    1.04    5.59
  -4   5  -1   -0.47    4.55
   4  -5   1    1.09    6.24
   4   5   1    0.76    7.05
  -4   5  -1   -0.18    4.50
  -4  -5  -1   -1.52    5.54
  -4   5  -1   -0.27    6.25
   4  -5   1   -1.49    6.12
  -4   5  -1    1.38    4.38
   4  -5   1   12.00    7.29
  -4  -5  -1   -1.84    6.62
   4  -5   1    1.20    4.10
   4   5   1    0.73    5.81
  -5   1  -1  231.48   18.56
  -5  -1  -1  244.75   19.81
  -5  -1  -1  187.38   17.50
   5   1   1  212.23   19.23
  -5  -1  -1  188.09   19.31
   5  -1   1  167.22   18.96
   5  -1   1  187.18   17.67
   5   1   1  201.07   18.96
   5  -1   1  185.17   18.13
  -5   1  -1  199.43   17.87
   5   1   1  207.07   23.38
   5  -1   1  202.68   22.55
   5   1   1  152.90   16.16
   1  -1  -4   23.75    5.45
  -1   1   4   27.19    9.07
   1   1  -4   56.75   13.52
   1  -1  -4   25.38    7.64
   1   1  -4   26.18    5.25
   1   1  -4   33.49    9.81
  -1  -1   4   28.16    5.64
   1   1  -4   31.14    8.69
  -1  -1   4   25.28    9.12
  -1   1   4   26.22    6.61
   1  -1  -4   24.68    8.27
   1  -1  -4   29.14    9.37
   1   1  -4   35.86    9.67
   1  -1  -4   22.55    5.72
   5   2  -1  409.47   33.54
   5  -2  -1  345.42   29.02
   5  -2  -1  402.64   34.18
   5  -2  -1  384.21   32.81
  -5   2   1  456.15   32.82
   5   2  -1  396.73   30.27
   5  -2  -1  456.89   37.10
  -5  -2   1  366.24   29.94
  -5   2   1  400.72   31.74
  -5  -2   1  457.84   33.30
   5   2  -1  329.61   33.42
  -5  -2   1  409.57   34.60
   5  -2  -1  406.95   29.60
  -2   5   3  181.55   15.73
   2   5  -3  199.34   17.78
   2  -5  -3  212.20   20.76
   2   5  -3  221.35   18.57
  -2  -5   3  225.01   18.22
  -2   5   3  209.47   17.03
   2  -5  -3  207.43   17.29
  -2  -5   3  245.27   25.37
  -2  -5   3  221.23   22.72
   2  -5  -3  214.94   18.85
   2   5  -3  230.08   22.09
  -2   8   0    2.05    4.78
   2  -8   0    3.16    4.68
   2  -8   0    2.44    6.81
  -2  -8   0    1.89    6.50
  -2   8   0    1.04    6.54
  -2   8   0    2.26    5.79
  -2  -8   0    6.58    5.94
   2  -8   0    2.95    5.85
   2   8   0    4.39    6.48
   4  -4  -2   21.32    6.75
  -4   4   2   44.36   13.14
   4   4  -2   26.43    8.96
  -4  -4   2   19.87    9.16
   4   4  -2   18.28    5.59
  -4  -4   2   20.60    6.64
  -4   4   2   18.66    6.85
  -4  -4   2   27.49    6.60
   4  -4  -2   21.18    5.70
  -4   4   2   21.07    5.66
   4  -4  -2   21.31    6.88
   4   4  -2   22.15    6.41
   1   0   4 2568.75  169.91
  -1   0  -4 2674.41  177.32
  -1   0  -4 2856.30  188.18
  -1   0  -4 2986.86  200.09
  -1   0  -4 2463.95  162.24
  -1   0  -4 2438.34  158.17
   0  -2  -4 1048.86   79.89
   0   2   4 2093.79  146.08
   0   2  -4 1109.44   78.02
   0  -2  -4 1081.47   77.52
   0   2  -4  984.18   67.41
   0   2   4 1028.71   69.56
   0   2  -4 1032.56   71.51
   0   2  -4 1206.95   85.48
   0   2   4  965.68   70.56
   0   2   4 1019.78   71.30
   0   2  -4 1147.18   80.58
   0   2  -4 1123.90   77.31
   0  -2  -4 1291.48   90.49
   3  -3   3  204.12   16.73
  -3  -3  -3  219.01   18.60
   3  -3   3  201.24   18.64
  -3   3  -3  201.64   18.20
   3   3   3  194.09   18.97
  -3  -3  -3  199.50   17.05
  -3   3  -3  200.82   16.25
   3  -3   3  207.05   21.01
   3   3   3  186.41   17.51
  -3   3  -3  454.66   39.74
   3   3   3  206.05   18.42
  -3  -3  -3  197.45   16.57
  -3   3  -3  220.90   20.53
  -3   3  -3  188.27   19.22
  -3  -3  -3  190.72   21.41
  -3  -3  -3  213.87   19.69
  -5  -3   0  650.31   46.42
   5   3   0  756.57   57.54
   5  -3   0  725.47   67.40
  -5  -3   0  741.33   53.39
   5   3   0  715.33   50.61
   5  -3   0  786.37   54.58
  -5  -3   0  676.59   52.05
   5   3   0  846.95   61.84
   5  -3   0  864.68   62.55
   0   6  -3   13.08    8.05
   0  -6   3   13.70    8.19
   0   6  -3   15.03    5.80
   0   6   3   11.91    5.07
   0  -6  -3   11.11    7.45
   0   6   3    9.92    7.65
   0   6  -3   11.00    7.75
   0   6  -3   14.93    5.43
   0  -6  -3   10.68    5.41
   0   6   3   12.89    4.90
   0   6   3   12.88    6.17
  -1  -1  -4 1083.79   73.60
   1  -1   4  965.92   68.91
  -1   1  -4 1108.46   77.33
  -1  -1  -4 1059.49   75.49
   1   1   4 1011.20   71.77
  -1  -1  -4 1097.79   76.60
  -1   1  -4 1105.56   75.70
  -1   1  -4 1024.68   69.38
  -1  -1  -4  874.97   61.54
  -1   1  -4 1049.48   74.05
  -1   1  -4 1040.86   74.57
   3  -6  -2  299.15   27.01
  -3   6   2  316.01   24.40
  -3   6   2  266.75   25.07
  -3   6   2  341.35   25.41
   3  -6  -2  296.60   24.94
   3  -6  -2  318.63   27.07
  -3  -6   2  350.99   26.44
   3   6  -2  319.07   28.02
   3  -6  -2  350.13   27.71
  -3  -6   2  340.62   30.31
   3   6  -2  314.62   26.11
   3   6  -2  260.96   23.54
   2  -7  -2 1070.48   76.18
  -2   7   2 1075.79   73.86
   2  -7  -2 1010.13   68.90
  -2  -7   2  925.55   67.81
  -2   7   2 1168.90   78.85
   2  -7  -2  927.71   74.55
   2   7  -2 1105.96   78.84
  -2   7   2 1019.42   68.42
   2  -7  -2 1051.58   70.96
  -2  -7   2 1121.62   74.70
  -2   7   2  806.52   69.00
  -3   7   1  129.45   14.66
  -3  -7   1  151.29   17.94
  -3  -7   1  160.60   14.54
  -3   7   1  166.23   14.59
   3  -7  -1  148.93   13.98
   3  -7  -1  144.22   16.00
   3   7  -1  151.98   17.90
   3   7  -1  153.13   16.03
  -3  -7   1  134.89   17.48
  -3   7   1  160.47   15.31
  -3  -7   1  145.90   15.08
   3  -7  -1  140.58   13.57
   3  -7  -1  166.15   15.17
  -3   7   1  177.64   16.22
   5   2   1 1043.42   78.84
  -5  -2  -1 1374.91   91.01
  -5  -2  -1 1166.01   82.34
   5   2   1 1183.39   81.35
  -5   2  -1 1404.71   92.37
  -5  -2  -1 1088.35   76.74
   5  -2   1 1155.90   86.48
   5   2   1 1274.40   93.68
   5   2   1  903.63   66.03
   1  -2  -4  828.15   57.65
   1   2  -4  994.10   71.01
  -1  -2   4  730.26   57.26
  -1  -2   4  881.59   60.11
   1  -2  -4  866.99   62.69
   1  -2  -4  771.23   56.03
   1  -2  -4  936.97   66.95
   1   2  -4 1017.69   73.26
   1   2  -4  901.17   61.30
  -1   2   4  794.66   57.21
  -1  -2   4  956.32   70.28
   1   2  -4  995.88   71.39
   1  -2  -4  844.08   58.61
  -1   2   4  848.09   64.50
  -2  -5  -3   90.59    9.77
   2  -5   3  109.84   14.77
  -2   5  -3   98.81   13.55
   2  -5   3  112.03   12.56
   2   5   3  112.25   18.16
   2  -5   3  100.54   13.48
  -2   5  -3  106.80   12.08
  -2   5  -3  104.27   10.29
   2   5   3   97.95   11.63
  -2  -5  -3  116.36   16.10
   2   5   3  109.52   12.12
  -2   5  -3   93.80   12.46
   2  -5   3  112.41   11.06
  -2  -5  -3   97.83   10.27
   3  -4  -3  163.30   14.54
   3  -4  -3  190.97   18.01
   3  -4  -3  166.65   15.69
   3   4  -3  180.51   17.33
  -3  -4   3  188.01   16.35
  -3   4   3  180.84   15.19
  -3   4   3  148.11   16.11
  -3  -4   3  194.34   20.39
   3   4  -3  178.95   17.05
   1  -6  -3 2135.36  142.44
  -1   6   3 1919.72  127.73
  -1  -6   3 2367.30  152.93
  -1  -6   3 2271.37  153.35
   1   6  -3 2052.94  137.47
   1   6  -3 2580.91  171.65
   1   6  -3 2525.09  167.67
   1   6  -3 2387.62  159.50
   1  -6  -3 2269.88  150.97
  -1   6   3 1913.08  226.85
  -3  -7  -1  405.84   29.82
  -3   7  -1  442.88   34.52
   3  -7   1  488.82   39.06
  -3  -7  -1  414.13   35.38
  -3  -7  -1  374.21   34.16
  -3   7  -1  398.38   29.90
   3  -7   1  388.67   32.88
   3   7   1  444.77   34.19
  -3   7  -1  455.05   32.60
   3  -7   1  458.03   33.94
   3   7   1  394.79   36.21
  -3   7  -1  449.98   32.31
   3  -7   1  416.87   30.75
  -3  -7  -1  421.59   32.25
  -2  -8   1  254.12   20.24
   2  -8  -1  223.75   19.95
  -2   8   1  258.65   20.68
   2  -8  -1  258.30   21.60
  -2   8   1  232.82   18.60
   2  -8  -1  235.88   19.47
   2   8  -1  216.10   23.11
  -2   8   1  230.37   23.21
   2  -8  -1  257.58   24.40
  -2   8   1  259.59   22.97
  -2  -8   1  232.49   20.61
  -2  -8   1  250.52   23.45
   2  -7   2   10.63    7.49
   2  -7   2   10.72   10.17
   2  -7   2   14.43    8.31
  -2   7  -2   11.51    5.27
  -2  -7  -2   11.64    9.03
   2   7   2    6.84    9.97
   2   7   2    8.99    5.48
  -2  -7  -2   10.49    5.52
   2   7   2    7.38    5.41
  -2   7  -2   10.93    5.03
   2  -7   2   12.49    5.53
  -2   7  -2   14.53    7.17
  -2   7  -2   13.63    5.77
  -2  -7  -2    7.71    5.33
  -4  -6   0  330.80   26.90
   4  -6   0  395.11   29.61
   4   6   0  346.63   28.12
  -4   6   0  392.72   29.89
  -4   6   0  358.60   30.01
  -4  -6   0  359.88   31.48
   4   6   0  336.27   27.47
   4  -6   0  366.79   26.97
   4   6   0  357.81   27.70
   4  -6   0  313.55   24.89
  -4   6   0  399.72   29.80
   4  -6   0  360.75   31.28
   4   4   2 1326.18  102.10
   4  -4   2 1469.39   99.12
  -4  -4  -2 1352.46   92.47
   4   4   2 1297.94   88.44
   4  -4   2 1523.12  106.80
   4   4   2 1370.23  100.09
   4   4   2 1296.31   91.98
  -4  -4  -2 1339.71   89.02
   4  -4   2 1385.83   93.08
  -4   4  -2 1401.05   91.86
  -4   4  -2 1257.77   89.59
  -4  -4  -2 1304.15   96.52
  -4   4  -2 1450.79   95.20
  -1   2  -4  684.74   53.99
   1  -2   4  299.87   26.14
   1   2   4  289.95   25.80
  -1   2  -4  350.79   29.47
   1   2   4  364.46   33.72
  -1   2  -4  312.34   28.26
  -1  -2  -4  337.76   30.22
  -1   2  -4  283.57   22.53
   1   2   4  329.47   25.65
   1   2   4  290.70   22.68
  -1   2  -4  274.24   22.26
  -1   2  -4  340.99   27.27
  -1  -2  -4  327.86   27.56
  -1   2  -4  346.22   29.87
  -1  -2  -4  359.50   28.00
  -5  -3   1  293.99   23.08
   5   3  -1  278.82   25.60
   5   3  -1  242.20   20.65
  -5  -3   1  215.59   19.79
  -5   3   1  291.28   22.41
   5  -3  -1  241.33   23.03
   5  -3  -1  275.77   21.65
   5  -3  -1  263.56   23.64
   5  -3  -1  270.73   25.12
   5   3  -1  217.18   26.61
   5  -3  -1  236.92   24.45
  -5  -3   1  249.61   24.27
  -5   3   1  256.72   22.52
  -3   6  -2 1059.43   73.40
  -3   6  -2 1037.80   69.47
   3   6   2 1002.69   72.25
   3  -6   2  956.10   69.56
   3   6   2  991.02   68.67
  -3  -6  -2  942.23   63.69
  -3   6  -2 1100.57   73.66
   3  -6   2 1034.66   74.52
  -3  -6  -2 1026.64   70.68
   3  -6   2 1016.91   71.22
   3  -6   2  942.53   63.38
  -3   6  -2 1003.27   67.34
   3   6   2  909.19   68.67
  -3  -6  -2  963.87   70.10
  -3  -6  -2  911.25   63.26
   2   8   1  219.44   19.06
  -2   8  -1  231.22   18.65
  -2  -8  -1  242.66   19.58
   2  -8   1  284.07   26.61
  -2  -8  -1  235.80   20.59
   2   8   1  266.04   27.06
  -2  -8  -1  243.45   23.49
  -2   8  -1  232.09   20.47
   2   8   1  255.86   21.76
   2  -8   1  245.94   19.81
  -2   8  -1  239.78   21.64
  -2   8  -1  256.34   20.38
   2  -8   1  254.25   21.08
   2  -8   1  221.65   22.13
   1   6   3  478.53   39.00
  -1   6  -3  554.60   42.91
   1   6   3  559.00   45.10
  -1  -6  -3  633.30   49.39
   1   6   3  484.70   36.43
   1   6   3  513.92   40.91
  -1   6  -3  572.84   40.24
  -1  -6  -3  523.65   41.69
  -1   6  -3  525.81   36.92
   1   6   3  464.90   39.64
  -1   6  -3  567.52   40.97
   1  -6   3  563.97   41.22
   1  -6   3  548.97   42.99
   4   0  -3   -2.25    4.65
  -4   0   3   -0.77    4.98
  -4   0   3   -0.84    5.98
   4   0  -3    1.90    9.62
   4   0  -3   -0.46    7.93
   4   0  -3    1.31    5.98
   2   0  -4 3822.44  253.41
  -2   0   4 4054.83  234.64
   2   0  -4 4202.50  236.79
   2   0  -4 3641.61  235.30
  -2   0   4 4092.77  230.03
   0   3   4  352.09   30.05
   0   3  -4  236.10   20.98
   0   3   4  211.75   23.40
   0   3  -4  231.89   18.37
   0   3   4  218.39   17.54
   0  -3  -4  212.87   20.54
   0   3  -4  242.67   23.06
   0   3  -4  238.69   22.67
   0   3  -4  234.96   19.26
   0   3  -4  236.92   23.20
   0   3   4  216.37   17.93
   0  -3  -4  245.77   20.97
   0  -3   4  231.54   21.70
   0  -3  -4  268.78   25.72
   0  -9   0   -0.84    5.05
   0   9   0    0.69    6.39
   0   9   0    1.15    6.77
   0  -9   0    0.05    6.84
   0   9   0   -0.11    5.57
   4  -1  -3  134.38   18.32
   4   1  -3   85.77   13.56
   4  -1  -3   86.34   12.59
  -4  -1   3   80.48   12.16
  -4  -1   3   80.71   11.86
   4  -1  -3   99.54   12.05
   4   1  -3   92.70   11.44
   4   1  -3   90.99   10.71
  -4   1   3   85.51    9.54
   4  -1  -3   72.37    8.72
  -4  -1   3   95.23   10.58
  -4   1   3   83.19   12.14
   2  -1  -4   90.71   12.60
  -2  -1   4   93.18   10.66
   2   1  -4   91.30   12.76
  -2   1   4   89.80   13.84
   2   1  -4  138.94   18.02
   2   1  -4   91.64   13.99
  -2  -1   4   94.15   13.97
   2  -1  -4   81.54    9.02
  -2   1   4   89.47   10.04
   2   1  -4   83.49    9.13
   0   8  -2  394.71   28.37
   0   8   2  381.66   30.35
   0   8   2  393.56   31.86
   0   8   2  392.07   25.67
   0   8  -2  420.85   27.60
   0   8   2  357.97   27.57
   0   8  -2  420.20   31.74
   0   8  -2  425.78   29.34
   0  -8  -2  392.93   28.66
   0   8  -2  363.23   26.49
   0  -8   2  390.11   33.05
   0  -8   2  435.35   29.69
   5   3   1 1626.91  114.05
   5  -3   1 1524.86  104.63
  -5  -3  -1 2461.79  159.44
   5  -3   1 1923.48  131.93
   5   3   1 2254.78  151.25
  -5  -3  -1 1962.77  115.94
   5   3   1 2410.39  185.11
   5   3   1 2128.42  148.92
  -5  -3  -1 1995.26  134.61
   5  -3   1 2249.92  157.67
  -5   3  -1 2537.25  164.25
   5  -3   1 2445.31  161.47
  -5   3  -1 2426.73  158.00
   1  -3  -4  149.91   16.41
   1   3  -4  146.16   13.24
   1   3  -4  167.31   17.31
  -1  -3   4  173.92   19.97
  -1  -3   4  152.79   12.31
  -1   3   4  142.68   11.86
  -1   3   4  150.77   16.87
   1  -3  -4  159.71   15.54
  -1  -3   4  139.21   14.98
   1   3  -4  173.18   18.02
  -1   3   4  381.25   34.69
   1   3  -4  159.77   17.47
   1  -3  -4  136.11   14.86
   1  -3  -4  144.75   12.44
   4  -6  -1  653.37   43.97
  -4  -6   1  580.47   40.79
  -4  -6   1  593.31   43.46
   4  -6  -1  641.59   40.53
  -4   6   1  499.63   34.02
  -4  -6   1  671.14   41.21
   4   6  -1  603.10   43.44
   4  -6  -1  652.54   40.19
  -4   6   1  678.65   41.75
   4   6  -1  548.20   37.54
  -4   6   1  708.84   42.96
   4   6  -1  649.43   43.41
   4  -6  -1  634.51   44.45
  -4   6   1  623.46   38.48
   5   0  -2  273.89   20.42
  -5   0   2  244.07   20.53
  -5   0   2  228.20   19.94
   5   0  -2  240.50   22.77
  -5   0   2  291.46   20.65
   5   0  -2  283.59   24.55
   3  -4   3 1328.11   78.42
   3  -4   3 1304.16   74.62
  -3   4  -3 1423.77   85.16
   3  -4   3 1362.59   90.18
   3   4   3 1339.13   86.82
   3   4   3 1279.04   78.32
  -3  -4  -3 1385.91   85.64
  -3   4  -3 1300.14   73.97
  -3  -4  -3 1252.01   74.00
  -3   4  -3 1284.81   78.39
  -3  -4  -3 1258.77   72.41
  -3  -4  -3 1272.23   79.51
   3   4   3 1335.06   87.62
  -3   4  -3 1292.74   76.44
  -5  -4   0   25.74    6.42
   5  -4   0   30.48    7.39
   5  -4   0   37.06    6.72
   5  -4   0   39.17   10.25
  -5   4   0   42.61    7.76
   5  -4   0    2.48    5.61
   5   4   0   37.63    9.46
   5  -4   0   31.25    6.60
  -5  -4   0   30.07    7.01
   5   4   0   28.25    7.70
   5   4   0   28.76    7.22
  -5  -4   0   30.11    9.13
  -5  -1   2  291.76   23.20
  -5  -1   2  320.58   22.23
   5  -1  -2  235.86   19.26
   5  -1  -2  315.92   26.27
   5  -1  -2  271.82   19.50
  -5   1   2  228.32   19.11
  -5   1   2  297.37   20.56
   5   1  -2  292.26   20.91
  -5  -1   2  262.57   22.32
   5   1  -2  262.63   24.14
   5   1  -2  293.79   24.64
  -1  -9   0  390.54   28.28
   1   9   0  351.77   27.64
  -1   9   0  398.05   29.57
   1   9   0  393.28   31.31
  -1   9   0  339.06   25.93
  -1   9   0  414.44   27.03
  -1  -9   0  397.90   28.56
   1  -9   0  380.35   25.75
   1  -9   0  411.65   29.52
  -4   5   2   13.61    7.24
   4  -5  -2   12.62    6.79
   4  -5  -2    9.22    5.42
  -4   5   2    9.34    4.99
   4   5  -2   12.21    6.16
  -4  -5   2   12.70    8.86
   4  -5  -2   10.35    6.72
   4   5  -2    9.49    5.22
   4   5  -2   13.34    8.78
  -4  -5   2   14.96    6.58
   1  -8  -2  734.02   45.27
   1   8  -2  858.43   56.02
  -1   8   2  913.39   54.37
  -1  -8   2  855.70   57.78
  -1   8   2  781.10   60.35
   1  -8  -2  979.68   61.25
   1   8  -2  934.04   57.68
   1   8  -2  788.44   54.52
  -1   8   2  809.65   52.25
   1   8  -2  791.91   56.06
   1  -8  -2  813.78   49.44
  -1   8   2  831.44   49.60
  -4   2   3  190.84   14.80
   4  -2  -3  168.11   14.80
   4  -2  -3  148.28   13.64
  -4  -2   3  161.07   17.05
   4   2  -3  172.18   14.82
   4  -2  -3  187.84   17.12
   4   2  -3  170.40   16.55
   4  -2  -3  169.42   16.63
  -4  -2   3  162.80   16.34
  -4   2   3  161.09   15.93
  -4  -2   3  183.59   14.99
   4   2  -3  182.14   18.75
   2   2  -4   98.69   10.17
  -2   2   4   91.61    9.47
  -2   2   4   98.56   13.81
   2   2  -4  104.41   13.19
  -2  -2   4  106.28   10.49
  -2  -2   4   92.30   12.08
  -2  -2   4   99.23   14.13
   2   2  -4  109.11   14.57
   2  -2  -4   87.12    8.79
   2  -2  -4  103.67   13.48
   1  -3   4  701.73   46.05
  -1   3  -4  709.75   47.14
  -1  -3  -4  745.57   50.47
  -1   3  -4  698.28   47.70
   1   3   4  769.69   53.66
  -1   3  -4  731.72   44.09
  -1   3  -4  701.75   42.73
   1   3   4  676.87   41.06
  -1   3  -4  753.27   49.42
  -1  -3  -4  764.62   49.17
   1   3   4  774.30   47.73
   1   3   4  627.89   43.64
  -1   3  -4  765.40   49.71
  -1  -3  -4  705.83   46.79
   1   3   4  688.96   43.60
  -2   0  -4   40.96    6.91
  -2   0  -4   41.65    8.15
  -2   0  -4   42.65    9.26
   2   0   4   41.36    6.35
  -2   0  -4   31.03    7.20
  -2   0  -4   43.23   10.62
   2   0   4   42.15    9.54
  -2   0  -4   43.12    7.81
  -4   6  -1  555.59   38.25
  -4  -6  -1  531.39   36.32
  -4   6  -1  603.22   37.05
  -4   6  -1  613.19   38.13
   4  -6   1  540.25   38.07
   4  -6   1  570.98   40.67
   4   6   1  556.89   38.42
   4  -6   1  575.11   36.86
  -4  -6  -1  521.90   39.43
  -4   6  -1  628.87   40.41
   4   6   1  517.63   39.27
  -4  -6  -1  573.58   35.95
  -4  -6  -1  612.14   45.36
   4  -6   1  615.47   38.97
  -1  -8  -2   48.38   10.32
  -1   8  -2   49.87    7.64
   1   8   2   52.60    8.25
  -1   8  -2   52.15    8.12
  -1  -8  -2   48.78    8.33
  -1   8  -2   56.47   10.98
   1  -8   2   54.98   10.47
   1   8   2   47.94    7.69
  -1   8  -2   52.26    7.15
   1   8   2   47.03   11.15
   1   8   2   49.44    7.61
   1  -8   2   46.44   13.12
  -1   8  -2   55.77    8.31
   0   9  -1  570.33   57.46
   0   9   1  592.86   36.82
   0   9   1  565.15   40.04
   0   9  -1  500.82   34.73
   0  -9  -1  643.57   42.41
   0  -9   1  633.97   39.85
   0   9   1  608.66   37.58
   0   9  -1  600.34   38.65
   0   9   1  599.58   41.57
   0   9   1  620.48   39.43
   0  -9  -1  611.42   40.79
   0   9  -1  602.36   41.61
   0  -9   1  684.43   47.17
   0   9  -1  634.75   39.35
  -2   6   3   29.01    6.22
   2  -6  -3   28.67    6.77
   2   6  -3   30.69   10.04
  -2  -6   3   27.18   10.06
  -2  -6   3   32.09    6.33
   2  -6  -3   30.60    9.06
  -2   6   3   29.63    6.41
   2  -6  -3   30.53    7.88
   2  -6  -3   31.43    6.22
   2   6  -3   30.79    6.77
   2   6  -3   28.45    9.24
  -2   1  -4    9.08    4.71
  -2   1  -4   10.23    6.35
  -2   1  -4   10.60    7.28
  -2  -1  -4   13.40    7.55
  -2  -1  -4    9.79    6.87
  -2  -1  -4    9.64    8.92
  -2   1  -4   12.08    6.35
   2   1   4    8.01    7.71
   2  -1   4    8.44    4.18
   2   1   4    9.33    4.70
  -2   1  -4    7.50    4.78
  -2  -1  -4    7.60    4.45
  -2   1  -4    9.87    8.66
   2  -1   4    6.83    7.44
  -2  -1  -4   10.06    5.94
   5  -4  -1 1113.50   85.20
  -5  -4   1 1006.90   66.02
  -5  -4   1 1217.79   70.56
   5  -4  -1  993.99   75.46
   5   4  -1  929.84   56.99
   5  -4  -1  989.97   72.67
  -5  -4   1  893.86   59.38
   5   4  -1  891.20   68.81
   5   4  -1 1082.60   67.89
   5  -4  -1  937.34   58.23
  -5   4   1 1210.84   69.71
  -4   0  -3   -1.19    4.40
   4   0   3    1.63    7.28
   4   0   3    1.36    6.62
  -4   0  -3    0.96    4.49
  -4   0  -3    1.11    5.03
  -4   0  -3    0.50    4.16
   4   0   3   -0.85    4.66
   5  -2  -2 1075.74   77.79
   5   2  -2 1037.10   62.28
   5  -2  -2 1070.29   73.67
   5  -2  -2  867.69   64.26
  -5   2   2 1195.00   68.90
  -5  -2   2 1169.71   68.07
  -5   2   2  970.91   58.97
  -5  -2   2 1090.05   70.54
   5   2  -2 1004.99   77.43
  -5  -2   2  964.96   62.42
   5  -2  -2 1221.86   73.23
   5  -2  -2 1147.60   71.44
   5   2  -2 1052.93   66.22
  -3  -5   3 1170.43   67.85
   3  -5  -3 1029.61   61.43
  -3   5   3 1160.79   68.32
  -3  -5   3 1182.39   74.03
  -3   5   3 1083.28   63.28
   3  -5  -3 1077.40   67.52
   3  -5  -3 1154.27   90.02
   3   5  -3 1115.17   67.11
   3   5  -3 1101.90   66.21
   4  -1   3 1284.26   76.21
  -4   1  -3 1284.78   78.47
   4   1   3 1248.26   74.55
   4  -1   3 1288.12   74.84
  -4  -1  -3 1357.89   79.17
  -4   1  -3 1275.17   73.05
  -4   1  -3 1276.41   75.73
  -4  -1  -3 1294.00   74.72
  -4  -1  -3 1299.78   75.31
  -4   1  -3 1271.02   72.53
   4   1   3 1180.69   71.78
   4  -1   3 1281.82   89.69
   4   1   3 1292.10   78.67
  -4   1  -3 1366.35   81.01
  -5   0  -2  137.65   11.92
   5   0   2  124.80   15.01
   5   0   2  113.53   11.95
  -5   0  -2  126.68   16.03
   5   0   2  127.61   12.56
  -5   0  -2  117.06   12.49
  -5   0  -2  143.30   13.12
   1  -9  -1   27.91    7.07
   1   9  -1   30.47    9.52
  -1   9   1   26.20    5.94
   1   9  -1   28.73    6.49
  -1   9   1   26.45    8.37
  -1  -9   1   41.66   11.97
   1   9  -1   30.86    7.43
  -1  -9   1   32.92    7.24
   1   9  -1   24.91    9.08
  -1   9   1   30.99    8.43
   1  -9  -1   30.17    6.63
   1   9  -1   32.03    6.86
  -1   9   1   29.74    6.00
   4   5   2   51.28   10.18
  -4  -5  -2   61.33   13.59
  -4   5  -2   63.43   10.24
   4  -5   2   53.73    7.39
  -4  -5  -2   58.26    8.22
  -4   5  -2   57.08    7.18
  -4   5  -2   56.95    8.17
   4   5   2   62.17    9.24
   4   5   2   56.10    8.60
   4  -5   2   59.78   10.71
  -4   5  -2   60.89    7.41
  -4  -5  -2   63.11    9.40
   4  -5   2   55.91    9.87
  -4  -5  -2   51.87    8.50
  -3   8   0  138.89   13.42
  -3  -8   0  142.49   13.47
  -3  -8   0  147.89   16.62
   3  -8   0  161.30   13.06
  -3  -8   0  160.65   19.13
   3   8   0  141.96   13.30
   3   8   0  165.16   15.63
   3  -8   0  185.63   15.56
  -3   8   0  178.73   14.08
  -3   8   0  186.34   17.19
   3  -8   0  168.99   17.76
   1   9   1   -1.12    7.58
  -1   9  -1   -0.59    6.08
  -1  -9  -1    1.23    6.60
   1   9   1   -0.38    5.19
  -1   9  -1    0.47    5.10
   1   9   1   -2.72    5.66
  -1   9  -1    0.68    5.28
  -1   9  -1    1.42    5.32
  -1   9  -1    0.78    6.93
   1   9   1    0.36    6.83
   1  -9   1    0.67    8.50
   1  -9   1    2.64    5.43
  -2   2  -4  590.01   40.74
  -2   2  -4  595.55   37.64
  -2  -2  -4  560.91   37.18
  -2  -2  -4  612.19   38.39
   2  -2   4  512.17   36.61
   2  -2   4  585.69   35.86
  -2   2  -4  565.51   34.98
  -2  -2  -4  613.61   40.07
  -2   2  -4  636.33   42.38
   2   2   4  578.00   40.92
  -2   2  -4  551.11   37.15
  -2   2  -4  612.04   44.15
  -2  -2  -4  524.67   33.02
   2   2   4  570.92   35.86
  -2  -2  -4  537.99   38.99
   2   2   4  979.42   62.58
   2  -6   3 1424.95   83.59
  -2   6  -3 1399.25   79.41
   2   6   3 1673.89  110.55
   2  -6   3 1358.23   78.01
  -2   6  -3 1352.82   79.04
   2   6   3 1395.02   98.21
  -2  -6  -3 1301.47   82.09
  -2  -6  -3 1471.32   91.60
  -2  -6  -3 1224.51   86.73
   2   6   3 1160.74   76.20
  -2   6  -3 1345.32   80.45
   2   6   3 1414.30   90.92
   2  -6   3 1357.43   82.70
   5  -1   2   20.63    9.17
   5   1   2   20.48    6.38
   5  -1   2   18.90    5.87
   5   1   2   20.57    6.14
   5   1   2   22.36    8.46
  -5   1  -2   20.20    6.35
  -5   1  -2   21.42    5.49
  -5  -1  -2   22.26    7.49
   5   1   2   21.25    8.02
  -5  -1  -2   20.63    8.18
  -5  -1  -2   22.10    6.44
   5  -4   1  203.58   19.17
   5   4   1  226.38   18.86
  -5  -4  -1  226.11   18.75
   5   4   1  186.24   17.57
   5   4   1  233.77   24.29
  -5   4  -1  261.38   19.65
   5  -4   1  240.79   21.79
  -5  -4  -1  230.96   21.80
  -5  -4  -1  262.29   19.61
   5  -4   1  222.44   20.54
  -5   4  -1  221.26   17.78
   5   4   1  203.73   23.60
  -5   4  -1  253.12   18.00
   5  -4   1  235.08   18.70
   5  -4   1  253.61   19.97
   4   3  -3 4660.23  308.88
   4  -3  -3 5047.07  322.90
  -4   3   3 4106.35  234.62
   4  -3  -3 3837.01  219.21
  -4  -3   3 4364.58  247.16
   4   3  -3 4574.54  293.85
  -4  -3   3 4867.02  306.65
   4   3  -3 4296.44  263.89
  -4  -3   3 4057.32  226.51
   4  -3  -3 4231.40  275.71
  -4   3   3 4757.48  299.36
   4  -3  -3 3891.39  216.58
   0   7   3  445.34   30.60
   0   7   3  393.47   27.88
   0   7  -3  435.43   36.07
   0   7  -3  464.13   29.94
   0  -7   3  398.10   31.62
   0   7  -3  459.22   38.29
   0   7  -3  427.50   27.82
   0   7   3  385.81   25.44
   0  -7  -3  374.33   26.45
   0  -7  -3  420.45   31.11
   0   7   3  391.69   31.77
   0   7  -3  455.37   33.09
   1  -4  -4  851.18   51.25
   1   4  -4  966.66   57.60
   1  -4  -4  899.52   60.39
   1   4  -4 1029.22   64.45
  -1  -4   4  972.92   61.89
   1   4  -4  887.24   56.06
  -1   4   4 1158.05   82.28
   1  -4  -4  913.70   57.64
   1  -4  -4  927.04   59.56
   1   4  -4 1035.05   66.00
   1   4  -4 1087.30   68.28
  -1   4   4  927.74   61.57
  -1  -4   4  937.17   55.16
  -1   4   4  882.70   52.89
  -2   3   4   25.76    5.48
  -2  -3   4   29.44    6.12
  -2  -3   4   27.76    8.46
   2   3  -4   29.34    9.20
   2  -3  -4   24.77    5.21
   2   3  -4   28.52    8.49
   2   3  -4   27.23    6.45
   2  -3  -4   28.33    8.93
  -2   3   4   26.55    9.32
  -2  -3   4   25.79    9.22
  -3   7   2   17.69    5.97
   3  -7  -2   15.01    6.21
   3   7  -2   14.10    8.48
   3  -7  -2   21.65    7.11
   3  -7  -2   16.22    7.08
   3   7  -2   15.13    6.58
  -3   7   2   13.64    5.07
   3  -7  -2   16.13    6.09
  -3  -7   2   16.36    5.68
  -3   7   2   12.91    8.00
  -4   2  -3   39.63    8.69
  -4   2  -3   40.19    6.50
   4  -2   3   40.02    6.67
  -4  -2  -3   40.47    7.52
  -4   2  -3   38.32    8.17
  -4   2  -3   36.10    6.18
  -4  -2  -3   39.34    6.58
  -4   2  -3   35.56    8.96
  -4  -2  -3   44.10    7.82
   4   2   3   41.43    7.64
   4   2   3   41.89    9.22
   4  -2   3   39.83    8.66
   4   2   3   40.17    7.64
   4  -2   3   44.17   10.10
  -4  -2  -3   40.68    7.98
   1   7  -3  721.99   45.10
   1   7  -3  817.78   52.99
   1   7  -3  716.07   43.23
   1   7  -3  781.90   51.48
   1   7  -3  784.08   47.10
   1  -7  -3  834.98   53.32
   1  -7  -3  674.75   41.32
  -1   7   3  721.82   50.42
  -1   7   3  709.48   43.05
  -1  -7   3  756.92   51.40
   1  -4   4    9.62    7.14
  -1   4  -4    7.74    7.73
   1   4   4    5.37    5.71
  -1   4  -4    6.47    5.69
   1   4   4    7.12    4.68
  -1   4  -4    7.25    7.89
  -1  -4  -4    7.70    4.96
   1   4   4   -2.03    4.06
  -1   4  -4    9.07    4.52
  -1  -4  -4    7.26    5.15
  -1   4  -4    9.60    8.10
   5   3  -2  183.79   18.98
  -5   3   2  224.00   16.76
   5  -3  -2  192.22   16.03
   5  -3  -2  191.31   16.83
  -5   3   2  173.65   15.16
  -5  -3   2  217.31   16.98
  -5  -3   2  217.90   20.00
   5  -3  -2  227.49   17.67
   5   3  -2  200.49   16.63
   5  -3  -2  195.47   18.57
   5   3  -2  220.86   20.41
  -5  -3   2  215.66   21.23
   5  -3  -2  189.74   17.67
   2   8  -2 1131.28   69.35
  -2   8   2 1305.35   76.39
   2  -8  -2 1077.84   71.32
   2  -8  -2 1010.20   61.29
   2   8  -2 1118.61   79.08
  -2   8   2 1068.73   62.36
   2  -8  -2 1160.66   72.51
   2  -8  -2 1080.50   65.04
  -2  -8   2 1229.92   70.56
  -2   8   2 1103.36   66.44
  -2   8   2  946.10   66.62
  -2  -8   2 1078.97   69.32
   2  -9   0   41.94    7.24
   2  -9   0   39.41    7.68
  -2   9   0   46.24   10.53
   2   9   0   41.49    9.03
  -2  -9   0   34.06    8.34
   2  -9   0   37.60    9.83
  -2   9   0   36.94    8.35
  -2   9   0   40.87    7.09
  -2  -9   0   46.27    8.77
  -5  -2  -2  404.09   30.47
   5   2   2  410.92   32.77
  -5  -2  -2  453.59   31.31
   5  -2   2  466.10   31.95
   5   2   2  439.31   31.25
   5  -2   2  426.43   40.42
  -5  -2  -2  472.43   30.42
  -5   2  -2  466.14   29.42
   5   2   2  408.83   29.32
   5   2   2  399.73   33.19
  -5   2  -2  460.29   30.13
   5  -2   2  416.49   28.51
  -3  -5  -3   25.11    9.85
  -3  -5  -3   23.03    6.06
  -3   5  -3   27.42    5.53
   3  -5   3   33.58    9.43
   3  -5   3   25.53    8.77
   3  -5   3   28.05    5.90
   3   5   3   25.49    6.85
  -3   5  -3   27.94    7.34
   3   5   3   21.88    6.27
   3   5   3   22.67    7.66
  -3   5  -3   25.66    7.88
  -3  -5  -3   30.36    8.89
   3  -5   3   28.43    8.06
  -3   5  -3   25.81    6.99
  -3  -5  -3   26.17    6.44
  -3  -8   1  322.58   28.12
  -3  -8   1  331.89   24.74
  -3  -8   1  337.75   22.97
  -3   8   1  360.07   23.94
   3   8  -1  309.56   36.41
   3  -8  -1  362.08   24.74
  -3  -8   1  370.01   29.72
  -3   8   1  385.62   31.79
  -3   8   1  332.15   24.46
   3   8  -1  346.41   25.68
   3  -8  -1  325.67   26.01
   3  -8  -1  312.17   22.45
  -3   8   1  393.96   26.72
   3  -8  -1  322.93   23.76
   4  -7   0  657.29   42.56
  -4   7   0  650.65   40.25
   4  -7   0  565.11   40.99
  -4  -7   0  589.41   42.46
   4  -7   0  582.65   35.77
  -4  -7   0  493.30   33.57
  -4  -7   0  610.66   44.73
   4   7   0  518.40   40.21
  -4   7   0  647.31   41.07
   4  -7   0  486.52   31.33
  -4   7   0  553.03   35.93
   4   7   0  561.78   37.08
  -5  -5   0   27.07    7.27
   5  -5   0   31.26    6.43
  -5   5   0   29.05    6.85
   5  -5   0   28.51    9.14
  -5  -5   0   24.12    8.70
   5  -5   0   31.32    6.73
   5   5   0   26.91    7.59
   5   5   0   28.27    8.33
   5   5   0   24.22    6.81
  -5   5   0   74.79   15.58
  -5   5   0   26.02    7.51
  -5  -5   0   26.17    7.15
   5  -5   0   28.79    6.28
  -3   7  -2  365.56   24.08
   3  -7   2  352.13   23.57
  -3  -7  -2  323.29   22.04
   3   7   2  326.10   27.47
  -3  -7  -2  341.38   28.32
  -3   7  -2  357.82   24.00
   3  -7   2  366.86   31.03
  -3   7  -2  328.80   22.38
   3  -7   2  348.86   27.13
  -3  -7  -2  357.11   26.89
  -3  -7  -2  293.50   22.09
   3   7   2  357.46   26.29
   3  -7   2  330.22   26.49
  -3   7  -2  363.09   26.94
  -1  -7  -3  156.15   17.83
  -1   7  -3  144.82   12.26
   1  -7   3  151.26   14.29
   1   7   3   79.46   11.26
   1   7   3   63.22    9.87
   1   7   3  139.99   13.41
  -1   7  -3  149.41   12.74
  -1   7  -3  136.77   11.96
  -1  -7  -3  131.75   12.32
  -1   7  -3  145.03   15.34
   1  -7   3  143.97   16.64
   1   7   3  114.16   15.87
   1   7   3  123.32   12.00
   1   7   3  122.22   12.64
  -3   0   4    0.64    5.18
   3   0  -4    0.33    4.02
   3   0  -4   -0.44    6.31
  -3   0   4   -1.70    6.95
  -3   8  -1  906.91   56.37
   3  -8   1  849.61   55.04
   3   8   1  801.25   59.81
  -3   8  -1  968.76   57.06
   3  -8   1  981.68   58.49
  -3  -8  -1  792.32   57.17
   3  -8   1 1045.51   66.22
  -3   8  -1  914.88   55.44
  -3  -8  -1  856.88   53.09
   3   8   1  892.07   55.94
  -3   8  -1  885.55   53.60
  -3  -8  -1  892.39   59.61
  -3  -8  -1  859.65   51.39
   3  -8   1  896.55   53.74
  -2   3  -4   -0.25   10.17
   2   3   4    2.23    4.99
  -2   3  -4    0.79    3.94
   2  -3   4   -3.54    6.86
   2   3   4    2.07    6.42
  -2  -3  -4    0.85    5.00
  -2   3  -4    3.75    6.99
  -2   3  -4   -0.31    8.52
   2  -3   4   -3.47    3.40
  -2   3  -4   -1.93    5.59
  -2   3  -4    1.04    6.63
  -2  -3  -4    1.79    4.86
  -2  -3  -4    1.98    4.54
   2   3   4   10.34    5.93
   2  -8   2    4.89    4.84
  -2   8  -2    0.18    4.60
   2   8   2    3.58    5.34
   2  -8   2    1.57    7.62
  -2   8  -2    1.64    6.79
   2   8   2    2.00    5.92
  -2  -8  -2    0.67    5.86
  -2   8  -2    1.67    4.93
   2  -8   2    4.18   10.57
   2  -8   2    1.83    7.87
  -2   8  -2    2.74    5.09
   2   8   2    2.63    9.86
  -2  -8  -2    2.99    5.04
  -3   1   4   55.04    7.63
  -3   1   4   51.76   10.60
   3  -1  -4   44.98    9.89
   3   1  -4   47.58    8.49
   3  -1  -4   47.35    6.84
   3   1  -4   48.29    7.17
   3  -1  -4   39.83    7.84
  -3  -1   4   51.02    8.05
  -3  -1   4   53.15   10.84
   3  -1  -4   51.26    9.29
   4  -6  -2  147.76   15.44
  -4  -6   2  130.52   13.31
  -4  -6   2  157.50   13.59
   4   6  -2  134.68   13.51
   4   6  -2  120.47   12.26
   4  -6  -2  144.65   12.60
   4  -6  -2  154.91   14.76
  -4   6   2  164.22   13.28
  -4  -6   2  123.12   15.78
   4   6  -2  153.86   17.29
   4  -6  -2  130.32   14.21
  -4   6   2  133.28   11.92
   5  -5  -1   47.96    7.71
   5   5  -1   64.98   11.39
  -5   5   1   61.49    7.63
   5  -5  -1   51.74    8.45
  -5  -5   1   49.21   10.83
  -5   5   1  154.76   21.22
   5   5  -1   51.58    8.34
  -5  -5   1   67.54    9.30
  -5  -5   1   45.57    8.80
   5  -5  -1   64.87   10.39
   5   5  -1   50.38   10.18
   4  -7  -1 1980.94  124.53
   4   7  -1 2134.43  126.69
  -4  -7   1 1817.25  112.73
  -4  -7   1 2016.34  114.86
   4  -7  -1 1865.63  121.12
   4  -7  -1 2023.73  113.56
  -4   7   1 2072.52  117.85
  -4   7   1 1605.17   95.69
   4  -7  -1 1932.48  113.77
  -4   7   1 1965.52  111.24
  -4   7   1 2218.15  123.99
   4   7  -1 1799.62  144.48
   4   3   3 1420.40   85.44
  -4   3  -3 1506.20   86.61
   4  -3   3 1335.17   82.70
  -4   3  -3 1218.82   73.13
  -4   3  -3 1461.66   86.43
  -4  -3  -3 1335.72   77.22
   4  -3   3 1294.36   76.68
  -4  -3  -3 1304.73   78.62
   4   3   3 1235.56   75.55
   4   3   3 1233.89   78.93
  -4   3  -3 1379.23   80.49
  -4   3  -3 1395.84   79.26
  -4  -3  -3 1391.29   88.38
   4  -3   3 1309.38   75.58
  -4  -3  -3 1393.69   82.91
  -2   9   1  417.60   30.24
  -2   9   1  387.05   25.77
  -2   9   1  327.04   26.37
   2  -9  -1  389.83   27.50
   2  -9  -1  386.54   30.02
  -2   9   1  411.82   26.92
   2   9  -1  351.97   29.61
   2  -9  -1  439.86   29.67
  -2  -9   1  424.10   27.52
   2  -9  -1  399.71   26.68
  -2  -9   1  384.52   26.38
  -2  -9   1  373.45   27.02
   4  -4  -3   20.95    7.67
  -4  -4   3   19.63    7.21
   4   4  -3   18.20    6.81
  -4   4   3   20.63    8.35
   4  -4  -3   21.04    7.02
   4   4  -3   20.07    6.03
   4  -4  -3   19.21    5.83
   4  -4  -3   20.14    6.80
  -4  -4   3   19.27    9.26
   4   4  -3   23.79    9.19
   2  -4  -4  481.88   35.25
   2   4  -4  438.22   32.54
  -2  -4   4  388.10   31.50
   2   4  -4  391.55   30.02
  -2  -4   4  383.63   25.06
  -2  -4   4  375.65   29.28
  -2   4   4  381.04   30.80
  -2   4   4  367.00   24.49
   2  -4  -4  318.79   23.17
   2   4  -4  381.04   26.30
   0   5  -4  911.87   58.36
   0   5  -4  914.06   53.94
   0  -5  -4  683.24   43.82
   0   5  -4  894.79   56.83
   0   5  -4  825.01   50.64
   0   5   4  714.12   43.58
   0   5   4  761.67   46.96
   0   5  -4  916.79   59.18
   0  -5   4  884.82   56.96
   0   5   4  761.06   46.53
   0  -5  -4  803.81   49.84
   0   5  -4  818.48   52.38
   2   9   1   38.47   11.79
  -2  -9  -1   34.84    6.75
  -2  -9  -1   33.20    9.05
  -2  -9  -1   33.40    7.87
   2  -9   1   48.57   11.59
   2  -9   1   45.01    8.52
  -2   9  -1   38.40    9.23
   2  -9   1   32.18    9.69
  -2   9  -1   35.95    6.49
  -2   9  -1   37.03    7.65
   2   9   1   34.08    7.20
   2  -9   1   39.10    7.12
   2   9   1   39.83    8.33
  -2   9  -1   41.36    7.20
   3  -2  -4   59.03    7.52
   3  -2  -4   57.94    8.69
   3   2  -4   64.30    9.19
   3  -2  -4   66.75   10.23
   3  -2  -4   56.34    9.71
  -3   2   4   61.43   11.30
  -3  -2   4   71.90   12.69
  -3  -2   4   72.43    9.30
  -3   2   4   64.83    7.96
   3   2  -4   63.93    8.46
   5  -3   2   33.09    8.51
   5   3   2   24.81    6.81
  -5  -3  -2   24.21    7.49
   5   3   2   20.64    6.93
  -5   3  -2   28.38    6.03
   5   3   2   24.90    8.53
   5  -3   2   29.62    6.45
   5  -3   2   28.51    9.69
   5   3   2   23.37    7.85
  -5  -3  -2   21.41    7.74
  -5  -3  -2   26.08    6.55
  -5   3  -2   26.35    7.53
  -6   0   0   16.81    7.27
   6   0   0   18.00    7.28
   6   0   0   17.41    7.71
   6   0   0   17.87    7.18
  -6   0   0   21.81    6.24
  -6   0   0   15.39    7.09
  -4  -7  -1 1032.91   60.55
   4  -7   1 1032.82   65.23
  -4   7  -1 1030.02   63.38
  -4  -7  -1 1058.00   65.15
   4   7   1 1026.53   65.56
   4  -7   1 1117.67   69.63
  -4   7  -1 1114.79   64.64
  -4   7  -1 1134.37   68.06
  -4   7  -1 1115.41   67.03
   4  -7   1 1043.87   62.75
  -4  -7  -1 1027.45   67.00
   4  -7   1 1153.34   67.95
  -4  -7  -1  972.20   67.58
   4   7   1 1012.52   68.82
  -6   1   0  305.87   21.28
   6  -1   0  276.35   22.81
   6   1   0  256.53   22.37
   6  -1   0  271.90   23.93
   6   1   0  304.31   23.68
  -6   1   0  279.62   21.55
  -6  -1   0  268.41   21.17
   6  -1   0  301.02   21.92
   6   1   0  309.51   23.26
  -6  -1   0  303.68   25.33
   5   5   1  682.41   48.94
   5   5   1  725.50   56.00
  -5   5  -1 1030.03   75.32
  -5  -5  -1  671.86   50.55
   5  -5   1  812.17   56.05
  -5   5  -1  770.94   52.93
  -5   5  -1  783.41   52.52
   5  -5   1  721.46   47.94
  -5   5  -1  696.82   42.95
  -5  -5  -1  620.92   45.34
  -5  -5  -1  784.94   53.44
   5  -5   1  711.56   52.04
   5  -5   1  636.73   47.20
   5   5   1  592.75   45.67
  -3  -6   3   30.24   10.26
  -3  -6   3   41.17    8.13
   3  -6  -3   33.78    8.60
   3   6  -3   31.53    7.07
  -3   6   3   36.35    7.15
   3  -6  -3   35.50    8.60
   3  -6  -3   36.32    7.31
  -3   6   3   38.87    6.85
   1   5  -4 1256.08   85.58
   1   5  -4 1227.16   81.39
   1   5  -4 1211.66   81.70
   1   5  -4 1188.25   77.93
   1  -5  -4 1197.33   82.80
   1  -5  -4  885.36   87.37
  -1   5   4 1112.58   75.80
   1  -5  -4  992.65   66.87
  -1  -5   4 1293.75   88.69
   1   5  -4 1380.79   94.67
   1   5  -4 1419.18   96.89
  -1   5   4 1045.29   70.13
   2   7  -3  523.04   41.02
   2  -7  -3  441.57   35.65
   2  -7  -3  471.88   37.00
  -2  -7   3  510.95   35.64
   2   7  -3  468.45   33.84
  -2   7   3  463.91   32.78
   2  -7  -3  469.73   35.00
  -2  -7   3  436.81   36.58
   2  -7  -3  472.87   35.47
  -2   7   3  476.12   34.53
  -2   7   3  412.75   42.56
   5  -4  -2  560.77   50.72
  -5   4   2  544.91   39.50
  -5  -4   2  640.62   48.82
  -5  -4   2  717.75   49.36
   5   4  -2  568.31   42.67
  -5   4   2  689.63   46.68
   5   4  -2  565.19   51.14
   5  -4  -2  619.52   53.00
  -5  -4   2  616.65   47.49
   5  -4  -2  663.97   51.13
   5  -4  -2  536.91   39.96
   5  -4  -2  715.70   49.00
   5   4  -2  678.58   51.40
   0   9  -2 1901.07  124.00
   0   9  -2 1925.43  127.03
   0  -9   2 1940.79  131.95
   0   9  -2 2047.08  151.86
   0   9   2 1757.97  118.44
   0   9   2 1829.17  128.99
   0   9  -2 1918.12  124.02
   0  -9   2 1978.81  128.53
   0   9   2 1659.05  114.39
   0  -9  -2 2038.05  134.40
   0   9   2 1783.95  115.07
   0   9  -2 1950.83  129.56
   3   0   4   73.64   12.45
  -3   0  -4   70.23    9.05
  -3   0  -4   73.73   10.75
  -3   0  -4   60.88    9.64
  -3   0  -4   78.81   11.28
  -3   0  -4   74.96    9.60
  -3   0  -4   72.49   14.30
   4  -6   2   33.42    6.83
  -4   6  -2   33.65    6.59
   4  -6   2   36.08    9.46
   4  -6   2   27.24    9.77
  -4   6  -2   34.71    8.81
  -4  -6  -2   28.78    7.56
  -4  -6  -2   30.91    7.00
  -4  -6  -2   39.63   12.09
  -4   6  -2   34.11    6.33
   4   6   2   35.45    8.40
  -4   6  -2   31.57    6.99
   4   6   2   29.73    8.78
  -4  -6  -2   36.30    8.17
   4   6   2   30.64    7.82
   4  -6   2   39.46    9.59
   6   0  -1    1.15    8.28
  -6   0   1    1.51    6.48
   6   0  -1   -1.04    7.37
   6   0  -1    0.94    5.99
  -6   0   1   -2.02    7.64
  -6   0   1    0.85    5.09
   6   0  -1   -2.39    5.99
   0  10   0  298.56   22.88
   0  10   0  282.24   25.93
   0  10   0  296.96   26.77
   0 -10   0  307.55   24.66
   0 -10   0  292.29   24.14
  -3   1  -4   31.84    8.58
  -3   1  -4   30.24    7.93
  -3   1  -4   31.77    6.34
  -3  -1  -4   31.91    7.52
  -3  -1  -4   31.37    6.85
  -3   1  -4   30.88   12.75
  -3  -1  -4   29.11   11.14
   3   1   4   32.24    9.56
   3  -1   4   33.46    9.44
   3   1   4   50.41   12.88
  -3   1  -4   31.55    7.20
  -3  -1  -4   29.39    6.44
  -3   1  -4   31.15    8.35
  -3  -1  -4   32.62    8.31
  -1   5  -4   69.91   11.87
  -1  -5  -4   62.47    8.70
  -1   5  -4   73.38    9.13
  -1   5  -4   74.29   13.08
  -1  -5  -4   67.96   13.08
  -1   5  -4   63.11    7.51
   1  -5   4   70.47   11.76
   1   5   4   64.35    8.26
   1   5   4   62.54    8.96
  -1   5  -4   75.39   12.45
  -1   5  -4   68.37    9.83
   1   5   4   61.31    8.41
   2  -4   4  852.01   60.58
  -2  -4  -4  772.85   53.89
  -2   4  -4  834.69   59.75
   2   4   4  880.17   65.11
  -2   4  -4  982.69   71.59
  -2  -4  -4  806.21   54.85
   2   4   4  535.18   41.21
  -2   4  -4  867.92   57.29
   2  -4   4  820.16   59.62
   2  -4   4  880.55   58.48
  -2   4  -4  852.85   58.69
  -2  -4  -4  826.68   57.69
   2   4   4  796.96   54.75
  -2   4  -4  938.44   65.95
   6  -1  -1   22.19    9.11
  -6  -1   1   17.97    8.45
   6   1  -1   16.91    6.75
   6  -1  -1   17.85    6.21
  -6   1   1   20.43    5.72
  -6  -1   1   19.75    6.32
   6   1  -1   10.49    6.22
   6  -1  -1   13.84    5.97
  -6   1   1   22.21    8.75
  -6  -1   1   18.20    8.43
   6  -1  -1   60.03   20.76
   6   1  -1   17.31    7.88
   6  -1  -1   17.26    8.43
   1  -9  -2   37.38    8.61
   1  -9  -2   34.15    7.49
   1   9  -2   36.05    8.73
  -1   9   2   36.52    6.46
   1   9  -2   32.37    6.98
  -1   9   2   38.47    7.78
  -1   9   2   33.90    7.00
  -1  -9   2   40.90   13.02
   1   9  -2   31.52    9.62
  -1   9   2   36.54    8.20
  -1   9   2   33.53   10.05
   1   9  -2   31.74    6.53
   2   7   3 1758.86  129.97
  -2   7  -3 1787.31  114.62
   2   7   3 1224.82   84.64
   2   7   3 1933.84  137.11
   2  -7   3 1702.03  109.89
   2  -7   3 1733.62  115.91
   2  -7   3 1882.84  122.50
  -2   7  -3 1842.77  118.53
  -2  -7  -3 1781.87  115.87
  -2  -7  -3 1764.79  123.45
  -2  -7  -3 2039.22  136.55
  -2   7  -3 1728.91  113.25
   2   7   3 1970.50  134.82
  -3  -3   4   25.22    6.69
  -3   3   4   26.72    9.50
   3  -3  -4   21.38    7.16
   3  -3  -4   24.76    7.95
  -3  -3   4   22.50    9.03
   3   3  -4   22.07    6.36
   3  -3  -4   24.35    7.13
   3  -3  -4   21.48    5.48
  -3   3   4   24.56    5.98
   3   3  -4   23.53    6.74
   1  -9   2 1351.84   96.72
  -1   9  -2 1399.03   91.86
   1   9   2 1251.92   96.25
  -1   9  -2 1586.36  107.14
   1   9   2 1194.97   84.33
   1   9   2 1384.14   92.71
  -1  -9  -2 1091.85  126.36
  -1  -9  -2 1276.28   86.42
   1  -9   2 1502.08  100.78
   1   9   2 1340.12   88.49
  -1   9  -2 1509.95  100.56
  -1   9  -2 1454.53   94.70
  -1   9  -2 1420.27   93.00
   1   9   2 1313.17   96.30
   4  -4   3   41.37    7.08
  -4   4  -3   37.77    8.35
  -4  -4  -3   42.24    8.97
  -4  -4  -3   44.14   12.45
   4   4   3   38.64    9.54
   4  -4   3   45.78    9.93
   4   4   3   34.16    7.42
  -4  -4  -3   36.95    7.41
   4  -4   3   38.00   10.44
  -4   4  -3   59.99   10.96
   4   4   3   39.50    8.30
  -4   4  -3   46.45    9.63
  -4   4  -3   44.24    7.53
  -4   4  -3   46.02    6.93
  -4  -4  -3   37.98    7.40
  -1  10   0  697.21   51.13
  -1 -10   0  628.58   45.10
   1 -10   0  719.00   49.42
   1  10   0  674.08   51.41
  -1  10   0  591.93   44.03
   1  10   0  644.62   44.85
   1 -10   0  706.35   52.50
  -1 -10   0  669.98   48.26
  -1  10   0  717.76   48.61
   1  10   0  627.25   48.10
   3  -6   3 1665.70  111.66
  -3   6  -3 1660.59  107.89
  -3  -6  -3 1561.64  107.19
   3   6   3 1611.94  108.82
  -3  -6  -3 1836.15  124.31
   3  -6   3 1703.32  109.85
  -3   6  -3 1586.47  108.70
  -3  -6  -3 1623.56  111.76
  -3   6  -3 1735.51  111.46
   3   6   3 1543.21  111.93
   3   6   3 1622.98  107.96
  -3  -6  -3 1673.65  113.71
   3  -6   3 1711.26  112.56
  -6   0  -1   -0.61    5.10
   6   0   1   -2.96    6.77
  -6   0  -1    1.61    6.00
  -6   0  -1   -0.29    5.66
   6   0   1   -1.64    5.60
   6   0   1   -1.13    6.41
   6   0   1    1.64    7.69
   3  -2   4  207.20   21.23
   3   2   4  219.95   19.79
  -3   2  -4  194.75   19.68
  -3   2  -4  189.61   16.19
  -3  -2  -4  196.49   16.33
   3  -2   4  134.76   12.92
  -3   2  -4  190.03   15.58
  -3  -2  -4  186.01   15.91
  -3  -2  -4  195.50   17.38
  -3   2  -4  221.41   20.71
  -3   2  -4  201.33   18.13
   3   2   4  196.82   19.94
  -5  -6   0  697.71   48.33
   5  -6   0  765.88   59.85
  -5   6   0  699.30   47.40
  -5  -6   0  694.14   53.37
   5  -6   0  750.43   52.12
   5   6   0  702.74   60.79
   5  -6   0  821.77   56.47
   5   6   0  687.95   49.86
  -5  -6   0  703.50   53.07
   5   6   0  665.93   48.14
  -5   6   0  818.98   55.39
   5  -6   0  717.52   48.91
  -5   6   0  719.81   51.20
   5   0  -3   -1.88    7.91
   5   0  -3   -0.37    6.01
  -5   0   3    0.16    8.37
   5   0  -3   -0.42   11.36
   5   0  -3    0.34    4.91
  -5   0   3   -0.82    5.14
   5   4   2  500.40   37.83
   5  -4   2  570.44   41.76
   5   4   2  453.41   40.42
   5  -4   2  541.71   38.85
  -5   4  -2  517.06   38.81
  -5  -4  -2  478.84   37.19
   5   4   2  499.90   37.30
   5   4   2  476.75   37.92
  -5  -4  -2  475.70   35.69
  -5  -4  -2  529.15   37.41
  -5   4  -2  546.02   37.55
   6  -2  -1    2.56    4.96
   6   2  -1    0.66    7.06
  -6   2   1    5.48    7.43
  -6  -2   1    2.30    7.44
  -6  -2   1    3.32    7.65
   6  -2  -1    4.16    7.94
   6  -2  -1    3.30    5.13
   6   2  -1    3.72    6.41
  -6   2   1    4.64    5.88
   6  -2  -1    4.19    5.21
   6   2  -1    8.83    6.20
  -6  -2   1    4.90    6.13
   6  -2  -1    3.81    7.11
  -6  -1  -1   90.89   10.37
   6  -1   1   64.11   15.04
  -6  -1  -1   84.96   13.12
   6   1   1   69.27   12.68
   6   1   1   78.58   11.12
   6   1   1   75.30   10.38
   6  -1   1   79.87    9.86
  -6   1  -1   87.08    9.87
   6  -1   1   53.21   11.01
   6   1   1   67.00   10.91
   6  -1   1   77.45   10.57
  -6  -1  -1   77.11   10.29
  -6   1  -1   75.31   10.22
   6  -1   1   60.84    8.77
   0   8  -3   21.86    5.70
   0   8   3   20.04    5.77
   0   8   3   25.41    7.48
   0  -8   3   21.31   10.68
   0   8  -3   29.94    9.18
   0   8  -3   25.88    6.39
   0   8   3   16.92    8.88
   0   8  -3   25.11   10.13
   0   8   3   18.89    5.91
   0   8  -3   21.38    8.56
   0  -8  -3   24.30    8.49
   0   8  -3   19.61    6.34
   0  10  -1  240.65   20.88
   0  10   1  265.38   24.57
   0 -10  -1  232.48   20.52
   0  10  -1  269.22   24.91
   0  10   1  259.50   20.44
   0  10  -1  271.92   21.59
   0 -10  -1  270.19   21.85
   0 -10   1  262.86   25.75
   0 -10   1  271.14   22.02
   0  10  -1  246.34   22.67
   0  10   1  262.36   25.78
   0  10   1  269.59   25.08
   0  10   1  246.81   20.11
   0  10  -1  259.42   21.10
   3  -8  -2   60.29   10.96
   3  -8  -2   66.73    9.71
  -3   8   2   60.60   11.91
  -3  -8   2   74.30    9.32
   3  -8  -2   61.88    9.31
  -3   8   2   54.58    8.27
  -3   8   2   68.96    9.47
  -3   8   2   67.95    8.83
   3  -8  -2   63.05    8.69
   3   8  -2   66.40    9.69
  -5   1   3  313.96   28.59
  -5  -1   3  269.31   24.89
   5  -1  -3  293.58   23.65
   5   1  -3  269.08   21.55
   5  -1  -3  280.07   25.57
   5   1  -3  281.54   25.76
  -5   1   3  278.51   21.26
   5  -1  -3  415.96   37.00
  -5  -1   3  280.97   21.91
  -5  -1   3  231.98   21.71
   5  -1  -3  244.26   22.74
   5   1  -3  244.78   20.88
  -3  -9   0 1393.46   95.77
  -3  -9   0 1215.95   82.49
  -3   9   0 1110.57   74.85
   3  -9   0 1316.77   85.39
  -3   9   0 1483.67   98.86
  -3  -9   0 1161.64   83.87
   3   9   0 1139.40   88.31
   3  -9   0 1328.97   92.33
  -3   9   0 1434.90   93.00
   3   9   0 1229.83   82.73
   3  -9   0 1348.93   96.17
  -4  -5   3 1323.19   86.61
   4  -5  -3 1147.06   83.72
   4  -5  -3 1092.41   73.55
   4   5  -3 1119.86   75.92
  -4  -5   3 1158.82   83.03
   4  -5  -3 1279.33   89.90
   4   5  -3 1251.88   86.53
  -4   5   3  932.79   70.91
   4  -5  -3 1301.00   88.49
   4   5  -3 1190.85   93.62
  -4   5   3 1170.31   76.24
  -2  -5   4  142.16   12.84
  -2   5   4  139.88   17.34
   2   5  -4  141.24   16.51
   2  -5  -4  171.17   19.42
   2   5  -4  240.27   26.08
   2  -5  -4  130.00   12.35
   2   5  -4  138.82   13.53
  -2  -5   4  136.02   16.66
  -2   5   4  124.34   12.02
   6  -3   0   91.66   13.49
  -6  -3   0   83.14   13.10
   6   3   0   85.06   10.67
  -6   3   0   99.69   10.42
   6  -3   0   93.17   11.38
   6   3   0   86.05   11.32
  -6  -3   0   96.93   10.75
  -6   3   0   90.08   11.26
  -6  -3   0   92.09   11.41
   6   3   0   84.36   12.04
   6  -3   0  101.63   14.16
  -1   8   3    9.91    9.22
   1   8  -3    4.61    5.39
  -1   8   3    5.89    4.82
   1   8  -3    8.46    5.62
   1  -8  -3    6.23    8.58
   1   8  -3    6.92    7.75
  -1  -8   3    9.29   10.04
  -1   8   3    5.72    5.05
   1   8  -3    9.18    8.53
  -5   6   1 1502.34   97.25
   5  -6  -1 1291.79   89.40
   5  -6  -1 1364.67   92.85
  -5  -6   1 1530.45   99.98
   5  -6  -1 1294.59   84.47
   5   6  -1 1172.60   80.58
  -5   6   1 1070.48   77.14
   5   6  -1 1324.99   90.21
  -5  -6   1 1183.72   82.39
   5   6  -1 1241.97   98.01
  -5   6   1 1492.86   98.48
  -5  -6   1 1166.01   82.30
   5  -6  -1 1393.14   98.51
   1 -10  -1  718.94   50.59
   1  10  -1  635.23   62.46
   1 -10  -1  766.62   52.87
  -1 -10   1  768.05   52.96
   1  10  -1  782.63   53.46
   1  10  -1  693.99   50.01
  -1 -10   1  748.43   60.20
  -1  10   1  713.32   48.52
  -1  10   1  720.56   48.61
   1  10  -1  708.76   52.86
  -1  10   1  660.45   49.33
  -1  10   1  748.89   54.49
  -1  10   1  714.72   59.28
   1  10  -1  747.91   56.06
  -6  -2  -1  203.42   17.18
  -6   2  -1  204.96   16.71
   6   2   1  155.94   16.57
   6   2   1  182.79   16.84
   6  -2   1  174.11   15.49
   6  -2   1  143.75   16.43
  -6  -2  -1  163.29   17.64
  -6  -2  -1  176.89   16.65
  -6   2  -1  159.59   14.97
   6   2   1  172.92   17.26
   6   2   1  174.00   23.41
   6  -2   1  185.18   16.39
   4  -8   0   67.04    8.85
   4   8   0   67.75   10.16
  -4  -8   0   71.67   13.14
  -4   8   0   77.76    9.87
   4  -8   0   67.41   11.35
   4  -8   0   78.92   10.44
  -4   8   0   69.39    9.92
   4   8   0   74.47   11.07
   4  -8   0   75.40    9.14
  -4  -8   0   57.52    8.94
  -4  -8   0   69.08   12.91
  -4   8   0   84.39   11.15
   1  10   1  740.56   55.42
  -1  10  -1 1225.01   86.89
   1 -10   1  893.95   60.56
   1 -10   1  941.27   67.46
  -1  10  -1  833.41   59.51
  -1  10  -1  793.21   53.65
   1  10   1  744.38   52.20
  -1  10  -1  890.16   59.45
   1  10   1  798.25   56.31
  -1  10  -1  792.62   59.15
   1  10   1  803.24   60.05
  -1 -10  -1  907.11   64.40
  -5   5   2 1001.60   68.61
  -5  -5   2 1487.18   96.92
   5   5  -2 1218.96  103.58
  -5   5   2 1406.19   91.25
   5  -5  -2 1376.61   99.91
   5  -5  -2 1224.16  104.96
   5  -5  -2 1108.81   81.40
   5   5  -2 1381.58   95.01
  -5  -5   2 1248.74   87.87
   5   5  -2 1169.24   81.31
  -5  -5   2 1286.31   99.38
  -5   5   2 2473.51  179.10
   0   6  -4  302.18   22.87
   0   6  -4  322.33   27.97
   0  -6   4  317.59   28.41
   0  -6  -4  308.47   27.35
   0   6  -4  306.53   27.56
   0   6   4  245.71   19.56
   0   6  -4  305.32   23.16
   0  -6  -4  244.73   19.99
   0   6  -4  320.02   27.83
   0   6  -4  287.91   23.38
   0   6   4  253.80   20.31
   0   6   4  257.69   20.86
   3   8   2  148.42   15.56
  -3  -8  -2  139.27   14.16
   3  -8   2  151.47   20.56
  -3  -8  -2  168.48   16.60
   3  -8   2  151.83   17.28
  -3   8  -2  150.68   13.72
  -3  -8  -2  163.29   19.07
  -3  -8  -2  150.00   13.64
  -3   8  -2  165.57   14.37
   3  -8   2  162.74   14.47
   3   8   2  161.72   16.09
   3  -8   2  138.41   16.46
  -3   8  -2  154.71   16.20
  -3   8  -2  164.30   14.68
   5  -2  -3  194.30   19.65
   5  -2  -3  160.78   15.72
   5   2  -3  200.53   20.91
   5   2  -3  190.65   16.60
   5  -2  -3  208.08   18.40
  -5  -2   3  186.21   19.44
   5  -2  -3  176.56   15.83
  -5   2   3  244.49   26.43
  -5   2   3  211.31   17.09
   5   2  -3  188.59   18.65
  -5  -2   3  241.79   23.85
  -5  -2   3  200.18   17.37
   1  -8   3  169.26   19.71
  -1   8  -3  178.86   17.50
   1  -8   3  175.80   16.39
  -1   8  -3  166.95   14.32
   1   8   3  159.38   14.52
  -1   8  -3  196.63   20.48
  -1  -8  -3  164.50   18.34
   1   8   3  140.51   14.79
   1   8   3  153.55   18.80
  -1   8  -3  179.82   15.10
  -1   8  -3  176.46   15.46
   1   8   3  165.24   15.72
  -1  -8  -3  160.34   15.69
   4   7  -2  570.90   44.49
  -4   7   2  866.52   78.33
   4  -7  -2  607.19   42.59
   4   7  -2  545.04   47.49
   4  -7  -2  580.47   44.43
  -4   7   2  593.43   41.30
  -4  -7   2  600.61   41.86
  -4  -7   2  504.46   40.15
   4  -7  -2  513.00   37.73
   4  -7  -2  552.81   43.70
  -4   7   2  530.12   37.04
   4   7  -2  510.49   38.52
  -4  -7   2  548.98   40.15
   3   3   4  169.75   15.49
  -3   3  -4  198.22   16.91
  -3  -3  -4  181.29   15.29
  -3   3  -4  205.98   16.59
   3  -3   4  220.86   19.74
  -3   3  -4  204.38   18.28
   3   3   4  192.77   17.09
  -3   3  -4  207.25   20.11
   3   3   4  190.95   19.48
  -3   3  -4  229.75   21.33
  -3  -3  -4  192.86   16.70
   3  -3   4  205.12   16.63
  -3  -3  -4  176.79   15.18
   3  -3   4  215.58   21.50
   2  -9  -2  285.27   23.01
   2   9  -2  289.73   24.39
  -2  -9   2  308.43   23.30
  -2   9   2  237.26   23.44
  -2   9   2  257.00   19.74
  -2   9   2  303.66   23.98
   2  -9  -2  285.85   22.42
   2   9  -2  279.05   23.44
  -2  -9   2  293.56   28.21
   2  -9  -2  283.76   23.81
   2  -9  -2  243.80   22.96
  -2   9   2  280.41   22.47
   3  -4  -4  165.41   16.28
  -3   4   4  164.08   18.72
   3  -4  -4  162.80   16.38
  -3  -4   4  177.62   19.85
  -3  -4   4  176.60   15.62
  -3   4   4  291.01   27.00
  -3   4   4  172.14   14.74
   3   4  -4  155.71   15.06
   3  -4  -4  156.20   14.20
   3   4  -4  157.46   15.48
  -3  -4   4  143.26   17.94
  -6  -3   1  136.74   13.43
  -6   3   1  145.66   13.39
  -6   3   1  137.87   15.97
  -6  -3   1  102.50   12.98
   6  -3  -1  128.16   12.31
   6   3  -1  126.08   13.42
   6  -3  -1  132.53   16.21
  -6  -3   1  126.51   16.36
   6   3  -1  135.16   16.75
   6  -3  -1  113.05   13.70
   6  -3  -1  126.08   15.63
   6  -3  -1   96.93   15.30
   6   3  -1   78.77   16.42
   3   9  -1  387.00   30.00
  -3   9   1  436.99   33.08
  -3   9   1  447.86   32.67
   3  -9  -1  392.13   32.69
   3   9  -1  371.12   37.43
   3  -9  -1  407.46   30.68
  -3   9   1  398.95   29.00
   3  -9  -1  406.46   31.94
  -3  -9   1  364.40   33.61
   3  -9  -1  423.01   30.85
  -3  -9   1  385.69   30.65
  -3   9   1  567.17   49.65
  -3  -9   1  379.08   31.68
  -3  -9   1  414.27   30.16
   5  -6   1  644.32   48.20
  -5   6  -1  638.66   44.86
  -5  -6  -1  572.37   44.77
   5   6   1  600.06   46.23
   5  -6   1  649.37   50.42
  -5  -6  -1  566.34   41.39
   5   6   1  574.88   44.27
  -5  -6  -1  626.58   43.38
  -5   6  -1  682.72   47.43
  -5   6  -1  677.87   45.92
   5   6   1  576.50   47.51
  -5   6  -1  632.86   43.75
   5  -6   1  690.00   48.08
   5  -6   1  572.43   43.54
   1   6  -4  503.83   39.67
  -1   6   4  375.18   28.25
   1   6  -4  466.26   37.82
  -1   6   4  395.85   29.32
   1   6  -4  419.31   31.58
   1  -6  -4  297.31   27.12
   1   6  -4  466.01   33.25
  -1  -6   4  461.05   38.03
  -1   6   4  331.83   25.09
   1   6  -4  433.16   31.39
   1   6  -4  461.02   36.77
   2   5   4  829.49   58.70
  -2   5  -4  918.87   62.80
   2  -5   4  925.44   64.70
   2  -5   4  903.69   63.98
  -2   5  -4  946.53   66.81
   2   5   4  876.39   60.84
  -2  -5  -4  793.62   57.19
  -2  -5  -4  947.83   67.92
   2  -5   4  847.37   56.27
  -2   5  -4  937.86   61.79
  -2   5  -4  975.22   67.60
   2  -5   4  865.24   62.13
   3  -9   1  876.34   63.31
   3  -9   1  753.00   51.54
  -3  -9  -1  673.15   47.92
   3   9   1  631.34   55.00
  -3   9  -1  743.80   51.41
  -3  -9  -1  700.61   57.95
  -3   9  -1  769.95   51.92
   3  -9   1  702.26   52.35
   3   9   1  720.29   52.23
  -3   9  -1  665.31   50.04
   3  -9   1  807.42   55.18
  -3  -9  -1  735.56   50.17
  -3  -9  -1  780.54   57.64
  -3   9  -1  780.23   55.03
  -4   8   1   95.88   12.52
   4   8  -1  121.90   13.98
  -4   8   1  120.06   11.69
   4  -8  -1   97.59   11.17
  -4  -8   1  119.19   16.35
  -4   8   1  116.17   12.17
  -4  -8   1  106.98   15.65
  -4  -8   1  104.02   12.49
   4   8  -1   97.71   14.99
  -4   8   1  121.58   12.78
   4  -8  -1  107.21   13.68
   4  -8  -1  114.33   11.88
   4  -8  -1  109.99   12.32
  -4  -8   1  116.50   12.03
   4   0  -4  768.71   56.86
   4   0  -4  646.47   45.02
  -4   0   4  829.46   56.39
  -4   0   4  648.08   47.96
   4   0  -4  699.34   50.21
   2   9   2  443.89   36.10
   2  -9   2  380.24   31.46
   2  -9   2  361.05   35.26
  -2  -9  -2  408.27   34.09
  -2  -9  -2  427.32   30.45
  -2   9  -2  507.82   35.87
  -2  -9  -2  489.19   39.00
  -2   9  -2  458.31   32.52
   2  -9   2  441.57   31.59
   2   9   2  440.78   32.79
   2   9   2  497.03   42.25
  -2   9  -2  478.19   34.84
   2  -9   2  437.54   36.00
  -2   9  -2  470.76   36.33
  -2  10   0  179.21   21.92
  -2  10   0  116.35   13.89
  -2  10   0  121.78   11.80
   2 -10   0  117.92   11.90
  -2 -10   0  131.99   16.08
   2 -10   0  122.88   14.30
   2 -10   0  115.67   15.02
   3   7  -3    4.59    5.89
  -3   7   3    4.40    7.33
   3  -7  -3    2.11    6.34
   3  -7  -3    0.26    5.12
   3  -7  -3    4.08    6.35
  -3   7   3    2.85    5.21
   3  -7  -3    1.13    5.65
  -3   7   3    1.79    4.47
   1   6   4  415.67   31.05
   1   6   4  426.34   31.45
  -1   6  -4  486.40   38.49
  -1  -6  -4  372.63   30.31
   1   6   4  407.59   30.10
  -1   6  -4  452.77   31.86
  -1   6  -4  486.98   34.31
  -1  -6  -4  520.16   41.47
   1   6   4  401.05   39.46
  -1   6  -4  428.46   32.46
  -1   6  -4  487.49   39.87
   1  -6   4  423.31   34.44
  -1   6  -4  508.40   39.44
   4  -5   3 1513.49  101.10
   4   5   3 1347.78  101.47
  -4  -5  -3 1442.13   99.98
  -4   5  -3 1702.75  110.17
  -4   5  -3 1556.49  100.15
   4  -5   3 1410.51  112.84
  -4   5  -3 1525.88  101.82
   4   5   3 1506.37  101.83
  -4  -5  -3 1407.88   91.81
   4   5   3 1606.48  106.19
  -4  -5  -3 1472.86  101.77
   4  -5   3 1457.65   99.19
  -4  -5  -3 1584.45  105.66
   4  -5   3 1510.64   97.85
  -4   5  -3 1521.02   99.16
  -5   0  -3    0.62    5.30
  -5   0  -3    0.81    5.96
   5   0   3   -2.88    7.00
  -5   0  -3    0.31    5.62
   5   0   3    0.13    4.86
  -5   0  -3    1.42    4.93
  -4  -1   4   44.98    7.81
  -4   1   4   44.76    7.35
  -4  -1   4   37.58    9.55
   4  -1  -4   51.58    9.87
   4   1  -4   39.94    7.46
   4  -1  -4   40.57    7.07
  -4   1   4   39.06    9.41
   4  -1  -4   45.19    8.85
   4   1  -4   40.64    8.20
   4  -1  -4   43.34   10.69
   4   1  -4   51.06   11.64
   6   0  -2 1316.00  105.50
   6   0  -2 1548.85  107.46
   6   0  -2 1451.47   95.94
  -6   0   2 1646.59  106.58
  -6   0   2 1329.88   96.57
  -6  -3  -1   35.09    9.14
   6   3   1   39.32    9.57
  -6  -3  -1   36.63    8.04
  -6   3  -1   49.37    8.48
  -6  -3  -1   47.75    7.79
  -6   3  -1   51.09    7.70
   6  -3   1   42.32    8.04
   6   3   1   39.31    8.42
   6   3   1   41.00    8.92
   6   3   1   37.10   10.30
   0   0   5    3.24   10.58
   0   0  -5    5.05    7.29
   0   0  -5    1.25    7.27
   0   0  -5   -1.43    8.60
   0   0  -5    1.72    5.31
   4  -7   2   -5.55    7.14
  -4  -7  -2    2.52    6.21
   4  -7   2    3.69    8.84
  -4   7  -2   -1.62    5.85
  -4  -7  -2    3.69    9.16
  -4  -7  -2    3.28    5.32
   4   7   2    2.09    6.21
  -4   7  -2    2.88    4.78
   4   7   2    4.91    7.97
   4  -7   2    4.86    5.61
  -4   7  -2    2.71    7.39
   4  -7   2    0.88    8.68
   4   7   2    5.53    7.69
  -4   7  -2    4.20    5.03
  -4  -7  -2    1.83    6.72
  -5  -1  -3  293.33   22.54
  -5   1  -3  292.26   22.00
   5  -1   3  281.42   27.48
   5  -1   3  264.59   21.84
   5  -1   3  293.76   24.92
   5   1   3  282.13   23.02
  -5   1  -3  264.02   22.83
  -5  -1  -3  250.66   21.53
   5   1   3  240.72   20.44
   5   1   3  253.89   23.62
  -5   1  -3  279.64   22.46
  -5  -1  -3  301.29   23.44
  -4  -8  -1 2080.13  133.17
  -4  -8  -1 2066.96  138.68
  -4   8  -1 2120.41  136.98
  -4  -8  -1 2187.17  161.40
   4  -8   1 2176.92  155.79
  -4   8  -1 2366.05  166.80
   4   8   1 1910.07  192.28
   4   8   1 2101.52  143.63
  -4   8  -1 2238.75  157.79
   4  -8   1 2306.42  167.29
   4  -8   1 2061.28  139.03
  -4   8  -1 2369.62  169.15
   4  -8   1 2330.31  165.20
  -4  -8  -1 1900.32  130.44
   6  -1  -2  112.91   23.13
  -6  -1   2   48.74   10.47
  -6   1   2   51.97   10.43
   6  -1  -2   48.22    8.05
   6   1  -2   53.64    8.63
  -6   1   2   56.71    8.13
  -6  -1   2   60.85    8.91
   6  -1  -2   50.70    8.97
   6   1  -2   50.37    9.35
   6   1  -2   56.21   11.44
   6  -1  -2   54.42   11.70
  -6  -1   2   47.11   10.32
   5  -3  -3  212.35   19.63
  -5   3   3  240.15   20.32
   5   3  -3  209.24   19.86
   5  -3  -3  261.17   23.13
  -5  -3   3  272.73   27.73
   5   3  -3  243.70   24.35
   5   3  -3  229.90   21.16
  -5  -3   3  231.52   23.58
   5  -3  -3  212.19   20.77
   5  -3  -3  208.40   20.60
  -5   3   3  384.15   38.12
  -5  -3   3  254.67   22.00
   5   5   2    0.01    6.80
   5  -5   2    2.26    4.99
   5   5   2    1.15    7.74
   5   5   2    3.49    6.70
  -5  -5  -2   -0.94    6.69
  -5   5  -2    1.29    6.02
  -5   5  -2    2.43    4.43
  -5  -5  -2   -0.55    6.49
   5  -5   2    3.68    7.81
  -5   5  -2   -0.03    5.44
  -5  -5  -2    1.44    5.70
   5   5   2    4.21    6.69
   6  -4   0 3716.35  275.64
  -6   4   0 4108.03  361.23
   6   4   0 3382.95  331.98
  -6  -4   0 3734.88  283.10
   6   4   0 3839.36  277.97
   6   4   0 3643.83  258.10
   6  -4   0 4157.59  394.30
  -6  -4   0 3485.45  248.20
   6  -4   0 4285.88  379.55
  -6  -4   0 4324.89  379.12
   0   1  -5  299.67   27.73
   0  -1  -5  283.05   24.02
   0   1  -5  324.09   30.40
   0   1  -5  268.06   23.06
   0  -1   5  345.15   34.68
   0   1   5  276.48   28.24
   0  -1  -5  333.90   31.39
   0  -1  -5  285.54   26.00
   0   1  -5  325.12   29.70
   0  -1  -5  282.11   26.16
   1   0  -5    0.61    5.60
   1   0  -5    2.29    7.83
  -1   0   5    5.13    9.25
   1   0  -5   -0.29    7.24
   1   0  -5   -0.14    6.88
  -2   8   3  125.72   12.44
  -2  -8   3  113.55   16.36
  -2   8   3  126.24   13.60
  -2  -8   3  144.42   14.01
   2  -8  -3  118.72   14.98
   2  -8  -3  110.49   12.29
   2   8  -3  127.45   14.75
   2  -8  -3  129.39   13.40
  -2   8   3  123.34   17.85
   2  -8  -3  122.82   14.28
   2   8  -3  132.47   16.67
   1   1  -5  152.72   18.94
   1  -1  -5   88.27   12.69
   1  -1  -5   93.66   13.74
   1  -1  -5   99.68   14.49
   1   1  -5   92.60   13.59
  -1   1   5   89.33   14.74
  -1  -1   5   89.66   15.24
   1   1  -5   92.40   14.12
   1  -1  -5   82.49   10.39
   1   1  -5   97.15   14.50
  -4  -2   4   36.93   10.17
  -4   2   4   43.24    7.31
   4  -2  -4   39.34    8.52
  -4  -2   4   43.44    7.72
   4  -2  -4   37.76    8.97
   4   2  -4   39.53    8.40
   4  -2  -4   38.90    7.19
  -4   2   4   37.69    9.82
   4  -2  -4   37.06    8.00
   4   2  -4   44.17   11.15
   4   2  -4   37.73    7.67
  -4  -2   4   39.80    9.92
  -2  10   1 1130.73   84.40
   2 -10  -1 1111.18   84.83
  -2  10   1 1128.51   82.53
   2  10  -1 1077.74  101.16
  -2 -10   1 1240.14   89.08
  -2 -10   1 1168.92   85.59
   2 -10  -1 1319.66   95.69
  -2 -10   1 1106.66   85.81
   2 -10  -1 1167.20   98.77
  -2  10   1 1201.11   86.41
   2 -10  -1 1030.99   78.48
  -2 -10   1 1226.09   90.52
  -2  10   1  979.17   74.56
  -3   4  -4  111.01   14.66
   3  -4   4  117.00   14.03
   3  -4   4  107.08   11.10
  -3   4  -4  112.81   11.27
   3   4   4  117.03   13.56
  -3  -4  -4  114.25   12.38
   3   4   4  106.93   14.20
   3  -4   4  111.30   15.72
  -3  -4  -4  100.06   10.85
  -3  -4  -4  107.47   16.06
  -3   4  -4  201.06   22.84
  -3   4  -4  110.98   13.48
   3   4   4  101.37   11.85
  -3  -4  -4   94.74   10.64
  -3  -4  -4  122.40   15.06
  -3   4  -4  117.94   14.77
  -5   2  -3  939.70   69.87
  -5   2  -3  934.92   68.09
   5   2   3  843.81   65.78
  -5  -2  -3  873.58   67.12
   5   2   3  899.54   69.75
   5   2   3  928.09   75.77
   5  -2   3  864.24   69.13
  -5  -2  -3  914.61   68.68
  -5   2  -3  969.95   71.52
  -5  -2  -3  924.22   67.81
   5  -2   3  876.69   65.98
   5   2   3  868.71   69.97
   5  -2   3  912.69   68.68
  -6  -2   2   59.07    8.82
  -6   2   2   56.79    8.26
   6  -2  -2   47.44    8.69
   6  -2  -2   58.20    8.80
  -6  -2   2   52.01   11.67
   6   2  -2   48.52    9.05
   6  -2  -2   55.12   11.59
   6   2  -2   58.79   11.85
   6  -2  -2   44.20    8.23
   6  -2  -2   54.66   10.82
  -6  -2   2   60.35   12.12
  -6   2   2   52.35   10.28
   6   2  -2   50.10    8.41
  -2 -10  -1  155.12   14.67
   2 -10   1  155.35   18.77
   2 -10   1  159.71   15.11
   2  10   1  136.89   15.63
   2  10   1  154.84   16.33
   2 -10   1  194.59   22.20
  -2 -10  -1  147.42   17.12
  -2 -10  -1  141.63   16.42
   2  10   1  162.03   21.09
  -2  10  -1  178.62   16.43
  -2  10  -1  149.18   15.64
   2 -10   1  182.36   17.70
  -2  10  -1  167.09   17.85
  -2  10  -1  163.05   15.16
   6  -4  -1  156.67   15.16
  -6  -4   1  151.96   18.37
   6  -4  -1  165.59   18.11
   6   4  -1  135.32   14.64
  -6   4   1  155.18   16.89
  -6  -4   1  131.86   15.88
   6  -4  -1  125.16   16.84
   6  -4  -1  172.93   18.56
   6   4  -1  158.74   18.43
  -6  -4   1  172.51   16.51
   6  -4  -1  160.77   20.11
   6   4  -1  106.13   13.71
  -6   4   1  183.63   16.55
   3  -7   3  162.75   17.53
  -3  -7  -3  154.19   16.07
  -3   7  -3  155.99   14.40
  -3   7  -3  161.42   15.44
  -3   7  -3  159.40   15.19
  -3  -7  -3  154.99   19.39
  -3  -7  -3  144.67   14.45
   3   7   3  137.86   14.67
   3  -7   3  164.83   15.23
   3  -7   3  152.86   17.36
  -3  -7  -3  167.24   17.95
   3   7   3  150.21   16.61
   3   7   3  159.04   16.80
  -1   0  -5   -1.48    6.26
  -1   0  -5    1.08    5.53
  -1   0  -5   -3.29    6.59
  -1   0  -5   -0.62    6.81
  -1   0  -5   -0.99    7.65
   0   2   5  367.49   34.42
   0   2  -5  385.61   34.00
   0   2  -5  391.87   35.09
   0   2  -5  356.53   31.69
   0  -2  -5  336.46   30.02
   0  -2  -5  409.80   36.72
   0  -2  -5  302.16   27.26
   0   2  -5  374.08   33.03
   0  -2  -5  347.25   29.19
   4   6  -3  289.82   28.29
   4  -6  -3  255.37   23.85
  -4   6   3  376.40   31.95
   4   6  -3  242.84   21.85
  -4  -6   3  308.79   29.39
  -4  -6   3  262.11   27.36
  -4  -6   3  303.43   25.22
   4  -6  -3  294.07   29.53
   4   6  -3  309.23   29.22
  -4   6   3  294.04   23.83
   4  -6  -3  251.46   21.40
  -5  -7   0  171.72   20.04
   5   7   0  171.09   17.63
  -5  -7   0  178.73   18.99
   5  -7   0  204.86   18.05
  -5  -7   0  181.82   16.85
  -5   7   0  191.69   19.79
   5  -7   0  216.19   20.21
   5  -7   0  190.30   17.42
   5  -7   0  192.54   20.34
  -5   7   0  186.84   16.90
   5   7   0  186.04   20.53
  -5   7   0  209.25   19.08
   5   7   0  209.18   20.44
   2   6  -4  618.77   50.28
  -2  -6   4  579.64   49.00
   2  -6  -4  511.04   40.91
   2   6  -4  583.02   44.63
   2   6  -4  510.37   42.12
   2  -6  -4  493.47   38.52
  -2  -6   4  593.45   45.48
  -2   6   4  513.66   38.94
   2   6  -4  630.81   50.19
   2   8   3   69.50   10.95
  -2   8  -3   73.68    9.14
   2   8   3   84.20   16.09
  -2  -8  -3   68.55   10.14
   2  -8   3   77.62   11.22
   2  -8   3   68.68    8.43
   2   8   3   59.92    8.29
  -2   8  -3   77.78   10.78
   2  -8   3   63.22   11.61
   2   8   3   62.79    9.82
  -2   8  -3   64.64    8.80
   2   8   3   75.02   10.32
  -2   8  -3   76.67   12.18
  -2  -8  -3   84.81   14.34
   2  -8   3   75.68   13.02
  -1   1  -5  486.93   41.33
  -1  -1  -5  488.16   41.77
  -1   1  -5  465.53   39.38
  -1  -1  -5  513.64   40.23
  -1   1  -5  398.44   31.34
  -1   1  -5  508.59   41.87
  -1  -1  -5  490.73   41.05
  -1  -1  -5  432.65   36.11
  -1  -1  -5  510.85   42.07
  -1   1  -5  479.73   39.83
  -1  -2   5  477.01   43.36
  -1   2   5  517.38   42.47
   1   2  -5  412.03   31.82
   1   2  -5  451.61   35.31
   1  -2  -5  469.32   39.97
   1   2  -5  524.62   44.35
   1   2  -5  912.44   72.64
   1  -2  -5  459.57   36.86
   1   2  -5  464.71   39.28
   1  -2  -5  486.54   41.09
   1  -2  -5  422.64   36.07
   1   2  -5  530.30   44.33
  -1   2   5  458.01   40.31
   3   5  -4  274.64   24.46
  -3  -5   4  274.77   27.39
   3  -5  -4  302.43   28.78
   3  -5  -4  237.08   20.79
   3   5  -4  291.24   25.30
  -3   5   4  261.66   21.73
  -3  -5   4  282.70   23.41
  -3   5   4  243.41   25.44
   3  -5  -4  255.14   23.73
   3  -5  -4  278.01   24.80
   3   5  -4  230.75   23.48
   0  10  -2  202.90   21.70
   0  10   2  177.33   19.27
   0  10   2  191.25   21.45
   0  10   2  193.25   17.49
   0  10  -2  196.85   18.21
   0  10  -2  208.30   18.82
   0  10   2  192.26   20.71
   0  10  -2  153.78   16.82
   0 -10  -2  314.61   31.32
   0 -10   2  219.22   21.07
   0  10  -2  202.66   18.43
   0 -10   2  221.69   26.47
   6   0   2 1584.15  126.23
   6   0   2 1605.98  116.56
   6   0   2 1515.11  115.25
  -6   0  -2 1442.31  105.28
  -6   0  -2 1679.26  119.25
   5  -6  -2   71.32    9.76
  -5   6   2   76.40    9.24
   5   6  -2   72.56   10.95
  -5   6   2  219.68   30.43
   5  -6  -2   59.07   10.44
  -5  -6   2   83.59   10.44
   5   6  -2   71.51   12.80
  -5  -6   2   59.24   12.45
   5  -6  -2   69.16   10.61
  -5  -6   2   79.11   12.83
   5   6  -2   62.28    9.20
   4   0   4  320.09   26.02
  -4   0  -4  349.60   29.44
  -4   0  -4  322.11   26.33
  -4   0  -4  309.76   24.81
   4   0   4  320.88   29.30
  -4   0  -4  286.33   25.63
  -4   0  -4  334.41   28.09
   6   4   1   86.13   12.84
   6  -4   1  103.84   12.59
  -6   4  -1  118.89   13.11
   6  -4   1   91.53   14.26
   6  -4   1  101.07   11.50
  -6   4  -1  114.59   12.10
   6   4   1   89.24   13.92
   6  -4   1  105.85   15.50
   6  -4   1   73.16   13.35
  -6  -4  -1   79.71   12.22
   6   4   1   91.00   12.07
   6   4   1   87.28   13.09
  -6  -4  -1  110.52   12.53
  -6   4  -1   80.55   10.80
  -6  -4  -1   89.31   11.77
  -6  -1  -2  209.46   21.50
   6   1   2  231.45   21.79
  -6  -1  -2  216.10   20.77
  -6  -1  -2  257.90   21.99
  -6   1  -2  247.77   20.70
   6   1   2  222.76   21.19
  -6   1  -2  255.86   22.11
   6  -1   2  224.68   20.69
   6   1   2  230.71   25.25
   6  -1   2  233.79   25.63
   6   1   2  230.01   20.92
  -5   7   1  376.16   32.27
   5  -7  -1  482.69   37.57
  -5  -7   1  439.11   38.76
  -5   7   1  537.68   40.99
   5  -7  -1  448.00   42.42
   5  -7  -1  453.81   39.96
   5   7  -1  421.34   48.23
  -5   7   1  539.59   41.50
  -5   7   1  423.43   32.95
  -5  -7   1  498.79   39.09
   5   7  -1  438.56   36.71
   5   7  -1  431.23   36.65
  -5  -7   1  461.13   38.58
   5  -7  -1  444.28   39.01
  -4  -3   4  158.90   18.74
   4   3  -4  130.25   14.07
   4  -3  -4  122.11   13.69
  -4   3   4  127.55   15.63
  -4  -3   4  157.94   15.55
   4  -3  -4  132.25   15.28
   4  -3  -4  141.55   13.89
  -4  -3   4  112.05   15.22
   4   3  -4  153.34   18.15
  -4   3   4  156.79   14.64
   4  -3  -4  162.04   16.67
   4   3  -4  152.79   15.97
   5  -4  -3   12.18    6.35
   5   4  -3    6.00    6.47
   5  -4  -3   10.05    7.12
   5  -4  -3   11.35    6.98
   5   4  -3   10.76    8.35
   5   4  -3   11.60    5.73
   5  -4  -3   13.18    6.81
  -5  -4   3   16.14   12.13
  -5  -4   3   12.73    6.83
  -5  -4   3    8.33    9.52
   5  -4  -3    9.79    7.37
  -5   4   3   14.86    6.15
  -5   4   3   19.64   11.08
  -4  -1  -4  275.56   23.83
  -4  -1  -4  269.91   22.91
   4  -1   4  282.67   25.13
  -4  -1  -4  247.81   22.51
   4   1   4  274.16   22.90
  -4   1  -4  312.78   26.99
   4   1   4  467.84   41.33
   4  -1   4  281.94   27.06
  -4  -1  -4  305.19   31.86
  -4   1  -4  288.59   23.64
   4   1   4  267.56   25.55
   4  -1   4  275.16   22.95
  -4   1  -4  254.91   21.69
  -4  -1  -4  261.80   21.59
  -4   1  -4  276.89   26.43
  -4   1  -4  278.29   24.52
  -1   2  -5   25.41   10.06
   1   2   5   34.66   13.51
  -1  -2  -5   23.60    8.14
  -1  -2  -5   32.19    7.85
  -1   2  -5   29.47    8.85
  -1   2  -5   31.58    8.12
  -1   2  -5   29.27    9.29
  -1  -2  -5   27.47    8.46
  -1  -2  -5   29.46   11.12
  -1   2  -5   27.53    8.01
  -1  10   2  325.71   26.70
   1  10  -2  295.44   27.82
   1 -10  -2  342.55   28.97
   1  10  -2  339.12   28.47
   1 -10  -2  297.97   25.96
  -1 -10   2  353.66   34.76
   1  10  -2  291.89   25.90
  -1  10   2  308.76   27.30
  -1  10   2  319.34   30.20
   1  10  -2  301.23   25.91
  -1  10   2  332.58   29.53
  -1  10   2  300.01   24.40
   2   0  -5   -0.40    4.15
  -2   0   5    0.49    5.41
   2   0  -5   -0.04    6.28
   2   0  -5    0.89    7.23
   2   0  -5    1.22    7.83
  -2   0   5   -0.87    8.30
   5   3   3  757.27   59.64
  -5   3  -3  770.17   56.52
   5   3   3  759.77   62.68
  -5   3  -3  745.84   57.14
   5   3   3  645.07   50.59
   5  -3   3  711.96   58.42
  -5  -3  -3  642.33   52.98
   5  -3   3  791.99   58.63
  -5  -3  -3  727.52   54.67
  -5   3  -3  730.37   55.20
   5   3   3  686.60   56.43
  -5  -3  -3  759.48   58.49
   5  -3   3  738.41   56.93
   2  -6   4    0.90    6.51
  -2   6  -4    0.35    6.21
  -2  -6  -4    1.72    9.49
   2   6   4    0.25   10.82
   2   6   4    1.41    5.43
  -2   6  -4   -0.87    4.64
   2   6   4    1.65    6.15
  -2  -6  -4    4.16    5.50
   2   6   4   -0.41    6.83
  -2   6  -4    5.16    7.15
   2   6   4    1.19    4.60
   2  -6   4    0.49    8.24
  -2   6  -4    3.91    8.55
   2  -6   4   -0.23    7.54
   0  -7  -4   46.33    7.65
   0   7   4   61.52    9.58
   0   7  -4   60.72   12.00
   0   7  -4   64.91    8.70
   0   7  -4   59.52    8.48
   0   7   4   55.93    7.76
   0   7  -4   62.67    9.83
   0  -7   4   67.85   13.04
   0   7   4   53.43    7.82
   0   7   4   50.07   12.03
   0   7  -4   75.07   13.33
   0   7  -4   63.56   12.02
   0  -7  -4   57.69   11.60
  -6  -3   2  321.91   30.15
   6  -3  -2  282.66   27.65
   6  -3  -2  318.97   32.81
   6  -3  -2  318.01   29.92
  -6   3   2  361.23   28.65
   6   3  -2  291.64   32.15
   6   3  -2  321.10   29.31
  -6  -3   2  340.92   27.61
  -6   3   2  276.28   26.95
  -6  -3   2  317.80   31.08
   6  -3  -2  336.30   27.36
   6   3  -2  293.59   25.86
   6  -3  -2  351.10   31.69
   0  11   0   -0.03    7.53
   0  11   0   -1.82    7.81
   0  11   0    0.73    5.87
   0 -11   0    0.05    7.45
   0 -11   0   -1.32    6.20
   0  -3  -5  363.84   30.23
   0   3   5  599.39   51.14
   0  -3  -5  322.38   29.39
   0   3   5  334.21   28.59
   0   3  -5  322.38   28.20
   0   3  -5  322.65   26.75
   0   3   5  335.91   27.52
   0   3  -5  375.58   31.56
   0   3  -5  357.54   32.21
   0   3  -5  366.09   33.41
   0  -3  -5  382.71   34.60
   0   3   5  324.78   31.78
   0   3  -5  343.52   30.94
   0   3  -5  568.69   48.05
   1  10   2   32.68    9.13
  -1  10  -2   39.05    7.22
   1 -10   2   46.40   16.59
  -1  10  -2   45.79   10.99
   1  10   2   39.94   11.31
  -1 -10  -2   39.82    9.68
   1  10   2   38.64    8.39
  -1  10  -2   42.80    7.91
   1  10   2   35.44    7.77
   1 -10   2   43.68   10.64
  -1  10  -2   35.20    7.87
   1  10   2   36.11    7.66
  -1  10  -2   40.42    7.64
  -2   1   5   11.14    8.98
   2   1  -5   11.19    8.16
   2  -1  -5    7.67    8.09
   2  -1  -5    9.27    7.97
   2   1  -5   16.31    9.28
   2  -1  -5    8.50    6.12
   2  -1  -5   10.46    4.68
   2   1  -5    9.88    4.69
  -2  -1   5   13.00    9.38
  -2   1   5   10.52    6.20
  -2  -1   5   11.44    5.36
   2   1  -5   31.46   28.37
   0   9  -3  182.50   21.98
   0   9  -3  149.15   16.42
   0   9  -3  177.39   16.43
   0   9   3  144.10   18.96
   0   9  -3  169.12   16.07
   0   9  -3  171.95   17.93
   0  -9   3  157.91   20.41
   0  -9  -3  158.96   17.45
   0   9   3  171.16   17.01
   0   9  -3  170.84   19.29
   0   9   3  160.20   15.73
   0   9   3  149.50   14.30
   3  -9  -2  795.35   59.52
  -3   9   2  773.74   58.85
  -3  -9   2  865.58   63.45
   3  -9  -2  828.21   65.55
  -3   9   2  915.51   67.72
  -3   9   2  684.40   58.74
   3  -9  -2  881.94   66.43
   3   9  -2  788.99   62.00
  -3   9   2  766.34   56.45
   3  -9  -2  817.31   65.47
   6  -5   0  365.20   31.65
  -6   5   0  384.38   30.21
   6   5   0  369.69   35.88
   6  -5   0  387.50   31.81
  -6  -5   0  351.64   29.78
  -6  -5   0  412.57   32.75
  -6  -5   0  319.26   29.17
   6   5   0  320.42   28.24
   6  -5   0  402.16   37.32
   6   5   0  381.22   32.75
  -6   5   0  435.39   34.37
   6  -5   0  352.19   28.68
  -6  -2  -2  285.79   26.72
   6   2   2  284.14   25.64
   6   2   2  319.07   34.67
   6   2   2  320.69   29.55
  -6   2  -2  341.59   28.32
  -6   2  -2  338.32   26.83
  -6  -2  -2  329.78   26.75
   6   2   2  297.40   26.43
   6  -2   2  310.98   27.80
  -6  -2  -2  338.85   29.14
   6  -2   2  314.11   33.94
   5  -7   1  140.38   14.99
   5   7   1  129.43   15.04
  -5   7  -1  143.44   15.22
  -5  -7  -1  137.82   14.08
  -5   7  -1  153.46   15.07
   5   7   1  126.13   15.88
  -5  -7  -1  127.56   17.20
   5  -7   1  144.12   14.16
   5  -7   1  135.19   17.22
  -5   7  -1  156.76   14.68
  -5   7  -1  128.10   14.21
  -5  -7  -1  159.42   21.22
  -5  -7  -1  118.21   13.96
   1   7  -4  314.67   29.73
   1   7  -4  290.89   26.37
  -1  -7   4  290.79   29.44
   1   7  -4  293.16   28.27
  -1   7   4  239.14   24.87
  -1   7   4  238.97   21.01
  -1   7   4  256.02   22.00
  -1   7   4  243.04   20.32
   1  -7  -4  274.97   26.21
   1   7  -4  276.56   24.30
   1   7  -4  278.41   23.32
   1   7  -4  295.64   28.48
  -1  -3   5  725.50   56.65
   1  -3  -5  769.60   60.82
  -1   3   5  674.61   51.63
   1   3  -5  706.91   54.41
  -1   3   5  804.03   60.44
  -1  -3   5  894.10   74.37
  -1   3   5  719.68   60.70
   1   3  -5  812.85   63.42
   1   3  -5  829.80   63.67
   1  -3  -5  713.60   56.46
   1  -3  -5  799.50   62.67
   1  -3  -5  843.94   63.72
   1   3  -5  873.37   69.00
   1   3  -5  884.42   68.73
   4   6   3    1.00    6.48
  -4  -6  -3   -0.14    5.88
  -4  -6  -3   -0.94    5.31
   4  -6   3    0.11    7.99
  -4  -6  -3    4.73    8.96
  -4  -6  -3    0.23    7.62
   4   6   3   -0.63    5.84
  -4   6  -3    0.17    5.23
   4  -6   3    3.91    7.48
   4  -6   3    0.36    5.40
  -4   6  -3    1.64    6.05
   4   6   3    3.00    7.74
  -4   6  -3    0.73    4.79
   4  -8  -2  292.32   26.98
  -4   8   2  285.42   23.72
   4  -8  -2  284.65   27.05
   4   8  -2  307.25   28.14
  -4  -8   2  271.47   27.37
  -4  -8   2  298.90   24.67
  -4   8   2  311.82   36.27
  -4   8   2  312.47   25.19
   4  -8  -2  287.81   24.49
   4   8  -2  288.29   26.67
  -4  -8   2  312.02   32.15
  -4  -8   2  292.93   27.15
   4  -8  -2  314.58   27.27
  -4   2  -4  113.66   14.48
  -4  -2  -4   90.93   10.85
   4  -2   4   97.52   13.01
  -4   2  -4  108.71   12.16
   4  -2   4  100.12   14.76
   4   2   4   90.67   13.43
  -4  -2  -4   88.53   11.33
  -4   2  -4   98.61   12.61
  -4   2  -4   91.43    9.94
  -4  -2  -4   92.84   10.46
   4   2   4   99.28   12.32
   4   2   4   91.87   10.99
   4  -2   4   98.93   10.84
  -4   2  -4   94.80   13.38
   1   9  -3  180.40   20.35
  -1   9   3  157.31   15.69
   1   9  -3  168.28   15.95
  -1  -9   3  158.51   20.37
   1  -9  -3  159.23   15.94
   1   9  -3  200.05   20.33
   1   9  -3  170.10   16.50
   1  -9  -3  328.01   34.77
  -1   9   3  159.22   14.65
  -1   9   3  168.31   20.16
   1  11   0 1563.76  114.14
  -1 -11   0 1485.42  117.48
   1  11   0 1262.66   96.84
  -1  11   0 1203.29   91.14
   1 -11   0 1551.24  111.37
  -1 -11   0 1491.15  109.88
   1 -11   0 1548.04  118.39
  -1  11   0 1471.76  108.70
   1  11   0 1401.60  105.23
  -1  11   0 1555.91  111.06
  -5  -6  -2  359.37   35.45
   5   6   2  256.41   25.08
  -5   6  -2  343.78   28.98
  -5  -6  -2  251.72   24.96
   5  -6   2  284.61   26.14
   5  -6   2  269.17   27.88
   5   6   2  318.49   28.94
  -5   6  -2  373.16   30.24
  -5   6  -2  313.59   26.08
   5  -6   2  369.83   31.94
  -5  -6  -2  336.34   28.80
   5  -6   2  341.77   27.43
  -5   6  -2  332.65   26.32
   5   6   2  316.48   28.33
  -5  -6  -2  297.99   24.80
  -3   5  -4    9.25    8.40
  -3   5  -4   11.93    8.57
   3   5   4   11.09    7.61
  -3  -5  -4   10.68    5.89
   3  -5   4   13.07    5.62
   3   5   4   13.78    6.66
  -3  -5  -4   10.44    9.83
  -3   5  -4   12.88    8.11
  -3  -5  -4   12.42    8.13
   3  -5   4   13.65    7.34
   3  -5   4   15.36    8.02
   3   5   4   11.08    6.81
  -3  -5  -4   13.06    5.34
   3  -5   4    8.93    8.70
  -3   5  -4   11.90    4.94
   4   9   0   12.33    7.86
   4  -9   0   12.41    6.12
  -4   9   0   11.51    6.15
   4  -9   0   10.75    8.86
  -4   9   0   10.89    7.50
  -4  -9   0   10.53    6.69
   4  -9   0    9.19    5.64
  -4   9   0   12.02    6.81
  -4  -9   0   12.07   10.27
   4  -9   0   13.97    6.88
   4   9   0   14.48    7.77
  -4  -9   0    8.05    8.24
   3 -10   0  691.99   51.34
   3 -10   0  698.87   54.28
  -3  10   0  634.31   49.48
   3  10   0  690.16   54.54
  -3  10   0  716.30   55.67
  -3 -10   0  606.49   55.38
  -3  10   0  726.54   53.67
  -3 -10   0  668.95   54.10
   3 -10   0  693.77   55.46
  -3 -10   0  636.89   50.33
   3  10   0  630.99   50.03
   2  -2  -5   31.72    9.60
   2   2  -5   55.16   21.62
   2  -2  -5   33.47    9.92
   2  -2  -5   29.13    7.52
   2  -2  -5   27.16    5.98
   2  -2  -5   26.68    8.55
   2   2  -5   29.67    9.22
  -2  -2   5   26.56   15.78
  -2   2   5   29.66   10.16
   2   2  -5   27.65    6.17
   2   2  -5   27.16    9.86
  -2   2   5   32.24    6.85
  -1   7  -4  103.04   14.98
   1   7   4   98.95   12.45
   1   7   4   94.58   10.68
   1   7   4   88.59   15.71
  -1  -7  -4  116.99   16.31
  -1   7  -4  106.65   12.47
   1  -7   4  106.36   15.67
  -1  -7  -4   87.40   11.09
  -1   7  -4  110.94   11.90
   1   7   4   93.42   10.68
  -1   7  -4  109.05   14.74
  -1   7  -4  108.99   11.48
  -1   7  -4  111.66   16.62
  -3   9  -2  174.46   16.60
   3   9   2  183.42   18.75
   3  -9   2  174.42   19.82
  -3  -9  -2  201.70   22.65
  -3  -9  -2  204.81   20.15
   3  -9   2  152.62   22.43
  -3  -9  -2  167.41   17.78
  -3  -9  -2  186.55   16.85
  -3   9  -2  213.34   18.88
   3   9   2  175.27   17.68
   3  -9   2  181.65   20.41
   3  -9   2  186.26   17.07
  -3   9  -2  197.18   17.31
  -3   9  -2  196.97   19.83
   1   9   3 1005.26   82.40
   1   9   3 1125.63   84.49
  -1   9  -3 1224.75   91.89
   1   9   3  853.34   66.83
   1   9   3  813.58   62.90
  -1   9  -3 1174.10   85.15
   1  -9   3 1184.52   86.71
  -1   9  -3 1170.72   85.62
   1   9   3  993.87   73.58
  -1   9  -3 1178.34   85.63
   1   9   3  992.42   82.31
  -1  -9  -3 1093.18   82.62
   1  -9   3 1134.35   87.66
  -1   9  -3 1172.03   85.91
  -1  -9  -3 1044.81  102.95
   6  -5  -1  229.03   21.95
  -6  -5   1  234.80   24.05
  -6  -5   1  206.02   20.65
   6   5  -1  228.36   20.82
  -6   5   1  276.68   22.94
   6  -5  -1  253.28   26.17
   6  -5  -1  241.64   23.01
  -6  -5   1  290.06   24.50
   6  -5  -1  263.23   26.19
   6   5  -1  230.42   22.51
  -1   3  -5  130.58   21.05
  -1  -3  -5   63.03    9.99
  -1   3  -5   59.93   11.05
  -1  -3  -5   62.51   10.60
   1   3   5   62.03    9.62
  -1   3  -5   60.55   11.06
  -1  -3  -5   70.15   13.44
   1   3   5   64.60   15.37
   1   3   5   59.17    8.50
  -1   3  -5   51.19    8.90
   1   3   5  131.99   22.16
  -1   3  -5   60.01   10.02
  -1   3  -5   56.76   10.91
  -1   3  -5   59.19   12.11
  -2   0  -5    2.91    8.68
  -2   0  -5   -0.60    6.79
  -2   0  -5    2.49    6.04
  -2   0  -5    1.12    6.69
   2   0   5   -0.34    7.93
  -2   0  -5    0.13    6.26
   0  11   1  878.35   64.26
   0  11  -1  979.37   75.79
   0  11  -1  952.12   70.83
   0  11   1  926.26   71.12
   0  11  -1  905.42   74.05
   0  11   1  837.09   66.80
   0  11  -1  914.22   71.30
   0  11   1  853.06   67.42
   0 -11  -1  877.82   65.63
   0 -11  -1  804.19   61.34
   0 -11   1  961.69   71.12
   0 -11   1 1016.26   78.61
   0  11   1  873.73   65.91
   0  11  -1  942.44   68.95
   3   8  -3 1802.45  132.69
   3  -8  -3 1867.86  134.36
   3  -8  -3 1643.61  125.37
  -3   8   3 1584.09  131.73
  -3  -8   3 1993.18  141.26
  -3   8   3 1748.51  124.35
   3  -8  -3 1690.89  121.26
   3  -8  -3 1610.45  132.86
  -3  -8   3 1510.18  116.14
  -3   8   3 1768.15  126.62
  -2   1  -5   42.16   10.22
  -2  -1  -5   45.49   10.24
  -2   1  -5   44.52    9.55
  -2  -1  -5   37.93   10.51
   2   1   5   40.38   10.79
  -2   1  -5   40.70    9.81
  -2  -1  -5   39.42    9.25
  -2   1  -5   40.22   11.59
   2  -1   5   41.20   10.55
  -2  -1  -5   41.94    9.45
  -2   1  -5   38.07    7.12
  -2  -1  -5   42.06    8.97
   4  -4  -4    6.14    5.36
   4  -4  -4   12.96    8.50
  -4   4   4    5.73    7.43
   4   4  -4    7.40    6.22
  -4  -4   4   11.18    6.49
  -4  -4   4   11.76    9.09
   4   4  -4    6.01    9.02
   4   4  -4    8.02    6.17
   4  -4  -4   10.67    6.79
  -4   4   4    8.87    5.37
   4  -4  -4    6.39    6.72
   6   3   2    1.88    7.56
  -6  -3  -2   -0.34    7.59
  -6   3  -2    5.02    6.59
  -6   3  -2    2.77    5.41
   6  -3   2   -0.31    8.43
   6  -3   2   -1.38    5.91
   6   3   2    3.93    9.26
  -6  -3  -2    1.67    5.83
   6   3   2    0.96    6.31
   6  -3   2    0.38    7.49
  -6  -3  -2   -2.76    6.63
   6   3   2    3.37    6.79
   4  -8   2    2.34    9.01
   4   8   2    6.26    7.72
  -4   8  -2    4.53    4.94
  -4  -8  -2    3.98    7.35
  -4   8  -2    4.77    5.20
   4  -8   2    3.59    6.07
   4   8   2    5.85    6.60
  -4  -8  -2    7.58    5.90
   4  -8   2    4.92    9.57
  -4  -8  -2    2.50    7.25
   4  -8   2    8.08    9.05
  -4   8  -2    1.82    5.52
  -4   8  -2    5.23    8.22
  -4  -8  -2    3.78    8.52
  -4   9   1    3.81    5.86
  -4   9   1    2.95    6.18
  -4  -9   1    2.98    6.48
   4   9  -1    7.70    7.42
   4  -9  -1    3.31    7.88
   4  -9  -1    0.06    5.58
  -4  -9   1    4.57    8.27
  -4   9   1    3.24    7.40
   4  -9  -1    2.85    6.08
  -4  -9   1    0.45    9.20
   4  -9  -1    4.47    6.36
   4   9  -1   12.18    7.63
  -4  -9   1    0.72    6.23
  -4   9   1    2.93    5.39
   5  -4   3  135.59   15.21
  -5   4  -3  137.27   15.13
  -5   4  -3  140.73   17.04
   5   4   3  133.30   18.39
   5  -4   3  124.90   18.13
   5   4   3  144.32   17.16
   5  -4   3  138.89   17.68
  -5  -4  -3  135.89   16.62
  -5   4  -3  131.57   15.71
  -5  -4  -3  146.84   23.34
  -5  -4  -3  121.10   14.53
  -5  -4  -3  112.57   14.61
   5   4   3  109.67   15.38
   2 -10  -2    2.45    6.50
  -2  10   2    2.59    5.83
   2 -10  -2    3.04    6.00
  -2 -10   2    2.26    5.51
   2 -10  -2    0.46    5.92
  -2  10   2   -1.12    5.29
  -2  10   2    3.41    6.85
   2  10  -2    0.63    6.81
   2  10  -2   -0.25    6.93
  -2  10   2    3.02    8.48
  -6  -4   2  928.72   87.91
   6  -4  -2  884.98   91.01
   6  -4  -2  935.67   87.26
  -6  -4   2 1074.39   96.67
  -6   4   2  874.58   81.32
  -6  -4   2  824.84   82.05
   6   4  -2  840.31   80.47
  -6   4   2 1044.74   93.86
   6  -4  -2  908.30   93.65
   6   4  -2  941.76   88.10
   6  -4  -2 1028.49   93.64
   6  -4  -2  902.05   87.78
   6   4  -2  771.64   80.53
   1 -11  -1  566.65   54.92
  -1 -11   1  594.62   55.67
   1  11  -1  585.13   57.86
  -1  11   1  595.14   55.66
   1 -11  -1  602.14   56.32
   1  11  -1  559.66   58.78
   1  11  -1  614.85   57.27
  -1  11   1  559.99   51.57
   1  11  -1  541.50   53.05
  -1  11   1  569.91   55.25
  -1 -11   1  636.81   63.41
  -1  11   1  553.99   51.16
  -1  11   1  551.22   54.67
   1  11  -1  569.60   55.88
  -3 -10   1  141.73   15.89
  -3  10   1  135.79   15.19
   3 -10  -1  141.33   16.16
  -3  10   1  154.11   18.24
   3  10  -1  119.69   15.66
   3 -10  -1  142.30   19.10
  -3  10   1  154.82   17.42
   3  10  -1  134.60   16.46
  -3 -10   1  133.86   16.74
  -3  10   1  152.09   20.76
   3 -10  -1  139.98   16.47
   3 -10  -1  133.00   15.99
  -3 -10   1  232.23   30.54
  -4  -3  -4  272.45   26.86
   4  -3   4  311.69   33.88
  -4  -3  -4  283.34   29.18
  -4   3  -4  321.81   30.75
   4   3   4  293.03   30.35
  -4  -3  -4  267.90   31.50
   4   3   4  272.70   27.57
  -4   3  -4  340.02   33.25
  -4  -3  -4  307.46   30.49
  -4  -3  -4  281.75   27.94
   4   3   4  257.22   28.47
  -4   3  -4  362.37   36.74
  -4   3  -4  321.07   32.49
   4  -3   4  326.16   33.16
   4  -3   4  316.11   30.43
  -4   3  -4  309.87   32.85
   6   5   1  472.31   46.06
   6   5   1  450.28   48.81
  -6  -5  -1  517.79   48.34
  -6   5  -1  454.62   43.57
   6  -5   1  524.76   49.79
   6  -5   1  558.31   54.55
  -6  -5  -1  421.30   43.04
   6  -5   1  480.44   49.36
   6  -5   1  369.05   37.96
  -6   5  -1  518.99   47.97
   6   5   1  438.87   44.98
   6  -5   1  424.25   49.53
  -6   5  -1  537.12   50.16
  -6  -5  -1  435.19   42.07
   6   5   1  454.22   53.21
   0  -4  -5   36.94    9.02
   0   4  -5   32.46    6.52
   0   4   5   29.71    6.32
   0   4  -5   34.06   10.15
   0   4  -5   35.97   10.67
   0   4   5   27.63   11.50
   0   4  -5   36.65   10.75
   0  -4  -5   35.44   10.44
   0  -4   5   28.67    9.13
   0   4   5   23.67    5.71
   0   4  -5   27.93    7.77
   0  -4  -5   28.53    8.35
   0   4   5   89.26   23.59
   0   4  -5   28.85    7.12
   1  11   1  186.94   20.04
   1 -11   1  236.98   28.10
  -1  11  -1  188.99   20.08
  -1  11  -1  218.66   22.53
  -1  11  -1  211.32   24.59
   1  11   1  169.40   21.27
  -1 -11  -1  341.04   38.71
   1 -11   1  192.97   21.80
   1  11   1  180.24   22.57
  -1  11  -1  187.82   24.22
   1  11   1  202.32   25.23
  -1  11  -1  194.83   22.75
  -5   5   3   66.23   13.82
   5  -5  -3   59.18    9.16
   5  -5  -3   48.10    9.35
   5   5  -3   68.93   13.36
  -5   5   3   62.64    9.00
   5  -5  -3   47.49    9.42
   5  -5  -3   64.76   10.52
   5   5  -3   58.08    9.48
  -5  -5   3   61.97   13.64
  -5  -5   3   69.67   10.48
   5   5  -3   54.17   10.17
  -5  -5   3   84.73   16.22
   5  -5  -3   63.48   11.45
  -3  -6   4   12.58    5.97
   3  -6  -4    9.76    5.53
  -3   6   4   11.43    5.10
  -3   6   4   20.11    9.01
   3  -6  -4   13.22    6.29
   3   6  -4    7.99    6.41
  -3   6   4   12.12    9.18
  -3  -6   4   12.27    9.78
   3  -6  -4   11.80    7.28
   3   6  -4    8.33    9.07
  -3  -6   4   14.84   10.67
   3   6  -4    9.92    6.35
  -2  -3   5  152.09   19.16
   2   3  -5  184.24   22.78
  -2  -3   5  181.00   25.26
   2  -3  -5  159.78   18.74
   2   3  -5  184.35   21.98
   2  -3  -5  193.56   23.27
  -2  -3   5  158.67   21.16
  -2   3   5  165.66   22.01
   2  -3  -5  159.42   19.91
   2  -3  -5  163.83   17.87
   2  -3  -5  189.44   23.44
   2   3  -5  168.37   18.24
  -2   3   5  155.25   18.15
   4  -7  -3  220.84   23.88
  -4  -7   3  246.89   28.84
   4   7  -3  185.11   20.24
   4   7  -3  187.58   21.50
  -4   7   3  209.40   21.82
   4  -7  -3  191.02   20.02
   4  -7  -3  201.05   24.11
  -4  -7   3  165.39   23.57
   4   7  -3  219.70   25.95
  -4  -7   3  213.40   21.98
   4  -7  -3  201.19   23.57
  -4   7   3  206.32   21.07
  -2  -7   4   53.83    8.42
   2   7  -4   45.49    8.43
  -2  -7   4   54.58   14.61
   2  -7  -4   42.72    8.41
   2   7  -4   54.09   12.08
   2   7  -4   47.12    9.12
  -2   7   4   45.02    7.58
   2  -7  -4   41.88    7.64
   2  -7  -4   63.23   15.30
   2   7  -4   47.29    8.73
  -2  -2  -5  479.32   48.20
  -2   2  -5  488.07   46.53
  -2  -2  -5  516.92   48.69
  -2   2  -5  423.47   39.98
   2  -2   5  464.72   46.52
  -2  -2  -5  488.49   47.47
  -2   2  -5  536.74   51.97
   2   2   5  453.34   45.75
  -2   2  -5  496.98   49.02
   2   2   5  463.55   43.46
   2   2   5  473.17   44.49
  -2   2  -5  513.63   49.30
  -2   2  -5  484.91   45.45
  -2   2  -5  467.60   47.29
  -2  -2  -5  527.11   51.31
  -1   4   5   35.99   15.36
   1   4  -5   22.69    9.89
   1  -4  -5   19.32    8.20
   1   4  -5   19.18    7.07
   1   4  -5   20.99    7.79
  -1   4   5   17.73    9.78
  -1   4   5   18.30    5.48
   1  -4  -5   19.12    7.89
   1   4  -5   18.29   10.10
   1  -4  -5   18.57    9.40
   1   4  -5   20.83    7.58
  -1  -4   5   15.24    8.37
  -1   4   5   18.21    5.32
   1   4  -5   24.47    9.07
  -3  10  -1   84.25   11.00
  -3 -10  -1   80.48   14.27
   3  10   1   70.75   11.54
   3 -10   1   84.66   12.23
   3 -10   1   80.41   14.15
  -3 -10  -1   78.68   10.93
   3  10   1   78.35   12.93
  -3  10  -1   85.38   13.43
  -3 -10  -1   64.51   12.41
  -3  10  -1   83.96   11.23
   3 -10   1   79.69   11.33
  -3 -10  -1   69.72   11.17
   3 -10   1   90.23   15.69
  -3  10  -1   75.84   11.38
  -4   9  -1  349.11   35.35
  -4  -9  -1  250.33   28.35
   4  -9   1  342.05   36.60
   4   9   1  275.52   29.65
  -4   9  -1  330.63   31.68
   4  -9   1  317.25   34.29
   4   9   1  283.39   29.94
   4  -9   1  334.06   33.04
   4  -9   1  315.42   30.65
  -4   9  -1  321.20   31.26
  -4  -9  -1  294.11   28.87
  -4  -9  -1  304.08   33.74
  -4   9  -1  314.61   31.37
  -4  -9  -1  276.88   29.17
  -2  10  -2   47.22   10.74
  -2 -10  -2   51.43   11.10
   2  10   2   52.14   13.29
  -2  10  -2   50.47    8.20
   2 -10   2   41.01   10.99
  -2  10  -2   55.67    8.82
  -2  10  -2   51.77    9.52
   2  10   2   47.65    9.27
   2  10   2   44.93    7.94
   2 -10   2   48.32    8.26
   2 -10   2   53.74   12.33
   2  10   2   58.36   10.42
  -2 -10  -2   44.43    9.08
   2 -10   2   40.69   15.68
  -2   9   3    4.68    6.54
   2  -9  -3    2.10    6.72
  -2   9   3    6.60    9.49
   2  -9  -3    5.72    6.82
   2  -9  -3    1.74    5.28
  -2   9   3    4.51    4.79
   3  -8   3  184.06   19.38
  -3  -8  -3  201.36   24.89
  -3   8  -3  195.10   22.69
   3  -8   3  149.67   19.77
  -3   8  -3  181.56   18.98
  -3   8  -3  192.92   20.11
   3   8   3  163.42   20.03
  -3  -8  -3  189.30   21.78
   3  -8   3  177.04   21.48
   3   8   3  164.95   18.94
  -3  -8  -3  177.07   20.67
  -3   8  -3  198.14   20.30
  -3  -8  -3  164.58   17.69
   3   8   3  167.91   20.68
   3  -8   3  206.75   23.61
  -5   8   0   19.68    6.62
  -5   8   0   26.06    7.82
  -5  -8   0   21.16    7.77
   5  -8   0   23.41    6.96
  -5  -8   0   21.69    6.71
   5   8   0   18.96    7.44
  -5   8   0   20.81    7.80
   5  -8   0   24.26    9.73
   5  -8   0   23.68    6.66
   5  -8   0   26.30    7.89
   5   8   0   22.31    8.04
  -5  -8   0   23.48   11.52
  -5  -8   0   20.35   10.14
  -5  -7   2  105.03   15.57
   5  -7  -2   88.75   14.23
   5  -7  -2   84.33   11.84
   5   7  -2   94.40   15.02
  -5   7   2  110.10   13.62
   5  -7  -2  102.58   13.08
   5   7  -2   84.83   11.94
  -5  -7   2   88.83   15.65
  -5  -7   2  108.14   13.44
   5   7  -2   98.88   14.07
  -5   7   2  108.28   12.99
  -5   7   2   68.01   12.69
   5  -7  -2  105.55   13.55
   2 -11   0  489.82   45.75
   2 -11   0  486.97   47.16
  -2 -11   0  749.17   73.43
  -2  11   0  474.60   47.33
  -2  11   0  481.51   47.02
  -2  11   0  481.91   44.76
   7   0   0  505.46   53.17
   7   0   0  478.57   47.91
   7   0   0  567.51   53.78
  -7   0   0  496.00   48.12
  -7   0   0  620.76   56.94
  -1  -4  -5    7.23    5.97
  -1   4  -5    7.34    7.86
  -1   4  -5    7.78    6.73
  -1  -4  -5   11.98    9.96
  -1   4  -5    6.71    8.43
   1   4   5    6.71   11.67
  -1   4  -5    7.22    4.87
   1   4   5    8.26    6.21
  -1   4  -5    9.16    4.98
   1   4   5    7.70    4.72
   1  -4   5    4.83    7.71
  -1   4  -5   10.33    8.21
   1   4   5   10.46    8.45
  -1  -4  -5   10.56    6.57
   3   0  -5    2.58    8.47
   3   0  -5    1.29    4.80
  -3   0   5    2.31    5.75
  -3   0   5    1.11    8.47
  -6   0   3   -0.25    5.43
   6   0  -3   -0.02    5.80
   6   0  -3    5.62   14.23
   6   0  -3   -0.48    8.55
   6   0  -3   -1.64    5.60
  -6   0   3    0.87    7.38
   6  -6   0   16.99    7.16
  -6   6   0   19.86    7.27
  -6   6   0   21.07    6.41
   6   6   0   13.20    6.87
  -6  -6   0   16.61    6.95
  -6   6   0   38.00   12.37
   6   6   0   16.70    7.68
   6   6   0   17.00    8.01
  -6  -6   0   22.23    7.55
   6  -6   0   14.16    9.49
  -6   6   0   14.07    8.27
   6  -6   0   22.74    7.86
  -6  -6   0   12.60    8.64
   6  -6   0   16.01    6.39
   7  -1   0  340.14   34.32
   7   1   0  357.21   35.28
  -7  -1   0  351.85   36.44
   7  -1   0  381.22   37.94
  -7  -1   0  349.45   35.50
  -7   1   0  340.40   34.27
  -7   1   0  408.59   38.59
   7   1   0  337.06   39.13
  -7  -1   0  427.03   40.41
   7   1   0  335.51   34.68
   7  -1   0  342.54   36.24
  -3  -1   5 1832.68  111.97
  -3  -1   5 1869.28  113.84
   3   1  -5 1533.89  136.98
   3  -1  -5 1451.60  131.70
   3   1  -5 1571.07  150.43
  -3   1   5 1830.32  116.52
   3  -1  -5 2013.00  123.04
   3   1  -5 2030.91  123.61
  -3   1   5 1826.82  111.73
   2   7   4  638.60   67.79
  -2   7  -4  594.91   57.10
  -2   7  -4  595.94   57.16
   2   7   4  539.19   53.83
   2  -7   4  536.65   53.21
  -2   7  -4  585.77   54.65
  -2  -7  -4  496.30   51.48
  -2   7  -4  600.92   55.37
   2  -7   4  572.28   55.89
   2  -7   4  634.07   59.30
  -2  -7  -4  647.50   63.42
   2   7   4  600.09   59.57
   2   7   4  495.03   51.42
  -2   7  -4  593.53   54.29
   2   7   4  479.01   46.28
  -6  -1   3  721.47   66.33
   6   1  -3  671.98   63.86
   6  -1  -3  734.82   68.07
  -6  -1   3  601.83   59.10
  -6   1   3  543.45   52.63
   6   1  -3  588.88   59.50
  -6  -1   3  585.59   56.58
  -6   1   3  693.39   63.43
   6  -1  -3  700.73   67.77
   6  -1  -3  834.55   79.00
   6  -1  -3  576.18   55.64
   6   1  -3  662.82   63.93
  -2  -9  -3  119.28   15.54
  -2   9  -3  146.64   16.63
   2  -9   3  151.95   18.15
   2   9   3  127.67   15.73
   2   9   3  155.74   22.96
  -2  -9  -3  151.58   20.53
  -2   9  -3  145.65   18.76
  -2   9  -3  143.30   15.69
   2   9   3  120.05   15.76
   2  -9   3  146.91   20.88
  -2   9  -3  141.96   15.75
   2  -9   3  138.46   18.75
   2   9   3  116.15   13.85
   2   9   3  122.64   15.78
   5   0  -4  332.18   46.92
   5   0  -4   96.44   12.96
  -5   0   4   85.79   13.27
   5   0  -4   93.85   12.13
  -5   0   4  111.61   13.51
   5   0  -4  111.02   16.57
  -6  -4  -2   41.14    8.43
   6   4   2   35.57   10.77
   6   4   2   30.55    7.72
  -6   4  -2   43.61    7.92
   6  -4   2   36.04    8.08
  -6  -4  -2   47.73   10.26
   6   4   2   32.83    8.74
  -6   4  -2   37.53    8.73
   6   4   2   39.61   10.04
  -6  -4  -2   33.87   10.59
   6  -4   2   45.39   10.11
   2  -3   5  140.33   18.78
  -2   3  -5  155.85   20.92
  -2  -3  -5  152.30   20.37
  -2   3  -5  162.24   18.60
  -2   3  -5  151.90   16.54
  -2  -3  -5  176.56   21.01
  -2   3  -5  154.39   19.49
   2   3   5  132.97   18.25
  -2  -3  -5  144.62   17.50
  -2   3  -5  175.84   20.14
   2   3   5  660.33   76.47
   2   3   5  138.10   15.34
  -2   3  -5  160.38   16.99
   2   3   5  163.17   17.98
  -2  -3  -5  164.64   18.14
  -2   3  -5  159.40   19.78
  -5   8   1    6.53    5.63
   5   8  -1    3.75    7.04
  -5  -8   1    6.78    6.06
   5  -8  -1    8.64    8.43
  -5   8   1   10.89    6.40
  -5   8   1    3.64    5.02
   5  -8  -1    8.46    6.23
   5   8  -1   10.10    8.04
  -5  -8   1    3.56    8.82
  -5  -8   1   -0.78    7.92
   5  -8  -1    7.56    6.01
  -5   8   1    7.79    6.81
   5  -8  -1    3.18    5.95
   7   0  -1    4.03    7.60
   7   0  -1    0.87    6.53
  -7   0   1   -0.53    7.90
   7   0  -1   -2.73   10.93
   7   0  -1    2.47    9.21
  -7   0   1   -0.37    5.24
   5   1  -4  413.69   40.16
   5  -1  -4  389.75   38.46
   5  -1  -4  434.30   43.80
   5   1  -4  471.57   47.53
  -5  -1   4  439.82   41.85
   5  -1  -4  471.83   47.24
   5   1  -4  668.43   70.15
  -5  -1   4  374.16   38.00
   5   1  -4  396.59   38.87
  -5   1   4  459.07   43.20
  -5   1   4  366.14   37.36
   5  -1  -4  467.63   45.63
   4   4   4  398.87   41.42
  -4  -4  -4  407.33   43.43
   4   4   4  416.11   42.10
  -4   4  -4  484.16   47.38
   4  -4   4  435.32   40.66
  -4   4  -4  472.03   45.72
   4  -4   4  475.52   48.01
  -4   4  -4  381.91   36.25
  -4  -4  -4  431.64   41.24
  -4   4  -4  436.06   43.88
   4  -4   4  475.03   46.21
  -4  -4  -4  462.05   45.67
   4   4   4  424.63   41.09
  -4   4  -4  446.38   41.55
  -4  -4  -4  401.02   38.16
  -3  -6  -4  319.62   31.63
  -3   6  -4  370.23   37.56
   3   6   4  317.78   33.72
  -3   6  -4  332.23   34.28
   3  -6   4  368.33   37.94
   3  -6   4  356.07   33.97
  -3   6  -4  348.44   32.96
   3   6   4  322.55   33.71
  -3  -6  -4  297.63   28.85
  -3  -6  -4  347.26   37.28
   3  -6   4  341.79   36.03
  -3   6  -4  354.57   34.93
  -3  -6  -4  387.68   38.80
   3   6   4  316.44   32.85
   3  -6   4  378.33   37.60
   4   7   3  107.48   14.25
  -4   7  -3  131.97   15.07
   4   7   3  106.33   15.49
  -4  -7  -3  115.73   18.15
   4  -7   3  120.28   14.04
  -4  -7  -3  118.44   15.71
   4   7   3   97.73   13.84
  -4  -7  -3   97.63   12.67
  -4   7  -3  115.96   13.25
  -4   7  -3  117.77   14.06
   4  -7   3  104.19   15.28
  -4  -7  -3  100.01   12.43
  -4   7  -3  102.65   14.54
  -7   1   1  138.92   15.50
   7   1  -1  122.43   15.48
   7  -1  -1  147.70   19.88
   7   1  -1  108.54   16.76
   7  -1  -1  128.32   18.28
   7   1  -1  127.90   17.71
   7  -1  -1  117.60   16.81
  -7  -1   1  120.48   16.58
   7  -1  -1  125.93   15.42
  -7  -1   1  129.96   15.12
  -7   1   1  129.97   17.73
  -7  -1   1  110.55   16.23
  -4   5   4   43.48   10.74
   4   5  -4   53.31    9.95
  -4  -5   4   69.79   14.01
   4  -5  -4   46.51    7.95
   4  -5  -4   46.45    9.64
   4  -5  -4   46.76    9.88
  -4   5   4   54.23    8.41
   4   5  -4   48.99    8.51
   4  -5  -4   53.45   10.03
   4   5  -4   40.97   11.16
  -4  -5   4   51.19    8.66
   0   8  -4    4.52    5.31
   0   8   4    3.78    9.02
   0   8   4    7.26    6.84
   0   8  -4    4.97    5.46
   0  -8  -4    3.11    5.67
   0   8   4    3.83    5.01
   0   8  -4    2.43    7.49
   0   8  -4    2.77    4.94
   0   8  -4    2.80    8.46
   0   8   4    4.25    5.08
   0  -8  -4    0.99    7.67
   0  -8   4    4.30    9.42
   2 -11  -1  777.97   71.87
  -2 -11   1  716.93   66.73
   2 -11  -1  742.56   74.28
  -2 -11   1  793.51   76.87
   2  11  -1  724.20   69.86
  -2 -11   1  762.70   70.56
  -2  11   1  794.01   72.09
   2 -11  -1  728.32   66.77
  -2  11   1  727.99   66.50
  -2  11   1  623.89   60.12
  -2  11   1  756.24   71.47
  -6  -6   1   10.89    7.57
  -6   6   1   10.38    5.47
  -6  -6   1   10.62    6.66
   6  -6  -1   11.13    6.59
   6  -6  -1   10.25    6.33
   6   6  -1    9.43    6.07
  -6  -6   1    7.36    8.61
   6   6  -1   11.98    7.81
   6  -6  -1   10.36    6.24
  -6   6   1   16.83   10.83
   6  -6  -1   12.15    9.78
   7   2   0   85.11   16.24
   7  -2   0   98.01   13.34
   7   2   0   87.09   12.25
  -7  -2   0   92.86   13.19
  -7  -2   0   91.50   15.34
   7  -2   0   79.21   12.63
  -7   2   0   83.12   12.89
   7  -2   0  104.73   16.65
  -7   2   0  102.08   12.56
   7  -2   0   88.53   12.29
   7   2   0   88.76   13.90
   7  -2   0   80.41   11.95
   7   2   0   76.02   12.34
  -7  -2   0  102.04   12.89
   2  -4  -5   74.76   11.96
   2   4  -5  104.80   13.51
  -2  -4   5  117.89   19.72
  -2   4   5   96.73   15.70
   2  -4  -5  102.97   15.57
  -2  -4   5   92.25   14.46
   2   4  -5  105.95   15.94
  -2  -4   5   99.85   15.26
   2  -4  -5  122.35   17.56
   2  -4  -5   88.45   11.39
  -2   4   5  102.01   12.40
   2   4  -5  123.36   19.22
  -3  -2   5  634.42   59.00
  -3   2   5  617.55   60.48
   3   2  -5  627.39   61.28
   3   2  -5  547.75   51.59
   3  -2  -5  490.97   46.34
   3   2  -5  902.93   90.14
  -3   2   5  581.44   58.81
   3  -2  -5  734.94   70.36
  -3  -2   5  650.86   63.81
   3   2  -5  662.06   63.28
  -5  -5  -3  157.98   17.45
   5   5   3  160.15   20.60
  -5   5  -3  171.55   18.94
  -5  -5  -3  176.76   24.28
   5  -5   3  164.82   21.55
   5   5   3  182.77   20.49
   5  -5   3  181.49   19.25
  -5   5  -3  176.12   18.21
   5   5   3  162.62   19.91
   5  -5   3  171.80   20.39
  -5  -5  -3  194.09   21.58
  -5  -5  -3  138.76   17.60
  -5   5  -3  167.77   19.39
   6  -2  -3   45.33    8.79
   6  -2  -3   58.21    9.84
   6   2  -3   51.72   11.66
   6   2  -3   50.29    9.91
  -6   2   3   48.94   11.15
   6  -2  -3   51.98    9.18
  -6  -2   3   50.83   11.43
   6   2  -3   51.90    9.21
  -6  -2   3   58.55    9.27
  -6   2   3   60.72    9.31
  -6  -2   3   45.45   10.68
   6  -2  -3   54.94   12.06
   6   5  -2  334.90   35.03
   6  -5  -2  363.83   36.67
  -6   5   2  338.08   33.83
   6  -5  -2  337.83   36.24
  -6  -5   2  355.34   37.97
  -6  -5   2  420.40   40.01
   6  -5  -2  370.12   41.29
   6  -5  -2  408.68   39.27
   6   5  -2  347.59   35.00
   6  -5  -2  324.70   33.31
  -6  -5   2  295.10   34.63
   6   5  -2  364.82   39.11
  -6   5   2  392.37   37.01
  -2  11  -1   61.33    9.27
   2  11   1   59.05    9.29
  -2 -11  -1   45.72   10.43
  -2  11  -1   64.17   11.65
  -2  11  -1   64.51    9.53
  -2 -11  -1   57.80   11.08
   2 -11   1   71.76   11.35
   2 -11   1   77.30   15.38
   2  11   1   59.67   10.53
   2  11   1   76.33   15.68
  -2  11  -1   65.56   11.85
   2 -11   1   58.54    9.51
   2  11   1   56.88   10.32
  -5   7  -2  348.75   33.60
  -5   7  -2  298.06   29.32
  -5   7  -2  316.95   30.46
  -5  -7  -2  274.95   31.99
   5  -7   2  298.91   29.45
   5   7   2  265.39   30.62
  -5   7  -2  330.31   33.17
   5   7   2  286.37   30.96
   5  -7   2  305.48   33.26
  -5  -7  -2  251.10   28.03
   5  -7   2  283.74   31.20
  -5  -7  -2  322.73   32.71
   5  -7   2  340.96   34.97
  -5  -7  -2  289.09   28.52
   5   7   2  289.40   32.00
   0   5  -5    2.61    5.68
   0  -5  -5    5.02    9.26
   0   5  -5    2.44    8.57
   0   5   5    4.57    9.23
   0   5   5    1.98    4.27
   0   5  -5    0.34    8.04
   0   5   5    1.85    4.61
   0  -5  -5    2.94    6.87
   0   5  -5    2.16    4.53
   0  -5   5    5.49    8.03
   0  -5  -5    3.62    5.94
   0   5   5    6.40    7.21
   0   5  -5    4.37    8.38
   0   5  -5    2.88    5.31
  -5  -8  -1  176.09   22.54
  -5   8  -1  205.57   21.09
   5  -8   1  191.42   20.22
  -5   8  -1  200.67   22.10
   5  -8   1  176.79   22.47
  -5   8  -1  216.17   22.62
   5   8   1  156.88   19.26
   5  -8   1  176.79   22.29
  -5  -8  -1  159.03   18.83
   5  -8   1  199.18   21.53
  -5   8  -1  180.91   20.09
  -5  -8  -1  177.62   23.68
   5   8   1  159.13   20.96
   1  -8  -4   13.18    9.38
  -1  -8   4   15.42   10.85
   1   8  -4   15.72    8.01
  -1   8   4   13.17    9.76
   1   8  -4   14.83    6.17
  -1   8   4   12.28    5.64
   1   8  -4   15.45    6.50
  -1   8   4   10.63    5.68
  -1   8   4   15.70    7.16
   1   8  -4   12.89   10.18
   1   8  -4   12.49    5.60
   5   2  -4   10.25    7.46
   5  -2  -4   10.24    5.87
   5  -2  -4   10.61    8.07
   5   2  -4   12.96    9.50
  -5   2   4    8.07    5.23
   5  -2  -4    8.44    5.92
   5  -2  -4   11.35    7.47
   5   2  -4    9.72    6.62
  -5   2   4   10.25    7.52
  -5  -2   4   10.62    6.18
  -5  -2   4    8.19    7.67
  -5  -2   4    9.77    8.26
  -7   0  -1   -0.96    5.83
   7   0   1    6.97    9.29
  -7   0  -1   -0.95    6.86
   7   0   1    0.59    7.01
   7   0   1    0.68    7.48
   7   0   1    2.60    7.35
   1   5  -5   78.02   11.78
   1   5  -5   95.03   16.37
   1  -5  -5   67.67   11.41
   1   5  -5   90.59   14.49
  -1  -5   5   78.47   13.41
  -1   5   5   77.74   14.78
   1  -5  -5   88.56   13.00
   1   5  -5   80.31   11.13
  -1   5   5   70.20    9.40
  -1   5   5  174.45   24.56
   1   5  -5   95.32   12.38
   1  -5  -5   81.85   13.41
   1   5  -5   87.78   14.43
  -7  -2   1 1018.14   93.33
  -7   2   1  914.83   87.11
  -7  -2   1  703.62   67.88
   7   2  -1  924.35   87.76
   7   2  -1  899.13   88.07
   7  -2  -1  748.50   74.06
   7  -2  -1  957.52   94.31
   7  -2  -1  905.00   85.87
  -7   2   1 1047.17   93.88
  -7  -2   1  927.16   87.11
   0  11   2  316.89   31.09
   0  11  -2  333.02   35.49
   0 -11  -2  318.85   32.27
   0  11   2  296.53   24.78
   0  11  -2  328.43   32.04
   0 -11   2  386.51   43.93
   0 -11   2  355.24   27.05
   0 -11  -2  416.64   42.77
   0  11  -2  328.15   32.05
   0  11  -2  328.35   32.71
   0  11  -2  284.52   30.34
   0  11   2  306.53   25.80
   0  11   2  302.51   33.65
   6  -6   1   74.22   10.96
   6   6   1   65.93   12.09
  -6  -6  -1   77.13   11.21
  -6   6  -1   69.56   11.26
   6  -6   1   67.50   10.93
  -6  -6  -1   64.08   10.90
   6  -6   1   73.05   14.23
  -6  -6  -1   59.22   12.78
  -6   6  -1   78.16   11.34
   6   6   1   66.58   11.57
   6  -6   1   53.07   11.80
   6   6   1   71.75   12.75
   7  -1   1   39.22    8.76
   7  -1   1   36.81   11.25
  -7   1  -1   47.48    8.52
  -7  -1  -1   53.88    9.11
  -7   1  -1   43.26    8.85
  -7  -1  -1   35.56    8.67
   7   1   1   40.47   11.93
   7  -1   1   40.03    8.83
  -7  -1  -1   45.56   10.40
   7   1   1   41.04    9.54
   7  -1   1   40.64    9.14
   7   1   1   43.06    9.31
   7  -1   1   37.83   10.06
   7   1   1   40.96    9.90
  -1   8  -4  109.12   10.54
   1   8   4   86.47    9.81
  -1   8  -4  111.22   11.02
   1  -8   4  102.88   15.00
  -1   8  -4  118.30   16.57
   1   8   4   89.22   15.27
  -1  -8  -4  107.98   15.12
  -1   8  -4  107.53   13.97
  -1  -8  -4   94.76   11.93
   1   8   4   90.20   10.02
   1   8   4  104.23   12.52
  -1   8  -4  102.70   10.73
   5  -6  -3   58.89   10.08
  -5   6   3  123.45   18.04
   5   6  -3   65.20   10.01
   5  -6  -3   63.50    8.82
  -5  -6   3   68.04    9.14
  -5   6   3   51.20   10.69
   5   6  -3   56.67    9.02
  -5  -6   3   64.70   14.07
   5   6  -3   65.84   12.42
  -5   6   3   62.99    8.11
   5  -6  -3   59.35   11.21
  -4   9   2   45.80    7.43
  -4   9   2   45.92    8.06
   4  -9  -2   41.46    9.88
  -4  -9   2   48.51    8.29
   4   9  -2   45.75    9.23
   4  -9  -2   47.09    8.03
   4  -9  -2   45.54    8.45
   4   9  -2   46.39   10.40
  -4  -9   2   43.11   11.80
   4  -9  -2   52.62    8.76
  -4   9   2   45.72   11.17
  -3   0  -5    1.83    7.94
   3   0   5    0.75    4.49
  -3   0  -5   -1.44    6.34
  -3   0  -5   -0.82    7.59
   3   0   5   -0.82    8.00
  -3   0  -5   -0.82    5.22
  -3   0  -5   -0.45    6.44
  -3   0  -5   -5.16    8.93
   0  10  -3  184.67   19.50
   0  10  -3  258.53   19.45
   0  10   3  217.82   16.77
   0  10   3  209.05   18.88
   0 -10  -3  248.64   21.52
   0  10  -3  265.95   23.67
   0  10  -3  259.59   20.67
   0 -10   3  220.51   23.79
   0  10   3  240.26   19.53
   0  10  -3  261.84   19.57
   0  10   3  212.79   21.65
   3 -10  -2  161.52   17.56
  -3  10   2  167.30   14.65
  -3  10   2  195.56   16.71
  -3  10   2  153.78   17.24
  -3 -10   2  176.26   14.54
   3  10  -2  174.64   16.90
  -3  10   2  162.82   13.44
   3 -10  -2  180.30   15.35
   3 -10  -2  175.24   18.19
   3 -10  -2  190.76   16.84
   7   3   0  127.78   14.13
  -7  -3   0  148.60   13.21
   7  -3   0  145.23   17.26
   7   3   0  147.22   19.40
  -7  -3   0  138.58   13.99
   7  -3   0  128.62   15.05
  -7   3   0  138.63   14.62
   7  -3   0  134.94   13.29
   7   3   0  127.54   13.12
  -7  -3   0  123.58   15.61
   7   3   0  131.34   14.59
   7  -3   0  130.55   15.90
  -7   3   0  151.28   13.06
   7  -3   0  136.07   13.38
  -1   5  -5    4.57    7.86
   1   5   5    3.44    6.13
   1   5   5    6.36    5.77
  -1   5  -5    6.44    4.86
   1  -5   5    3.97    6.92
   1   5   5    4.31    4.29
  -1   5  -5    4.09    7.97
  -1  -5  -5    1.52    4.93
  -1   5  -5    4.46    6.36
  -1   5  -5    3.89    8.22
  -1   5  -5    5.45    5.04
  -1  -5  -5    5.45    5.90
  -1  11   2  109.59   12.06
  -1  11   2  110.65   13.47
   1  11  -2  113.53   11.40
  -1  11   2  105.02   10.50
  -1 -11   2  134.23   19.72
   1  11  -2  124.51   12.81
   1  11  -2  111.69   12.16
   1 -11  -2  109.97   12.04
  -1  11   2  113.14   15.47
   1  11  -2  116.58   15.71
  -1  11   2  119.27   11.94
   1 -11  -2  117.12   13.78
  -3   1  -5  245.05   19.38
  -3  -1  -5  210.59   16.13
  -3   1  -5  216.74   17.36
  -3  -1  -5  231.23   19.58
  -3  -1  -5  246.83   20.59
  -3   1  -5  246.24   19.95
  -3   1  -5  218.73   22.41
  -3  -1  -5  195.20   17.88
  -3   1  -5  218.20   19.95
  -3  -1  -5  246.24   19.06
  -3  -1  -5  220.80   21.92
   3  -1   5  238.72   22.32
   3   1   5  232.46   22.09
   3  -1   5  184.90   15.42
   3   1   5  194.27   15.40
  -3   1  -5  251.39   21.52
  -3  -3   5  342.71   24.07
   3   3  -5  335.89   24.90
   3   3  -5  369.10   29.63
   3  -3  -5  332.82   24.13
  -3   3   5  313.41   22.55
  -3   3   5  360.29   29.73
   3  -3  -5  439.76   33.53
  -3  -3   5  311.62   25.27
   3   3  -5  348.92   27.25
  -3  -3   5  379.24   31.09
  -2   4  -5   89.18   12.43
   2   4   5   69.54   11.74
  -2   4  -5   86.27    9.45
  -2   4  -5   79.16   10.45
  -2   4  -5   75.24   11.89
   2   4   5   75.09    8.82
  -2   4  -5   76.60   13.49
   2  -4   5   75.19   12.48
  -2   4  -5  175.54   21.72
   2   4   5   79.78   10.58
   2   4   5   76.75   10.25
  -2  -4  -5   73.73    9.41
  -2   4  -5   75.59    8.28
  -2  -4  -5   74.45    9.60
  -6  -3   3   83.78    9.86
   6  -3  -3   70.42   10.43
   6  -3  -3   70.27   12.64
   6  -3  -3   69.99    9.95
   6   3  -3   71.61   12.04
   6  -3  -3   76.22   12.10
  -6  -3   3   74.04   13.22
   6   3  -3   84.13   10.27
   6   3  -3   66.27    9.81
   6  -3  -3   82.79   10.32
  -6   3   3   80.65    9.30
  -6   3   3   72.38   12.23
  -6  -3   3   61.32   11.02
   3   7  -4  206.62   21.76
   3   7  -4  179.07   15.91
   3  -7  -4  185.17   18.01
  -3   7   4  188.73   15.71
   3  -7  -4  184.55   18.07
  -3  -7   4  198.82   22.14
   3   7  -4  173.44   15.81
   3   7  -4  194.11   15.52
   3  -7  -4  176.36   14.57
  -3   7   4  180.48   14.26
  -3  -7   4  211.53   17.80
   6   0   3    0.70    8.22
   6   0   3    0.16    5.97
  -6   0  -3    0.58    6.09
  -6   0  -3    0.42    5.62
   1  11   2   12.62    8.13
   1 -11   2   15.16   15.16
  -1 -11  -2   10.24    8.18
   1  11   2    9.45   10.14
   1 -11   2   12.68    9.40
  -1  11  -2    9.25    7.21
  -1  11  -2   11.51    7.29
   1  11   2    9.37    6.16
   1  11   2    8.82    6.39
  -1  11  -2   13.27    5.97
  -1  11  -2   13.65    9.44
  -1  11  -2   11.85    6.58
   1  11   2    9.35    6.30
   1  10  -3    0.12    8.60
   1  10  -3   -0.39    7.40
   1 -10  -3    2.36    6.35
  -1 -10   3    1.73   11.11
  -1  10   3    1.69    5.88
   1  10  -3    0.90    5.86
  -1  10   3   -0.19    9.27
   1 -10  -3    1.00    9.22
  -1  10   3    0.82    6.96
  -1  10   3    0.48    4.88
   1  10  -3    0.68    6.04
   7   2   1  156.63   16.44
  -7   2  -1  166.68   13.68
  -7  -2  -1  173.39   14.62
   7   2   1  150.65   16.00
  -7   2  -1  146.33   14.20
  -7  -2  -1  145.10   13.98
   7  -2   1  158.60   15.12
   7   2   1  161.54   15.04
   7  -2   1  121.49   14.83
   7  -2   1  148.24   13.89
  -7  -2  -1  162.04   18.03
   7  -2   1  140.56   15.02
   7   2   1  133.17   18.06
   5   3  -4   73.16   10.17
   5  -3  -4   75.57   11.27
  -5  -3   4   79.21   12.28
  -5  -3   4   81.37   13.33
  -5   3   4   90.47    9.82
   5   3  -4   84.68   13.32
   5  -3  -4   82.17    9.85
   5  -3  -4   72.99   10.50
  -5  -3   4   91.95   10.69
  -5   3   4   65.60   11.13
   5   3  -4   74.97    9.47
   5  -3  -4   88.87   11.78
  -6  -1  -3   27.63    6.60
   6   1   3   27.20   10.90
   6  -1   3   23.74   10.87
  -6   1  -3   32.63    6.69
   6  -1   3   28.03    7.23
   6   1   3   31.57    8.91
   6   1   3   25.49    7.04
  -6  -1  -3   23.78    9.00
  -6   1  -3   30.11    7.37
   6  -1   3   30.88    9.51
   6   1   3   27.47    7.53
  -6  -1  -3   29.11    9.03
  -6  -5  -2 1460.48  100.89
   6   5   2 1543.67  144.91
  -6   5  -2 1739.52  104.53
  -6  -5  -2 1857.83  108.04
   6  -5   2 1777.09  108.92
  -6   5  -2 1919.03  109.84
   6   5   2 1587.63   99.67
  -6   5  -2 1807.74  106.30
   6  -5   2 1996.69  117.48
  -6  -5  -2 1855.34  112.42
   6   5   2 1558.88   96.39
   6   5   2 1562.62  107.75
   4 -10   0  481.06   32.88
  -4 -10   0  398.06   29.02
  -4  10   0  371.82   27.24
   4  10   0  413.57   30.28
  -4 -10   0  481.86   36.66
   4 -10   0  418.98   28.29
  -4  10   0  469.38   32.68
  -4  10   0  481.26   31.59
   4 -10   0  425.76   28.14
   4  10   0  401.55   29.28
   4 -10   0  438.26   34.06
  -4 -10   0  423.48   34.11
  -3  -9   3   38.47   12.47
   3   9  -3   40.64   12.60
   3   9  -3   31.40   12.74
   3  -9  -3   42.70    8.24
  -3   9   3   44.54    8.68
  -3   9   3   43.32    7.15
   3  -9  -3   44.50   10.41
   3  -9  -3   44.08    8.09
  -3  -9   3   40.41   13.14
  -3   9   3   41.19   11.35
   3  -9  -3   43.69    9.00
  -7  -3   1  225.29   21.87
   7  -3  -1  206.63   19.17
   7   3  -1  223.21   18.54
   7   3  -1  233.61   21.62
  -7  -3   1  265.28   20.21
  -7   3   1  254.64   18.89
  -7  -3   1  219.43   20.19
  -7   3   1  259.25   22.39
   7  -3  -1  227.56   21.91
   7  -3  -1  242.38   22.67
   7  -3  -1  255.47   19.72
  -3  10  -2    6.61    7.84
  -3  10  -2   13.84    7.28
  -3  10  -2   13.04    5.88
  -3 -10  -2   13.49    7.60
  -3 -10  -2    8.27    7.98
  -3 -10  -2   12.88    9.56
   3 -10   2    9.17    9.00
   3 -10   2   12.04    6.35
   3 -10   2    5.18    8.89
   3 -10   2    3.91   12.25
   3  10   2    8.53    7.10
  -3 -10  -2    9.39    6.49
   3  10   2   10.83    7.88
  -3  10  -2   12.01    5.97
  -1  10  -3    9.41    6.17
  -1  10  -3    7.94    6.42
   1  10   3   10.35   10.26
   1  10   3    2.49   10.71
  -1  10  -3   13.43    5.72
  -1 -10  -3    9.79    8.89
   1 -10   3    4.50   11.63
  -1  10  -3    9.75    6.48
  -1 -10  -3   10.26    7.27
   1  10   3   12.65    7.48
   1  10   3   10.56    9.39
   1 -10   3   10.61    6.12
  -1  10  -3    7.97    9.38
   1  10   3    9.71    6.52
   1  10   3   11.06    6.05
  -4  -5  -4  445.52   29.54
   4  -5   4  500.78   31.92
   4   5   4  493.88   34.86
  -4   5  -4  510.95   34.33
  -4   5  -4  488.87   30.87
  -4  -5  -4  481.26   37.41
  -4   5  -4  548.05   38.09
  -4  -5  -4  463.37   31.26
  -4   5  -4  488.56   33.96
   4  -5   4  531.01   36.63
  -4  -5  -4  517.06   36.04
   4  -5   4  491.04   37.19
   4   5   4  496.04   35.22
   4   5   4  463.69   34.41
   0  12   0  578.15   41.26
   0  12   0  557.21   40.96
   0  12   0  571.21   36.43
   0 -12   0  540.48   37.71
   0 -12   0  540.58   43.50
   4  -9   2  572.49   37.13
  -4  -9  -2  521.10   35.10
  -4   9  -2  560.69   35.95
   4  -9   2  601.01   46.64
  -4  -9  -2  552.07   35.53
  -4  -9  -2  525.41   38.69
  -4   9  -2  602.73   37.64
   4   9   2  546.60   37.79
  -4  -9  -2  546.41   40.29
  -4   9  -2  602.61   40.51
   4  -9   2  537.95   39.94
   4  -9   2  625.43   43.41
  -4   9  -2  602.45   37.58
   4   9   2  538.65   41.55
  -3  -2  -5  179.22   16.03
  -3   2  -5  192.65   18.42
  -3   2  -5  169.29   14.71
   3   2   5  169.26   18.51
   3  -2   5  170.00   18.50
  -3   2  -5  183.81   15.51
  -3  -2  -5  173.18   14.63
  -3  -2  -5  161.42   18.32
   3   2   5  303.74   27.50
  -3   2  -5  176.96   17.75
  -3  -2  -5  179.26   17.08
   3  -2   5  172.66   14.02
   3   2   5  172.30   14.19
  -3   2  -5  188.35   21.15
  -3   2  -5  193.14   17.25
  -3  -2  -5  163.51   13.51
  -5   0  -4 1275.18   76.08
  -5   0  -4 1273.91   75.32
   5   0   4 1185.62   74.67
  -5   0  -4 1274.29   76.70
  -5   0  -4 1168.44   72.11
   5   0   4 1286.28   78.00
  -5   0  -4 1272.83   74.94
   5   0   4 1255.88   74.88
  -4   8   3  287.90   20.69
  -4  -8   3  340.79   23.88
   4   8  -3  332.37   25.58
  -4   8   3  316.70   21.79
   4  -8  -3  309.27   25.18
  -4   8   3  258.38   22.13
   4  -8  -3  351.75   26.33
   4  -8  -3  319.10   23.21
   4   8  -3  333.22   27.18
   4  -8  -3  293.23   24.12
   2  -8  -4  238.56   18.86
  -2  -8   4  289.16   27.21
   2  -8  -4  318.19   26.82
  -2   8   4  264.71   28.26
  -2  -8   4  273.74   20.50
   2   8  -4  322.35   27.83
   2  -8  -4  260.01   19.66
   2   8  -4  269.60   21.16
  -2   8   4  214.09   17.17
  -2   8   4  240.93   18.53
  -3 -11   0  -11.19    6.29
   3 -11   0    0.23    8.81
  -3  11   0   -1.42    5.20
   3 -11   0    0.38    6.96
  -3 -11   0    0.08    6.88
  -3  11   0   -1.24    9.52
   3  11   0    1.80    7.42
  -3 -11   0    3.34    9.20
   3 -11   0    1.16    5.60
   3  11   0    3.44    6.48
  -3  11   0    1.08    7.77
   2   5  -5   48.59   10.65
   2  -5  -5   36.19    9.40
  -2  -5   5   41.13    7.12
   2   5  -5   41.57    8.69
  -2   5   5   40.18    6.97
   2   5  -5   51.12   12.39
  -2   5   5   38.93   11.60
   2  -5  -5   54.89   12.41
   2   5  -5   36.24    8.26
   2  -5  -5   40.09    7.20
  -2  -5   5   43.16   10.87
   2   5  -5   44.91   11.55
  -2   5   5   98.76   18.68
  -5  -1  -4   49.62    7.85
  -5   1  -4   51.98    9.89
   5  -1   4   52.68   10.24
   5   1   4   48.05   10.27
  -5   1  -4   49.65   10.38
  -5   1  -4   45.84    7.22
  -5  -1  -4   44.07    7.33
   5  -1   4   43.52   10.72
  -5   1  -4   49.48    8.76
  -5  -1  -4   49.49    8.06
   5   1   4   45.08   10.56
   5  -1   4   54.16    8.02
   5   1   4   47.05    8.01
  -5   1  -4   50.87    7.40
  -6  -7   0  102.31   11.85
   6  -7   0  128.21   12.20
  -6   7   0  205.32   19.75
   6  -7   0  133.51   16.15
  -6   7   0  148.63   13.69
   6   7   0  124.82   13.40
   6   7   0  127.70   13.89
  -6   7   0  130.10   11.86
  -6  -7   0  136.28   12.96
  -6   7   0  129.04   14.69
   6  -7   0  122.58   11.72
   6   7   0  117.14   13.10
   6  -7   0  137.56   13.85
  -6  -7   0  123.33   15.89
   6  -2   3  339.11   23.76
  -6   2  -3  339.94   23.97
   6   2   3  301.74   26.72
   6  -2   3  297.13   27.14
   6   2   3  324.41   25.61
  -6  -2  -3  292.46   24.47
   6   2   3  327.27   25.31
  -6  -2  -3  335.59   25.96
  -6   2  -3  298.87   22.51
   6   2   3  330.31   25.42
  -6  -2  -3  309.69   21.84
   6  -2   3  341.28   26.12
  -6   2  -3  324.63   22.12
  -7   0   2 1119.10   67.25
   7   0  -2 1055.70   69.65
   7   0  -2 1668.32  121.54
   7   0  -2  904.56   65.96
   7   0  -2 1008.18   70.59
  -7   0   2  961.08   65.61
  -4 -10   1  518.22   38.57
  -4 -10   1  526.78   34.18
   4 -10  -1  573.09   39.28
   4  10  -1  456.82   39.21
  -4  10   1  562.07   36.78
   4  10  -1  538.78   36.63
  -4 -10   1  501.70   39.94
  -4 -10   1  466.60   33.68
   4 -10  -1  552.50   35.08
  -4  10   1  574.85   46.43
   4 -10  -1  483.69   34.53
  -4  10   1  551.06   35.19
  -4  10   1  551.26   36.49
   4 -10  -1  535.67   38.98
   4   6  -4  280.62   21.84
  -4  -6   4  323.49   28.64
   4  -6  -4  271.08   21.13
   4   6  -4  264.97   20.02
   4  -6  -4  283.79   24.00
  -4   6   4  220.03   20.69
  -4   6   4  274.45   19.29
   4  -6  -4  249.00   19.33
   4  -6  -4  247.11   21.97
  -4  -6   4  307.02   21.98
   5   8  -2  116.55   13.32
   5  -8  -2  128.51   12.55
   5   8  -2  132.26   15.29
  -5  -8   2  124.60   16.59
  -5  -8   2  120.07   14.54
   5  -8  -2  141.21   13.33
   5  -8  -2  124.09   14.99
  -5   8   2  140.72   17.45
   5  -8  -2  108.98   12.69
  -5  -8   2  136.52   12.92
  -5   8   2  132.37   12.05
   5   8  -2  122.46   13.66
  -5   8   2  107.42   10.77
  -1  12   0  207.05   19.61
   1 -12   0  218.66   19.25
   1  12   0  229.70   18.21
  -1  12   0  214.01   16.76
  -1  12   0  182.71   18.36
  -1 -12   0  212.64   19.91
   1  12   0  206.70   21.70
   1 -12   0  217.48   17.38
   1  12   0  197.93   20.09
  -1 -12   0  219.25   18.85
   7  -1  -2   11.49   10.11
  -7  -1   2    9.61    9.89
   7  -1  -2   10.93   10.22
  -7  -1   2    7.40    8.25
  -7   1   2   15.85    6.14
   7   1  -2   11.40    6.94
   7  -1  -2   13.17    8.90
   7   1  -2   11.98    8.51
   7   1  -2   10.02    7.59
   7  -1  -2   13.25    7.10
   7  -1  -2   11.85    6.95
  -7  -1   2   14.35    6.46
  -7   1   2   14.60    9.55
  -7  -3  -1  334.06   25.09
   7   3   1  310.24   37.01
  -7  -3  -1  383.89   26.01
   7   3   1  350.37   26.10
   7   3   1  338.85   26.30
  -7   3  -1  396.53   26.29
   7   3   1  344.54   27.66
  -7  -3  -1  324.45   26.71
   7  -3   1  351.25   27.93
   5  -6   3   21.66    6.68
  -5   6  -3   21.38    7.39
  -5  -6  -3   24.95   11.79
   5   6   3   20.56    7.71
   5  -6   3   21.43    9.13
   5   6   3   21.06    7.87
   5   6   3   20.77    9.13
  -5   6  -3   21.10    5.66
  -5  -6  -3   17.37    6.69
   5  -6   3   20.07    7.94
  -5  -6  -3   17.05    7.46
  -5   6  -3   20.59    5.62
  -5  -6  -3   23.18    8.59
   6  -6  -2   87.91   12.97
   6  -6  -2   90.33   13.26
   6   6  -2   87.10   11.74
  -6   6   2  105.15   10.29
   6  -6  -2   94.75   11.21
  -6  -6   2  111.17   11.83
  -6  -6   2   71.58   13.00
   6   6  -2   86.16   11.02
   6  -6  -2   82.18   11.31
  -6  -6   2   92.01   14.48
   6   6  -2   93.33   13.89
  -3   9  -3   23.22    6.46
   3  -9   3   15.90    9.55
   3   9   3   19.49    7.36
  -3  -9  -3   17.70    6.17
  -3  -9  -3   20.85   11.27
  -3   9  -3   23.91    6.63
  -3  -9  -3   17.24    7.39
   3  -9   3   22.76    9.51
  -3  -9  -3   23.26    8.59
  -3   9  -3   24.20    9.17
  -3   9  -3   21.87    6.51
   3  -9   3   23.30    6.76
   3   9   3   25.42    8.11
   3  -9   3   22.10    9.35
   7   4   0    4.71    6.74
   7   4   0    7.77    7.29
   7  -4   0    7.28    8.32
  -7  -4   0    7.49    8.51
  -7  -4   0    5.87    7.19
  -7   4   0    7.79    5.83
   7  -4   0    3.71   10.15
   7  -4   0   10.35    6.93
   7   4   0    5.10    6.33
   7  -4   0    7.75    6.83
  -7  -4   0    8.37    6.24
   0   6   5   94.49   11.81
   0   6  -5  192.77   19.52
   0   6  -5  179.47   16.21
   0  -6   5  187.76   18.71
   0   6  -5  196.62   19.47
   0   6  -5  199.21   15.64
   0  -6  -5  155.87   14.71
   0   6   5  162.11   14.38
   0   6  -5  202.18   19.99
   0   6   5  153.60   13.17
   0   6  -5  185.90   15.15
  -3   7  -4  148.84   13.44
   3  -7   4  155.21   17.41
  -3  -7  -4  160.92   18.78
  -3  -7  -4  127.67   11.64
  -3   7  -4  163.32   13.47
   3  -7   4  158.98   13.31
  -3  -7  -4  132.48   13.12
  -3   7  -4  163.37   15.61
   3  -7   4  165.86   17.61
  -3   7  -4  165.86   16.94
   3   7   4  122.02   12.92
   3   7   4  150.18   14.68
  -3  -7  -4  172.18   17.26
   3  -7   4  180.47   16.85
  -5   2  -4  162.83   13.44
  -5  -2  -4  143.01   12.93
  -5   2  -4  153.27   16.73
  -5  -2  -4  158.51   14.09
   5  -2   4  159.05   13.65
  -5   2  -4  158.19   15.18
   5  -2   4  164.11   16.44
   5   2   4  149.79   13.93
  -5   2  -4  172.62   15.61
   5   2   4  139.99   15.99
   5  -2   4  153.14   17.38
  -5  -2  -4  156.37   13.68
  -5   2  -4  153.62   12.67
   5   2   4  171.31   16.51
   5  -9   0  868.87   59.80
  -5   9   0 1009.56   60.93
   5  -9   0 1046.07   64.09
   5  -9   0  882.53   55.49
   5   9   0  826.40   60.09
  -5  -9   0  882.28   59.92
  -5   9   0  797.07   51.68
  -5   9   0  905.25   56.27
   5  -9   0  927.46   55.97
  -5  -9   0  784.97   52.56
  -5  -9   0  885.99   61.36
  -5  -9   0  879.30   53.30
   5   9   0  981.70   62.96
  -3   4   5   96.90   15.44
  -3  -4   5  105.58   15.70
  -3  -4   5   90.38    9.97
   3  -4  -5   74.39    8.79
   3   4  -5   88.90   11.28
  -3   4   5   97.59   10.36
   3   4  -5   90.46   10.89
   3   4  -5   88.36   13.30
  -3  -4   5   87.00   13.13
   3  -4  -5  111.13   14.62
   0  12  -1  376.09   28.73
   0  12   1  384.65   31.09
   0  12   1  361.07   29.45
   0  12  -1  407.25   27.55
   0 -12  -1  394.39   28.16
   0  12   1  365.97   25.11
   0 -12   1  358.64   26.21
   0 -12   1  426.88   34.89
   0 -12  -1  368.04   27.14
   0  12  -1  398.03   31.47
   0  12   1  399.05   29.80
   0  12  -1  367.48   33.39
   0  12   1  380.84   26.25
   0  12  -1  413.21   32.32
   2   8   4  224.12   24.61
  -2  -8  -4  221.03   18.82
  -2   8  -4  234.59   20.22
  -2  -8  -4  252.02   23.71
   2   8   4  222.32   19.54
   2   8   4  200.96   16.25
  -2   8  -4  233.46   18.01
   2  -8   4  252.72   20.29
   2  -8   4  229.24   21.45
  -2   8  -4  251.80   18.73
  -2   8  -4  234.95   17.28
   2   8   4  193.45   18.10
   2   8   4  201.08   19.82
   6   4  -3    4.38    8.82
   6  -4  -3    0.58    6.92
   6   4  -3    0.94    6.89
  -6   4   3   -0.22    5.31
   6  -4  -3   -1.29    7.13
   6   4  -3    1.07    5.96
   6  -4  -3    0.09    6.59
  -6  -4   3    0.15    8.07
   6  -4  -3    0.09    7.92
  -6  -4   3    0.85    5.84
   6  -4  -3   -0.65    5.68
  -6  -4   3    1.35    9.59
  -6   4   3    1.14    9.79
   4 -10   1  325.98   23.26
  -4  10  -1  339.61   23.68
  -4  10  -1  343.13   26.36
   4 -10   1  316.88   26.95
  -4  10  -1  354.63   24.05
   4  10   1  308.22   25.24
   4 -10   1  338.03   28.65
  -4 -10  -1  300.88   25.62
  -4 -10  -1  309.58   24.51
  -4  10  -1  323.14   23.90
   4 -10   1  362.54   26.08
  -4 -10  -1  336.64   28.66
  -4 -10  -1  331.62   23.29
   4  10   1  324.06   29.33
  -2  11   2   76.36   10.27
  -2  11   2   95.64   11.39
   2 -11  -2   79.95   11.84
   2  11  -2   89.69   11.43
  -2  11   2   76.79    8.88
  -2  11   2   78.38   13.38
   2 -11  -2   72.17    9.30
   2  11  -2   67.01    8.86
   2 -11  -2   82.77   10.68
   2  11  -2   85.51   11.25
  -2 -11   2   90.03   17.20
   6  -7  -1  162.92   14.26
  -6  -7   1  164.54   14.28
   6  -7  -1  151.38   17.11
   6   7  -1  138.94   14.94
  -6  -7   1  145.14   16.77
  -6  -7   1  155.02   15.23
   6  -7  -1  135.54   14.09
  -6   7   1  173.29   14.30
   6  -7  -1  139.06   18.69
  -6   7   1  132.34   15.33
   6   7  -1  145.42   15.34
  -3  11   1    3.53    6.44
   3 -11  -1    7.16    6.98
   3  11  -1    3.33    7.27
  -3 -11   1    2.50    5.67
   3 -11  -1    4.64    6.58
   3 -11  -1    4.99    6.08
   3  11  -1    2.81    6.78
  -3 -11   1    2.67    7.00
  -3  11   1    2.82    5.84
   3 -11  -1    2.85    7.68
  -3  11   1    3.57    6.89
  -3  11   1    2.47    8.73
  -3   3  -5 2727.11  184.85
  -3  -3  -5 2242.33  130.04
  -3   3  -5 2399.90  158.95
   3   3   5 2443.44  164.63
  -3  -3  -5 2183.64  131.17
  -3   3  -5 2607.67  172.92
  -3  -3  -5 2122.91  132.87
  -3   3  -5 2845.93  189.15
   3  -3   5 2560.75  168.23
  -3  -3  -5 2333.02  134.71
  -3  -3  -5 2261.01  131.78
  -3   3  -5 2181.50  124.66
  -3   3  -5 2455.34  164.45
   3  -3   5 2440.86  164.80
   1   6  -5   92.31   10.41
  -1   6   5   68.35    8.51
   1   6  -5   79.89    9.77
  -1   6   5   65.48   12.64
   1  -6  -5   75.70   10.83
   1   6  -5   88.28   13.19
  -1   6   5   80.06   10.79
  -1  -6   5   85.03   13.51
   1   6  -5   87.16   13.72
  -1   6   5   71.28    8.31
   1   6  -5   75.56   10.17
   1   6  -5   89.65   14.51
   2 -10  -3  550.43   42.02
  -2  10   3  511.98   33.36
   2  10  -3  536.75   35.86
   2 -10  -3  538.49   35.88
   2 -10  -3  499.36   33.16
   2  10  -3  545.26   39.57
   2  10  -3  605.80   41.38
  -2 -10   3  506.09   38.88
  -2  10   3  525.49   44.27
  -2  10   3  592.53   38.73
  -5   4   4   49.49    9.94
   5  -4  -4   61.55   10.82
   5   4  -4   55.41    9.13
  -5   4   4   67.61    8.80
   5   4  -4   60.17   12.08
  -5  -4   4   56.20   12.08
   5  -4  -4   51.01    9.80
  -5  -4   4   71.30    9.42
  -5  -4   4   65.09   12.19
   5  -4  -4   60.95    8.62
   5   4  -4   65.11    8.84
   5  -4  -4   78.57   11.19
   4   0  -5    1.17    5.20
  -4   0   5    1.83    5.36
  -4   0   5   -0.50    9.22
   4   0  -5    0.56    9.09
   4   0  -5   -1.37   10.16
   4   0  -5   -3.56    6.34
  -7   2   2  579.89   40.94
  -7  -2   2  604.37   42.53
   7  -2  -2  625.22   50.04
   7  -2  -2  619.60   47.54
   7  -2  -2  509.02   42.18
   7   2  -2  601.18   42.50
   7   2  -2  566.27   37.80
  -7   2   2  702.92   43.75
  -7  -2   2  724.81   44.93
  -7  -2   2  520.57   39.05
   7  -2  -2  698.96   45.25
   7  -2  -2  683.76   49.12
   7   2  -2  635.23   51.96
  -2  -5  -5  132.89   13.10
  -2   5  -5  152.30   14.04
  -2   5  -5  147.32   18.71
  -2   5  -5  138.18   14.78
   2  -5   5  138.96   15.91
   2   5   5  144.88   15.54
  -2   5  -5  164.17   17.49
  -2  -5  -5  142.01   14.32
   2   5   5  122.01   12.64
   2  -5   5  138.04   16.62
   2   5   5  132.21   16.01
  -2   5  -5  151.21   17.23
   2   5   5  124.38   12.50
  -2   5  -5  150.22   13.51
  -3 -11  -1   29.81    7.08
   3  11   1   22.46    8.31
   3  11   1   31.70    8.86
  -3 -11  -1   24.15    9.69
  -3 -11  -1   25.84    7.98
   3 -11   1   30.51   12.01
  -3  11  -1   27.56    6.71
  -3  11  -1   33.09    7.17
   3 -11   1   30.71    8.10
  -3  11  -1   27.92    8.28
  -3 -11  -1   26.79    9.42
   3 -11   1   28.06    7.64
  -3  11  -1   27.75    8.83
   3 -11   1   30.33   10.87
   4   8   3  141.72   14.27
  -4   8  -3  152.93   12.83
   4  -8   3  159.92   13.58
  -4   8  -3  150.14   13.20
  -4  -8  -3  154.85   18.49
   4   8   3  130.36   15.16
  -4   8  -3  160.22   16.48
   4  -8   3  139.64   17.38
   4   8   3  149.06   14.98
  -4   8  -3  177.56   14.62
  -4  -8  -3  131.23   13.16
   4  -8   3  143.53   15.89
  -4  -8  -3  169.77   16.57
   4  -8   3  138.14   15.67
  -4  -8  -3  151.99   13.26
   7  -4  -1  179.40   19.09
   7   4  -1  181.74   18.40
  -7   4   1  206.35   16.10
  -7  -4   1  195.57   16.59
  -7   4   1  191.40   19.16
  -7  -4   1  178.68   17.59
  -7  -4   1  174.33   18.79
   7  -4  -1  195.29   19.62
   7  -4  -1  202.34   16.47
   7   4  -1  154.78   14.42
   7  -4  -1  181.91   18.71
   2  11   2 1197.66   90.60
  -2  11  -2 1456.21   97.01
  -2 -11  -2 1252.34   87.41
   2 -11   2 1268.85   94.42
   2  11   2 1249.91   87.60
  -2  11  -2 1414.64   97.36
  -2  11  -2 1354.01   92.59
   2 -11   2  972.83   79.15
   2  11   2 1349.48   95.98
  -2  11  -2 1285.21   91.49
   2  11   2 1363.97  101.08
  -2 -11  -2 1197.68  117.39
  -2  11  -2 1374.72   92.97
   1  12  -1   77.54   13.70
  -1 -12   1   82.68   15.27
   1  12  -1   73.70   13.01
  -1  12   1   76.68   11.25
  -1  12   1   68.73    9.33
  -1  12   1   74.42   13.26
  -1  12   1   74.04    9.38
   1  12  -1   70.85    9.73
   1  12  -1   75.38   10.42
  -1 -12   1   74.35   10.87
   1 -12  -1   68.28   10.47
   1 -12  -1   82.92   11.82
  -1  12   1   68.36   11.19
   1  12  -1   66.34   12.46
  -4   1   5   39.99    7.96
  -4   1   5   39.32   11.12
   4  -1  -5   42.08    9.26
   4   1  -5   41.68    9.20
  -4  -1   5   39.51    7.84
  -4  -1   5   44.52   11.79
   4   1  -5   36.29   10.40
   4  -1  -5   32.21    8.01
   4   1  -5   70.25   20.93
   4  -1  -5   40.55   10.89
   4  -1  -5   37.72    7.05
   4   1  -5   37.70    7.19
  -6   3  -3  711.76   45.62
   6  -3   3  624.08   48.93
   6   3   3  755.30   50.68
  -6  -3  -3  652.95   44.29
   6   3   3  669.45   45.56
   6   3   3  719.69   46.89
  -6   3  -3  716.09   43.58
   6   3   3  643.23   46.12
   6  -3   3  715.23   44.57
  -6  -3  -3  717.77   46.69
  -6   3  -3  685.24   43.80
  -6  -3  -3  711.20   44.18
   6  -3   3  741.35   48.12
  -1 -12  -1  320.36   27.92
  -1  12  -1  272.49   23.12
   1 -12   1  309.74   29.20
   1 -12   1  293.49   24.60
   1  12   1  262.87   21.62
   1  12   1  247.93   24.57
  -1  12  -1  295.66   26.67
   1  12   1  264.78   26.69
  -1  12  -1  292.91   23.02
  -1  12  -1  279.96   22.42
  -1 -12  -1  190.37   17.61
   1  12   1  230.06   23.25
  -1  12  -1  230.25   21.64
   5  -9  -1  598.69   45.54
   5   9  -1  600.44   45.57
   5  -9  -1  605.84   44.05
  -5  -9   1  642.60   45.52
   5   9  -1  537.36   45.31
  -5  -9   1  637.97   51.37
   5  -9  -1  684.12   52.61
  -5   9   1  686.43   48.11
   5  -9  -1  567.63   44.83
  -5   9   1  636.90   44.98
  -5  -9   1  370.24   30.26
  -5  -9   1  601.95   49.24
  -5   9   1  525.97   41.88
  -5   9   1  676.54   47.78
   5  -8   2  228.99   19.59
   5  -8   2  281.42   25.22
   5   8   2  188.44   19.61
  -5   8  -2  227.02   19.14
  -5  -8  -2  215.23   23.43
  -5  -8  -2  211.13   21.72
   5   8   2  210.19   21.39
  -5   8  -2  247.73   21.98
   5  -8   2  256.52   25.13
  -5  -8  -2  230.92   20.86
   5  -8   2  210.69   22.29
  -5   8  -2  244.39   19.58
   5   8   2  202.34   21.49
  -5  -8  -2  212.07   18.28
  -5   8  -2  245.33   19.81
  -6   7  -1  434.39   31.52
   6   7   1  388.95   32.71
  -6   7  -1  492.78   36.76
   6  -7   1  393.27   33.44
  -6   7  -1  459.94   34.29
   6  -7   1  322.44   28.78
   6  -7   1  422.41   32.16
  -6  -7  -1  372.72   31.51
   6   7   1  372.89   31.45
   6  -7   1  408.75   30.87
   6   7   1  381.37   33.52
  -6  -7  -1  429.47   32.17
  -6   7  -1  392.57   30.90
  -6  -7  -1  362.33   31.91
  -1   6  -5  155.83   14.41
   1  -6   5  151.69   17.18
  -1   6  -5  166.50   18.62
  -1   6  -5  164.59   18.93
  -1   6  -5  148.00   15.21
  -1   6  -5  171.55   18.87
  -1  -6  -5  141.02   13.99
   1   6   5  131.58   13.46
  -1   6  -5  175.92   15.34
   1   6   5  122.98   12.30
  -2  10  -3    2.54    6.26
   2  10   3    1.01    7.09
  -2  10  -3    2.42    8.16
  -2 -10  -3    1.10    7.16
   2  10   3    5.94   12.18
   2 -10   3    2.47   11.20
   2  10   3    1.39    5.59
  -2  10  -3    4.92    6.23
  -2 -10  -3    6.41    9.17
   2  10   3    2.05    6.35
  -2  10  -3    0.85    5.49
  -2  10  -3    4.70    5.76
   2  10   3    5.05    7.32
   2 -10   3    6.05    6.97
   0  -9  -4   80.71   11.36
   0   9   4   79.38    9.47
   0   9  -4   92.24   10.43
   0   9   4   72.84   13.68
   0   9  -4   95.36   14.11
   0   9  -4  107.22   14.23
   0  -9   4  102.44   16.53
   0   9  -4   87.43    9.93
   0  -9  -4   83.19   12.64
   0   9   4   71.81    9.16
   0   9  -4  103.37   11.22
   0   9   4   81.92   11.43
   5  -7  -3   16.34    8.09
   5  -7  -3   19.21    7.65
   5   7  -3   21.31   11.17
  -5  -7   3   16.42   10.85
  -5   7   3   21.59    6.10
  -5   7   3   54.95   20.76
   5   7  -3   20.94    8.40
   5   7  -3   15.70    6.70
  -5  -7   3   21.54    9.08
  -5  -7   3   17.28    7.15
   5  -7  -3   20.89    6.81
  -5   3  -4   42.28    8.91
  -5  -3  -4   52.73   10.06
  -5   3  -4   48.22   10.06
   5   3   4   37.62    7.99
  -5   3  -4   54.87   10.57
   5  -3   4   45.41   11.86
   5  -3   4   41.79    7.46
  -5   3  -4   41.99   13.97
   5  -3   4   39.91   10.21
  -5  -3  -4   41.41    7.55
   5   3   4   44.38   10.91
  -5  -3  -4   54.16   15.31
  -5  -3  -4   46.44    8.14
  -5   3  -4   46.38    7.09
   5   3   4   44.14    8.66
   7   0   2 2661.98  227.22
   7   0   2 2551.06  203.19
  -7   0  -2 2975.44  250.14
  -7   0  -2 2625.35  180.58
   7   0   2 2907.67  247.14
  -4  -2   5    4.62    6.40
  -4   2   5    3.19    4.77
   4   2  -5    2.67    5.77
   4  -2  -5    4.03    5.30
   4  -2  -5    1.44    8.36
   4  -2  -5    2.54    6.53
  -4  -2   5    1.85    9.26
  -4   2   5    1.46   10.03
   4  -2  -5    2.04    7.33
   4   2  -5    1.85    6.49
   6  -6   2  380.90   28.95
   6  -6   2  414.61   32.76
  -6   6  -2  358.69   27.63
   6   6   2  318.61   32.31
  -6  -6  -2  374.20   28.40
  -6   6  -2  397.53   30.38
   6  -6   2  337.53   31.82
   6   6   2  292.16   25.98
   6   6   2  315.32   29.33
  -6  -6  -2  351.02   29.21
  -6  -6  -2  315.56   29.66
  -6   6  -2  390.49   28.65
   5  -9   1   11.68   10.05
  -5   9  -1    3.15    7.41
   5  -9   1    3.90    9.30
  -5  -9  -1    4.88    7.05
   5   9   1   11.30    9.10
   5  -9   1    3.20    7.33
  -5   9  -1    6.90    7.54
  -5  -9  -1    4.34    8.81
  -5  -9  -1    6.37    6.42
   5   9   1    3.38    6.58
  -5   9  -1    7.19    5.89
   5  -9   1    4.59    6.12
  -5   9  -1    4.96    5.84
  -5  -9  -1    9.15   10.17
   7  -4   1  139.24   14.70
   7   4   1  127.81   18.95
  -7   4  -1  177.31   16.18
  -7   4  -1  167.53   15.02
   7   4   1  139.69   14.57
  -7  -4  -1  126.63   13.73
   7  -4   1  142.03   15.24
  -7  -4  -1  126.17   15.84
   7   4   1  129.28   15.50
   7  -4   1  155.38   19.93
   7   4   1  128.39   15.37
  -7  -4  -1  169.40   15.56
   1   9  -4  155.71   16.33
   1   9  -4  157.75   14.79
   1   9  -4  156.04   14.54
   1  -9  -4  175.92   19.94
   1   9  -4  149.53   17.77
   1   9  -4  168.00   18.67
  -1   9   4  141.01   13.18
  -1  -9   4  160.97   20.84
  -1   9   4  149.43   19.34
  -1   9   4  127.20   13.16
   7  -1   2  110.36   13.08
  -7  -1  -2  134.89   13.36
   7  -1   2  111.34   17.14
  -7  -1  -2  131.43   16.16
   7   1   2  122.55   13.50
  -7   1  -2  106.26   12.28
   7   1   2  123.03   18.14
   7   1   2  108.81   13.13
  -7   1  -2  135.43   12.89
   7   1   2  114.55   13.85
   7  -1   2  118.13   13.13
  -7  -1  -2  114.47   13.36
  -2  12   0   26.15    9.05
  -2 -12   0   29.00    8.97
  -2  12   0   25.63    6.56
   2 -12   0   25.26    9.29
   2 -12   0   32.30    7.61
  -2  12   0   26.35    8.99
   2  12   0   20.95    6.71
  -4   6  -4  129.96   12.10
  -4   6  -4  127.75   15.66
   4  -6   4  122.79   12.07
   4   6   4  108.41   13.31
   4   6   4  106.26   14.30
  -4   6  -4  122.27   13.49
   4  -6   4  115.84   15.61
   4   6   4  129.13   14.56
  -4  -6  -4  109.48   12.20
  -4   6  -4  125.41   13.35
   4  -6   4  130.97   15.02
  -4  -6  -4  130.83   15.50
  -4  -6  -4  110.98   16.56
  -4  -6  -4  113.12   11.77
   7  -3  -2   48.82    8.48
  -7  -3   2   35.94   11.53
   7  -3  -2   43.67   10.88
  -7   3   2   51.43    8.21
   7   3  -2   42.24    9.84
   7  -3  -2   46.04    9.15
  -7  -3   2   50.91    8.41
  -7   3   2   43.93   10.73
   7  -3  -2   40.44    8.99
   7  -3  -2   55.30   12.03
   7   3  -2   48.99   11.20
   7   3  -2   44.33    8.88
  -7  -3   2   38.79   11.00
   3   4   5   11.16    7.09
  -3   4  -5    4.98    9.89
  -3  -4  -5    7.30    5.48
  -3  -4  -5    6.82    5.78
  -3   4  -5   10.06    8.03
   3   4   5    8.51    9.10
  -3   4  -5    9.31    7.01
   3   4   5   18.13    7.48
  -3   4  -5    9.78    7.99
  -3   4  -5    9.03    5.48
   3  -4   5    8.71   10.23
  -3   4  -5   13.65    8.79
  -3  -4  -5   11.50    6.22
   2  -6  -5  507.74   37.47
   2   6  -5  727.68   55.79
   2   6  -5  546.78   40.40
  -2  -6   5  603.56   42.23
   2   6  -5  540.97   40.86
  -2   6   5  560.28   39.67
   2  -6  -5  563.34   41.39
  -2   6   5  536.95   49.73
   2  -6  -5  794.89   60.73
  -2   6   5 1131.01   84.51
   2   6  -5  656.93   50.25
   2  -6  -5  565.49   43.56
   2   6  -5  845.96   63.94
  -2  -6   5  620.29   47.93
   1   9   4 1375.17   97.92
  -1  -9  -4 1505.71  105.17
  -1   9  -4 1658.09  110.00
  -1   9  -4 1550.91  103.35
   1   9   4 1597.45  110.51
   1  -9   4 1580.77  110.07
  -1  -9  -4 1338.32  107.00
  -1   9  -4 1675.91  112.51
  -1   9  -4 1633.24  110.83
   1   9   4 1287.79  102.01
  -1   9  -4 1847.03  129.29
   1   9   4 1356.76  103.16
   3  -8  -4  325.88   25.58
  -3   8   4  356.48   26.94
  -3  -8   4  412.29   30.27
   3  -8  -4  371.65   30.09
   3  -8  -4  359.34   30.99
   3  -8  -4  319.69   28.09
  -3  -8   4  370.61   33.34
   3   8  -4  418.27   36.39
  -3   8   4  350.67   26.98
   3   8  -4  382.19   29.73
   7  -5   0  111.78   15.36
  -7  -5   0   79.05   12.58
   7   5   0   87.13   12.04
   7  -5   0  109.51   12.45
   7  -5   0   83.26   14.21
   7   5   0   89.74   11.30
  -7  -5   0   94.00   12.30
   7  -5   0   97.53   11.85
  -7  -5   0  107.42   11.89
   7   5   0   78.33   11.73
  -7   5   0  106.79   11.43
   3  -5  -5  174.60   18.25
  -3   5   5  158.12   19.10
   3   5  -5  152.53   17.60
  -3  -5   5  176.05   21.12
   3  -5  -5  144.84   15.69
  -3  -5   5  149.44   18.19
   3   5  -5  147.40   16.30
  -3  -5   5  155.10   14.12
   3   5  -5  173.56   19.88
  -3   5   5  144.94   13.38
   3  -5  -5  140.64   13.84
  -7  -2  -2  307.89   27.45
   7   2   2  350.46   34.28
  -7  -2  -2  311.90   27.08
   7   2   2  300.24   25.35
   7  -2   2  321.06   25.68
  -7   2  -2  356.14   26.53
  -7  -2  -2  347.23   26.49
   7  -2   2  324.53   35.50
  -7   2  -2  359.73   27.82
   7   2   2  297.45   25.39
   7   2   2  309.71   27.13
   6  -5  -3   11.27    6.37
   6  -5  -3   11.08    7.71
   6  -5  -3    9.04    7.79
  -6  -5   3   13.28   10.22
   6  -5  -3   12.87    7.74
   6   5  -3   13.15    9.75
   6   5  -3   15.02    6.77
   6  -5  -3   11.97    7.07
  -6  -5   3   12.77    8.69
  -6   5   3   16.79   11.52
  -6  -5   3   12.95    6.96
   6   5  -3   13.90    8.16
  -6   5   3   16.22    6.51
   6   4   3  295.41   25.67
  -6  -4  -3  336.27   27.45
  -6   4  -3  331.66   26.14
   6   4   3  333.17   28.78
   6  -4   3  349.01   26.63
  -6   4  -3  368.52   28.68
  -6   4  -3  359.59   26.72
  -6  -4  -3  344.84   26.61
   6   4   3  293.64   28.23
  -6  -4  -3  320.41   27.57
   6  -4   3  307.11   31.87
   6  -4   3  363.14   30.03
   6   4   3  331.24   30.44
   2 -12  -1  315.10   27.49
  -2  12   1  305.26   23.42
   2  12  -1  298.99   28.05
  -2  12   1  281.51   25.99
  -2  12   1  292.26   26.71
  -2 -12   1  302.74   24.83
   2  12  -1  312.09   25.32
  -2 -12   1  342.33   31.54
  -2 -12   1  322.97   26.55
   2 -12  -1  342.09   27.28
   2  12  -1  267.95   22.24
   2  12  -1  266.19   24.90
  -2  12   1  327.61   25.25
  -5   5   4 1017.52   72.09
  -5   5   4 1471.58   98.50
  -5  -5   4 1527.22  104.76
   5   5  -4 1290.29   93.68
   5   5  -4 1290.03   89.75
   5  -5  -4 1240.92   86.63
   5  -5  -4 1534.79  122.68
   5  -5  -4 1230.72   87.31
   5  -5  -4 1565.66  109.27
  -5  -5   4 1592.60  111.89
   5   5  -4 1527.94  110.50
   5  -5  -4 1164.23   94.41
  -5  -5   4 1402.30   99.31
   4 -10  -2  223.56   22.28
   4 -10  -2  231.20   24.20
  -4  10   2  221.65   19.69
  -4 -10   2  245.21   20.13
  -4  10   2  216.71   22.14
   4 -10  -2  256.88   21.58
   4 -10  -2  234.49   20.20
  -4 -10   2  226.60   23.99
   4  10  -2  200.65   18.86
   4  10  -2  199.90   19.53
  -4  10   2  236.36   19.03
  -4  10   2  238.02   20.01
  -4   3   5  284.87   26.58
   4  -3  -5  279.75   23.20
   4  -3  -5  256.46   23.54
   4   3  -5  287.16   23.82
  -4  -3   5  349.48   31.93
   4  -3  -5  315.82   26.69
  -4   3   5  300.29   23.47
  -4  -3   5  329.07   26.11
   4   3  -5  302.65   26.66
   4  -3  -5  290.96   25.78
  -7  -5   1   60.86    9.44
  -7  -5   1   53.47   10.82
   7  -5  -1   53.39   12.04
   7  -5  -1   45.11    8.95
   7   5  -1   49.28   10.46
  -7  -5   1   50.80   11.48
   7   5  -1   55.17    9.43
   7  -5  -1   61.82   11.61
  -7   5   1   63.93    8.88
  -7   5   1   47.94    9.76
   4  -7  -4    1.26    7.29
  -4  -7   4    1.56    8.61
  -4   7   4    3.61   12.01
   4  -7  -4    0.40    7.08
   4  -7  -4    0.84    5.52
  -4   7   4    2.71    5.08
   4   7  -4    4.18    7.10
   4   7  -4    0.13    5.51
  -4  -7   4    0.16    6.28
  -2  12  -1  519.35   40.07
   2  12   1  468.09   37.14
  -2  12  -1  519.23   37.25
   2 -12   1  578.77   46.63
   2 -12   1  552.36   40.58
  -2  12  -1  453.15   37.75
   2  12   1  526.86   45.68
  -2  12  -1  865.25   69.07
   2  12   1  460.91   38.19
  -2  12  -1  484.81   35.19
   2  12   1  411.00   32.67
  -2 -12  -1  522.49   40.97
  -5   4  -4    6.39    7.74
  -5   4  -4   11.39    7.99
   5   4   4    3.72    6.27
   5   4   4    5.36    7.22
  -5  -4  -4    4.77    5.98
   5   4   4    6.15    8.89
   5  -4   4   -1.29    8.95
  -5  -4  -4    9.54   12.24
  -5   4  -4    5.10    8.95
  -5  -4  -4    3.17    6.28
   5  -4   4    4.13    8.45
  -5  -4  -4    7.73    7.68
  -5   4  -4    5.10    6.31
   5  -4   4    7.31    5.65
  -5   4  -4    3.96    5.17
  -4   0  -5   -1.42    6.47
  -4   0  -5    0.02    5.54
   4   0   5    0.53    9.07
  -4   0  -5    3.97    7.09
  -4   0  -5    0.16    7.71
  -4   0  -5    1.35    5.61
  -4   0  -5   -2.74   10.34
   4   0   5    9.00    5.41
  -5   7  -3  205.44   17.73
   5  -7   3  226.64   22.59
  -5  -7  -3  192.12   16.89
   5  -7   3  210.78   17.98
   5   7   3  203.54   20.07
  -5  -7  -3  201.64   22.93
  -5   7  -3  217.46   17.51
  -5  -7  -3  222.17   20.40
  -5  -7  -3  176.47   18.13
   5   7   3  171.81   19.28
   5  -7   3  194.34   19.69
  -5   7  -3  211.08   17.12
   5   7   3  192.36   18.42
   6   7  -2  256.99   23.99
  -6  -7   2  176.57   20.05
  -6  -7   2  295.61   23.55
   6   7  -2  244.49   26.84
  -6   7   2  283.23   22.13
   6  -7  -2  250.97   21.92
  -6  -7   2  242.50   24.17
   6  -7  -2  226.21   21.73
  -6   7   2  546.02   44.87
   6   7  -2  226.66   20.26
   6  -7  -2  230.82   23.24
  -6  -8   0  219.93   22.29
   6  -8   0  227.61   22.79
  -6   8   0  244.10   21.65
   6   8   0  235.23   24.19
  -6  -8   0  207.12   19.64
  -6   8   0  274.15   22.42
   6   8   0  256.01   22.78
   6  -8   0  268.45   22.89
   6  -8   0  224.14   18.98
   6  -8   0  250.07   20.30
  -6   8   0  232.42   19.17
   0   7  -5 1097.24   74.41
   0   7   5  812.33   57.17
   0   7  -5 1095.41   78.82
   0   7  -5 1083.35   77.80
   0  -7   5 1022.60   73.44
   0   7   5  733.05   65.95
   0   7  -5  928.29   65.61
   0   7   5  844.99   59.04
   0   7  -5  977.40   68.80
   0  -7  -5  843.04   63.23
   0   7  -5 1029.78   73.81
   4   9  -3  108.17   12.72
  -4  -9   3  133.90   13.38
  -4   9   3   84.79   12.83
  -4   9   3  107.23   11.29
   4  -9  -3  107.62   14.10
   4  -9  -3  107.14   11.50
   4  -9  -3   96.80   12.57
  -4   9   3  115.16   11.53
   4  -9  -3  129.95   14.19
   0  11  -3  638.04   44.99
   0  11  -3  814.14   61.00
   0  11  -3  622.31   44.34
   0  11  -3  634.30   45.52
   0  11   3  536.97   44.61
   0  11  -3  650.00   49.75
   0 -11   3  481.47   42.22
   0  11   3  575.48   46.80
   0  11   3  518.33   38.28
   0 -11  -3  709.81   53.65
   4  -1   5   25.53   10.96
  -4   1  -5   27.23    7.61
  -4  -1  -5   17.78    5.94
  -4  -1  -5   19.05    7.48
  -4  -1  -5   24.73    8.77
  -4   1  -5   25.55    8.78
  -4  -1  -5   22.75   12.47
  -4   1  -5   23.85   13.70
  -4  -1  -5   21.75    6.96
  -4   1  -5   21.42    6.76
   4  -1   5    0.51    4.52
   4   1   5   22.05   10.37
  -4   1  -5   27.05    8.85
  -4  -1  -5   21.68    7.25
   4   1   5   16.73    5.70
  -4   1  -5   26.14    8.59
   0   0  -6  219.53   21.48
   0   0   6  262.83   29.11
   0   0  -6  251.83   25.10
   0   0  -6  210.79   20.75
   0   0  -6  192.13   17.65
   2  -9  -4  183.43   16.13
  -2   9   4  180.46   16.28
   2   9  -4  197.14   18.68
  -2  -9   4  214.29   24.72
   2  -9  -4  219.81   21.38
   2  -9  -4  144.26   17.08
   2   9  -4  213.74   23.21
  -2   9   4  181.87   20.87
  -2  -6  -5   31.88    7.59
  -2   6  -5   34.91    9.11
  -2   6  -5   43.58   10.50
   2   6   5   36.59    8.59
  -2   6  -5   36.89    6.83
   2   6   5   28.69    9.16
   2   6   5   29.81    6.49
   2   6   5   32.59    7.74
   2  -6   5   37.24    9.61
  -2   6  -5   40.64   10.85
  -2   6  -5   44.32   12.42
  -2   6  -5   37.37    7.62
   3 -11  -2   59.13   10.24
  -3  11   2   50.26    8.47
   3 -11  -2   52.22    9.57
  -3  11   2   42.57   11.58
  -3  11   2   59.37   10.38
   3 -11  -2   46.39   10.48
  -3 -11   2   48.17   10.31
   3 -11  -2   49.78    8.60
  -3  11   2   48.69    7.98
   3  11  -2   42.87   12.17
   0  12   2  218.90   20.41
   0  12  -2  233.87   19.83
   0 -12   2  258.45   23.27
   0  12  -2  217.57   18.61
   0  12  -2  226.17   22.55
   0 -12  -2  198.15   18.53
   0  12   2  194.56   21.19
   0  12  -2  211.89   19.83
   0 -12  -2  216.22   20.49
   0  12  -2  232.23   23.25
   0  12   2  183.14   18.86
   0  12   2  203.93   17.94
   0 -12   2  258.63   29.17
  -3 -10   3 1045.22   70.85
   3  10  -3  971.99   72.41
  -3  10   3  888.78   60.88
   3 -10  -3 1021.06   70.85
   3 -10  -3  871.88   64.32
  -3  10   3  975.36   67.30
   3 -10  -3  889.21   62.06
   3 -10  -3  923.70   70.40
  -3  10   3  900.40   72.76
  -3 -10   3  862.84   65.70
   7  -4  -2 1113.36   80.92
  -7  -4   2  689.00   58.92
  -7  -4   2 1139.08   78.75
   7   4  -2 1033.81   76.46
   7  -4  -2 1023.95   87.24
  -7  -4   2 1062.03   76.77
   7   4  -2 1085.17   78.97
   7  -4  -2  964.05   79.20
  -7   4   2  980.56   69.84
  -7   4   2 1174.16   79.12
   7  -4  -2  888.26   76.54
   7   4  -2  936.49   76.42
   7  -4  -2 1126.63   77.09
   0  -1  -6    4.45    7.28
   0   1  -6    3.38    7.71
   0   1  -6    5.18    8.64
   0   1   6    4.70   12.22
   0   1  -6    6.36    9.08
   0  -1  -6    7.62    8.26
   0   1  -6    3.10    6.00
   0   1  -6   -0.52    8.04
   0  -1  -6    5.15    9.63
   6   0  -4 1763.42  123.83
   6   0  -4 1745.06  123.30
  -6   0   4 1472.13  102.75
  -6   0   4 1920.95  130.27
   6   0  -4 1506.56  106.61
   1   7  -5    8.63    6.50
   1   7  -5   12.17   10.75
  -1   7   5    8.08    5.17
   1   7  -5    9.64    6.06
  -1  -7   5    8.31   11.10
   1   7  -5   11.39    8.15
  -1   7   5    9.89    5.85
   1   7  -5    2.34   10.42
   1  -7  -5    8.51    6.13
   1   0  -6   19.62    7.57
  -1   0   6   31.51   12.48
   1   0  -6   25.08    9.35
   1   0  -6   33.51   10.20
   1   0  -6   27.03    9.82
  -7   3  -2   12.97    5.97
  -7  -3  -2   11.11    6.51
   7   3   2   14.09    8.08
   7  -3   2   13.21    6.95
   7   3   2   14.69    8.01
   7  -3   2   12.73   10.43
   7   3   2   12.38   10.73
   7   3   2    8.92    7.29
  -7  -3  -2    9.21    7.74
  -7  -3  -2   11.25    7.65
   3  -8   4   26.90    8.69
  -3  -8  -4   26.25    9.26
   3  -8   4   21.54    9.63
  -3  -8  -4   21.56    6.91
   3   8   4   24.98    8.96
   3   8   4   25.26    8.76
   3  -8   4   27.11    6.72
   3   8   4   25.73    7.26
  -3  -8  -4   22.09    6.30
  -3  -8  -4   25.62   11.15
  -3   8  -4   29.04    7.61
  -3   8  -4   25.93    6.38
  -3   8  -4   29.21    7.36
  -4  10  -2 1362.88   90.87
  -4  10  -2 1278.11   87.25
   4  10   2 1133.49   95.16
   4 -10   2 1396.55   96.65
  -4 -10  -2 1262.83   89.79
   4 -10   2 1221.92   90.71
  -4  10  -2 1377.81   94.25
  -4 -10  -2 1337.38   95.11
   4  10   2 1243.48   90.81
  -4 -10  -2 1139.88   93.46
   4 -10   2 1301.61   87.35
  -4  10  -2 1349.91   89.80
  -4 -10  -2 1217.52   82.28
   4 -10   2 1276.81   94.22
  -1  11   3   63.87    9.19
  -1  11   3   66.18   13.39
  -1  11   3   64.18    8.74
  -1 -11   3   71.81   16.69
   1  11  -3   77.84   10.32
   1 -11  -3   84.22   12.74
   1  11  -3   68.52    9.69
   1 -11  -3   73.22   10.54
   1  11  -3   84.92   12.00
   1  11  -3   73.60   13.43
   7  -5   1   29.33    7.62
  -7   5  -1   29.09    6.91
  -7   5  -1   36.07    7.68
   7   5   1   22.97    8.36
   7  -5   1   23.06   10.72
   7   5   1   23.22   11.28
   7   5   1   20.82    8.02
   7  -5   1   26.25   10.53
  -7  -5  -1   19.03    8.98
   7  -5   1   28.43   12.30
   7   5   1   25.44    9.02
  -7   5  -1   26.30    8.88
  -7  -5  -1   29.95    7.56
  -7  -5  -1   22.27    8.09
   6   1  -4   72.95   10.22
  -6   1   4   95.07   10.91
   6  -1  -4   76.56   10.10
  -6  -1   4   87.03   10.63
  -6   1   4   75.94   12.65
  -6  -1   4   72.05   12.74
   6  -1  -4   91.05   11.77
   6   1  -4   76.80   10.19
   6   1  -4  142.52   21.33
   6  -1  -4   89.43   14.76
   6   1  -4   85.56   14.14
   6  -1  -4   75.26   11.69
   1  -1  -6   18.85    9.84
   1   1  -6   17.50    8.92
   1  -1  -6   15.29    7.92
  -1  -1   6   24.70   12.58
   1   1  -6   18.39    7.61
   1   1  -6   17.25    9.38
   1   1  -6   21.85    9.51
   1  -1  -6   21.21    8.97
   1  -1  -6   22.10    9.72
  -1   1   6   19.49   11.17
   5  -9  -2  197.02   19.21
  -5   9   2  359.69   38.20
  -5  -9   2  233.50   21.58
  -5   9   2  195.19   16.61
   5  -9  -2  212.43   21.06
  -5  -9   2  229.14   24.38
  -5  -9   2  205.48   22.20
   5   9  -2  241.46   22.17
   5  -9  -2  246.05   20.34
   5  -9  -2  213.93   18.91
   5   9  -2  214.00   20.44
  -5   9   2  238.25   19.36
  -5  -9   2  238.32   19.97
  -6   8   1  391.32   29.75
  -6   8   1  280.77   27.56
   6   8  -1  328.29   27.25
   6  -8  -1  374.69   29.94
   6  -8  -1  345.04   30.05
  -6  -8   1  314.43   28.06
   6   8  -1  312.46   27.62
   6  -8  -1  347.20   27.02
  -6  -8   1  347.90   30.11
   6  -8  -1  321.13   26.44
  -6   8   1  401.59   31.03
  -4  11   0  345.77   26.52
  -4 -11   0  269.73   23.37
  -4 -11   0  305.28   29.60
   4 -11   0  334.05   28.05
   4 -11   0  313.93   28.42
   4  11   0  315.34   26.75
  -4  11   0  286.72   24.62
  -4 -11   0  325.25   29.78
   4 -11   0  284.29   23.18
   4  11   0  251.13   29.87
  -4  11   0  357.29   29.11
   4 -11   0  320.33   24.50
  -1  12   2 1344.01  101.58
   1 -12  -2 1275.73   97.64
   1  12  -2 1355.19   94.52
  -1  12   2 1327.71   89.60
  -1  12   2 1249.18   84.63
  -1  12   2 1363.99   96.33
  -1 -12   2 1567.05  112.08
  -1  12   2 1338.15   98.60
   1  12  -2 1336.74   99.10
   1  12  -2 1286.28   91.20
   1  12  -2 1404.85   94.88
   1 -12  -2 1370.48   93.25
  -4  -2  -5  326.40   25.43
  -4  -2  -5  353.39   28.88
  -4  -2  -5  311.43   24.51
  -4   2  -5  396.62   36.80
  -4   2  -5  367.31   29.31
  -4   2  -5  354.78   27.26
  -4   2  -5  322.67   27.93
  -4  -2  -5  347.67   27.11
  -4   2  -5  400.17   32.58
   4  -2   5  357.90   31.40
   4   2   5  569.89   46.54
  -4   2  -5  397.29   30.79
   4   2   5  331.29   29.50
   3 -11   2    0.70    6.33
  -3  11  -2   -0.11    7.68
  -3  11  -2    2.08    7.20
  -3 -11  -2    0.49    7.09
   3 -11   2    2.68    8.90
  -3  11  -2   -1.18    5.51
  -3 -11  -2   -0.45    8.75
   3  11   2   -1.55    7.82
   3 -11   2    2.59   12.82
   3 -11   2    2.92    9.42
  -3 -11  -2   -0.04    6.60
  -3 -11  -2   -0.66    5.66
   3  11   2    0.89    7.62
  -3  11  -2    1.28    5.85
   1 -11   3  348.07   38.16
   1  11   3  382.49   37.26
   1  11   3  378.12   38.98
  -1  11  -3  406.70   40.38
   1  11   3  380.21   40.42
  -1 -11  -3  386.07   37.71
   1 -11   3  436.10   40.48
  -1 -11  -3  336.16   33.97
   1  11   3  426.85   39.43
  -1  11  -3  436.53   39.42
  -1  11  -3  479.11   46.39
  -1  11  -3  442.21   40.25
  -1  11  -3  446.88   40.75
  -1  -7  -5  111.95   13.71
   1   7   5  101.06   12.67
  -1   7  -5  135.93   18.13
   1  -7   5  137.66   18.51
   1   7   5  102.34   19.60
  -1   7  -5  141.54   16.82
  -1   7  -5  135.91   18.69
   1   7   5  110.77   14.27
  -1   7  -5  139.97   15.23
   1   7   5  115.25   13.17
  -1   7  -5  137.06   15.45
  -1   7  -5  150.18   20.04
  -1  12  -2  122.28   18.09
   1  12   2   90.93   11.87
   1  12   2   92.05   16.16
  -1  12  -2  109.04   16.21
   1  12   2   85.72   14.29
   1  12   2   86.47   12.29
   1 -12   2  113.19   21.64
  -1  12  -2  101.35   12.71
  -1 -12  -2  123.12   17.80
  -1  12  -2  100.08   12.92
   1 -12   2  112.28   16.56
  -1  12  -2   92.67   11.73
  -3   5  -5  891.63   79.56
   3  -5   5  796.53   69.17
   3   5   5  706.41   62.85
   3  -5   5  776.15   71.31
   3   5   5  758.47   70.75
   3   5   5  621.68   63.31
  -3   5  -5  825.84   74.98
  -3  -5  -5  711.06   64.78
  -3  -5  -5  761.07   75.55
  -3   5  -5  864.49   76.47
  -3   5  -5  937.31   86.26
  -3   5  -5  770.60   67.00
  -3  -5  -5  552.79   49.93
   0   2  -6 1078.71   96.34
   0   2   6  982.24   92.69
   0  -2  -6  912.58   81.58
   0   2  -6  920.60   82.43
   0  -2  -6  882.80   79.95
   0   2  -6 1055.43   93.92
   0   2  -6  966.19   85.00
   0  -2  -6  939.56   83.11
   0   2  -6  937.74   87.81
   0  -2  -6 1012.43   91.34
  -2   9  -4   26.07    6.78
   2  -9   4   29.83    8.28
   2  -9   4   23.19   10.11
  -2   9  -4   28.89    8.41
  -2  -9  -4   32.69    8.45
   2   9   4   24.02   10.81
   2   9   4   24.28    8.59
   2   9   4   23.16    6.63
  -2   9  -4   25.38    6.52
   2   9   4   20.34    6.87
  -2   9  -4   30.17    7.34
   2   9   4   21.36   13.22
  -2  -9  -4   30.37   11.74
  -1   0  -6 1366.21  119.17
  -1   0  -6 1469.63  107.64
  -1   0  -6 1398.68  121.55
  -1   0  -6 1342.23  115.55
  -1   0  -6 1495.20  107.46
   4   4  -5  633.63   57.10
  -4   4   5  679.52   60.09
  -4  -4   5  753.09   71.28
   4  -4  -5  614.04   56.65
   4  -4  -5  663.70   61.28
   4   4  -5  664.91   62.62
   4  -4  -5  676.18   61.00
  -4   4   5  614.37   60.86
  -4  -4   5  735.72   64.98
  -6  -2   4  439.38   42.81
   6  -2  -4  477.44   45.97
   6  -2  -4  414.09   39.22
  -6  -2   4  403.10   39.58
   6   2  -4  454.63   43.43
   6  -2  -4  351.95   34.86
   6   2  -4  495.18   48.24
  -6   2   4  389.38   39.91
  -6   2   4  500.94   44.86
   6  -2  -4  478.24   46.57
   6   2  -4  420.96   40.67
  -6  -2   4  468.78   43.27
   1  -2  -6  483.31   46.20
   1  -2  -6  494.32   47.79
   1   2  -6  508.03   48.56
   1  -2  -6  426.50   40.20
  -1  -2   6  560.98   56.03
  -1   2   6  454.46   45.57
   1   2  -6  481.07   46.16
   1   2  -6  773.31   72.28
   1  -2  -6  469.20   45.48
   1   2  -6  536.56   51.76
  -1   1  -6   21.10    8.89
  -1  -1  -6   22.41   11.03
  -1   1  -6   26.59    9.02
  -1  -1  -6   20.34    8.65
  -1   1  -6   21.36   10.71
  -1  -1  -6   23.95    8.61
  -1  -1  -6   27.90    8.86
  -1  -1  -6   25.23    9.40
  -1   1  -6   18.64    6.65
  -1   1  -6   18.30    8.03
   7   0  -3   -1.56    8.07
  -7   0   3    3.37    8.81
   7   0  -3   -4.02   19.22
   7   0  -3   -2.50    6.12
   7   0  -3   -3.98    6.98
  -7   0   3   -1.22    5.87
  -3 -10  -3  555.78   52.49
  -3 -10  -3  540.68   48.14
  -3 -10  -3  697.27   65.35
  -3  10  -3  641.98   56.70
   3 -10   3  674.64   61.61
   3 -10   3  636.76   60.38
   3  10   3  528.52   52.62
  -3  10  -3  680.18   59.80
   3 -10   3  558.41   53.13
  -3  10  -3  608.01   53.64
   3 -10   3  609.26   53.76
   3  10   3  638.06   59.52
  -3 -10  -3  628.16   57.39
  -6  -5  -3   65.91   11.81
  -6   5  -3   67.78   10.50
  -6   5  -3   75.84   10.15
   6  -5   3   67.91   14.11
   6  -5   3   70.86   10.34
  -6  -5  -3   67.26   10.56
   6   5   3   58.18   10.63
  -6  -5  -3   88.79   19.44
   6   5   3   61.08   13.37
   6   5   3   68.98   11.45
  -6  -5  -3   62.57   11.77
   6  -5   3   69.30   12.68
  -6  -8  -1    5.09    6.62
   6  -8   1   15.67    9.00
  -6  -8  -1    3.88   10.86
   6   8   1   -1.01    8.08
   6  -8   1    4.90    7.16
   6  -8   1    2.08    8.90
  -6   8  -1    3.27    7.75
  -6  -8  -1   -0.21   10.50
   6  -8   1    3.56    6.43
   6   8   1    3.36    8.31
  -6  -8  -1    0.37    7.57
  -6   8  -1    0.05    5.43
  -6   8  -1    0.59    4.95
  -6   8  -1    1.55    6.99
   6   7   2  529.11   61.65
   6  -7   2  709.42   64.12
  -6  -7  -2  539.50   52.15
   6  -7   2  556.88   51.74
  -6  -7  -2  525.99   51.33
  -6   7  -2  590.02   53.09
   6  -7   2  602.36   54.66
  -6   7  -2  620.69   54.39
  -6  -7  -2  590.64   52.55
  -6  -7  -2  669.95   64.80
   6   7   2  399.18   39.91
  -6   7  -2  807.12   71.56
   6  -7   2  575.99   56.08
   6   7   2  466.74   49.91
   5  10   0   18.94    8.97
  -5 -10   0   15.21   11.76
  -5 -10   0   15.61    7.73
  -5  10   0   16.08    7.78
  -5  10   0   22.27    8.20
   5 -10   0   16.94    9.94
   5 -10   0   18.12    6.74
  -5  10   0   20.66    7.17
  -5 -10   0   17.48    9.73
   5  10   0   17.92    9.41
   5 -10   0   19.60    7.39
   5 -10   0   20.00    8.33
   4  11  -1  477.76   51.95
  -4 -11   1  508.59   47.83
  -4  11   1  615.57   55.30
   4 -11  -1  595.01   53.46
   4 -11  -1  593.69   60.01
  -4  11   1  681.00   60.43
   4 -11  -1  617.56   55.14
  -4  11   1  797.01   77.83
  -4 -11   1  544.41   53.20
   4 -11  -1  598.66   56.38
  -4 -11   1  580.04   55.04
   4  -9   3   83.97   11.36
   4  -9   3   77.06   12.96
  -4   9  -3   82.47   10.61
   4   9   3   66.01   11.68
  -4  -9  -3   72.65   10.29
  -4   9  -3   95.97   12.02
  -4  -9  -3   64.62   10.84
  -4  -9  -3   71.76   14.48
   4  -9   3   67.27   13.02
  -4  -9  -3   84.77   12.97
   4  -9   3   79.70   13.84
   4   9   3   67.90   12.98
  -4   9  -3   75.77   10.64
   4   9   3   74.47   12.50
  -5   8   3  499.93   45.94
   5  -8  -3  387.96   39.66
   5   8  -3  429.29   42.40
   5  -8  -3  424.58   40.16
  -5  -8   3  520.30   50.62
  -5   8   3  457.69   41.09
  -5  -8   3  470.22   42.59
   5   8  -3  391.66   38.67
  -5  -8   3  373.33   39.09
   5  -8  -3  389.41   45.76
  -7   1   3   60.82    9.41
   7  -1  -3   57.77   12.38
  -7   1   3   51.00   11.73
  -7  -1   3   59.03    9.49
   7  -1  -3   52.89   10.19
   7  -1  -3   55.13    9.39
   7   1  -3   58.62    9.85
   7  -1  -3   62.93   13.39
   7   1  -3   59.51   12.44
  -7  -1   3   47.82   11.30
   7   1  -3   51.43   10.26
  -7  -6   0   38.47   10.71
  -7   6   0   45.96   10.57
   7   6   0   41.23   10.22
   7  -6   0   45.22   10.18
   7  -6   0   42.73   11.92
   7   6   0   38.63    8.77
   7  -6   0   -4.39    6.00
  -7  -6   0   41.79    9.27
   7   6   0   40.30    8.78
   7  -6   0   51.59    9.51
  -4  -7  -4    3.71    8.61
   4  -7   4   -0.52    7.66
  -4   7  -4    0.94    6.82
  -4   7  -4    0.32    4.81
   4   7   4    0.85    6.54
   4  -7   4  -12.88    5.57
  -4  -7  -4    0.35    6.65
   4  -7   4    3.41    5.90
   4  -7   4   -1.01    9.61
   4   7   4    4.44    8.55
  -4  -7  -4    2.13    5.36
  -4   7  -4    2.02    5.55
   4   7   4    0.88    8.32
  -4  -7  -4   -1.82    9.52
  -3  12   0  711.20   64.43
   3 -12   0  706.03   65.12
  -3 -12   0  762.27   71.85
   3 -12   0  722.97   63.22
  -3  12   0  751.61   65.43
  -3 -12   0  632.34   60.76
   3  12   0  579.60   58.46
  -3  12   0 1012.63   94.92
   3 -12   0  702.84   67.59
   3   6  -5  130.78   15.69
   3  -6  -5  115.59   13.70
  -3  -6   5  140.53   19.60
  -3   6   5  126.15   14.06
   3  -6  -5  104.05   13.41
   3  -6  -5  137.76   18.16
  -3   6   5  150.18   21.12
  -3  -6   5  151.82   16.13
   3   6  -5  139.32   16.34
   6  -6  -3  169.75   18.29
  -6   6   3  286.43   35.39
   6   6  -3  182.95   20.10
   6  -6  -3  174.16   21.30
   6  -6  -3  172.28   23.55
  -6  -6   3  188.21   23.98
   6  -6  -3  156.93   18.58
  -6  -6   3  204.22   20.93
  -6  -6   3  209.96   25.41
   6   6  -3  197.64   24.01
  -6   6   3  195.60   19.47
   6   6  -3  176.87   20.60
   5  -9   2   14.77   10.86
  -5  -9  -2   14.42    7.75
  -5  -9  -2   13.19   10.15
   5  -9   2   21.69    9.95
  -5   9  -2   14.68    6.23
   5   9   2   12.60    7.44
   5  -9   2   31.19   12.62
   5  -9   2   15.99    6.80
  -5   9  -2   18.36    7.57
  -5  -9  -2   12.24    6.38
  -5  -9  -2   13.04    9.25
  -5   9  -2   16.07    7.67
   5   9   2   14.06    9.33
  -5   9  -2   17.06    5.92
   0 -13   0    2.00    9.39
   0 -13   0   -0.29    6.86
   0  13   0   -0.88    8.76
   0  13   0    2.97    9.18
  -2   0   6   95.87   13.28
  -2   0   6   99.43   17.00
   2   0  -6   76.94   10.87
   2   0  -6  105.63   14.97
   2   0  -6  123.95   18.44
   2   0  -6  103.52   15.33
   2   7  -5   -3.28    9.58
  -2  -7   5    1.54   10.81
   2  -7  -5    1.80    5.56
   2   7  -5   -1.23    6.63
   2   7  -5    0.55    6.21
   2   7  -5   -2.72    8.42
  -2   7   5    1.04    4.38
  -5   5  -4   35.00    7.76
   5   5   4   28.12    8.47
  -5   5  -4   31.50    6.77
   5  -5   4   29.86    7.23
  -5  -5  -4   23.50    6.99
  -5  -5  -4   31.04    9.26
   5  -5   4   28.80   10.52
   5  -5   4   30.48   12.26
   5   5   4   26.17    8.82
   5   5   4   25.38   10.13
  -5   5  -4   34.47    8.30
  -5   5  -4   27.44    8.45
  -5  -5  -4   31.13    8.30
   4   3   5   56.21   11.06
  -4  -3  -5   92.19   11.52
  -4   3  -5  105.62   12.42
  -4   3  -5  133.59   20.95
  -4   3  -5  105.40   14.86
  -4  -3  -5   92.97   11.68
  -4   3  -5  120.84   14.67
   4   3   5  217.61   28.24
   4  -3   5  108.86   17.13
   4   3   5  112.67   16.84
  -4   3  -5  109.98   15.00
  -4  -3  -5  104.44   12.84
  -4   3  -5  130.69   16.97
   4  -3   5  118.86   13.72
  -7   4  -2   12.27    6.51
   7   4   2   13.25   11.30
  -7  -4  -2    9.36    6.17
  -7  -4  -2    9.82    7.76
  -7  -4  -2   11.29    8.99
   7   4   2    6.98    7.39
   7   4   2   13.13    7.86
  -7   4  -2   13.06    7.31
   7  -4   2   12.51    7.46
   7   4   2    7.93    7.83
   4 -11   1  150.87   19.68
  -4  11  -1  165.80   17.19
   4  11   1  150.83   18.91
  -4 -11  -1  168.67   21.82
  -4  11  -1  156.90   18.80
  -4 -11  -1  132.36   18.68
  -4  11  -1  126.50   15.37
   4  11   1  141.08   17.36
   4 -11   1  146.88   16.28
   4 -11   1  163.44   18.29
  -4 -11  -1  141.39   16.86
   4 -11   1  167.42   22.07
  -1  -2  -6   62.18   13.61
  -1  -2  -6   59.63   10.98
  -1   2  -6   60.38   11.56
  -1  -2  -6   54.48   11.35
  -1  -2  -6   57.04   11.46
  -1   2  -6   55.64   10.60
  -1   2  -6   64.74   11.65
  -1   2  -6   59.42   13.32
  -1   2  -6   50.39    8.38
  -1  -2  -6   58.05   11.49
  -5   6   4   29.32    9.93
   5   6  -4   31.02    7.41
   5  -6  -4   37.65    9.58
  -5  -6   4   43.07   13.32
   5   6  -4   28.45    8.41
   5  -6  -4   38.53   10.27
   5  -6  -4   29.87    8.19
  -5   6   4   36.93    7.26
   5  -6  -4   31.07    7.29
  -5  -6   4   32.12    8.29
  -5  -6   4   -4.95    6.12
   2  -1  -6  203.99   23.19
  -2  -1   6  177.63   17.91
   2   1  -6  201.50   23.04
  -2   1   6  206.25   20.94
   2   1  -6  177.89   18.24
   2   1  -6  193.80   21.36
   2   1  -6  232.22   27.26
   2  -1  -6  202.52   20.89
   2  -1  -6  218.56   25.70
   2  -1  -6  159.97   18.29
  -2  -1   6  192.65   24.30
  -2   1   6  186.47   23.63
   0   3  -6  228.21   26.24
   0  -3  -6  175.38   20.26
   0   3   6  188.80   24.81
   0  -3  -6  208.19   22.61
   0   3  -6  593.73   65.11
   0  -3  -6  196.61   22.70
   0   3  -6  222.15   26.02
   0   3  -6  192.24   21.65
   0   3  -6  196.75   22.52
   5 -10  -1  161.14   18.81
  -5  10   1  126.23   16.22
   5  10  -1  147.83   17.13
  -5  10   1  154.13   16.91
  -5  10   1  151.99   16.49
  -5 -10   1  154.76   20.57
  -5 -10   1  142.93   19.81
  -5 -10   1  140.24   16.98
   5  10  -1  133.36   19.64
   5 -10  -1  126.03   15.05
   5 -10  -1  142.55   18.80
   5 -10  -1  154.43   16.48
   2 -11  -3  196.68   21.03
  -2  11   3  179.98   18.29
   2  11  -3  175.17   20.33
   2 -11  -3  191.37   21.21
  -2 -11   3  194.49   25.95
  -2  11   3  196.33   24.70
   2  11  -3  198.75   21.13
  -7  -6   1   88.74   15.31
   7   6  -1   76.89   12.55
   7  -6  -1   84.65   12.11
   7  -6  -1   94.72   15.34
  -7  -6   1   92.21   13.88
   7   6  -1   87.22   12.18
   7  -6  -1   87.90   13.49
  -7  -2   3  948.12   88.10
   7  -2  -3 1080.34   98.49
   7   2  -3 1052.64   92.54
  -7  -2   3  946.30   84.58
   7  -2  -3 1075.28   96.53
   7   2  -3 1099.78   99.32
  -7   2   3 1052.95   90.70
   7  -2  -3  920.68   91.37
   7   2  -3  962.24   91.35
  -7  -2   3 1055.24   90.96
   7  -2  -3  769.92   79.99
  -7   2   3  932.95   83.95
   7  -2  -3  941.75  100.89
   7   5  -2    1.21    6.44
   7  -5  -2    1.55    7.05
   7  -5  -2    1.94    7.48
  -7  -5   2    2.07    9.04
  -7   5   2    1.26    8.02
   7  -5  -2    3.43    8.46
   7  -5  -2   -1.80    7.19
   7   5  -2    0.72    9.02
   7   5  -2   -1.19    6.85
  -7  -5   2    2.03   10.20
   6   3  -4    6.40    7.97
  -6   3   4   10.89    6.15
  -6  -3   4   12.27    8.67
  -6   3   4   14.26    8.63
   6   3  -4   11.03    9.25
  -6  -3   4   11.83    6.27
   6  -3  -4    9.97    7.35
   6  -3  -4    7.72    7.71
   6  -3  -4    7.67    8.47
   6   3  -4   12.48    6.72
  -6  -3   4   10.17    9.23
   6  -3  -4    9.52    6.60
   1   3  -6  183.08   21.90
   1  -3  -6  199.53   23.37
   1  -3  -6  195.83   21.62
   1   3  -6  187.59   22.21
   1   3  -6  223.45   26.20
   1  -3  -6  179.67   21.13
   1   3  -6  174.26   18.39
   1   3  -6  428.42   47.38
   1   3  -6  199.83   23.33
   1   3  -6  199.93   20.81
  -1   3   6  169.10   22.84
  -2  12   2   94.19   16.27
  -2  12   2   82.85   11.46
   2  12  -2   84.63   12.72
  -2  12   2   96.13   13.15
   2 -12  -2   98.82   13.89
  -2 -12   2  116.43   19.96
   2 -12  -2  100.93   13.99
   2  12  -2   81.85   14.11
  -2  12   2   86.81   10.92
  -1 -13   0  507.96   49.66
   1 -13   0  562.78   50.54
  -1 -13   0  572.72   52.68
  -1  13   0  500.54   47.89
   1  13   0  528.07   52.22
   1  13   0  492.53   48.05
  -1  13   0  517.97   48.93
  -1  13   0  516.01   46.17
   1 -13   0  516.80   49.74
   0 -10   4    7.83   11.48
   0 -10  -4    4.90    7.04
   0  10   4    5.56    5.67
   0  10  -4    6.97    5.91
   0  10  -4    6.50    8.36
   0  10   4    1.78    9.71
   0  10   4    5.60    6.29
   0 -10  -4    6.75    8.72
   0  10  -4    6.01    6.13
   0  10  -4    3.12    7.99
   0  10  -4    4.57    6.29
  -3  12   1  502.71   46.96
  -3  12   1  514.09   46.45
  -3  12   1  381.32   38.28
  -3 -12   1  483.11   45.65
   3 -12  -1  485.03   43.92
  -3 -12   1  426.22   39.90
   3 -12  -1  445.10   44.46
   3  12  -1  434.60   45.28
   3 -12  -1  418.71   41.83
   3 -12  -1  466.19   42.43
   8   0   0 1201.75  104.68
   8   0   0 1140.25  111.93
   8   0   0 1287.11  164.00
   8   0   0 1124.34  100.68
  -8   0   0 1145.37  100.95
  -5   0   5    0.49    9.05
   5   0  -5    6.28   11.13
   5   0  -5    3.96    7.32
  -5   0   5    1.45    6.14
   5   0  -5   -0.01    5.35
  -2   2   6  255.74   29.91
   2  -2  -6  306.36   31.90
  -2  -2   6  295.66   33.32
   2   2  -6  774.31   79.14
   2   2  -6  335.65   35.82
   2  -2  -6  300.32   32.25
  -2  -2   6  242.47   23.14
   2  -2  -6  280.64   27.50
  -2   2   6  278.62   27.85
   2   2  -6  234.45   22.84
   2   2  -6  282.37   29.68
   2  -2  -6  232.24   23.64
   5 -10   1    2.53    7.08
  -5  10  -1    0.00    7.05
   5 -10   1    2.75    9.27
  -5  10  -1    3.58    5.68
  -5 -10  -1   -0.75    6.78
   5  10   1    3.81    7.64
   5 -10   1    5.50    7.31
   5  10   1    0.10    8.93
   5 -10   1    3.59   10.65
  -5 -10  -1    2.90    9.62
  -5 -10  -1    2.10    8.61
  -5  10  -1    3.61    7.58
   8   1   0  128.80   15.42
   8   1   0  115.98   15.71
  -8  -1   0  115.20   15.42
   8  -1   0  134.99   18.03
   8  -1   0  131.08   16.29
   8   1   0  121.72   17.11
   8  -1   0   57.08    9.45
  -8  -1   0  125.85   16.00
  -8   1   0  127.58   16.04
  -1  10   4    0.29    5.85
  -1  10   4    1.82    5.53
   1  10  -4    4.64    6.15
   1  10  -4    2.14    9.34
  -1  10   4    0.76    9.80
  -1 -10   4    6.65   11.74
   1  10  -4    4.39    6.28
   0  13   1  104.76   14.35
   0  13  -1   96.79   13.15
   0 -13   1   98.49   13.28
   0 -13  -1  111.05   14.61
   0  13  -1  104.91   16.49
   0  13  -1  106.27   13.27
   0  13  -1  111.18   17.04
   0  13   1   99.15   16.17
   0 -13  -1   88.07   13.28
   0  13   1  100.26   15.17
   0 -13   1  112.10   18.39
   3 -12   1   10.86    7.74
  -3 -12  -1    5.36    7.92
   3  12   1    4.66    7.53
   3 -12   1    8.48    7.34
  -3 -12  -1    8.63    9.30
  -3  12  -1    4.81    7.88
  -3  12  -1    4.92    7.97
   3 -12   1    6.34   11.43
  -3 -12  -1    7.42    7.13
   3 -12   1    5.90    9.35
  -3  12  -1    6.75    6.22
   2  11   3  218.54   24.38
   2  11   3  223.92   22.57
   2 -11   3  244.37   29.93
   2  11   3  218.84   24.06
  -2  11  -3  264.19   25.14
  -2  11  -3  285.20   28.56
   2 -11   3  289.26   29.03
  -2  11  -3  271.81   26.30
   2  11   3  285.36   33.60
  -2 -11  -3  249.52   27.32
   2  11   3  213.87   24.50
  -2 -11  -3  236.93   26.04
  -2  11  -3  268.89   25.86
  -2  12  -2  867.02   75.22
   2  12   2  613.71   58.56
   2 -12   2  816.27   78.81
  -2 -12  -2  702.69   64.58
   2  12   2  706.56   76.54
  -2  12  -2  754.16   66.99
  -2 -12  -2  668.89   68.82
   2  12   2  865.69   81.46
  -2  12  -2  745.91   67.02
  -2  12  -2  740.42   65.94
  -2  12  -2  816.20   73.50
   2 -12   2  718.24   66.23
   2  12   2  686.11   61.93
  -3  -9   4   39.38   14.81
   3  -9  -4   32.19    7.42
   3  -9  -4   33.01    8.54
   3  -9  -4   32.97    9.64
  -3   9   4   37.42   12.41
  -3  -9   4   41.51    7.92
  -3   9   4   32.93    6.86
   3   9  -4   33.43    9.15
   5   1  -5  238.45   24.56
   5   1  -5  290.22   29.45
   5  -1  -5  287.94   29.22
  -5   1   5  246.36   27.16
  -5   1   5  318.84   30.94
   5  -1  -5  263.48   25.98
  -5  -1   5  318.36   30.52
   5   1  -5  702.88   71.14
   5  -1  -5  236.91   24.62
  -5  -1   5  297.84   32.07
   7   6   1  282.71   30.61
   7  -6   1  318.00   33.63
  -7   6  -1  304.32   30.89
  -7  -6  -1  294.58   31.25
   7   6   1  316.49   34.46
   7  -6   1  336.16   33.17
   7  -6   1  353.37   36.31
  -7  -6  -1  256.96   27.14
   7  -6   1  366.23   37.42
   7   6   1  316.80   33.20
   7   6   1  299.74   29.89
  -2  -7  -5    7.22    6.75
  -2   7  -5    5.19    7.52
  -2   7  -5   11.60   10.41
   2   7   5    0.86   13.00
  -2   7  -5    6.31    9.44
   2   7   5    3.35    6.78
   2  -7   5    3.45    8.36
   2   7   5    2.79    5.84
  -2   7  -5    7.17    6.04
   2   7   5    2.08    5.55
  -2   7  -5    5.62    5.65
  -1   3  -6    6.97    7.51
  -1   3  -6    5.70    8.28
  -1   3  -6    5.45    9.43
  -1  -3  -6    6.86    7.48
  -1   3  -6    7.94    7.27
  -1  -3  -6   11.51    7.39
  -1  -3  -6    9.19    8.13
  -1   3  -6    8.17    8.36
   4  -8  -4  166.82   17.61
   4   8  -4  178.76   19.49
  -4  -8   4  207.82   20.89
  -4   8   4  187.98   19.22
   4  -8  -4  180.19   21.11
   4  -8  -4  175.08   21.02
   8   0  -1    6.49   16.86
  -8   0   1    0.71    9.03
   8   0  -1    0.07    7.45
   8   0  -1    0.43    7.72
   8   0  -1    0.30   10.91
   6   0   4  445.29   43.71
  -6   0  -4  476.15   43.08
  -6   0  -4  462.78   43.66
   6   0   4  450.50   41.79
  -6   0  -4  474.26   42.69
  -6   0  -4  473.70   45.64
   4   5  -5  118.53   14.82
   4   5  -5  115.16   14.63
  -4  -5   5  128.42   14.76
  -4  -5   5  134.88   19.81
  -4   5   5  121.42   13.87
   4  -5  -5   97.81   12.08
   4  -5  -5  116.45   16.54
  -4   5   5  112.12   17.55
  -2   0  -6  727.97   65.98
  -2   0  -6  830.34   73.25
  -2   0  -6  773.93   70.11
  -2   0  -6  751.57   69.24
  -2   0  -6  776.00   70.05
  -1 -10  -4  232.16   25.35
  -1  10  -4  270.14   27.39
   1 -10   4  268.69   30.27
  -1  10  -4  255.84   25.08
   1  10   4  205.21   25.99
   1  10   4  210.38   23.55
  -1  10  -4  270.02   25.69
   1  10   4  234.08   23.52
  -1 -10  -4  253.02   27.64
  -1  10  -4  311.14   34.83
  -1  10  -4  273.64   26.41
  -5  -8  -3  560.30   51.34
   5  -8   3  495.53   47.46
  -5  -8  -3  411.97   42.16
  -5   8  -3  511.50   45.28
   5   8   3  487.90   46.67
   5   8   3  433.70   46.71
  -5  -8  -3  457.69   46.05
  -5  -8  -3  430.31   39.20
   5  -8   3  508.92   45.54
   5  -8   3  453.35   43.82
   5   8   3  430.64   43.30
  -5   8  -3  505.53   45.42
   5  -8   3  473.94   46.78
  -5   8  -3  498.72   44.20
   8   1  -1  599.44   68.49
   8   1  -1  812.61   73.27
  -8  -1   1  647.52   59.55
   8  -1  -1  566.61   68.25
   8  -1  -1  808.62   73.88
   8   1  -1  701.28   68.09
  -8   1   1  699.19   66.15
   8  -1  -1  700.96   70.81
  -8  -1   1  690.59   66.31
   8  -1  -1  757.52   68.39
   6  -8  -2  266.33   27.00
  -6  -8   2  228.69   26.15
   6   8  -2  238.94   25.57
   6  -8  -2  220.60   25.27
  -6   8   2  196.10   25.44
   6   8  -2  252.93   30.63
   6  -8  -2  229.20   25.55
   6   8  -2  230.70   25.18
  -7   3   3    9.81    8.98
   7  -3  -3    5.34    6.80
  -7  -3   3    6.57    9.74
  -7   3   3   13.61    6.14
   7   3  -3   12.49    9.75
  -7  -3   3   11.06    6.69
   7  -3  -3   10.03    7.16
  -7  -3   3   11.84    9.40
   7  -3  -3    9.85    9.07
   7  -3  -3   12.07    8.72
   7   3  -3    9.91    6.81
   7   3  -3   11.28    8.32
  -1  13   1  199.46   24.11
  -1 -13   1  166.98   18.68
   1 -13  -1  233.57   24.35
   1 -13  -1  191.50   21.52
   1  13  -1  186.42   22.94
  -1 -13   1  205.61   26.20
   1  13  -1  190.52   23.54
  -1  13   1  191.28   20.69
   1  13  -1  181.47   20.74
  -1  13   1  210.27   23.44
  -6  -1  -4  112.92   13.97
   6   1   4  109.11   13.64
  -6  -1  -4  110.80   13.20
  -6   1  -4  129.44   16.96
   6  -1   4  108.51   16.10
   6  -1   4  109.80   13.33
  -6  -1  -4  102.34   13.89
  -6   1  -4  115.29   14.07
  -6   1  -4  116.63   13.38
   6   1   4  104.88   16.56
  -6  -1  -4   98.95   13.47
   0   8  -5  135.55   15.20
   0   8  -5  144.26   19.78
   0   8  -5  140.30   16.78
   0   8   5   95.17   18.16
   0  -8   5  114.88   17.07
   0   8  -5  121.40   14.02
   0   8   5   94.06   12.45
   0   8   5  115.77   13.29
   0   8  -5  136.03   18.64
   0  -8  -5  101.48   14.01
  -3  -6  -5   76.71   10.75
   3  -6   5   92.40   14.06
   3   6   5   84.89   12.74
   3   6   5   78.53   11.12
  -3   6  -5   98.93   17.79
  -3   6  -5  102.23   15.84
  -3  -6  -5  103.96   15.60
   3  -6   5   91.65   15.49
  -3   6  -5   98.87   11.58
   3  -6   5   91.68   11.33
  -3   6  -5  105.72   14.63
  -2   1  -6  177.05   20.47
  -2  -1  -6  171.85   19.94
  -2  -1  -6  173.78   18.99
  -2   1  -6  161.89   17.71
  -2   1  -6  173.84   21.73
  -2  -1  -6  160.35   19.44
  -2   1  -6  173.27   19.91
  -2   1  -6  160.41   19.55
  -2  -1  -6  167.88   19.97
   8   2   0  501.50   55.20
  -8  -2   0  515.56   49.52
   8  -2   0  522.50   49.71
   8   2   0  507.83   54.95
  -8   2   0  495.34   47.43
  -8  -2   0  485.60   46.94
   8   2   0  488.15   45.18
   8  -2   0  485.69   47.10
   8   2   0  499.54   46.91
   8  -2   0  422.04   44.81
   8  -2   0  525.74   58.34
  -4  -4  -5  167.78   18.05
   4  -4   5  189.00   23.24
   4   4   5  189.76   20.69
   4   4   5  170.35   21.05
  -4   4  -5  191.98   19.13
  -4   4  -5  200.85   21.88
   4   4   5  186.77   20.06
  -4   4  -5  162.88   17.57
   4  -4   5  189.44   19.16
  -4  -4  -5  155.73   16.43
  -4   4  -5  184.19   21.76
  -4  -4  -5  182.44   19.12
  -4   4  -5  209.86   23.65
  -1  13  -1  614.25   54.30
   1  13   1  519.01   49.77
  -1  13  -1  555.68   60.29
  -1  13  -1  608.11   56.99
   1  13   1  566.79   55.24
  -1  13  -1  479.87   45.78
  -1 -13  -1  604.22   55.27
  -1 -13  -1  452.57   43.39
   1 -13   1  614.73   55.46
   1 -13   1  670.01   65.02
   1  13   1  541.78   51.99
   5   2  -5    8.86    6.63
  -5  -2   5    6.99   10.14
   5  -2  -5    7.34    7.57
   5   2  -5    7.77    7.25
  -5   2   5    5.97    9.32
   5  -2  -5    4.02    7.67
   5  -2  -5    2.65    5.63
   5   2  -5    9.97   13.96
  -5  -2   5    8.24    6.90
  -5   2   5    9.16    5.89
   0   4  -6  349.60   30.50
   0  -4  -6  297.30   27.35
   0   4  -6  426.24   36.92
   0   4  -6  660.31   55.02
   0  -4  -6  337.41   29.51
   0   4  -6  316.87   27.51
   0   4  -6  350.00   28.05
   0   4  -6  384.42   31.16
   0   4  -6  396.49   34.88
   0   4   6  327.24   33.46
   1   8  -5   59.01    9.32
  -1  -8   5   52.91   13.30
  -1   8   5   40.84    7.40
  -1   8   5   36.75   11.80
   1  -8  -5   47.47    9.01
   1   8  -5   55.40    9.98
   1   8  -5   62.66   11.62
   1   8  -5   62.93   13.52
   1   8  -5   54.73    8.47
  -1   8   5   45.52    7.40
   7   0   3   -1.35    6.67
  -7   0  -3    1.93    7.96
  -7   0  -3    1.36    6.20
   7   0   3   -3.79   10.11
  -6  -9   0  132.97   18.72
  -6   9   0  119.13   14.35
  -6  -9   0  113.39   16.35
   6  -9   0  128.01   13.46
   6  -9   0  135.12   15.24
  -6  -9   0   90.18   11.97
  -6   9   0  113.51   11.84
   6  -9   0  121.17   16.62
   6   9   0  123.21   14.49
  -6   9   0  132.82   14.19
   6   9   0  119.06   14.68
  -6  -6  -3  195.35   20.80
   6   6   3  190.00   22.37
  -6  -6  -3  227.86   22.81
  -6  -6  -3  240.13   27.16
   6  -6   3  239.39   22.98
   6   6   3  226.38   21.32
   6   6   3  198.57   21.95
   6  -6   3  234.71   20.49
  -6   6  -3  252.00   20.65
  -6   6  -3  234.64   20.54
  -6  -6  -3  227.04   21.29
  -2   3   6  164.54   16.49
   2   3  -6  136.50   13.29
   2   3  -6  194.34   22.78
   2  -3  -6  158.69   18.81
   2  -3  -6  151.04   15.14
   2   3  -6  172.50   19.25
   2  -3  -6  131.89   15.43
  -2   3   6  123.62   17.58
  -2  -3   6  172.53   22.14
   2   3  -6  285.08   31.12
   6   4  -4  110.86   13.76
   6  -4  -4  109.14   12.57
  -6  -4   4  110.49   16.03
   6  -4  -4  108.06   15.03
   6  -4  -4  110.06   15.33
   6  -4  -4  107.02   14.26
  -6   4   4  108.28   14.38
  -6  -4   4  111.17   15.23
   6   4  -4  109.41   12.70
  -6  -4   4  131.40   13.95
  -6   4   4  126.26   12.78
   1   4  -6  468.52   38.98
   1   4  -6  530.06   40.23
  -1   4   6  458.42   37.56
   1  -4  -6  520.16   41.73
   1   4  -6  580.14   43.52
   1  -4  -6  428.43   36.41
   1   4  -6  489.03   40.22
   1   4  -6  566.66   47.04
   1   4  -6  541.95   44.16
  -1   4   6  410.23   31.97
  -1   4   6  467.20   41.04
  -7  -5  -2  541.08   45.77
  -7  -5  -2  591.22   46.98
  -7  -5  -2  644.26   47.62
   7   5   2  574.33   44.99
   7  -5   2  601.29   45.27
   7   5   2  476.44   49.57
   7   5   2  538.80   51.02
  -7   5  -2  572.34   43.53
  -7   5  -2  660.08   48.23
   7   5   2  429.02   36.64
   8  -2  -1   55.36   11.40
  -8  -2   1   53.11   11.52
  -8   2   1   57.36   12.05
   8  -2  -1   57.74   13.35
   8   2  -1   60.60   10.28
   8  -2  -1   43.52    9.31
   8   2  -1   55.78   11.91
  -8  -2   1   56.40   11.38
  -7  -1  -3    2.03    8.73
   7  -1   3    3.28   10.06
   7   1   3    0.98    6.47
  -7   1  -3    1.43    5.68
  -7  -1  -3   -0.18    5.12
  -7  -1  -3    0.87   11.68
   7  -1   3   -2.55    6.40
   7   1   3    0.02   10.24
   8   0   1    1.14    8.24
   8   0   1    0.87   11.26
   8   0   1    3.03    7.79
   8   0   1    0.61    7.72
  -8   0  -1    2.02    6.93
   6   2   4  471.91   40.72
  -6  -2  -4  265.86   24.95
  -6   2  -4  338.62   28.64
  -6   2  -4  322.64   25.39
  -6  -2  -4  304.24   26.91
   6   2   4  310.41   26.45
   6  -2   4  321.17   25.96
  -6  -2  -4  316.17   25.68
   6   2   4  295.53   28.02
   6  -2   4  284.99   28.70
  -2  -2  -6  165.44   18.16
  -2   2  -6  175.39   17.36
  -2  -2  -6  195.46   19.85
  -2   2  -6  173.61   20.12
  -2  -2  -6  177.25   18.52
  -2  -2  -6  191.85   18.47
  -2   2  -6  146.93   14.30
  -2   2  -6  197.52   20.22
  -2   2  -6  161.43   17.81
   2 -13   0  135.81   16.64
  -2  13   0  136.05   13.41
   2  13   0  112.09   15.44
  -2 -13   0  127.41   15.40
   2 -13   0  134.38   13.91
  -2  13   0  112.25   15.08
   2  13   0  101.49   12.59
  -2  13   0  136.26   16.10
   8   1   1  301.00   27.31
  -8  -1  -1  263.55   22.83
   8  -1   1  279.31   25.47
  -8   1  -1  247.98   21.54
   8   1   1  259.43   33.44
   8  -1   1  311.68   27.35
   8  -1   1  250.82   26.84
   8  -1   1  245.02   29.12
  -8  -1  -1  249.56   23.29
   8   1   1  255.78   25.36
   4 -11  -2  144.87   15.04
   4 -11  -2  152.13   17.39
  -4  11   2  176.13   17.22
  -4  11   2  119.12   15.99
   4  11  -2  145.58   17.50
  -4 -11   2  135.63   19.42
  -4  11   2  151.42   15.65
   4 -11  -2  147.38   18.17
   1   8   5  106.45   13.59
  -1   8  -5  174.75   15.96
  -1   8  -5  172.90   19.99
   1  -8   5  159.97   19.15
  -1   8  -5  171.49   16.93
  -1  -8  -5  125.61   14.00
   1   8   5  128.50   13.22
   1   8   5  147.30   20.44
  -1   8  -5  158.13   19.34
  -1   8  -5  147.70   14.71
  -3  -9  -4   49.09    9.84
   3   9   4   39.67    9.90
   3  -9   4   56.44   11.78
   3   9   4   53.67   10.53
  -3   9  -4   48.63    8.28
  -3   9  -4   54.59    8.41
  -3  -9  -4   56.26   11.30
  -3   9  -4   54.39    8.17
  -3  -9  -4   52.79   13.40
   3   9   4   41.98    8.34
   3  -9   4   50.60    7.80
   3  -9   4   58.31   10.83
   5  -6   4  209.58   21.42
   5  -6   4  215.42   18.57
  -5   6  -4  243.02   20.67
  -5  -6  -4  170.38   17.89
  -5   6  -4  205.23   17.41
   5   6   4  194.15   21.55
   5   6   4  220.15   21.03
   5   6   4  166.56   18.09
   5  -6   4  217.60   23.22
  -5  -6  -4  176.24   16.46
  -5   6  -4  211.51   19.29
  -5  -6  -4  214.53   20.45
  -5   6  -4  194.47   17.46
  -4  10   3   65.40    9.60
   4 -10  -3   62.18   10.15
  -4  10   3   57.27   12.46
  -4 -10   3   76.54   10.45
   4  10  -3   63.62   10.56
  -4  10   3   76.30    9.85
   4 -10  -3   61.04   11.91
   4 -10  -3   67.42    9.69
   2 -10  -4  309.66   27.54
  -2  10   4  338.37   33.47
   2  10  -4  329.70   26.62
   2  10  -4  324.84   27.43
  -2 -10   4  310.16   31.18
  -2  10   4  315.60   25.51
  -6   9   1  132.55   13.17
   6  -9  -1  160.59   16.57
   6  -9  -1  139.88   15.78
  -6  -9   1  137.95   15.57
  -6  -9   1  132.15   17.44
  -6   9   1  118.02   14.13
  -6   9   1  160.75   16.01
   6  -9  -1  130.24   16.41
  -6  -9   1  163.26   21.36
   6   9  -1  147.85   16.29
   3   0  -6   84.32   16.06
  -3   0   6   45.09   13.29
   3   0  -6   53.10    8.77
   3   0  -6   49.77   10.32
  -3   0   6   53.57    9.62
   7   7   0  800.55   70.96
  -7   7   0  931.88   67.48
   7  -7   0  827.68   67.48
   7  -7   0  878.91   66.02
  -7   7   0  857.78   67.00
  -7  -7   0  711.85   57.75
  -7  -7   0  775.40   59.76
   7   7   0  788.14   60.91
   7   7   0  773.11   65.70
   7  -7   0  757.64   59.37
   8  -3   0   23.10   12.93
   8  -3   0   32.51    9.15
   8  -3   0   32.83    9.83
   8   3   0   29.80    8.40
  -8   3   0   31.92    9.90
   8   3   0   28.08   12.45
   8   3   0   26.57    9.82
  -8  -3   0   32.19    8.98
   8  -3   0   33.50    8.63
   8   3   0   31.39    7.86
  -8  -3   0   34.47   11.09
   3   7  -5  715.71   54.28
  -3  -7   5  765.14   55.53
   3  -7  -5  717.23   56.64
   3   7  -5  730.37   56.58
  -3   7   5  720.60   62.17
  -3  -7   5  766.11   61.04
  -3   7   5  658.30   49.75
   3  -7  -5  642.57   51.60
   3   7  -5  577.26   46.55
   3  -7  -5  594.17   48.19
   6  -7  -3  834.66   89.64
  -1   4  -6    0.68    6.81
  -1   4  -6    0.79    9.04
  -1  -4  -6    2.33    6.45
   1   4   6    2.14   12.53
   1   4   6    8.09   13.06
  -1   4  -6    6.82   22.61
  -1   4  -6    1.12    6.58
  -1  -4  -6    2.38    7.48
  -1   4  -6    4.01    8.05
  -1   4  -6    1.41    7.81
  -1   4  -6    0.39    5.81
   7   2   3   56.15   10.34
  -7  -2  -3   43.45    7.54
   7   2   3   36.46   12.24
   7  -2   3   46.28   13.05
   7  -2   3   46.03    8.78
  -7  -2  -3   35.22    9.66
   7   2   3   42.08    9.06
  -7   2  -3   47.30    7.80
  -7  -2  -3   44.23   10.44
   5  -3  -5  295.50   26.08
   5  -3  -5  242.86   22.29
   5  -3  -5  255.33   22.22
  -5  -3   5  239.10   23.42
   5   3  -5  278.07   25.09
  -5  -3   5  336.60   32.00
   5   3  -5  279.67   24.68
  -5   3   5  285.58   23.70
  -5  -3   5  322.36   27.00
  -5   3   5  234.08   23.53
  -3  -1   6   12.87   11.35
  -3   1   6   12.57    7.21
  -3   1   6   11.26   10.09
   3  -1  -6   11.10    6.02
   3   1  -6    9.44    5.59
   3   1  -6   21.90   11.35
   3   1  -6   13.44    9.43
   3  -1  -6    9.57    6.67
   3  -1  -6   20.49   12.14
  -3  -1   6   11.87    6.37
  -6   8  -2  592.54   43.54
  -6  -8  -2  541.03   40.93
   6   8   2  512.75   45.94
   6  -8   2  588.83   48.18
   6  -8   2  552.33   44.21
   6  -8   2  659.12   51.12
  -6   8  -2  562.43   42.60
  -6  -8  -2  456.52   39.54
   6   8   2  522.73   45.63
   6  -8   2  569.75   43.27
  -6  -8  -2  545.42   46.86
   6   8   2  343.27   30.22
  -6   8  -2  606.31   45.21
  -6  -8  -2  545.13   44.07
  -7  -6   2  507.47   43.16
  -7   6   2  447.40   37.37
   7  -6  -2  520.60   42.72
   7   6  -2  484.42   38.86
  -7  -6   2  267.94   28.09
   7   6  -2  472.79   46.81
   7  -6  -2  515.61   43.12
   7   6  -2  501.69   42.47
   7  -6  -2  487.56   45.28
   7  -6  -2  511.72   47.54
  -5  10   2   63.55   15.16
   5 -10  -2   53.61   11.37
   5  10  -2   51.73   10.31
   5 -10  -2   53.33    9.23
  -5 -10   2   62.37   13.96
  -5 -10   2   78.78   18.09
  -5 -10   2   51.74   13.05
  -5  10   2   54.30    8.49
   5 -10  -2   48.94   10.08
   7  -4  -3   67.23   12.50
   7  -4  -3   73.30   11.19
   7   4  -3   71.05   10.72
   7  -4  -3   75.44   12.41
   7   4  -3   79.55   12.12
   7   4  -3   81.08   14.20
  -7   4   3   77.66   13.12
  -7  -4   3   76.11   13.16
   7  -4  -3   89.89   13.96
  -7  -4   3   77.78   13.87
   5   7  -4  227.02   20.87
   5  -7  -4  239.52   24.13
   5   7  -4  262.95   23.79
  -5  -7   4  276.55   23.08
  -5  -7   4  313.93   31.10
  -5   7   4  197.69   20.45
  -5   7   4  245.36   20.25
  -5  -7   4  279.98   28.67
   5  -7  -4  232.53   20.45
   5  -7  -4  228.85   28.22
   8   2   1  953.61   73.51
   8   2   1  823.79   85.60
  -8  -2  -1  835.63   63.59
  -8   2  -1  861.82   64.65
  -8  -2  -1  955.66   73.00
   8  -2   1  923.39   76.25
   8   2   1  956.39   76.25
   4   8   4  421.48   37.07
  -4   8  -4  538.02   40.49
  -4  -8  -4  388.36   30.37
  -4   8  -4  509.20   37.85
   4  -8   4  502.64   38.17
   4   8   4  486.60   40.86
   4  -8   4  520.77   41.67
   4  -8   4  517.05   42.95
  -4   8  -4  514.80   38.93
   4   8   4  398.60   34.37
  -4  -8  -4  450.99   37.12
  -4  -8  -4  485.10   38.96
  -3  11   3  107.39   16.16
   3 -11  -3  113.02   14.21
  -3  11   3  117.19   12.13
   3 -11  -3   86.09   12.54
  -3 -11   3  109.86   17.13
   3 -11  -3  106.55   12.09
  -3 -11   3  128.34   13.21
   3  11  -3  114.09   14.00
   7  -7  -1   -0.37    6.39
  -7  -7   1    3.23    9.71
  -7   7   1   -0.60    7.77
   7  -7  -1    3.00    7.11
   7  -7  -1    2.18    9.42
  -7  -7   1    2.29    8.06
   7   7  -1   -0.74    7.48
   7   7  -1    0.12    5.96
   7  -7  -1    1.15    6.74
  -2  13   1    0.90    7.46
   2 -13  -1    4.51    7.58
  -2  13   1    2.23    6.79
   2  13  -1    2.10    7.62
  -2  13   1    1.60    9.52
  -2 -13   1    1.94    6.27
   2  13  -1    4.41    9.00
  -2 -13   1    4.99   13.34
   2 -13  -1    0.53    7.40
  -2 -13   1    1.98    7.25
   8   3  -1   47.33   10.74
  -8  -3   1   50.31   11.04
   8  -3  -1   54.82   13.54
  -8   3   1   48.53   12.26
   8  -3  -1   59.98   12.17
  -8  -3   1   53.79   12.32
   8   3  -1   49.58    9.33
   8  -3  -1   51.24   10.15
   6  -3   4  221.19   19.42
  -6  -3  -4  184.89   18.22
  -6  -3  -4  217.74   19.44
  -6   3  -4  223.54   20.69
   6   3   4  210.72   22.58
  -6  -3  -4  231.50   21.82
   6   3   4  189.51   18.51
  -6   3  -4  215.12   18.13
   6   3   4  219.19   20.77
   6  -3   4  226.66   23.81
   6   9   1    2.02    8.08
  -6   9  -1    0.16    5.51
  -6  -9  -1   -0.47    7.56
   6  -9   1    0.21    9.38
  -6  -9  -1    2.81   10.76
  -6  -9  -1    2.14    9.83
   6  -9   1    0.33    6.68
  -6   9  -1   -0.64    8.51
   6   9   1   -2.30    7.88
   6  -9   1   10.38   10.66
  -4 -11  -2   44.43    9.44
  -4  11  -2   54.65    9.86
  -4 -11  -2   57.56   13.35
   4  11   2   44.67    9.53
   4 -11   2   49.42    8.87
   4 -11   2   41.35   11.55
  -4  11  -2   49.64    7.91
  -4 -11  -2   35.95   10.24
   4 -11   2   51.25   12.28
   4 -11   2   47.24   16.12
   2   8  -5  831.84   61.01
   2   8  -5  796.63   60.43
   2   8  -5  843.23   62.84
   2   8  -5  903.74   65.72
  -2   8   5  731.56   55.26
  -2  -8   5  915.05   71.93
  -2  -3  -6  129.84   15.93
  -2   3  -6  134.03   16.08
  -2  -3  -6  112.68   15.11
  -2  -3  -6  114.06   12.92
  -2   3  -6  107.01   11.87
  -2  -3  -6  123.19   14.38
  -2   3  -6  110.40   14.61
  -2   3  -6  116.74   14.27
  -2   3  -6  123.99   17.24
   0 -12  -3   71.90   19.15
   0  12   3   45.29   13.12
   0  12  -3   43.64   10.31
   0  12   3   44.64    7.93
   0  12   3   36.06    8.75
   0 -12   3   39.99   14.68
   0  12  -3   43.23    8.43
   0  12  -3   49.63    8.46
   0  12  -3   50.30    9.35
  -2  10  -4  538.12   41.44
  -2 -10  -4  504.89   46.29
  -2  10  -4  580.59   42.98
   2  10   4  487.91   44.98
   2  10   4  563.30   53.33
   2  10   4  498.85   40.31
   2 -10   4  614.31   46.97
  -2  10  -4  595.01   44.52
   2 -10   4  538.54   44.68
  -2  10  -4  586.36   44.38
  -3 -12   2   38.33   14.19
   3 -12  -2   39.96    9.07
   3 -12  -2   35.96    9.81
   3 -12  -2   40.02    8.59
   3  12  -2   34.94   10.11
  -3  12   2   27.19   10.14
   3 -12  -2   39.95    9.48
  -3  12   2   40.50    8.45
  -5   9   3  146.34   14.46
   5  -9  -3  144.93   16.81
  -5   9   3  121.66   16.38
  -5  -9   3  151.50   19.95
   5   9  -3  150.32   16.49
   5  -9  -3  140.17   14.15
  -5   9   3  156.67   14.58
   5  -9  -3  147.14   17.69
  -2  13  -1  393.43   32.55
   2  13   1  422.87   39.76
  -2  13  -1  415.25   35.62
  -2 -13  -1  693.32   59.87
   2 -13   1  490.96   43.02
   2  13   1  346.67   32.26
   2 -13   1  437.20   34.94
  -2  13  -1  432.26   36.02
   2  13   1  398.77   37.12
  -2  13  -1  438.42   33.61
  -3  -2   6    1.39   10.88
   3   2  -6   -0.01    5.34
   3  -2  -6    1.43    7.16
   3  -2  -6   -2.62   10.90
  -3   2   6    1.82   10.10
  -3  -2   6   -0.38    5.28
   3  -2  -6    0.99    5.47
  -3   2   6    2.81    6.60
   3   2  -6    7.55   25.34
   3   2  -6    1.72    9.90
   2   4  -6  866.21   62.99
  -2  -4   6  687.08   53.28
   2   4  -6  798.22   58.75
  -2  -4   6 1007.15   79.32
  -2   4   6  732.26   55.30
  -2   4   6  718.37   58.11
   2  -4  -6  770.59   60.32
   2   4  -6  857.45   66.05
   2   4  -6  962.37   74.80
   2  -4  -6  801.45   64.31
  -4  -5  -5   18.92    6.03
   4  -5   5   22.91   10.92
   4   5   5   20.52   10.11
  -4  -5  -5   21.68    7.25
   4   5   5   17.48    7.01
   4  -5   5   22.39    8.65
  -4  -5  -5   20.09    8.77
  -4   5  -5   22.98    6.12
   4  -5   5   22.24    6.76
  -4   5  -5   19.07    6.29
  -4   5  -5   26.22    9.14
  -4   5  -5   22.29    9.43
   4   5   5   21.00    8.44
  -5   0  -5    0.50    9.27
  -5   0  -5    1.38    5.62
   5   0   5    2.00    9.88
   5   0   5    1.63    5.97
  -5   0  -5    0.45    7.33
  -5   0  -5    0.14    7.25
  -5   0  -5   -1.34    5.55
   8   0  -2  580.37   57.12
   8   0  -2  614.71   50.90
   8   0  -2  611.93   50.23
   8   0  -2 1574.56  140.00
   8   0  -2  552.45   54.88
  -8   0   2  531.87   46.43
   1  12  -3  290.90   25.75
   1 -12  -3  278.32   24.77
  -1  12   3  266.09   26.83
  -1 -12   3  287.61   30.59
   1  12  -3  296.40   24.56
   1 -12  -3  294.77   28.38
  -1  12   3  277.59   22.79
  -1  12   3  268.39   24.25
   0   5  -6  130.32   13.21
   0   5  -6  115.90   15.17
   0   5   6  110.33   12.66
   0  -5  -6  107.39   13.46
   0   5  -6  113.88   13.14
   0   5   6  117.73   17.99
   0   5  -6  137.22   17.75
   0  -5  -6  104.99   13.46
   0   5  -6  102.34   12.65
   0  -5   6  106.57   14.54
   4 -10   3   10.88    8.88
  -4 -10  -3    8.33    7.34
   4 -10   3   12.33    9.64
  -4 -10  -3   17.30   11.44
  -4  10  -3   14.97    6.81
   4  10   3    9.70    8.67
  -4 -10  -3   10.91    8.12
  -4 -10  -3   13.21    6.43
   4 -10   3   16.31   10.52
  -4  10  -3   18.29    6.77
   4 -10   3   19.58    6.98
   4  10   3   12.62    8.53
  -4  10  -3   18.68    6.67
   4  10   3   14.76    7.35
   7  -3   3   25.44    7.61
   7   3   3   20.88    8.78
   7  -3   3   23.24   11.05
   7   3   3   18.07   11.61
   7   3   3   25.99    9.13
  -7  -3  -3   16.97    9.32
  -7  -3  -3   22.54    9.61
  -7   3  -3   27.27    8.88
  -7  -3  -3   24.92    7.35
  -7   3  -3   23.24    6.53
  -5  -1  -5  907.01   66.07
  -5  -1  -5  961.43   69.51
  -5   1  -5 1015.40   72.81
   5   1   5  971.58   73.65
   5  -1   5  946.67   68.66
  -5   1  -5 1049.61   82.91
  -5  -1  -5  824.96   62.52
  -5   1  -5  996.61   73.12
   5  -1   5  983.26   75.69
  -5   1  -5  930.75   69.85
  -5  -1  -5  963.46   69.72
   5   1   5  913.97   68.63
  -5  -1  -5 1042.91   76.61
  -5   1  -5  903.97   65.20
   0  13  -2  333.14   29.65
   0 -13   2  431.12   41.16
   0  13  -2  352.37   31.94
   0 -13  -2  333.38   28.50
   0  13  -2  404.56   36.37
   0  13   2  315.43   30.57
   0 -13  -2  327.94   29.26
   0  13   2  285.88   26.35
   0  13   2  331.38   30.44
   0 -13   2  380.33   32.00
   4 -12   0    2.71    6.59
   4 -12   0    1.56    7.48
   4 -12   0    1.33    9.06
  -4 -12   0   -1.30   10.33
  -4  12   0    1.80    7.22
   4  12   0    4.99    8.29
  -4 -12   0    2.19    8.00
  -4  12   0   -1.15    9.38
  -4  12   0    4.33    6.50
   4 -12   0    3.89    6.34
   8  -1  -2   33.23   10.23
  -8  -1   2   25.17   11.39
   8   1  -2   34.72    8.96
   8  -1  -2   26.34    8.70
   8   1  -2   27.86   10.55
  -8   1   2   29.19   11.41
   8  -1  -2   24.14   11.24
   8  -1  -2   24.72    8.87
   8   1  -2   23.39    9.46
  -7   7  -1    8.33    8.51
  -7  -7  -1   10.28    8.38
   7   7   1    9.99    8.05
   7   7   1   10.45    8.75
   7   7   1    9.02   10.28
   7  -7   1    6.86    7.52
   7   7   1    8.79    8.03
   7  -7   1    9.70   10.44
  -7  -7  -1    8.47    9.71
   7  -7   1    8.67    9.84
  -6   5   4    5.83    8.83
   6   5  -4    8.62    8.20
  -6  -5   4    4.90    6.82
  -6   5   4    8.78    6.07
  -6  -5   4    5.39    9.27
   6  -5  -4    5.57    6.22
   6   5  -4    7.54    6.35
  -6  -5   4    2.28   10.61
   6  -5  -4    8.50    7.64
   6  -5  -4    6.34    7.67
   6  -5  -4    8.17    9.02
  -1   5   6    1.12    4.77
   1   5  -6    1.87    7.18
   1  -5  -6   -3.38    8.53
   1   5  -6    2.67    6.60
   1  -5  -6    0.92    6.77
   1   5  -6    1.71    5.91
  -1   5   6    4.09    9.25
   3 -12   2  138.69   13.92
   3 -12   2  140.96   17.77
  -3 -12  -2  131.24   16.48
   3 -12   2  110.76   15.99
  -3 -12  -2  127.53   14.73
  -3  12  -2  170.27   15.76
   3  12   2  126.69   15.96
  -3 -12  -2  141.88   17.60
  -3  12  -2  147.59   15.57
   3 -12   2  100.01   20.06
   1 -12   3  132.60   20.28
  -1  12  -3  156.23   18.12
   1  12   3  176.69   16.66
  -1  12  -3  183.17   17.06
  -1 -12  -3  179.34   19.32
   1  12   3  168.14   21.19
   1  12   3  167.15   16.44
  -1  12  -3  189.87   17.40
  -1 -12  -3  183.19   19.78
  -1  12  -3  187.92   16.80
   1 -12   3  197.94   18.60
  -5 -10  -2  140.00   18.61
   5 -10   2  138.75   14.35
  -5 -10  -2  133.47   14.97
   5 -10   2  156.59   21.52
  -5 -10  -2  114.61   16.12
  -5  10  -2  148.44   13.86
   5  10   2  118.56   14.30
   5 -10   2  163.61   19.18
   5 -10   2  134.66   18.38
   5  10   2  111.24   15.41
  -5  10  -2  134.26   14.87
   8  -3   1  256.49   24.70
   8   3   1  237.49   26.60
  -8   3  -1  244.86   22.11
   8   3   1  230.83   30.86
   8   3   1  266.01   25.68
  -8  -3  -1  254.93   25.43
  -8  -3  -1  252.15   23.48
  -3  11  -3  178.76   17.05
  -3 -11  -3  186.54   21.39
  -3 -11  -3  142.84   15.86
   3 -11   3  201.91   21.21
   3 -11   3  157.96   19.34
   3  11   3  128.92   16.50
   3  11   3  136.34   13.86
   3 -11   3  170.16   15.54
  -3  11  -3  196.75   17.45
   3  11   3  150.87   17.81
   3 -11   3  186.52   22.69
  -3 -11  -3  163.69   17.25
  -3  11  -3  184.94   16.35
   5 -11   0  441.62   34.82
  -5 -11   0  336.02   30.17
  -5  11   0  493.98   37.93
  -5  11   0  384.50   33.03
   5 -11   0  433.50   33.38
  -5 -11   0  406.72   36.68
  -5 -11   0  454.90   39.56
   5  11   0  401.41   35.81
   5 -11   0  426.32   37.27
  -5  11   0  478.13   37.63
   5 -11   0  464.08   38.44
   8   4   0  131.57   19.51
   8  -4   0  122.13   15.61
  -8   4   0  107.91   13.56
   8   4   0   90.28   12.22
  -8  -4   0  120.00   17.23
   8   4   0  121.15   13.82
   8  -4   0  117.69   14.20
   8   4   0  108.87   14.54
   8  -4   0  113.95   18.35
   8  -4   0  122.12   14.54
  -8  -4   0  109.15   13.22
   5  -4  -5   70.63    9.64
   5   4  -5   84.23   11.77
  -5   4   5   80.80    9.98
  -5  -4   5   96.40   16.71
   5   4  -5   82.60   10.94
  -5  -4   5   91.37   11.57
   5  -4  -5   77.37   12.75
  -5  -4   5   69.83   13.29
  -5   4   5   73.16   13.41
  -1 -13   2   26.31   15.44
   1 -13  -2   18.26    8.33
  -1  13   2   20.36    8.46
   1  13  -2   26.00   10.26
  -1  13   2   22.26   10.21
   1  13  -2   24.84    8.29
   1 -13  -2   19.39    9.23
  -1  13   2   22.18    8.03
   3   7   5   36.96    8.69
  -3   7  -5   46.04    7.71
   3   7   5   35.58    6.90
   3   7   5   41.59    9.31
   3   7   5   37.53   10.57
   3  -7   5   46.33   12.25
  -3   7  -5   49.57   10.79
   3  -7   5   44.52   10.84
  -3   7  -5   49.01    9.97
  -3  -7  -5   37.40    8.23
  -3  -7  -5   46.76   11.37
  -2   8  -5 1198.21   97.57
   2   8   5  822.34   73.38
   2   8   5 1144.77  104.38
  -2   8  -5 1164.04   91.58
   2   8   5  969.85   71.64
  -2   8  -5 1055.45   82.65
   2  -8   5 1092.80   87.72
  -2   8  -5 1073.71   86.03
  -2  -8  -5  800.58   66.79
  -2   8  -5 1170.64   90.14
   7  -6   2  414.74   37.66
   7  -6   2  420.39   33.21
   7   6   2  399.29   33.80
  -7  -6  -2  415.16   34.48
   7   6   2  338.79   34.59
   7   6   2  211.34   21.98
  -7   6  -2  381.75   30.84
  -7  -6  -2  375.22   34.03
   7   6   2  327.08   35.74
  -5   2  -5    4.71    7.85
  -5  -2  -5    7.11    5.71
  -5   2  -5    8.59    5.35
  -5   2  -5    8.82    9.16
  -5  -2  -5    4.83    6.18
   5  -2   5    9.45   10.70
  -5   2  -5    8.60    8.39
   5  -2   5    6.07    5.77
   5   2   5    6.33    6.50
   5   2   5    4.79    9.39
  -5   2  -5    6.82    6.06
  -5  -2  -5    2.91    6.40
   3   3  -6    2.13    5.55
  -3   3   6    3.15   11.34
  -3   3   6    3.76    6.10
  -3  -3   6    2.54    5.29
   3   3  -6   16.49   16.72
   3  -3  -6    1.18    5.65
  -3  -3   6    5.32   10.31
   3   3  -6    2.81    8.36
   8   2  -2   21.44   10.73
   8   2  -2   24.17    9.41
  -8  -2   2   18.27    9.81
   8  -2  -2   26.20   10.04
   8  -2  -2   21.12   11.57
   8   2  -2   23.48    8.60
  -8  -2   2   12.25   11.02
   8  -2  -2   17.85    7.81
   8  -2  -2   21.51    8.55
  -8   2   2   26.19   11.05
  -1 -13  -2   10.49   13.85
   1 -13   2    4.60    9.63
   1  13   2   -2.27    9.68
  -1  13  -2   -0.42    7.13
   1  13   2    1.89    7.20
  -1  13  -2    0.82    7.24
   1  13   2    6.36    8.40
  -1  13  -2    8.09    8.64
  -1  13  -2    4.15    6.52
   1 -13   2   -0.64   14.86
  -3   0  -6   25.35    8.30
  -3   0  -6   19.55    8.69
   3   0   6   23.01   10.37
  -3   0  -6   19.48    8.97
  -3   0  -6   22.11    9.77
  -4  12   1  424.59   36.01
  -4  12   1  382.23   33.12
  -4 -12   1  325.88   30.33
   4 -12  -1  346.96   33.68
   4  12  -1  317.60   33.96
  -4  12   1  363.98   34.97
   4 -12  -1  360.58   31.34
  -4 -12   1  364.18   37.11
   4 -12  -1  361.50   31.15
   4 -12  -1  331.14   33.50
  -1  -5  -6  509.11   42.91
  -1   5  -6  554.36   47.03
  -1   5  -6  611.88   49.12
  -1  -5  -6  575.20   47.72
  -1   5  -6  598.08   50.83
   1   5   6  597.04   50.06
   1   5   6  651.27   58.78
  -1   5  -6  580.19   47.17
  -1   5  -6  651.76   55.95
   8  -4  -1  102.24   15.19
   8   4  -1   83.83   11.41
   8  -4  -1   80.03   13.43
   8   4  -1   76.04   11.84
  -8   4   1   93.86   15.55
  -8  -4   1   95.78   14.23
   8  -4  -1   84.29   15.57
  -8  -4   1   89.60   15.01
   6  -4   4   44.01    7.98
   6   4   4   38.21   11.59
   6   4   4   40.52    9.75
  -6   4  -4   44.66    9.53
  -6   4  -4   42.49    7.36
  -6  -4  -4   39.68    8.20
  -6  -4  -4   35.92    8.67
   6  -4   4   40.43   12.25
   6   4   4   37.84    9.09
  -6  -4  -4   50.25   11.03
  -6   7  -3  100.84   10.84
  -6   7  -3   95.93   11.91
  -6  -7  -3   88.90   10.82
  -6  -7  -3   88.85   12.96
  -6  -7  -3   72.19   12.17
   6   7   3   84.16   12.64
   6   7   3   83.91   14.48
   6  -7   3  101.46   11.55
   6   7   3   85.50   12.65
  -2   4  -6   13.35    8.29
  -2  -4  -6   10.60    9.51
  -2  -4  -6   11.11    6.24
  -2   4  -6   11.69    7.63
  -2   4  -6   11.36    6.15
  -2   4  -6    8.72    5.87
  -2   4  -6    9.09    9.96
  -2  -4  -6    8.21    7.16
  -2   4  -6   12.57    8.61
  -2   4  -6   10.21    7.67
   2   4   6   21.88   15.38
  -3  -1  -6    9.59    8.87
  -3   1  -6    7.09    8.65
   3   1   6   10.43   10.22
  -3   1  -6    8.91    7.79
  -3   1  -6   10.24    7.20
   3  -1   6   11.34    9.64
  -3  -1  -6   10.02    7.01
  -3  -1  -6    8.50    7.65
  -3  -1  -6    7.05    7.74
  -3   1  -6    8.96    7.89
   5 -11  -1    5.54    7.83
  -5  11   1    2.43    6.42
   5 -11  -1   -0.71    9.59
   5 -11  -1    5.30    6.97
  -5  11   1    2.95    9.38
  -5  11   1    2.05    6.60
   5  11  -1    1.96    7.63
  -5 -11   1    3.18    7.24
  -5 -11   1    6.52   10.83
  -4  -9   4   73.51   10.53
  -4   9   4   65.41   13.40
   4  -9  -4   53.69   10.29
   4  -9  -4   55.59   11.10
   4   9  -4   62.19   10.51
  -4   9   4   57.80    8.44
   4  -9  -4   58.34    9.39
   7   5  -3   12.04    7.51
  -7  -5   3   10.52    9.63
   7  -5  -3   11.31    7.36
   7  -5  -3   13.68    8.65
   7  -5  -3    9.28    8.53
  -7   5   3   11.29   10.69
   7   5  -3   15.21    8.54
  -7  -5   3   16.62   11.14
   7  -5  -3   14.93    9.15
   5  -9   3  309.80   31.28
  -5   9  -3  315.86   26.69
   5   9   3  217.37   24.76
   5   9   3  293.70   28.91
  -5  -9  -3  273.66   24.16
   5  -9   3  310.01   27.04
  -5  -9  -3  246.61   25.18
   5   9   3  236.26   26.84
  -5   9  -3  311.79   27.11
   5  -9   3  264.00   26.92
  -5   9  -3  308.58   26.78
  -5  -9  -3  313.03   28.74
   5  -9   3  291.66   27.93
  -5  -9  -3  289.22   30.03
  -4 -12  -1  106.18   15.85
  -4 -12  -1   85.33   14.71
  -4  12  -1  127.00   16.44
  -4  12  -1  109.25   13.81
   4 -12   1  132.64   15.40
  -4  12  -1  130.57   13.67
   4 -12   1  123.07   13.95
  -4 -12  -1  114.50   14.21
   4  12   1  109.25   15.74
   4 -12   1  118.87   19.01
   4 -12   1  116.90   16.84
   0  11   4  536.16   47.40
   0  11   4  549.01   45.23
   0  11  -4  695.43   55.39
   0  11   4  538.86   48.97
   0  11  -4  592.82   49.53
   0  11  -4  660.66   54.08
   0  11  -4  687.58   54.86
   0 -11   4  638.08   56.83
   0 -11  -4  541.85   59.65
   6   9  -2  664.94   63.24
  -6  -9   2  527.10   47.41
  -6  -9   2  649.11   56.11
   6  -9  -2  649.06   62.61
   6  -9  -2  657.28   57.32
  -6   9   2  803.36   24.48
   6  -9  -2  656.01   55.75
  -6   9   2  679.26   60.11
  -3 -10   4  724.23   63.60
   3 -10  -4  705.01   66.41
  -3  10   4  766.74   68.19
  -3 -10   4  852.83   21.43
   3 -10  -4  668.29   54.67
  -3  10   4  791.95   62.89
   3  10  -4  766.24   63.25
   0   9   5  162.58   16.13
   0  -9  -5  167.36   20.54
   0   9  -5  241.98   21.90
   0   9  -5  216.14   20.29
   0   9  -5  223.46   23.79
   0  -9   5  236.98   26.10
   0   9   5  179.55   22.95
   0   9   5  174.19   17.82
   0   9  -5  227.27   21.02
   0   9  -5  242.02   25.67
  -3  13   0  129.27   13.77
  -3 -13   0   87.05   15.60
   3 -13   0  119.44   15.73
  -3 -13   0  173.78   23.23
  -3  13   0  126.77   15.96
   3 -13   0  118.86   16.87
  -3  13   0  126.42   17.15
   3 -13   0  127.24   13.95
   3  13   0  114.52   15.26
  -5  -7  -4  609.95   49.13
   5   7   4  757.50   62.84
  -5   7  -4  865.55   21.81
   5  -7   4  735.49   57.98
   5  -7   4  760.16   62.63
  -5  -7  -4  731.09   59.28
  -5  -7  -4  608.69   58.52
  -5   7  -4  746.63   58.33
   5   7   4  678.35   61.25
  -5   7  -4  779.60   61.64
   5  -7   4  734.96   62.21
   5   7   4  639.51   58.57
  -2 -12   3  277.45   30.69
   2  12  -3  269.47   25.40
   2 -12  -3  275.66   26.78
  -2  12   3  245.78   23.44
  -2  12   3  267.61   29.10
   7   4   3   48.98   10.71
  -7  -4  -3   62.12   12.03
  -7   4  -3   52.28    9.22
  -7   4  -3   60.94    9.02
   7  -4   3   49.86    9.23
   7  -4   3   51.36   13.00
   7   4   3   48.24   10.14
   7   4   3   49.63   12.88
  -7  -4  -3   57.19    9.52
  -7  -4  -3   45.55   12.20
   2   5  -6   33.37    7.66
  -2   5   6   29.91   12.56
   2  -5  -6   27.89    9.33
   2   5  -6   25.15    8.43
   2   5  -6   38.16   10.54
  -2  -5   6   25.76   10.86
   2   5  -6   28.30    8.00
   2  -5  -6   24.43    9.26
  -2   5   6   24.11    6.55
   5 -11   1   21.11    8.53
  -5  11  -1   19.01    6.82
   5 -11   1   12.28   11.59
  -5 -11  -1   12.79   10.77
   5 -11   1   16.13   10.30
  -5  11  -1   15.30    8.56
   5  11   1   16.92    8.51
  -5 -11  -1   22.34    9.89
  -5 -11  -1   20.78    8.44
   5 -11   1   17.98    7.93
   3   2   6   13.61    9.42
  -3   2  -6   16.44    9.36
  -3   2  -6   13.17    7.58
  -3  -2  -6   14.07    8.55
  -3  -2  -6   21.30    9.69
  -3  -2  -6   14.90    7.30
  -3  -2  -6   17.13    6.89
  -3   2  -6   14.05    8.04
   3  -2   6   14.40   10.78
  -3   2  -6   16.70    7.05
  -3   2  -6   13.17    6.40
   1  11  -4  856.56   25.85
  -1  11   4  749.94   64.69
  -1  11   4  745.21   65.93
   1  11  -4  886.92   25.25
  -1 -11   4  726.23   64.02
  -1  11   4  790.68   63.33
   8   0   2  253.84   25.39
  -8   0  -2  233.77   21.81
   8   0   2  244.69   33.28
   1   9  -5   92.01   11.36
  -1   9   5   75.19    9.81
   1   9  -5  101.50   12.25
   1   9  -5  110.45   12.89
  -1   9   5   81.61   10.63
  -1   9   5   84.59   16.10
  -1  -9   5  108.87   18.36
   1  -9  -5   78.47   11.09
   5  -3   5   44.71    7.60
  -5   3  -5   47.34   10.87
   5   3   5   41.20   11.35
  -5  -3  -5   48.42    9.12
  -5   3  -5   47.46   11.06
   5  -3   5   51.35   13.25
  -5  -3  -5   39.21    7.73
  -5  -3  -5   44.69    8.65
  -5   3  -5   43.61    7.69
  -5   3  -5   50.34    8.44
   5   3   5   39.88    8.46
   5   3   5   99.61   21.84
   8   4   1    0.61    7.35
  -8  -4  -1    0.76    7.13
   8  -4   1   -1.89   11.53
   8   4   1   -3.00   11.24
   8  -4   1    0.66    7.62
   8   4   1    1.18    7.71
  -8  -4  -1    0.10    8.00
   8   4   1    2.27    8.10
  -8  -3   2   23.37   11.63
   8   3  -2   32.45    9.50
   8  -3  -2   27.26   11.57
  -8   3   2   32.36   11.63
   8   3  -2   28.81    9.31
   8  -3  -2   37.88    9.69
  -8  -3   2   32.32   10.81
   8  -3  -2   32.49   10.88
   8   3  -2   36.66   11.82
   8  -3  -2   29.42    9.42
   7  -7  -2  105.22   14.35
  -7  -7   2   71.06   13.98
   7  -7  -2  109.97   13.82
  -7  -7   2  100.07   15.81
   7  -7  -2  113.78   16.25
   7  -7  -2  100.12   15.04
   7   7  -2  111.86   15.33
   7   7  -2  100.68   12.73
   8   1   2    3.19    7.71
   8  -1   2    5.32    8.00
  -8   1  -2    8.73    6.96
   8  -1   2   10.96   13.47
  -8  -1  -2    7.47    7.64
   8   1   2    6.65   12.81
  -7   8   0  241.88   26.65
   7  -8   0  130.53   17.79
   7   8   0  127.28   15.18
  -7  -8   0  113.05   15.92
   7   8   0  118.82   14.92
  -7  -8   0  103.28   13.92
  -7   8   0  122.27   16.17
   7   8   0  121.70   16.92
   7  -8   0  143.32   16.58
   7  -8   0  128.99   14.54
   0  14   0   45.79   12.98
   0 -14   0   45.67    9.87
   0 -14   0   40.19   12.04
   0  14   0   44.01   11.78
   4  -6   5  212.46   19.63
  -4   6  -5  218.12   19.60
   4   6   5  180.11   20.33
  -4  -6  -5  177.28   16.93
   4   6   5  185.41   20.96
  -4   6  -5  221.03   21.83
  -4  -6  -5  222.46   22.94
  -4   6  -5  217.55   22.38
   4  -6   5  202.76   23.33
  -4  -6  -5  182.98   18.93
   4   6   5  203.71   20.05
   4  -6   5  239.62   23.74
   7   0  -4  115.14   22.55
   7   0  -4   65.97   10.12
  -7   0   4   80.69   10.75
   7   0  -4   67.70   10.68
  -7   0   4   74.65   16.00
  -3  -8   5  221.81   26.39
   3   8  -5  177.11   18.27
  -3  -8   5  201.62   18.62
   3   8  -5  189.08   18.82
  -3   8   5  171.58   16.52
   3  -8  -5  180.84   18.71
   3  -8  -5  186.28   20.85
   1  11   4  196.28   24.34
  -1  11  -4  241.76   21.80
   1  11   4  206.51   19.66
   1 -11   4  236.13   27.06
  -1  11  -4  238.19   22.66
  -1 -11  -4  199.95   21.95
  -1  11  -4  246.94   22.98
  -1  11  -4  266.95   29.81
  -1  11  -4  252.69   22.86
   1  11   4  168.37   17.31
   6  -8  -3  174.54   19.67
  -6  -8   3  176.05   22.40
   6  -8  -3  177.96   20.98
   6   8  -3  175.75   19.89
   6  -8  -3  188.76   18.76
  -6   8   3  410.89   40.19
  -6  -8   3  207.38   23.79
  -2  13   2  114.17   17.57
   2 -13  -2  143.47   16.46
  -2 -13   2  146.22   21.41
   2  13  -2  121.40   15.46
  -2  13   2  116.42   13.99
   2 -13  -2  120.29   15.84
  -2  13   2  123.62   14.73
   2  12   3  151.85   22.22
   2  12   3   98.83   14.63
   2 -12   3  121.32   20.18
  -2  12  -3  153.67   15.68
  -2  12  -3  143.82   15.20
  -2 -12  -3  116.12   15.55
  -2 -12  -3  127.23   16.80
  -2  12  -3  141.02   16.14
   2 -12   3  163.29   17.79
   2  12   3  127.51   14.01
   2  12   3  121.29   15.09
   3   4  -6    8.14    7.08
  -3  -4   6    8.66    5.69
   3  -4  -6    9.14   10.25
  -3   4   6    4.39   10.72
   3  -4  -6    7.18    6.45
  -3  -4   6    5.80    9.26
   3   4  -6    7.44    8.16
  -3  -4   6    7.82   10.81
   3 -13  -1  179.94   17.89
   3  13  -1  149.39   22.95
   3 -13  -1  168.06   17.42
  -3  13   1  147.73   18.55
   3 -13  -1  169.87   19.79
  -3  13   1  184.77   19.76
   6  10   0  260.94   28.18
  -6  10   0  306.34   27.21
   6 -10   0  276.77   24.72
  -6  10   0  273.98   24.24
   6 -10   0  258.56   26.52
   6 -10   0  291.19   27.75
  -6 -10   0  257.01   26.72
  -6 -10   0  217.50   22.26
  -6  10   0  253.80   24.18
  -6 -10   0  269.45   28.73
  -1   9  -5   89.53   13.85
  -1   9  -5   91.82   15.36
   1   9   5   67.61    9.96
  -1   9  -5   82.43   10.64
   1  -9   5   83.02   14.72
   1   9   5   71.05   16.14
  -1  -9  -5   72.46   11.23
   1   9   5   75.61   10.12
  -1   9  -5   97.39   11.49
  -1   9  -5   87.19   11.40
   8  -5   0   -1.98   11.54
   8  -5   0    3.43    7.02
   8   5   0    0.79    6.57
  -8  -5   0   -1.47    8.85
   8   5   0   -4.34   11.00
  -8  -5   0    0.97    7.04
   8   5   0   -2.79    8.44
   8  -5   0    1.88    7.87
   8   5   0   -0.46    6.36
   0   6  -6   53.67   12.07
   0  -6  -6   48.43    9.86
   0   6  -6   57.68   12.65
   0   6  -6   42.11    8.95
   0   6  -6   58.99    8.93
   0   6   6   45.12   12.98
   0  -6   6   43.41   11.03
   0   6  -6   53.76    9.54
   0   6   6   38.60    7.64
   7  -1  -4  117.73   13.38
  -7   1   4  128.24   13.67
   7  -1  -4  100.35   12.55
   7  -1  -4  115.73   15.42
   7   1  -4  121.65   14.77
   7   1  -4  256.06   34.57
  -7   1   4  155.82   21.82
  -7  -1   4  150.35   21.73
  -7  -1   4  139.02   14.57
   7   1  -4  129.21   14.62
   5   8  -4   59.17   10.44
   5  -8  -4   61.44   11.09
  -5  -8   4   66.34    9.95
  -5   8   4   64.16    9.08
   5  -8  -4   59.48    9.56
   5  -8  -4   57.77   12.30
  -5  -8   4   64.03   15.71
  -5   5   5  500.08   45.72
  -5   5   5  591.94   47.58
   5  -5  -5  429.17   42.85
   5  -5  -5  555.66   55.64
  -5  -5   5  616.36   50.04
   5   5  -5  522.54   46.17
  -5  -5   5  729.64   63.62
   5  -5  -5  519.96   43.53
  -5  -5   5  453.41   41.95
   5   5  -5  550.35   48.34
  -4   0   6  127.37   14.95
   4   0  -6  119.12   13.34
  -4   0   6  132.88   19.11
   4   0  -6  124.12   15.02
   6  -6  -4  429.52   47.39
   6  -6  -4  375.41   37.33
   6   6  -4  388.16   36.37
  -6   6   4  463.46   38.20
  -6   6   4  345.66   32.99
  -6  -6   4  452.25   37.62
   6  -6  -4  387.28   33.18
  -6  -6   4  417.89   39.79
  -6  -6   4  454.59   41.78
   6   6  -4  355.41   31.87
  -8  -2  -2   89.27   12.48
   8   2   2   91.45   17.63
   8  -2   2   89.60   17.35
   8   2   2   86.06   13.07
   8  -2   2   94.48   12.32
  -8   2  -2   87.43   12.10
  -8  -2  -2   98.04   15.03
  -3 -13  -1  516.81   49.34
  -3  13  -1  610.93   51.31
  -3  13  -1  616.43   49.19
  -3 -13  -1  528.85   45.60
   3 -13   1  571.05   49.54
  -3 -13  -1  528.76   46.37
  -3  13  -1  694.73   58.79
   3 -13   1  628.17   55.20
   3 -13   1  640.57   52.44
   3  13   1  521.65   58.38
   3 -13   1  574.87   46.66
   1   6  -6    0.15    6.16
  -1   6   6    2.47   10.73
  -1  -6   6    3.50    9.04
   1   6  -6   -4.44    7.45
   1   6  -6    2.06    6.77
  -1   6   6   -0.71    5.04
   1  -6  -6   -1.68    7.80
   1   6  -6   -1.50    6.24
  -7  -8   1   80.87   14.31
   7   8  -1   80.64   11.89
  -7  -8   1   83.91   12.65
   7  -8  -1   80.02   11.91
   7  -8  -1  100.67   14.13
  -7   8   1  167.08   21.84
  -7   8   1   76.95   12.78
   7   8  -1   92.12   13.18
   7  -8  -1   89.15   14.83
   1 -14   0  129.82   14.76
  -1  14   0  133.12   16.92
  -1 -14   0  106.95   15.82
   1 -14   0  130.82   17.45
   1  14   0  117.21   16.50
   1  14   0  122.69   18.13
  -1  14   0  121.95   17.35
  -1 -14   0  131.01   16.18
   2  13   2   21.50    8.21
   2 -13   2   26.30   17.21
  -2  13  -2   15.17    9.27
   2  13   2   14.80    8.52
   2 -13   2   25.94   11.13
  -2  13  -2   20.15    7.83
   2  13   2   28.27   13.63
  -2  13  -2   26.48    7.43
  -2 -13  -2   22.49    9.50
  -2 -13  -2   18.83    9.33
  -4   7   5  274.46   24.11
   4  -7  -5  255.40   24.40
   4  -7  -5  231.33   23.15
  -4  -7   5  288.85   30.05
   4  -7  -5  261.49   28.01
  -4   7   5  268.63   29.58
  -4  -7   5  337.73   35.33
  -4  -7   5  312.87   27.18
   4   7  -5  273.36   25.25
   6  -9   2   -0.13   10.50
   6   9   2    3.50    8.84
  -6  -9  -2   -0.39    7.89
   6  -9   2    3.39    6.82
   6  -9   2    2.34    8.26
   6   9   2   -0.57    8.46
  -6  -9  -2    1.94   10.12
  -6   9  -2    5.51    7.65
  -6  -9  -2    4.25   10.59
   6   9   2    1.49    8.21
  -3 -10  -4    1.58    9.28
   3 -10   4    4.75    7.50
   3  10   4    4.67    8.20
  -3 -10  -4    1.65    7.26
   3 -10   4    8.00    9.28
   3  10   4    1.12    5.96
  -3  10  -4    4.03    6.05
   3 -10   4    4.14    9.57
  -3  10  -4    2.20    5.87
  -3  10  -4    3.09    5.81
   3  10   4    1.98    6.49
  -4   1   6   37.75   12.21
   4  -1  -6   30.79    7.05
   4   1  -6   37.03    7.66
  -4   1   6   38.20    8.41
  -4  -1   6   49.54   13.59
   4  -1  -6   40.69    9.76
   4   1  -6   37.36    9.20
  -4  -1   6   39.03    8.74
  -3   3  -6  109.50   14.76
  -3  -3  -6  105.46   14.51
  -3   3  -6  117.21   14.46
  -3  -3  -6  114.15   13.86
  -3   3  -6  130.40   16.50
   3   3   6  109.43   16.27
  -3  -3  -6  112.38   12.96
  -3   3  -6  110.71   12.59
  -3   3  -6  117.83   17.32
   3  -3   6  124.59   17.80
  -3   3  -6  114.85   12.55
  -3  -3  -6  121.20   15.84
   8  -5  -1   27.21   11.61
  -8   5   1   28.94   11.68
   8  -5  -1   26.41    8.95
   8   5  -1   24.04    9.02
   8   5  -1   21.56    7.92
   8  -5  -1   28.19   10.03
  -8  -5   1   29.39   12.22
  -8  -5   1   29.12   10.15
   6 -10  -1  104.76   13.89
  -6  10   1   73.38   11.55
   6 -10  -1   85.83   14.05
   6 -10  -1   82.49   11.61
  -6  10   1  108.17   13.14
  -6 -10   1   94.06   15.79
  -6  10   1   86.97   10.40
   6   5   4   -0.51    7.34
   6  -5   4    2.50   11.73
   6   5   4   -1.61    9.88
  -6  -5  -4    3.75    6.49
   6  -5   4    2.31    6.25
  -6   5  -4    6.21    8.04
  -6   5  -4    2.09    5.19
   6   5   4    4.48    7.85
  -6  -5  -4    3.06    9.13
  -6  -5  -4    4.03    7.68
   4   9   4  175.38   20.71
  -4   9  -4  324.60   27.95
   4   9   4  281.42   27.76
  -4   9  -4  326.31   27.51
   4  -9   4  307.23   26.65
   4  -9   4  323.26   31.27
  -4  -9  -4  257.77   26.01
   4   9   4  250.93   25.70
  -4  -9  -4  244.76   22.08
  -4   9  -4  345.47   29.52
   4  -9   4  338.76   31.35
  -4  -9  -4  311.67   29.35
  -2  -5  -6  326.55   29.79
  -2   5  -6  356.78   32.92
  -2   5  -6  354.76   30.02
  -2   5  -6  375.18   35.73
  -2   5  -6  338.98   30.28
  -2  -5  -6  334.03   29.51
   7  -2  -4  130.49   16.15
  -7  -2   4  181.61   23.32
   7  -2  -4  156.42   17.54
   7   2  -4  141.61   16.82
  -7   2   4  184.17   17.65
  -7  -2   4  163.69   16.49
  -7  -2   4  142.23   17.81
  -7   2   4  164.73   21.25
   7   2  -4  169.54   17.94
   0  14  -1  303.13   30.82
   0  14  -1  308.47   30.89
   0 -14   1  293.20   31.84
   0 -14  -1  242.34   25.28
   0  14   1  255.54   25.96
   0  14  -1  253.05   27.99
   0  14   1  266.63   28.82
   0 -14  -1  287.95   27.12
   0  14   1  266.58   28.37
  -6   0   5    1.55    5.93
   6   0  -5    0.40    6.19
   6   0  -5   -2.96   11.08
   6   0  -5   -2.60    7.41
  -6   0   5    0.53    9.41
  -2   9   5  204.51   20.22
  -2   9   5  217.86   27.21
   2   9  -5  255.79   23.37
  -2  -9   5  268.15   29.78
   2   9  -5  247.55   22.64
  -2   9   5  206.96   19.05
   4 -11  -3  276.67   28.11
  -4  11   3  263.00   28.65
   4  11  -3  307.73   31.50
   4 -11  -3  289.91   25.89
   4 -11  -3  297.36   31.10
  -2  11   4    6.24   11.01
   2  11  -4    1.68    6.65
  -2  11   4    1.40    5.53
   2  11  -4    1.11    5.89
  -2  11   4    0.95    6.31
   2 -11  -4    7.44    8.15
  -2 -11   4   -1.64   13.23
  -1   6  -6  421.17   38.95
   1  -6   6  342.24   31.79
  -1   6  -6  384.33   35.41
   1   6   6  338.04   35.31
  -1   6  -6  363.02   31.98
  -1   6  -6  347.92   29.66
   1   6   6  349.53   31.72
  -1  -6  -6  333.60   30.45
  -5   4  -5   41.40    8.66
   5  -4   5   31.26    7.09
  -5   4  -5   35.83    6.97
   5   4   5   30.83    9.04
  -5  -4  -5   26.97    7.26
   5   4   5   34.70    8.95
   5  -4   5   37.10   13.42
  -5  -4  -5   38.61   11.07
  -5   4  -5   40.81   10.62
  -5  -4  -5   30.24    7.40
   5   4   5   29.68   10.88
   8  -4  -2  323.93   32.13
  -8  -4   2  299.74   30.03
   8  -4  -2  287.45   31.76
  -8   4   2  285.14   29.21
   8  -4  -2  308.54   32.02
   8   4  -2  281.37   29.77
   8   4  -2  288.60   30.23
   8  -4  -2  291.89   30.68
  -8  -4   2  209.12   25.65
   8   4  -2  293.96   27.34
  -6  -1   5  219.62   23.81
  -6   1   5  267.72   24.40
  -6  -1   5  242.19   22.69
  -6   1   5  190.39   22.10
   6   1  -5  249.34   24.40
   6  -1  -5  224.43   21.46
   6  -1  -5  253.58   24.49
   6  -1  -5  203.84   21.55
   6   1  -5  789.30   80.08
   6   1  -5  224.18   21.74
  -4  -2   6   45.67   13.06
   4  -2  -6   43.27    8.18
   4   2  -6   35.98    7.51
   4   2  -6   43.25    9.18
  -4   2   6   49.66   13.18
   7  -8   1   36.70   11.90
   7   8   1   29.51    9.58
  -7   8  -1   35.10   10.16
   7  -8   1   30.24   11.68
   7   8   1   31.97    9.77
  -7  -8  -1   28.37    9.10
  -7  -8  -1   38.69   14.44
  -7  -8  -1   34.62   11.28
   7  -8   1   36.32    8.70
  -7   7  -2  211.51   20.76
  -7  -7  -2  235.38   28.23
   7  -7   2  215.38   24.26
   7   7   2  169.14   20.40
   7   7   2  133.49   16.57
  -7  -7  -2  204.52   23.99
  -7  -7  -2  194.19   20.93
   7  -7   2  210.40   19.94
   7   7   2  186.59   21.47
  -7  -5  -3  165.00   20.26
   7   5   3  178.43   22.42
   7  -5   3  183.24   18.14
  -7  -5  -3  194.71   20.44
   7   5   3  175.49   19.70
  -7   5  -3  224.34   20.13
  -7   5  -3  206.90   19.80
   7   5   3  173.76   19.51
  -7  -5  -3  196.08   18.93
   7  -5   3  191.76   22.83
   7  -6  -3   90.62   12.40
   7   6  -3   78.53   11.55
  -7  -6   3   88.51   16.12
  -7   6   3   85.38   15.41
   7   6  -3   72.45   11.81
   7  -6  -3   86.72   13.48
   7  -6  -3   80.37   14.06
   7  -6  -3   74.81   12.94
  -7  -6   3   63.50   12.72
   1  14  -1  153.78   20.20
   1  14  -1  143.96   18.43
   1 -14  -1  143.95   17.49
  -1  14   1  146.35   17.50
  -1  14   1  160.81   20.27
   1 -14  -1  178.09   19.38
  -1 -14   1  161.64   22.16
   1  14  -1  138.60   17.05
  -1  14   1  154.43   16.22
   4 -12  -2  493.69   44.46
   4 -12  -2  521.07   44.16
   4  12  -2  529.89   51.42
   4 -12  -2  547.19   52.95
  -4  12   2  555.69   46.40
  -4  12   2  441.34   41.91
   6  10   1  516.91   45.11
  -6  10  -1  596.70   48.25
  -6 -10  -1  516.51   46.14
  -6  10  -1  584.55   48.98
   6 -10   1  499.15   45.35
  -6 -10  -1  537.35   48.84
   6  10   1  516.74   49.17
  -6 -10  -1  551.80   50.53
   6 -10   1  562.08   46.71
   6 -10   1  568.35   51.87
   1  14   1   47.96   10.05
   1  14   1   42.28   12.64
  -1  14  -1   49.29   11.00
  -1  14  -1   47.03    9.54
  -1  14  -1   51.23   11.72
   1 -14   1   62.36   15.68
  -1 -14  -1   48.18   10.82
   1 -14   1   51.70   10.20
  -1 -14  -1   37.01    9.69
   1  14   1   49.48   11.98
  -8  -3  -2    6.87    7.73
   8  -3   2    0.70   11.33
   8   3   2    8.50   11.55
   8   3   2    5.21    8.94
   8  -3   2    4.66    7.44
  -8  -3  -2    5.61    8.73
  -5  11   2    7.82    9.71
   5 -11  -2    7.76    9.22
  -5 -11   2    9.73   11.36
  -5  11   2    7.25    6.38
   5 -11  -2   11.74    7.96
   5 -11  -2    5.44    7.28
   5  11  -2    7.28    7.99
   5 -10  -3  213.24   23.22
  -5  10   3  200.79   22.10
   5 -10  -3  245.91   22.56
   5 -10  -3  218.45   23.36
   5  10  -3  234.91   23.60
  -5 -10   3  231.41   25.88
   8   5   1   62.81   12.60
  -8  -5  -1   62.79   10.45
   8   5   1   80.15   12.64
  -8  -5  -1   65.59   12.70
   8   5   1   72.76   11.60
   8  -5   1   69.19   15.52
   8   5   1   69.22   15.11
   8  -5   1   73.03   11.42
   3  -8   5   79.98   14.00
   3   8   5   72.42    9.75
   3   8   5   69.23   13.05
   3   8   5   71.56   11.64
  -3  -8  -5   70.77   10.93
  -3   8  -5   90.58   13.14
   3  -8   5   87.32   14.08
   3  -8   5   95.91   13.27
  -3   8  -5   85.13   11.78
  -3  -8  -5   94.51   14.65
  -3   8  -5   87.48   11.20
   3   8   5   60.49   10.38
  -3   8  -5   92.80   10.99
   2   6  -6   53.32    9.77
  -2  -6   6   55.29   12.72
   2   6  -6   80.25   14.31
   2   6  -6   60.43    9.82
   2  -6  -6   50.97   11.47
  -2   6   6   52.90   14.00
   2   6  -6   52.58    9.95
   6   2  -5   27.72    8.00
  -6   2   5   26.26   10.43
  -6  -2   5   37.00   12.00
   6  -2  -5   32.61    7.75
   6   2  -5   47.34   19.21
  -6   2   5   35.34    7.81
  -6  -2   5   36.05    8.38
   6   2  -5   30.09    8.28
   6  -2  -5   30.92    9.06
   7  -3  -4  215.04   23.62
  -7  -3   4  282.22   31.08
   7   3  -4  233.38   25.53
  -7   3   4  249.19   26.94
   7   3  -4  247.69   25.54
   7  -3  -4  228.21   22.72
  -7  -3   4  249.48   25.79
   7  -3  -4  229.10   24.35
   2  11   4    2.19    6.08
  -2 -11  -4    4.42    7.96
  -2  11  -4    5.01    7.15
   2  11   4    3.54    6.83
  -2  11  -4    0.69    6.08
  -2  11  -4    2.17    6.00
   2  11   4    2.57   13.25
   2 -11   4    4.25   11.27
  -2  11  -4    1.98    6.70
   3  -5  -6    2.38    6.21
   3   5  -6    1.98    7.84
  -3  -5   6    2.59    9.73
   3   5  -6    2.05    7.33
  -3   5   6    0.96   10.50
  -3  -5   6    3.30   10.93
  -6  -8  -3    1.96    8.41
   6   8   3    8.17    9.59
  -6   8  -3    1.16    7.04
  -6  -8  -3    4.30    6.77
   6   8   3    2.07    6.94
   6  -8   3    9.84   11.22
   6   8   3    3.73    8.41
  -6  -8  -3    5.29    9.23
   6  -8   3    4.79    6.19
  -3 -12   3   41.62   15.20
   3  12  -3   34.39   10.03
  -3  12   3   33.35   12.72
   3 -12  -3   32.70    8.02
   3 -12  -3   34.02    9.59
  -3   4  -6    6.07    9.98
   3  -4   6    2.91   10.17
  -3   4  -6    1.53    5.58
  -3   4  -6    1.70    7.60
   3   4   6   -5.70   16.31
  -3   4  -6    2.66    5.71
  -3  -4  -6   -0.45    6.06
   3   4   6    4.64    8.57
  -3  -4  -6    9.45    9.42
  -3   4  -6    3.90    8.28
  -3  -4  -6    3.69    5.91
   2   9   5    3.17    6.20
  -2   9  -5   -0.49    6.24
  -2   9  -5   -1.62    9.23
   2   9   5    0.91    5.99
  -2   9  -5    2.06    8.35
  -2  -9  -5    5.03    7.42
  -2   9  -5   -0.53    6.87
   2   9   5    2.33   13.86
   2  -9   5   -2.31    9.46
  -2   9  -5   -0.53    5.36
  -8   0   3   -1.48    9.63
   8   0  -3    0.99    7.93
   8   0  -3    1.23    8.77
   8   0  -3    4.85   21.43
   2 -14   0   56.48    8.60
  -2  14   0   41.20    9.90
   2  14   0   50.32    9.99
  -2  14   0   55.15   10.47
   2 -14   0   55.79   11.67
   2  14   0   49.63   10.89
  -2 -14   0   46.79   12.29
   4  12   2  282.19   33.68
  -4 -12  -2  354.72   42.32
  -4  12  -2  312.57   36.63
  -4 -12  -2  267.76   32.74
   4 -12   2  333.59   37.10
  -4 -12  -2  291.96   34.65
  -4  12  -2  339.57   37.15
   4 -12   2  324.91   39.04
   4 -12   2  302.75   36.91
   4 -12   2  246.78   34.86
   4  -3  -6   25.34    8.93
   4   3  -6   30.74    8.47
  -4   3   6   32.50   12.52
   4  -3  -6   24.77    6.37
   4   3  -6   31.20    7.84
  -4  -3   6   38.58   12.66
   8   1  -3   24.16    8.02
   8  -1  -3   17.67   10.94
   8  -1  -3   19.66    9.50
   8  -1  -3   20.48    8.82
   8   1  -3   18.60    8.77
   8   1  -3   20.81   10.53
  -8   1   3   13.41   10.98
  -8  -1   3   20.27   10.58
   8  -1  -3   19.72    9.22
   8   1  -3   27.59   17.85
  -4  11  -3   46.84    7.72
   4 -11   3   31.33   11.23
   4  11   3   25.09    9.91
  -4 -11  -3   35.73    9.06
   4 -11   3   47.45   13.30
  -4  11  -3   43.36    8.27
   4 -11   3   39.77   11.37
   4  11   3   30.94    8.30
   4 -11   3   39.97    7.74
  -4 -11  -3   54.38   13.41
  -4 -11  -3   39.58    9.43
   5   8   4  541.80   61.53
  -5  -8  -4  406.77   46.72
  -5   8  -4  564.19   59.63
   5   8   4  495.81   58.92
   5  -8   4  530.58   58.80
   5  -8   4  564.99   63.22
   5   8   4  503.61   58.45
   5  -8   4  546.57   58.26
  -5  -8  -4  540.42   59.85
  -5  -8  -4  489.35   52.82
  -5   8  -4  552.79   59.13
   8  -6   0   54.62   13.39
   8   6   0   59.50   10.58
  -8  -6   0   55.29   12.28
   8   6   0   62.41    9.66
  -8  -6   0   64.05    9.39
   8   6   0   59.73    9.53
   8  -6   0   67.20   10.10
   8  -6   0   64.10    9.57
  -5  11  -2   31.10    6.84
   5 -11   2   29.42    7.95
  -5 -11  -2   25.82   11.39
   5 -11   2   33.12   11.23
  -5  11  -2   32.72    8.84
   5 -11   2   35.76   11.85
  -5 -11  -2   25.56    8.11
   5  11   2   22.10    8.65
   5 -11   2   32.91   13.88
  -5 -11  -2   28.39   11.72
   5   6  -5  106.16   15.51
  -5   6   5  120.19   15.61
   5  -6  -5   97.40   13.71
   5  -6  -5  120.75   19.05
   5  -6  -5   82.01   13.89
  -5  -6   5  118.70   16.00
  -5   6   5   94.14   16.35
   0  13  -3   69.14    9.08
   0  13   3   59.65    9.21
   0  13   3   57.56   12.94
   0 -13   3   60.19   17.19
   4   7   5    2.58    8.00
   4  -7   5    5.88   11.22
  -4   7  -5    9.38    8.39
   4   7   5    5.55    7.56
  -4   7  -5    5.07    5.59
  -4  -7  -5    1.91    9.56
   4  -7   5    4.57    6.38
  -4  -7  -5    6.78    6.10
   4   7   5    9.14    7.62
  -4  -7  -5    7.94    7.23
   4  -7   5    8.85    8.55
  -3 -13   2  550.19   63.46
   3 -13  -2  474.41   58.95
  -3  13   2  447.51   51.82
   3  13  -2  460.90   57.09
   3 -13  -2  487.14   52.78
  -6  -3   5  368.45   42.89
  -6   3   5  351.62   42.23
  -6  -3   5  471.37   54.36
   6   3  -5  395.41   44.55
   6  -3  -5  399.46   44.87
   6   3  -5  425.43   48.82
   6  -3  -5  403.58   46.13
  -6   3   5  441.90   48.10
  -6  -3   5  507.64   55.43
   7  -8  -2    0.78   10.01
   7  -8  -2    1.74    7.26
  -7  -8   2   -1.93   10.69
   7  -8  -2    0.72    7.30
   7   8  -2    4.87    8.17
  -7  -8   2    1.77    9.81
   0  -7  -6   16.18    7.58
   0   7  -6   14.82    6.61
   0  -7   6   13.32    9.40
   0   7  -6   17.11    8.16
   0   7  -6   18.45    9.98
   0   7   6   24.14    7.13
  -8  -4  -2  149.16   20.83
   8   4   2  140.72   20.01
  -8  -4  -2  154.96   20.71
   8   4   2  140.97   24.42
   8  -4   2  173.41   21.70
  -8   4  -2  131.75   18.38
   8   2  -3    0.91    9.16
   8  -2  -3    4.22    9.65
   8  -2  -3    4.92    9.60
  -8   2   3    3.35   10.44
   8  -2  -3    4.01    7.65
   8   2  -3    4.67    8.64
  -8  -2   3    4.42   11.16
   8   2  -3    3.19    7.58
  -8  -2   3    4.30    8.55
   8  -2  -3    3.45    7.77
   4 -10  -4    3.56    7.38
  -4  10   4   -2.21    9.25
   4 -10  -4   -0.68    7.60
  -4 -10   4   -6.67   11.77
   4  10  -4    4.76    6.97
  -4  10   4    2.77    5.35
   4 -10  -4   -0.66    5.96
  -4   0  -6  270.59   31.86
  -4   0  -6  262.76   31.26
   4   0   6  248.98   31.82
  -4   0  -6  261.93   29.78
  -4   0  -6  219.88   27.42
  -2  14   1   42.85    9.82
   2  14  -1   34.02   10.07
  -2  14   1   38.01   11.31
   2 -14  -1   48.87    9.51
   2  14  -1   38.33    9.48
  -2 -14   1   49.55   15.48
  -2  14   1   39.36    8.70
   2 -14  -1   41.30    9.78
  -8  -6   1  396.78   45.92
   8   6  -1  356.04   41.52
   8  -6  -1  363.09   41.63
   8   6  -1  328.63   37.19
   8  -6  -1  390.50   46.68
  -8  -6   1  338.57   40.62
   5   5   5  106.49   17.45
   5  -5   5  128.78   16.40
  -5   5  -5  125.15   15.77
   5   5   5  108.70   16.30
  -5  -5  -5  105.52   14.90
  -5  -5  -5  129.38   18.56
  -5   5  -5  128.23   18.00
   5   5   5   82.61   13.00
  -5  -5  -5  108.07   14.79
   5  -5   5  123.03   19.60
  -5   5  -5  140.28   18.24
   6  -6   4   11.76    6.96
   6   6   4   15.09    9.12
  -6  -6  -4   11.77    8.71
  -6  -6  -4   10.38    6.90
  -6   6  -4   11.49    6.08
   6   6   4   11.83    8.54
   6   6   4   13.12   12.08
   6  -6   4   18.08   11.45
  -6  -6  -4    9.77    7.55
  -6   6  -4   13.08    8.05
  -3 -12  -3 1146.39   34.00
   3 -12   3 1109.32   41.05
  -3  12  -3 1136.37   48.43
  -3 -12  -3 1131.19   36.71
   3  12   3  702.87   79.71
  -3 -12  -3  882.21  105.50
   3 -12   3 1279.62   35.24
   3  12   3  950.77  110.30
  -3  12  -3 1050.82  110.50
  -3  12  -3 1254.81   27.55
  -7   0  -4   16.36    6.26
   7   0   4   14.56   10.79
   7   0   4   19.53    7.81
  -8  -5   2  691.81   76.43
   8   5  -2  651.10   72.96
  -8   5   2  690.48   78.90
   8  -5  -2  684.20   85.16
   8   5  -2  596.37   73.12
   8   5  -2  681.74   76.80
   8  -5  -2  658.91   77.58
  -8  -5   2  492.18   62.86
   8  -5  -2  642.77   78.60
   8  -5  -2  773.08   84.69
   1 -13  -3  705.64   84.22
   1  13  -3  779.28   83.82
  -1  13   3  670.39   75.34
  -1  13   3  654.79   73.58
  -1 -13   3  776.00   86.47
  -2   6  -6  206.67   29.27
  -2  -6  -6   99.29   13.99
  -2   6  -6  129.04   20.22
  -2   6  -6  116.17   18.13
  -2   6  -6  113.59   16.72
  -2   6  -6  106.43   14.21
   5 -12   0  798.42   84.65
   5 -12   0  828.91   89.51
  -5 -12   0  624.96   70.54
   5  12   0  707.81   87.98
  -5  12   0  865.77   91.63
   5 -12   0  776.78   84.94
  -5 -12   0  761.41   86.03
  -5  12   0  897.20   94.29
  -5  12   0  662.73   71.56
  -6  -7   4  246.42   32.27
   6  -7  -4  180.88   25.73
   6   7  -4  187.96   24.25
   6  -7  -4  180.53   21.72
  -6   7   4  164.76   22.36
  -6  -7   4  209.27   28.99
   6  -7  -4  161.51   22.97
  -1  -7   6  233.76   29.58
   1  -7  -6  218.00   27.60
   1   7  -6  210.23   25.35
  -1   7   6  200.90   29.21
   1   7  -6  236.29   27.51
   5 -10   3  987.86  106.25
  -5 -10  -3  978.43  106.16
   5  10   3  816.21   97.28
  -5  10  -3 1015.39  105.97
   5 -10   3 1035.19  109.47
  -5 -10  -3 1027.40  109.50
   5  10   3  633.72   72.89
   5 -10   3  942.54  100.84
   5 -10   3  785.33   84.98
  -5 -10  -3  747.47   89.97
  -4  -1  -6  133.71   17.02
  -4   1  -6  147.57   19.76
  -4   1  -6  136.91   17.72
  -4   1  -6  146.41   19.75
   4   1   6  128.36   20.29
  -4  -1  -6  144.08   19.58
  -4  -1  -6  127.16   17.01
  -4   1  -6  126.28   18.49
   4  -1   6  134.85   20.43
  -4  -1  -6  118.76   17.32
   6 -10  -2  651.13   74.80
  -6 -10   2  586.65   66.02
   6  10  -2  625.11   73.84
   6 -10  -2  641.53   69.45
   6 -10  -2  571.19   63.54
  -6  10   2  638.52   67.77
  -6  10   2  804.89   91.88
   2  14   1  422.35   51.36
  -2  14  -1  318.07   37.49
   2 -14   1  392.66   43.93
  -2 -14  -1  376.47   44.79
   2 -14   1  394.91   48.56
   2  14   1  304.88   37.09
  -2  14  -1  367.40   42.22
   2  14   1  354.16   43.92
  -2  14  -1  334.26   38.07
   7  -1   4   10.59    7.12
  -7   1  -4    7.76    5.92
   7   1   4    7.02    6.99
   7   1   4    7.72   10.42
  -7  -1  -4    3.83    5.98
  -7   1  -4    9.92    8.78
  -7  -1  -4    6.29   10.10
   7  -1   4   12.01   10.19
   0  10  -5  159.74   19.56
   0  10   5  112.86   15.31
   0  10  -5  156.27   19.43
   0  10   5  127.89   16.24
   0 -10   5  147.95   23.41
   0  10   5  124.06   21.00
   0 -10  -5  121.70   17.87
   0  10  -5  137.04   17.28
  -4  13   0    8.37    7.05
  -4 -13   0    2.60   11.93
  -4  13   0    3.71    8.34
   4 -13   0    3.27    9.78
  -4  13   0    6.45   14.23
  -4 -13   0   -2.98    6.71
   4 -13   0    3.65    6.77
   4 -13   0    4.84    7.08
   4  13   0    2.67    8.62
   4 -13   0    7.50    9.68
   7  -4  -4    1.90    8.22
   7   4  -4    0.43    6.17
   7  -4  -4    1.87    8.71
   7  -4  -4   -0.78    6.59
   7   4  -4    0.55    8.00
  -7  -4   4    2.17   10.07
  -7   4   4   -2.35   10.34
  -7  -4   4   -1.32   10.38
   3 -13   2   38.34   11.05
  -3 -13  -2   46.60    9.39
  -3 -13  -2   44.29   10.59
  -3  13  -2   53.63    8.05
  -3 -13  -2   45.38   10.41
   3  13   2   43.63    9.80
   3 -13   2   47.21   17.21
  -3  13  -2   47.38    9.04
   1 -13   3    3.94   12.65
  -1 -13  -3   11.56   10.94
   1  13   3    2.38   10.38
  -1  13  -3    9.95   14.60
   1  13   3    4.68    7.41
  -1  13  -3    3.92    7.82
  -1 -13  -3    6.77    6.84
  -7  -9   0 1032.59  112.51
  -7   9   0  870.32   94.59
   7   9   0  890.15  104.81
  -7  -9   0  745.97   84.63
  -7  -9   0  740.30   82.82
   7  -9   0  998.51  107.36
   7  -9   0  876.25   98.58
   7  -9   0 1012.84  106.76
   3  -9  -5   20.41    7.06
  -3  -9   5   27.02   13.92
  -3  -9   5   26.25    6.70
   3   9  -5   22.23    7.87
  -3   9   5   23.12    6.15
   3  -9  -5   21.93    8.37
  -1  10   5   87.37   12.49
   1  10  -5  118.57   16.03
  -1  10   5   76.33   14.45
   1 -10  -5   72.55   10.13
  -1  10   5   85.73   12.68
  -1 -10   5  117.90   21.32
   1  10  -5  106.74   14.83
  -6   9   3   34.24   11.16
   6  -9  -3   49.47    8.97
  -6  -9   3   47.20   13.45
   6  -9  -3   39.67    8.61
   6  -9  -3   38.08   10.90
   6   9  -3   45.24   10.85
  -7   6  -3   95.85   14.13
   7   6   3   82.20   17.03
  -7  -6  -3   91.94   15.12
   7   6   3   77.91   10.63
   7  -6   3   99.89   13.86
  -7  -6  -3   87.67   15.85
   7   6   3   81.20   14.40
   3  11  -4    0.45    7.75
   3 -11  -4   -0.26    5.55
  -3 -11   4   -2.45   13.00
  -3  11   4    1.94    5.66
  -3  11   4    2.06   12.51
   3 -11  -4   -2.72    8.03
   0 -14  -2  250.18   29.79
   0 -14   2  322.59   42.44
   0  14  -2  245.51   30.09
   0  14   2  232.72   31.00
   0  14   2  254.20   30.67
   0 -14  -2  210.85   26.80
   4  -8  -5   70.19    9.03
  -4   8   5   72.83    7.89
   4   8  -5   83.28   13.29
  -4  -8   5   88.84   12.70
   4  -8  -5   73.27   11.50
  -4  -8   5   86.33   18.36
  -4   8   5   69.40   13.90
   4  -4  -6  172.79   21.03
  -4   4   6  189.00   26.46
   4   4  -6  203.08   25.18
   4   4  -6  197.61   24.17
   4  -4  -6  181.75   23.86
  -4  -4   6  218.29   30.13
  -4  -4   6  172.39   23.22
   5  12  -1  466.21   59.85
  -5  12   1  850.12   96.26
  -5 -12   1  546.12   62.33
   5 -12  -1  584.29   68.23
  -5  12   1  623.86   66.56
  -5  12   1  615.15   65.89
   5 -12  -1  565.96   63.62
   5 -12  -1  536.44   58.05
  -1  -7  -6  565.33   63.63
   1   7   6  539.10   64.66
   1  -7   6  637.60   69.57
  -1   7  -6  760.70   83.16
  -1   7  -6  661.24   70.89
  -1   7  -6  735.91   80.31
  -1   7  -6  659.68   71.97
   4   2   6    6.71    9.72
  -4   2  -6    9.05    6.96
  -4  -2  -6    7.05    6.34
  -4  -2  -6    5.38    7.87
   4  -2   6    5.27    9.53
  -4  -2  -6    7.72    9.72
  -4   2  -6    7.77    8.78
  -4  -2  -6    5.43    6.62
   5  -9  -4   33.16    8.87
  -5  -9   4   31.53   12.63
   5  -9  -4   30.15    7.52
   5   9  -4   32.08    8.88
   5  -9  -4   28.87    9.54
  -8  -6  -1  121.58   18.66
   8  -6   1  143.10   18.74
   8   6   1  113.41   17.33
  -8  -6  -1  105.40   15.20
  -8   6  -1  139.42   19.49
   8   6   1  125.03   20.60
   8   6   1  137.79   19.34
   8   6   1  120.59   16.97
   8  -6   1  134.47   21.68
  -7   2  -4  713.04   76.59
   7  -2   4  629.48   71.77
   7   2   4  659.67   72.74
  -7  -2  -4  707.70   77.07
  -7   2  -4  702.33   73.83
   7   2   4  614.15   70.99
  -7  -2  -4  687.82   72.71
   7  -2   4  668.12   71.68
  -3   5  -6  105.08   17.03
   3   5   6  182.71   26.82
  -3   5  -6  101.49   15.81
   3   5   6   87.76   15.38
   3  -5   6   95.14   16.86
  -3   5  -6  107.98   15.07
  -3  -5  -6   94.91   13.72
  -3   5  -6   99.90   17.51
  -3   5  -6  101.15   13.93
   8   3  -3  188.64   23.42
   8   3  -3  195.42   26.74
   8  -3  -3  226.28   29.20
  -8   3   3  194.56   25.97
  -8  -3   3  153.46   22.89
   8  -3  -3  203.73   27.22
  -8  -3   3  203.96   26.48
   8  -3  -3  204.79   26.37
   8  -3  -3  186.66   26.47
  -4 -13   1   27.34   16.24
   4 -13  -1   34.58    9.15
  -4  13   1   35.52   10.75
   4  13  -1   25.25   17.33
   4 -13  -1   33.78    9.06
   4 -13  -1   35.59   11.08
  -4  13   1   36.20    8.32
   7  -9  -1  183.27   25.68
  -7   9   1  627.84   73.67
  -7  -9   1  174.50   22.54
  -7  -9   1  176.53   24.25
  -7   9   1  179.20   23.08
   7  -9  -1  243.59   29.43
   7  -9  -1  189.27   25.53
   0  12  -4   76.47    9.50
   0  12   4   74.20    8.63
   0 -12   4   75.62   16.17
   0  12   4   64.66   13.86
   0  12  -4   89.71   12.89
   0 -12  -4   57.46   11.76
   0  12   4   62.49    8.62
   7  -7  -3  203.56   27.54
   7  -7  -3  190.10   25.12
   7   7  -3  202.26   27.00
   7  -7  -3  214.33   26.05
   7  -7  -3  196.11   24.93
  -7   7   3  285.57   39.59
  -7  -7   3  216.65   29.40
  -7  -7   3  192.38   26.31
  -1 -10  -5   32.70    8.50
  -1  10  -5   40.26    7.88
  -1  10  -5   42.41   10.59
   1 -10   5   36.36   12.41
   1  10   5   26.88    6.12
   1  10   5   31.80    7.34
   1  10   5   31.94   12.47
  -1  10  -5   41.74    7.58
  -1  10  -5   45.75    7.58
   1  14  -2  105.69   15.77
  -1  14   2  116.83   19.61
   1 -14  -2  125.77   17.58
  -1 -14   2  137.51   24.02
   1 -14  -2  114.80   17.13
  -1  14   2  116.55   16.75
   6   0   5   -2.42    9.34
   6   0   5   -3.05    6.23
  -6   0  -5    1.20    6.27
  -6   0  -5    0.67    9.83
  -3   6   6   85.50   17.48
   3   6  -6   48.76    9.28
  -3  -6   6   76.27   13.84
   3   6  -6   67.96    9.56
   3  -6  -6   70.48    9.02
   5  12   1  425.24   51.74
  -5 -12  -1  415.40   50.19
  -5 -12  -1  508.74   58.11
  -5  12  -1  394.29   43.81
   5 -12   1  443.75   52.06
  -5  12  -1  512.25   54.97
   5 -12   1  462.17   53.20
   5 -12   1  475.49   51.59
  -5 -12  -1  413.64   46.56
   1  14   2   61.66   13.98
  -1  14  -2   64.61    9.50
   1 -14   2   83.00   21.40
  -1 -14  -2   70.01   12.18
  -1  14  -2   57.16   10.14
   1  14   2   63.67   10.22
   6  -4  -5    7.34    8.98
  -6  -4   5    4.94    7.44
   6   4  -5    1.89    6.21
   6   4  -5    1.74    8.06
  -6   4   5    1.57    5.85
  -6   4   5    0.92    9.41
   6  -4  -5    1.62    6.33
  -6  -4   5    3.27   11.04
  -6  -4   5   -1.76   10.08
  -1  12   4  441.15   50.02
  -1 -12   4  473.28   56.16
  -1  12   4  502.41   58.11
  -1  12   4  538.29   57.95
   1  12  -4  515.76   56.98
  -7   8  -2  433.49   47.57
  -7  -8  -2  428.27   51.60
   7   8   2  280.69   33.72
  -7  -8  -2  433.64   51.46
   7   8   2  364.15   44.69
   7  -8   2  413.67   48.71
   7  -8   2  433.55   48.08
  -7  -8  -2  372.92   42.84
   7   8   2  405.32   49.07
   4 -13   1    4.60   10.47
  -4 -13  -1    2.95    7.47
   4 -13   1   14.39   13.45
  -4  13  -1    6.12    6.34
  -4  13  -1    6.43    8.12
  -4 -13  -1   -0.03   11.38
   4  13   1    5.70    9.06
   4 -13   1    8.84    8.79
   4 -13   1    5.98    7.86
   6  -1   5   88.55   16.57
  -6   1  -5  100.57   16.60
   6  -1   5   88.19   13.18
  -6   1  -5   96.30   13.37
   6   1   5   78.96    9.56
  -6  -1  -5   91.93   15.36
   6   1   5   81.34   15.21
  -6  -1  -5   86.11   12.64
  -6  -1  -5   91.73   13.49
  -6  11   0   78.28   10.73
  -6 -11   0   84.77   16.66
   6 -11   0   77.07   12.59
  -6  11   0   86.00   12.62
   6 -11   0   83.64   12.41
  -6 -11   0   62.65    9.81
   6 -11   0   89.26   14.81
   6  11   0   84.94   15.06
   6 -10   2   30.16   10.65
  -6 -10  -2    3.87    7.90
  -6  10  -2   -2.23    8.18
  -6 -10  -2    0.80   10.21
   6  10   2    0.03    9.40
   6  10   2    0.66    8.28
   6 -10   2    2.77   11.42
  -6 -10  -2   -1.52    9.87
   6 -10   2   -0.72    7.01
   2   7  -6  219.03   26.36
  -2   7   6  209.35   28.56
  -2  -7   6  237.26   30.37
   2   7  -6  193.06   23.58
   2  -7  -6  214.63   28.27
  -2   7   6  171.67   22.54
   9   0   0   -3.08    6.58
  -9   0   0  158.81   21.25
   9   0   0  158.18   22.53
  -2 -13   3   94.53   20.32
   2 -13  -3   96.81   15.48
  -2  13   3   89.57   17.17
   2  13  -3   94.37   14.35
  -2  13   3   78.67    9.75
   8   0   3    1.48    7.45
  -8   0  -3    2.09    8.44
   8   0   3    5.17   11.79
  -4 -10  -4    8.18    6.48
  -4 -10  -4    7.82    7.58
   4 -10   4   10.56    6.80
   4 -10   4    4.83   11.21
  -4  10  -4   10.73    6.14
   4  10   4    8.33    6.87
   4 -10   4    9.87    9.76
  -4 -10  -4    9.68    8.88
   4 -10   4    6.41    8.55
  -4  10  -4    8.65    6.46
   4  10   4    4.38    7.86
   9   1   0  116.30   17.91
  -9   1   0  123.50   17.98
   9   1   0  205.42   32.20
   9  -1   0  118.93   22.65
  -9  -1   0  123.19   17.73
   9  -1   0  116.21   17.75
   7   9   1  137.34   19.63
  -7  -9  -1  134.90   21.12
   7  -9   1  153.90   20.07
  -7  -9  -1  118.22   17.08
  -7  -9  -1  150.01   23.12
  -7   9  -1  144.40   19.63
   7  -9   1  140.78   21.41
   7   9   1  153.92   21.37
   8  -5   2  157.74   20.19
  -8  -5  -2  149.52   20.65
   8   5   2  135.95   22.36
  -8  -5  -2  152.35   21.69
   8   5   2  154.18   21.43
  -8   5  -2  165.18   20.64
   1 -12   4   93.41   18.88
  -1 -12  -4   88.19   14.39
   1  12   4   88.10   12.84
   1  12   4   84.98   17.63
  -1  12  -4  103.19   14.08
  -1  12  -4   93.33   13.93
  -1  12  -4   94.62   13.98
   1  12   4   79.46    9.79
   0   0  -7   15.93    8.16
   0   0  -7   13.10    8.95
   0   0  -7    5.77    9.90
  -4   3  -6   18.16    7.60
   4  -3   6   15.97   11.32
  -4  -3  -6   16.92    6.73
  -4  -3  -6   18.18    7.98
  -4  -3  -6   13.50    6.81
  -4   3  -6   17.51    8.98
   4   3   6   20.42    9.93
  -4  -3  -6   21.47   10.00
  -8  -1  -3   48.20    9.60
   8  -1   3   47.71    8.84
   8   1   3   51.40    9.67
   8   1   3   58.84   15.45
   8  -1   3   44.24   12.62
  -7  -3  -4   -0.18    6.65
  -7   3  -4    1.28    8.33
   7  -3   4    1.44    6.82
  -7  -3  -4   -3.11    9.65
   7   3   4   -3.14   10.27
   7  -3   4    5.35   11.40
   7   3   4    3.82    8.31
  -7   3  -4    1.71    5.72
  -7  -3  -4   -1.00    8.53
  -3  11  -4   29.71    7.10
  -3  11  -4   28.89    6.89
   3  11   4   21.19    7.24
  -3  11  -4   30.90    7.72
  -3 -11  -4   22.21    8.98
   3  11   4   18.79    6.69
   3 -11   4   26.95   11.36
   3 -11   4   29.31    8.85
  -3  11  -4   28.80    7.57
  -3 -11  -4   27.39    9.75
   3 -14   0  267.89   32.79
  -3  14   0  250.19   30.34
   3  14   0  224.62   27.69
  -3  14   0  220.00   27.58
   3 -14   0  253.46   29.03
  -3 -14   0  221.10   26.98
  -2  10   5   25.69   13.09
  -2  10   5   23.06    6.37
  -2  10   5   23.53    7.10
  -2 -10   5   39.29   15.27
   2  10  -5   27.83    7.67
   2  10  -5   26.72    7.59
   9   0  -1    3.91   11.97
   9   0  -1    0.71   12.11
  -9   0   1   -3.49    9.96
   1   0  -7    0.26    9.68
   1   0  -7   20.34   13.15
   0  -1  -7   47.58   11.30
   0   1  -7   52.36   10.64
   0  -1  -7   43.93    9.51
   0   1  -7   44.12    8.50
   0  -1  -7   39.81    8.89
   0   1  -7   53.97   10.88
  -6  -2  -5  527.94   56.99
  -6   2  -5  531.05   56.72
   6   2   5  475.03   54.38
   6  -2   5  504.38   57.38
   6   2   5  487.13   54.35
   6  -2   5  497.36   53.78
  -6  -2  -5  521.13   57.00
  -6  -2  -5  426.18   46.59
  -6   2  -5  571.85   62.36
  -6 -11   1   29.90   12.17
  -6  11   1   24.32   10.03
   6 -11  -1   27.34    8.23
  -6  11   1   25.54    6.49
   6 -11  -1   29.80   10.74
  -6  11   1   32.50    7.67
   6 -11  -1   26.95    9.25
   5   0  -6   52.48   10.23
   5   0  -6   52.73    9.57
  -5   0   6   60.41   13.94
   5   0  -6   46.98    7.64
  -3   9  -5   12.88    7.77
   3  -9   5   19.08    8.57
   3   9   5   13.12    6.00
  -3  -9  -5   18.42   10.31
  -3   9  -5   16.58    6.96
  -3   9  -5   14.52    6.17
   3  -9   5   21.50    9.87
  -3  -9  -5   13.91    8.61
  -3   9  -5   15.99    7.29
   3   9   5   11.60    7.13
   9   1  -1   85.49   21.54
   9  -1  -1   49.44    8.88
  -9  -1   1   62.84   12.98
  -9   1   1   51.47   12.43
   9   1  -1   54.26   12.95
   9  -1  -1   59.12   14.03
   8   7   0  206.13   27.06
  -8   7   0  256.33   32.50
   8  -7   0  239.49   32.33
  -8  -7   0  217.70   28.54
   8  -7   0  266.20   31.36
   8   7   0  223.95   27.65
   8   7   0  235.48   28.56
  -8  -7   0  226.09   27.98
  -7  -5   4   54.76   12.14
   7  -5  -4   61.69    9.32
   7   5  -4   44.61    8.26
   7  -5  -4   48.08   10.34
  -7   5   4   54.82   12.29
   7  -5  -4   57.15   11.26
  -7  -5   4   54.47   13.26
   7   5  -4   50.38   10.60
   1   1  -7   23.71   10.67
   1  -1  -7   15.36    9.45
  -1   1   7   17.95   15.19
  -1  -1   7   22.24   13.44
   1  -1  -7   16.54    9.28
   1   1  -7   17.07    7.52
  -2  13  -3   17.60    7.44
   2  13   3   18.53   13.47
  -2 -13  -3   10.24    9.30
  -2  13  -3   10.75    7.08
   2 -13   3    8.66   12.55
  -2 -13  -3    8.86    8.41
   2  13   3   14.96    7.66
  -2  13  -3   17.19    7.44
   5  -7  -5   77.83   11.14
   5  -7  -5  101.89   16.60
  -5   7   5   80.52   13.31
  -5  -7   5   98.57   13.94
   5   7  -5   99.26   14.89
  -5   7   5  100.26   13.67
   5  -7  -5   82.05   12.13
   5   1  -6  249.67   29.10
  -5   1   6  312.07   38.71
   5   1  -6  312.68   37.16
   5   1  -6  413.14   49.15
  -5  -1   6  313.59   39.68
   5  -1  -6  244.94   28.37
   5  -1  -6  245.06   29.10
   5   6   5  138.56   19.46
  -5  -6  -5  117.83   15.79
   5   6   5  145.31   19.27
   5  -6   5  154.29   23.19
  -5  -6  -5  161.23   21.27
  -5   6  -5  170.92   22.07
   5   6   5  139.86   20.86
  -5   6  -5  174.04   20.66
   5  -6   5  165.95   20.37
   8   6  -2    3.05    6.70
   8  -6  -2    5.04    8.22
  -8  -6   2    6.59   10.15
   8  -6  -2    1.99    7.86
   8   6  -2    4.89    7.88
  -8   6   2    6.54   10.36
  -8  -6   2   10.62   10.83
   8  -6  -2    5.57    8.80
   8  -6  -2   15.07   10.88
   9   2   0   52.00   10.35
  -9   2   0   49.44   10.19
  -9  -2   0   43.89   10.04
   9  -2   0   57.82   15.93
   9   2   0   43.53   13.64
  -9  -2   0   48.31    9.83
   9  -2   0   51.02    9.99
   8   4  -3    1.08    7.74
  -8  -4   3    1.69    9.82
  -8   4   3    3.14   10.38
   8   4  -3    4.15    9.20
   8  -4  -3    1.81    9.83
   8  -4  -3    4.07    9.48
   8  -4  -3   -0.02    8.14
   8  -4  -3    1.92    7.91
  -8  -4   3    5.81    9.92
   8   2   3  790.48   94.94
   8  -2   3  831.79   95.24
   8   2   3  751.35   87.05
   8  -2   3  780.23   88.27
  -8  -2  -3  794.26   86.47
   6  -9   3  182.59   21.95
   6   9   3  114.91   19.11
   6  -9   3  185.61   26.27
   6   9   3  153.01   20.75
  -6  -9  -3  146.89   21.22
  -6  -9  -3  177.58   22.78
  -6   9  -3  194.97   23.42
   6   9   3  167.50   22.78
  -4  -5   6   55.93   13.50
   4   5  -6   47.14    9.32
   4  -5  -6   49.26   10.94
   4  -5  -6   46.41    8.11
  -4  -5   6   42.43   11.96
  -4   5   6   42.27   13.45
   2  14  -2  676.46   64.82
  -2  14   2  591.49   51.10
   2 -14  -2  645.91   59.99
  -2  14   2  694.59   61.51
  -2 -14   2  736.23   64.95
   0   2  -7  154.48   16.27
   0  -2  -7  189.23   20.23
   0   2  -7  162.95   18.70
   0   2   7  188.86   25.04
   0   2  -7  191.10   21.63
   8  -7  -1  912.93  104.35
  -8  -7   1  904.32   97.54
   8   7  -1  840.81   91.73
   8  -7  -1  878.93  102.27
   8   7  -1  732.18   80.27
  -8  -7   1  822.10   89.92
  -6  -7  -4  223.89   26.19
  -6  -7  -4  194.91   25.67
   6  -7   4  266.76   30.19
  -6   7  -4  256.76   28.63
   6   7   4  209.11   26.55
   6   7   4  241.26   32.36
   6  -7   4  263.81   33.36
  -6   7  -4  266.80   30.46
  -6  -7  -4  259.91   31.44
   6   7   4  252.92   31.21
   3 -14  -1  208.14   23.00
   3 -14  -1  228.42   21.58
  -3  14   1  169.48   20.17
   3  14  -1  183.81   22.97
   3 -14  -1  204.83   19.87
  -6 -11  -1  179.06   24.61
   6  11   1  159.26   19.10
  -6 -11  -1  163.76   21.11
  -6 -11  -1  158.33   18.25
  -6  11  -1  180.90   19.81
   6 -11   1  182.22   22.57
   6 -11   1  174.51   17.96
   6 -11   1  160.61   21.34
  -1   0  -7   -0.04    7.65
  -1   0  -7   -0.06    8.76
  -1   0  -7   -0.87    7.26
  -9  -2   1  155.60   18.77
   9   2  -1  153.01   18.70
  -9  -2   1  148.01   20.73
   9  -2  -1  173.76   23.58
  -9   2   1  149.14   20.20
   9  -2  -1  139.27   17.77
  -2  -7  -6   12.68    7.27
  -2   7  -6   16.14    8.31
  -2   7  -6   12.80    9.85
  -2   7  -6    9.89    9.63
  -2   7  -6   10.12    6.24
   2  -7   6   14.42    9.29
  -2  -7  -6   16.89   10.86
   4 -12  -3   12.51    8.15
   4 -12  -3   12.89    7.36
   4 -12  -3   12.48    8.82
  -4  12   3   15.96   10.04
   4  12  -3   16.79    8.65
  -4   8  -5  399.51   34.39
   4  -8   5  386.12   33.00
  -4   8  -5  415.59   34.70
   4   8   5  336.70   35.12
   4  -8   5  441.30   38.83
   4  -8   5  379.99   36.80
   4  -8   5  387.05   36.57
   4   8   5  349.97   31.94
  -4  -8  -5  305.70   29.47
  -4  -8  -5  299.15   26.31
  -4  -8  -5  411.26   36.78
  -2 -12   4  394.97   39.90
   2 -12  -4  417.77   43.85
  -2  12   4  389.36   37.83
   2  12  -4  435.34   38.34
  -2  12   4  461.68   45.87
   1  -2  -7   15.48    8.95
   1   2  -7   28.84   11.22
  -1   2   7   18.11   13.13
   1   2  -7   18.49   12.54
  -5 -11   3  213.07   25.44
   5  11  -3  208.98   21.95
   5 -11  -3  214.10   20.93
  -5  11   3  160.61   20.53
   5 -11  -3  203.68   23.13
   5 -11  -3  199.32   21.70
  -5   2   6  174.65   21.98
   5  -2  -6  150.89   17.80
   5  -2  -6  160.30   16.77
   5   2  -6  184.24   20.44
   5   2  -6  459.91   52.57
  -5  -2   6  193.24   24.38
   5   2  -6  153.05   16.75
   9   0   1   -1.11   13.69
   9   0   1    5.38    8.65
  -9   0  -1    0.24    8.29
   0  15   0   -0.16    9.46
   0 -15   0    1.05    9.37
   0  15   0   -5.48   10.11
  -1  -1  -7   19.01    8.29
  -1   1  -7   20.06    8.74
  -1   1  -7   16.14    7.40
  -1  -1  -7   24.09    9.64
  -1  -1  -7   27.55   10.38
  -1   1  -7   23.05    8.82
  -5   9  -4  139.77   15.03
  -5  -9  -4  137.88   16.49
   5   9   4  127.89   19.41
  -5  -9  -4  125.86   15.18
  -5  -9  -4  130.07   14.29
   5  -9   4  159.27   16.35
   5   9   4  157.85   19.04
   5   9   4  135.69   16.97
  -5   9  -4  147.60   14.69
   0   8  -6  107.09   12.94
   0   8   6   81.85   11.22
   0   8  -6   90.28   12.85
   0  -8   6  102.56   15.47
   0  -8  -6   86.69   12.67
  -2  10  -5  316.77   28.18
   2  10   5  237.53   24.92
  -2  10  -5  301.68   27.08
   2 -10   5  306.94   30.85
  -2  10  -5  331.00   30.39
   2  10   5  306.19   34.49
  -2  10  -5  342.82   29.55
  -2 -10  -5  261.10   26.72
   2  10   5  257.41   24.36
  -3  14  -1  167.16   17.84
   3 -14   1  219.34   22.23
  -3  14  -1  275.16   30.01
   3 -14   1  205.63   24.85
  -3 -14  -1  195.15   20.40
   3  14   1  198.59   23.38
  -3 -14  -1  175.03   22.16
   2  14   2  384.77   38.36
  -2 -14  -2  379.22   38.79
   2  14   2  457.59   45.64
  -2  14  -2  415.03   36.59
  -2  14  -2  512.17   46.36
   2 -14   2  528.37   52.75
  -2 -14  -2  551.28   49.91
  -6  -3  -5    5.51    9.19
  -6   3  -5    1.35    9.49
   6  -3   5    4.49   11.64
   6  -3   5    3.40    6.60
   6   3   5   -1.09    7.17
   6   3   5    4.01   10.23
  -6  -3  -5    1.45    6.09
   9  -1   1  234.66   35.70
  -9  -1  -1  268.72   24.97
   9   1   1  246.65   28.47
   9   1   1  244.06   32.02
   9  -1   1  261.57   27.05
  -9   1  -1  266.12   24.95
  -6   5   5   70.24    7.93
  -6  -5   5   79.04   11.59
  -6   5   5   54.09   11.67
  -6  -5   5   88.50   16.56
   6  -5  -5   54.45   10.84
   6  -5  -5   73.87   12.54
   6   5  -5   64.98   10.32
   6  -5  -5   67.90    9.08
  -6  -5   5   59.96   12.84
  -3   6  -6   33.60    7.50
   3  -6   6   33.44   12.09
  -3   6  -6   34.44    9.42
  -3  -6  -6   29.99    7.85
  -3   6  -6  106.50   28.04
  -3   6  -6   38.45   11.38
   6   8  -4  312.75   30.45
  -6  -8   4  330.26   34.22
   6  -8  -4  302.68   35.23
   6  -8  -4  283.80   30.15
  -6   8   4  241.35   25.16
   6  -8  -4  314.63   29.08
   1   8  -6   61.66    9.79
  -1   8   6   48.76    7.78
   1   8  -6   71.80    9.07
  -1  -8   6   68.40   13.24
   1  -8  -6   66.05   10.02
  -5 -12   2   68.59   14.94
   5 -12  -2   77.03   11.37
   5  12  -2   75.58   10.68
   5 -12  -2   70.77   11.10
   5 -12  -2   75.15   12.73
  -5  12   2   58.96   11.87
  -4   4  -6    5.54    9.15
  -4   4  -6    8.14    6.65
  -4  -4  -6    4.79    7.18
   4   4   6   31.07   18.86
   4   4   6   11.00    9.88
   4  -4   6   12.04   11.40
   7   7   3   48.76   10.13
  -7  -7  -3   57.17   10.99
  -7  -7  -3   50.49   11.96
   7  -7   3   67.70    8.83
   7   7   3   49.30   13.33
  -7   7  -3   60.39    9.45
   7   7   3   52.91    9.89
   2   0  -7    3.31   10.58
  -2   0   7    5.04   12.06
   2   0  -7    2.39    7.34
  -7  -4  -4 1237.03   43.78
   7   4   4 1037.59   89.96
  -7   4  -4 1229.76   24.82
  -7  -4  -4 1150.20   90.83
   7   4   4 1142.67   99.82
   7  -4   4 1142.30   95.46
  -7  -4  -4  991.28   83.61
   7  -4   4 1214.62   28.14
  -7   4  -4 1241.28   30.21
   9   3   0   24.81   12.57
   9   3   0   22.74    9.86
  -9   3   0   28.07   10.65
   9  -3   0   23.63    8.99
  -9  -3   0   24.25    8.57
   9  -3   0   23.62   14.30
  -9  -3   0   28.91   10.52
   7  -9  -2    1.99    7.30
   7   9  -2    1.98    9.00
  -7  -9   2    0.60   10.68
  -7   9   2    1.94    9.57
   7  -9  -2    4.81    9.25
   7  -9  -2    2.04    7.81
  -7   9   2    8.22   12.74
   1  15   0   68.56   12.81
  -1 -15   0   57.00   12.25
  -1  15   0   65.33   11.50
  -1  15   0   73.55   13.60
   1  15   0   70.66   13.92
   1 -15   0   66.56   13.08
   2  -1  -7  537.99   45.30
  -2  -1   7  671.22   60.83
  -2   1   7  591.17   55.07
   2  -1  -7  708.07   62.08
   2   1  -7  732.92   64.02
   2   1  -7  502.92   42.89
  -8  -7  -1  135.29   18.32
   8   7   1  129.75   17.33
  -8  -7  -1  115.54   14.06
   8   7   1  138.76   16.81
   8  -7   1  138.28   19.27
   8   7   1  154.84   17.95
   8  -7   1  151.44   16.99
   8   7   1  135.71   19.40
  -8   7  -1  142.12   17.02
   4 -13  -2  174.30   20.82
  -4  13   2  146.64   19.24
   4 -13  -2  155.39   19.01
   4  13  -2  157.93   20.71
   4 -13  -2  167.41   17.34
   8   3   3  208.06   23.36
  -8   3  -3  252.64   24.08
   8  -3   3  258.20   23.95
   8  -3   3  241.58   27.52
  -8  -3  -3  245.72   24.12
   8   3   3  218.03   27.71
  -1   2  -7    1.82    6.63
  -1  -2  -7    1.50    8.19
  -1  -2  -7    1.52   10.05
  -1   2  -7    0.91    8.66
  -1   2  -7   -0.31    7.44
   2  12   4   -0.25   12.98
  -2  12  -4    2.09    7.18
   2 -12   4   -3.36   11.97
   2  12   4    0.12    6.92
  -2  12  -4    3.57    6.83
  -2 -12  -4    3.30    8.61
   2  12   4    2.21    6.26
  -2  12  -4    5.02    7.62
   0   3  -7  114.61   16.37
   0  -3  -7  102.41   14.24
   0   3  -7  101.07   13.04
   0   3   7  110.24   19.70
   0   3  -7   97.53   13.76
  -9  -2  -1    1.40    7.70
   9   2   1    0.91   12.32
   9  -2   1   -0.31    7.96
   9   2   1    2.42    8.00
  -9   2  -1    1.09    8.39
   9   3  -1  166.11   19.07
  -9   3   1  182.49   22.23
  -9  -3   1  214.00   23.36
  -9  -3   1  177.29   20.65
   9  -3  -1  152.57   20.60
   9  -3  -1  180.55   24.16
   0 -15   1  236.65   27.97
   0  15  -1  204.25   21.73
   0  15   1  209.70   24.18
   0 -15  -1  245.04   24.63
   0  15   1  201.76   24.40
   0 -15  -1  196.37   22.24
   1   3  -7    9.42   11.77
   1   3  -7    6.07    9.35
   1   3  -7    7.18    8.31
   1  -3  -7    4.99    9.54
  -1   3   7    8.01   12.99
  -1   8  -6  241.28   22.78
   1   8   6  231.44   29.13
  -1   8  -6  250.96   24.28
  -1  -8  -6  186.27   19.66
  -1   8  -6  294.56   30.20
   1  -8   6  234.74   24.66
   5  -3  -6  169.42   17.15
   5  -3  -6  185.09   20.22
   5   3  -6  200.96   21.42
  -5   3   6  195.57   23.99
   5   3  -6  310.08   36.43
   5   3  -6  185.04   19.43
  -5  -3   6  209.46   25.82
   3   7  -6   53.38    9.41
  -3   7   6   50.58   14.22
  -3  -7   6   56.66   12.82
   3  -7  -6   45.76    7.97
   8   6   2  228.79   27.27
  -8   6  -2  263.25   24.94
   8  -6   2  268.23   25.88
   8   6   2  219.02   25.77
   8  -6   2  260.70   28.85
  -8  -6  -2  260.86   27.54
  -8  -6  -2  237.92   23.96
   4 -12   3   15.62   10.77
  -4 -12  -3   17.54    9.23
   4  12   3   10.11    7.49
   4 -12   3   10.78   11.72
   4 -12   3   11.57    6.77
   4  12   3    9.05    9.43
  -4  12  -3   10.76    7.96
   4 -12   3   10.52   11.00
  -4 -12  -3   13.68    9.27
   2  -2  -7  174.35   19.40
   2   2  -7  198.93   21.96
  -2  -2   7  215.34   27.13
   2   2  -7  196.08   21.08
   2   2  -7  255.88   28.47
  -2   2   7  181.81   23.28
  -7  -8   3  179.23   22.65
   7  -8  -3  178.68   22.12
   7  -8  -3  168.04   20.03
   7  -8  -3  200.26   20.40
   7   8  -3  184.04   21.53
   4  -9  -5   14.68    6.86
  -4  -9   5   15.25    6.96
  -4   9   5   11.67    5.60
   4   9  -5   14.52    7.46
   4  -9  -5   14.57    8.91
  -4  -9   5   14.14   14.57
   3 -13  -3  116.44   16.14
   3 -13  -3  102.23   12.39
  -3  13   3  113.28   18.17
  -3 -13   3  129.30   20.36
   3  13  -3  118.74   15.43
  -9   0   2  444.03   43.72
   9   0  -2  541.38   56.00
   9   0  -2  561.73   60.43
   9   0  -2  809.49   76.88
   9   0  -2  507.70   46.54
   8  -5  -3   20.96   10.00
   8  -5  -3   23.50   10.53
   8  -5  -3   24.06   10.47
  -8  -5   3   28.10   11.13
   8   5  -3   31.22    9.80
  -8   5   3   24.39   12.10
   8  -5  -3   23.86    8.02
  -8  -5   3   16.85   10.67
   8   5  -3   27.33    8.72
   4 -11  -4  153.79   16.61
   4  11  -4  159.10   17.31
   4 -11  -4  135.60   18.93
  -4 -11   4  172.37   24.17
  -4  11   4  170.69   21.71
   5  12   2   11.82    8.75
   5 -12   2   11.16   10.76
  -5 -12  -2    4.59   10.43
   5 -12   2   11.45   14.45
   5 -12   2   12.02    7.49
  -5 -12  -2   10.91    8.09
  -5  12  -2   13.34    8.10
  -5 -12  -2   13.21   10.96
   1 -15  -1   99.84   14.42
  -1  15   1  116.77   14.71
   1 -15  -1  135.88   16.61
  -1 -15   1  115.74   19.74
  -1  15   1  108.12   16.91
   1  15  -1  113.47   15.14
   7  10   0   -0.03    9.33
  -7  10   0   -0.26    7.94
   7 -10   0    3.88    8.57
   7 -10   0    0.57   10.27
   7 -10   0    4.32    7.55
  -7 -10   0    0.41    6.93
  -7 -10   0   -0.28   10.57
  -4 -13  -2   44.66   11.59
   4  13   2   45.18   10.04
   4 -13   2   40.42    8.28
  -4 -13  -2   38.35    9.22
   4 -13   2   42.09   11.39
   4 -13   2   35.70   16.07
  -4  13  -2   45.83    9.38
  -4 -13  -2   37.86   11.61
  -4  13  -2   45.58    7.53
   4 -13   2   45.47   12.00
   9  -1  -2  112.13   15.17
   9   1  -2  150.66   19.49
  -9   1   2  146.28   19.88
   9   1  -2  175.50   23.30
   9   1  -2  312.09   38.01
   9  -1  -2  149.12   20.69
   9  -1  -2  138.08   19.28
   9   1  -2  163.40   20.55
   9  -1  -2  155.63   19.72
  -9  -1   2  123.90   19.53
  -7   6   4    2.81    9.95
  -7  -6   4    5.91   11.71
  -7  -6   4    2.18    8.58
   7  -6  -4    1.05    8.85
   7  -6  -4    7.86    9.21
   7  -6  -4    4.47    6.89
   7   6  -4    2.64    8.54
  -3  10   5   72.56   15.14
   3 -10  -5   74.77   10.58
   3 -10  -5   58.23    7.94
  -3  10   5   71.21    8.20
  -3 -10   5   72.76    7.92
   3  10  -5   71.31    9.41
  -3 -10   5   77.35   17.39
  -1  15  -1    7.99    9.57
   1  15   1    1.34   10.27
   1  15   1    0.58    7.82
   1 -15   1    0.58   13.44
  -1 -15  -1    3.29    9.89
  -1  15  -1    2.19    8.14
  -5 -11  -3  361.65   33.15
   5 -11   3  386.89   37.54
  -5 -11  -3  350.66   36.29
   5 -11   3  267.12   27.13
   5  11   3  261.34   28.41
   5 -11   3  393.78   33.91
  -5  11  -3  424.38   36.09
   5 -11   3  373.31   34.89
   5  11   3  331.81   33.64
   6 -10  -3   15.57    7.55
  -6 -10   3   10.65   12.33
  -6  10   3    8.98   10.17
   6 -10  -3   13.51    8.07
   6  10  -3   13.57    8.65
   6 -10  -3   11.89    9.64
  -6  11   2  665.13   65.69
  -6 -11   2  537.28   49.14
   6  11  -2  535.85   51.59
   6 -11  -2  565.18   53.56
  -6  11   2  496.76   41.14
   6 -11  -2  590.41   50.41
   6 -11  -2  556.12   49.81
   6   4   5  218.67   23.32
  -6   4  -5  248.64   24.41
   6   4   5  202.95   23.04
  -6  -4  -5  245.18   24.87
  -6  -4  -5  173.19   17.73
   6  -4   5  234.32   26.47
   6  -4   5  214.07   20.51
   2   8  -6    7.39    7.35
  -2   8   6    9.47    5.97
  -2   8   6    5.83   11.94
   2  -8  -6   10.05    7.27
  -2  -8   6   10.00   11.38
   0 -11   5   28.52   13.42
   0  11  -5   28.31    7.69
   0  11  -5   27.93    7.64
   0 -11  -5   25.12    8.96
   0  11   5   18.30    7.21
   0  11   5   23.22   12.84
   0  11   5   18.40    6.29
  -1  -3  -7  190.04   21.85
  -1   3  -7  143.62   15.42
  -1  -3  -7  174.31   18.73
  -1   3  -7  155.15   17.40
   5 -10  -4   30.75    8.22
   5 -10  -4   23.77    8.51
  -5  10   4   27.70   11.52
   5  10  -4   25.35    8.54
   9   3   1  334.09   39.79
  -9  -3  -1  400.93   37.52
  -9  -3  -1  356.81   33.00
   9  -3   1  366.60   37.82
   9   3   1  375.69   38.61
  -9   3  -1  384.30   34.53
  -2   0  -7   -1.59    8.47
  -2   0  -7   -1.38    7.62
  -2   0  -7   -3.99    7.38
  -2   0  -7    5.67    9.08
  -9  -4   0  388.67   36.99
  -9  -4   0  365.88   33.94
   9   4   0  323.12   38.43
   9  -4   0  364.95   34.17
   9  -4   0  417.10   44.03
  -9   4   0  385.10   35.22
   9   4   0  339.06   41.73
   4  -6  -6   76.45   14.03
   4  -6  -6   79.45   10.96
  -4  -6   6   79.29   15.02
  -4   6   6   75.13   14.79
   4   6  -6   74.20   10.21
  -1 -11   5    2.82   13.32
  -1  11   5    0.80    5.73
   1  11  -5    3.92    7.13
   1  11  -5    1.72    6.84
  -1  11   5    3.63   11.52
  -1  11   5    2.60    6.56
   7   9   2    2.57    7.98
   7  -9   2   -0.07    7.18
   7  -9   2   -2.48   11.01
  -7  -9  -2   -0.34   10.28
   7   9   2   -3.35    9.26
   7   9   2    3.37    9.62
  -7  -9  -2    3.14    8.74
  -7   9  -2    3.80    8.88
  -7 -10   1   94.76   13.79
  -7 -10   1   95.54   16.49
  -7  10   1  172.57   20.26
   7 -10  -1  114.11   16.48
   7 -10  -1  123.57   15.96
  -7  10   1   90.08   13.78
   7 -10  -1  103.78   13.76
  -5   7  -5  462.30   38.19
  -5  -7  -5  375.09   34.20
   5  -7   5  456.83   38.41
   5   7   5  380.00   37.08
   5   7   5  409.32   38.90
   5  -7   5  449.51   42.35
  -5   7  -5  448.49   38.46
  -5  -7  -5  481.30   42.51
   5   7   5  419.25   37.94
  -7   0   5    1.64    9.87
   7   0  -5   -2.11   10.14
   7   0  -5   -0.61    7.48
  -7   0   5   -0.28    5.96
   8   4   3   23.51    9.63
   8   4   3   19.21   13.21
  -8  -4  -3   16.34    9.86
   8  -4   3   26.83   12.81
   8  -4   3   18.06    8.45
  -8   4  -3   22.77    7.94
  -2  -1  -7  186.98   19.70
  -2   1  -7  165.73   19.37
  -2  -1  -7  195.27   21.01
  -2   1  -7  168.71   18.66
  -2   1  -7  178.19   18.64
  -2   1  -7  178.19   19.67
  -2  -1  -7  168.33   18.72
  -2  -1  -7  175.10   20.44
   8  -7  -2   70.03   10.70
  -8  -7   2   68.70   14.40
   8  -7  -2   86.45   12.79
   8  -7  -2   82.02   15.24
  -8   7   2   70.69   11.60
   8   7  -2   75.99   11.47
  -8  -7   2   84.83   15.26
  -9   2   2  115.83   17.60
   9   2  -2  108.27   15.99
   9  -2  -2  126.87   20.32
   9  -2  -2   93.41   15.75
   9   2  -2  119.92   17.96
  -9  -2   2  125.49   16.73
  -9  -2   2  105.72   17.90
   9   2  -2  126.11   18.78
   9  -2  -2  131.68   17.64
   0   4  -7  106.17   13.99
   0   4  -7  176.67   21.79
   0  -4  -7  117.98   15.18
   0   4  -7  136.79   18.11
   0   4   7  117.53   19.51
   4  -5   6  571.00   50.86
  -4   5  -6  466.44   39.32
  -4   5  -6  598.55   50.49
   4   5   6  855.27   72.54
  -4  -5  -6  512.64   45.28
   4   5   6  470.41   43.74
   8   0  -4   26.43    8.65
  -8   0   4   52.67   21.82
   8   0  -4   40.44   13.98
  -2  15   0  655.92   57.03
   2  15   0  726.52   61.14
  -2 -15   0  753.14   66.49
  -2  15   0  805.37   67.31
   2  15   0  686.74   59.90
   2 -15   0  815.59   70.45
  -2   3   7   49.12   13.57
  -2  -3   7   64.78   17.43
   2   3  -7   59.93   11.33
   2  -3  -7   53.29   10.27
   2   3  -7   97.52   20.21
   7   1  -5   11.64    6.97
   7  -1  -5    9.66    7.58
   7   1  -5    5.36    7.32
  -7   1   5    3.20    9.57
  -7  -1   5    9.93   10.02
   7  -1  -5    5.06    8.54
   7   1  -5   41.87   30.29
  -3 -13  -3  160.31   18.51
  -3  13  -3  159.45   16.30
  -3  13  -3  144.78   16.89
  -3 -13  -3  122.97   16.13
  -3  13  -3  171.85   17.04
   3  13   3  117.74   16.23
   3 -13   3  145.45   22.89
   7   5   4  254.58   29.84
   7  -5   4  266.75   29.33
  -7  -5  -4  296.45   29.54
  -7   5  -4  304.55   26.40
  -7  -5  -4  274.79   24.95
   7  -5   4  296.69   26.74
  -7  -5  -4  235.36   26.36
   7   5   4  278.25   28.56
  -7   5  -4  302.91   27.42
  -9   4   1   88.16   14.95
   9   4  -1   80.97   16.37
   9  -4  -1   85.54   17.22
   9  -4  -1   84.22   14.26
   9   4  -1   78.81   12.37
  -9  -4   1  101.15   15.98
  -9  -4   1  105.32   15.80
   5 -13   0    7.52    9.96
   5 -13   0    4.42    9.55
   5 -13   0    5.84    8.24
   5  13   0    4.20    7.98
  -5 -13   0    9.59   13.26
  -5  13   0    5.08    7.39
  -5  13   0    4.28    9.82
   0 -14   3  454.88   46.16
   0  14   3  381.12   35.25
   0  14  -3  454.40   40.10
   0 -14  -3  333.39   30.72
   0  14   3  402.45   39.48
  -8  -8   0  526.48   47.82
  -8  -8   0  486.56   45.48
   8  -8   0  568.83   48.40
  -8   8   0  536.98   48.23
   8   8   0  501.19   52.05
   8   8   0  476.98   43.86
   8   8   0  539.78   47.45
   8  -8   0  559.09   50.64
   5   0   6  595.63   53.07
  -5   0  -6  527.67   43.72
  -5   0  -6  626.18   52.89
   1  -4  -7   54.79   11.70
  -1   4   7   40.79   13.82
   1   4  -7  230.08   49.26
   1   4  -7   49.16    9.42
   1   4  -7   55.68   10.59
   3 -14  -2    2.41    9.21
   3  14  -2   -0.09    8.35
  -3 -14   2   -3.02   13.75
   3 -14  -2   -1.89    7.12
  -3  14   2    2.47   10.31
   8  -1  -4    5.94    9.08
  -8   1   4    5.03   19.11
  -8  -1   4   12.87   18.20
   8  -1  -4    0.25    7.78
   8   1  -4   -5.20   23.70
   8   1  -4    2.26    8.06
  -3 -12   4    8.54   14.40
   3 -12  -4   10.59    8.23
   3 -12  -4   11.77    6.55
   3  12  -4   11.37    8.34
  -3  12   4   12.07   13.11
  -5   8   5    2.70    6.04
   5  -8  -5    1.22    6.69
  -5  -8   5    0.26    6.74
   5   8  -5    3.88    7.81
   5  -8  -5    3.05    8.53
  -5   8   5    6.24   10.23
  -5  -4   6  472.27   45.21
  -5   4   6  383.43   37.78
   5   4  -6  401.93   36.80
   5  -4  -6  373.77   33.77
   5  -4  -6  404.78   39.81
   1 -11   5   13.12   12.13
   1  11   5   17.02   13.43
  -1 -11  -5    8.15    8.63
  -1  11  -5   13.50    6.89
  -1  11  -5    5.72    7.38
   1  11   5    7.79    6.48
   1  11   5    7.97    6.21
   6  -6  -5   -0.19    8.50
  -6   6   5    1.63    9.91
   6  -6  -5    1.12    6.46
  -6   6   5    2.47    6.10
  -6  -6   5    1.29   10.96
   6   6  -5    2.48    8.33
   6  -6  -5    1.79   10.13
   5   1   6    5.79   11.06
  -5  -1  -6    1.98    6.18
  -5   1  -6   -4.14    9.15
  -5  -1  -6    1.31    6.83
   5  -1   6    1.06   10.80
  -5  -1  -6   -1.05    8.50
  -2   2  -7    3.25    8.23
  -2  -2  -7    2.45    8.79
  -2   2  -7    0.50    7.56
  -2   2  -7    2.94    6.87
  -2  -2  -7   -0.71    6.99
  -1 -14   3  124.20   21.93
   1 -14  -3   98.45   15.53
   1  14  -3  109.70   14.17
  -1  14   3   88.45   12.57
  -1  14   3   95.68   16.50
  -7 -10  -1  141.95   17.70
  -7  10  -1  151.81   18.47
  -7 -10  -1  154.03   21.47
   7 -10   1  154.40   20.93
   7  10   1  150.84   19.03
  -7 -10  -1  149.37   20.40
   7 -10   1  150.11   19.47
  -3   0   7    2.24   11.57
   3   0  -7    0.90   11.03
   3   0  -7    1.12    6.80
  -8   8   1   72.02   13.07
   8  -8  -1   74.13   13.63
   8  -8  -1   97.26   13.76
  -8  -8   1   73.64   13.31
  -8  -8   1   85.28   13.68
   7   2  -5  164.79   18.02
   7  -2  -5  146.23   17.59
   7   2  -5  359.57   41.77
  -7   2   5  146.94   19.05
   7   2  -5  174.26   19.46
   7  -2  -5  174.47   18.82
  -7  -2   5  165.00   21.06
   6   8   4   41.18    9.42
  -6  -8  -4   56.93   10.79
  -6  -8  -4   39.08    9.07
  -6  -8  -4   47.63    8.01
  -6   8  -4   53.51    8.65
   6  -8   4   55.69    8.42
   6   8   4   53.92   13.79
   6   8   4   57.41   11.35
  -6  11  -2  556.88   47.18
   6 -11   2  549.02   49.61
   6  11   2  466.38   44.65
  -6 -11  -2  547.89   49.85
   6  11   2  453.77   45.08
  -6 -11  -2  467.89   40.78
   6 -11   2  541.40   45.20
  -6 -11  -2  472.72   44.35
   4  14   0    6.76    8.53
  -4 -14   0    2.66   12.33
   4 -14   0   10.59   10.94
   4 -14   0    7.86   10.11
  -4  14   0    8.63    8.87
   4 -14   0   10.33    8.03
  -4  14   0   12.53   10.97
  -2  -8  -6   15.35    7.78
  -2   8  -6   21.15   10.71
   2  -8   6   17.78   10.02
  -2   8  -6   21.24    8.53
  -2   8  -6   16.15    6.89
  -2  -8  -6   25.05   11.46
  -3  -7  -6   20.72   10.04
  -3   7  -6   21.88   11.00
  -3  -7  -6   15.24    7.78
  -3   7  -6   35.89   16.13
  -3   7  -6   25.69    9.24
   3  -1  -7   15.35    8.51
   3   1  -7    8.74    8.44
   3   1  -7   12.73   11.18
  -3   1   7   13.35   12.28
  -3  -1   7    7.54   11.65
  -5  13   1    9.15    7.31
  -5 -13   1    6.53   12.35
  -5  13   1    5.87   11.95
   5 -13  -1    7.13    8.41
   5  13  -1   11.75    9.22
   5 -13  -1    8.37    7.65
   5 -13  -1    8.75   10.58
   3  14   2  217.32   24.04
  -3  14  -2  295.38   26.10
  -3 -14  -2  201.72   23.82
   3 -14   2  256.95   32.26
  -3  14  -2  281.88   27.23
  -3  14  -2  253.89   23.41
  -3 -14  -2  242.34   23.93
  -2 -15   1   21.38   14.93
   2 -15  -1   20.10    8.21
  -2  15   1   22.60   11.90
  -2  15   1   23.66    8.63
   2  15  -1   20.15   10.01
   2 -15  -1   13.01    9.53
  -8  -2   4  828.38   78.45
  -8   2   4  762.06   72.88
   8  -2  -4  435.74   40.93
   8  -2  -4  489.67   47.01
   8   2  -4  463.19   46.25
   8  -2  -4  468.12   49.36
   8   2  -4  841.71   79.34
   8   2  -4  469.11   43.61
   1 -14   3  215.21   28.43
  -1  14  -3  279.53   26.00
   1  14   3  238.80   24.03
   1  14   3  258.79   29.45
  -1 -14  -3  182.09   26.39
   4 -11   4   65.80   12.07
   4 -11   4   79.83   13.28
   4 -11   4   65.30   13.55
  -4  11  -4   73.75    8.76
  -4 -11  -4   71.47   11.11
  -4 -11  -4   50.36    9.67
   4 -11   4   68.83    8.33
   4  11   4   49.48    9.46
  -1   4  -7  135.45   15.53
  -1   4  -7  164.14   20.29
  -1  -4  -7  165.11   20.53
  -1  -4  -7  147.93   16.77
  -1   4  -7  163.65   17.72
  -3  10  -5   66.21    9.35
  -3  10  -5   67.64    8.55
  -3 -10  -5   59.60   11.57
  -3 -10  -5   55.93   10.15
   3  10   5   46.55    9.21
  -3  10  -5   68.97    8.09
   3 -10   5   63.31   12.16
   9   3  -2   25.70   11.98
   9  -3  -2   19.46    9.36
   9  -3  -2   22.44   12.17
   9   3  -2   21.06   10.55
  -9  -3   2   24.68   10.69
   9  -3  -2   29.37    9.67
  -9   3   2   27.24   12.46
  -9  -3   2   19.02   12.25
  -5  -2  -6    8.01    6.96
  -5   2  -6   10.80    9.73
   5   2   6    5.65   10.72
  -5  -2  -6   10.35   10.28
  -5  -2  -6    6.25    6.36
   5  -2   6    7.30   12.00
   0  13   4  111.22   27.15
   0  13   4  118.41   25.37
   0  13  -4  143.48   11.39
   0 -13   4  112.04   28.25
   9   0   2   32.71   14.83
   9   0   2   38.89    9.68
  -9   0  -2   41.34    9.22
  -2  15  -1  516.82   47.64
   2 -15   1  610.94   57.36
  -2  15  -1  488.27   62.98
   2  15   1  612.99   56.98
   2  15   1  527.22   50.31
   6 -12   0   20.01   11.34
   6  12   0   11.60    9.61
  -6  12   0   17.29    8.98
  -6 -12   0   20.27   12.45
   6 -12   0   21.89    8.42
   6 -12   0   19.13   10.75
   9   4   1  121.49   20.71
  -9  -4  -1  112.94   13.93
  -9   4  -1  111.07   14.77
   9   4   1  117.78   16.72
  -9  -4  -1  130.17   18.14
   9  -4   1  143.28   22.08
   9  -4   1  132.60   16.67
  -2  11   5   62.35   19.72
  -2  11   5   54.48   13.36
  -2 -11   5   68.82   21.98
   2 -11  -5   51.22   13.98
   2  11  -5   67.66   15.98
  -2  11   5   59.49   13.97
   2  11  -5   69.85   16.36
   4   9   5   40.64   11.77
   4  -9   5   58.31   17.10
  -4   9  -5   61.67   14.16
   4  -9   5   65.65   16.94
  -4  -9  -5   41.32   11.96
   4  -9   5   53.40   15.29
   4  -9   5   57.68   13.76
  -4  -9  -5   54.77   15.42
  -4   9  -5   61.60   15.14
  -9   1  -2   77.82   12.16
   9  -1   2   81.30   17.87
  -9  -1  -2   77.22   12.01
   9  -1   2   77.24   12.37
   9   1   2   70.68   10.87
   9   1   2   71.20   17.28
   7   8   3   39.33   12.28
   7  -8   3   43.66   15.95
   7   8   3   29.49   12.36
  -7  -8  -3   41.76   13.32
  -7   8  -3   41.51   13.24
  -7  -8  -3   25.54   11.52
   7  -8   3   47.41   12.47
   6   5   5   78.29   20.08
   6  -5   5   93.16   24.15
  -6   5  -5   96.59   21.93
   6  -5   5   86.21   19.09
  -6  -5  -5   96.88   22.62
  -6  -5  -5   80.53   18.34
   6   5   5   83.48   19.94
  -6 -10  -3   83.92   19.41
  -6 -10  -3   74.64   18.84
   6  10   3   50.21   15.41
   6  10   3   77.72   18.77
  -6  10  -3   94.70   20.96
   6 -10   3   98.56   21.47
   6 -10   3   98.87   24.27
  -5 -13  -1   95.67   21.59
  -5  13  -1  101.73   22.71
   5  13   1   82.38   20.10
   5 -13   1  106.48   22.88
   5 -13   1   93.70   24.36
   5 -13   1   97.52   23.86
  -5 -13  -1   87.78   23.07
   1  13  -4   63.63   15.63
   1 -13  -4   45.11   12.93
  -1  13   4   49.00   16.16
  -1  13   4   47.11   12.83
  -1 -13   4   31.77   15.81
   0   9  -6  175.25   24.04
   0  -9   6  163.91   25.70
   0  -9  -6  135.02   28.95
   0   9   6  111.60   24.01
   0   9   6  137.35   32.49
  -3  -2   7   30.86   13.74
   3   2  -7   29.10   10.74
   3   2  -7   31.19   12.01
  -3   2   7   20.77   12.22
   3  -2  -7   19.27    8.27
   8  -6  -3    0.23   10.16
   8   6  -3   -0.64    8.67
  -8  -6   3    0.57   10.37
  -8   6   3    7.14   11.53
   8  -6  -3    4.20    8.03
   8  -6  -3    5.01    9.53
   8  -6  -3    3.12    8.56
  -8  -6   3    8.92   11.01
   4 -14  -1   60.77   16.42
  -4 -14   1   69.76   20.12
   4  14  -1   65.53   17.73
   4 -14  -1   66.95   15.87
   4 -14  -1   72.24   17.81
  -4  14   1   63.65   17.18
   2  -4  -7   17.01   10.26
   2   4  -7   11.70    8.07
  -2   4   7   10.13   12.03
   2   4  -7   37.58   24.87
   8   8   1  307.42   42.43
   8  -8   1  329.23   46.14
   8  -8   1  339.84   44.68
   8   8   1  306.44   40.46
  -8  -8  -1  311.45   43.04
   8   8   1  352.28   46.67
   8   8   1  302.25   45.01
  -8   8  -1  342.25   45.40
  -8  -8  -1  303.47   41.12
   0  15  -2  431.74   55.75
   0 -15  -2  468.54   60.00
   0  15   2  401.21   53.96
   0  15   2  403.89   54.07
   0 -15  -2  421.80   56.71
   0 -15   2  572.72   76.23
  -2   3  -7  201.47   28.66
  -2  -3  -7  240.52   33.75
  -2   3  -7  198.79   26.84
  -2   3  -7  207.86   28.62
  -2  -3  -7  215.35   29.18
   3 -12   4  380.53   51.24
  -3  12  -4  405.02   51.18
  -3  12  -4  411.94   52.43
  -3  12  -4  409.28   51.73
  -3 -12  -4  296.28   41.99
   3  12   4  284.95   38.90
  -3 -12  -4  395.28   51.48
   9  -5   0  461.55   65.06
  -9   5   0  443.14   57.81
   9   5   0  430.50   59.92
   9  -5   0  448.91   58.92
  -9  -5   0  459.73   60.62
   9   5   0  416.63   59.54
  -9  -5   0  411.29   53.35
   6   9  -4  106.00   23.50
   6  -9  -4  108.00   25.01
  -6  -9   4  108.11   27.03
   6  -9  -4  106.13   22.95
   6  -9  -4   93.52   22.46
  -8   7  -2  171.73   24.73
   8   7   2  147.70   23.51
   8  -7   2  172.46   24.48
  -8  -7  -2  145.32   22.98
   8   7   2  130.92   29.97
  -8  -7  -2  157.93   24.85
   8  -7   2  168.56   26.82
  -1   9   6  328.66   43.73
  -1  -9   6  472.70   62.03
   1   9  -6  448.55   57.02
   1  -9  -6  297.12   40.77
  -6  12   1    1.23    6.24
  -6  12   1    3.49   10.57
  -6 -12   1    1.36   10.68
   6 -12  -1    6.74    9.58
   6 -12  -1    3.74    8.23
  -6  12   1    5.42    6.68
   6 -12  -1    0.38    9.67
  -7   3   5   24.76   11.11
  -7  -3   5   24.60   10.78
   7   3  -5   27.84    8.69
   7  -3  -5   29.96    7.62
   7   3  -5   24.38    7.16
   7  -3  -5   26.54    9.96
  -7  -3   5   25.90   11.41
   8  -5   3  164.85   23.08
   8   5   3  141.81   13.78
  -8   5  -3  161.10   22.89
  -8  -5  -3  173.37   26.60
   8   5   3  135.61   31.62
   8  -5   3  143.95   18.07
   5  10   4    6.48    7.90
  -5  10  -4   13.62    7.20
   5 -10   4   11.89   11.93
  -5 -10  -4   13.09    8.24
   5 -10   4   16.03    7.37
  -5 -10  -4   17.26    8.98
  -1  13  -4   43.86   11.94
  -1 -13  -4   37.57   12.21
   1  13   4   28.55    7.64
   1 -13   4   46.12   17.51
   1  13   4   31.11   13.35
   4 -14   1  477.63   60.39
  -4  14  -1  512.32   65.97
   4 -14   1  504.66   65.65
   4  14   1  417.09   58.72
  -4 -14  -1  456.81   61.49
   4 -14   1  534.89   70.77
  -4  14  -1  550.01   68.30
   4 -14   1  541.08   68.45
  -4 -14  -1  416.96   53.85
   0   5  -7   96.12   22.63
   0   5  -7   94.19   21.10
   0   5  -7  293.83   47.74
   0  -5  -7   86.34   20.10
   0   5   7   96.31   25.77
  -8  -3   4   29.34   10.96
   8   3  -4   27.36    7.89
   8  -3  -4   25.74   11.61
  -8  -3   4   32.95   17.48
   8   3  -4   26.35    9.85
   8  -3  -4   27.12    8.40
  -8   3   4   43.61   20.39
   8  -3  -4   27.01    9.86
   9   2   2  133.49   31.89
   9   2   2  138.40   29.88
   9  -2   2  132.09   28.08
  -9   2  -2  129.43   27.61
  -9  -2  -2  121.62   25.98
   9  -2   2  133.31   31.79
  -3   8   6    2.46   12.41
  -3  -8   6    3.10   12.79
   3  -8  -6    0.49    6.79
   3   8  -6    2.99    7.72
  -1 -15   2   67.58   22.06
  -1  15   2   62.03   17.56
   1 -15  -2   55.15   15.26
  -1  15   2   63.48   16.18
   1  15  -2   62.50   15.86
   9  -5  -1    2.21   12.67
   9   5  -1    3.58    7.74
  -9   5   1   10.52   11.69
  -9  -5   1    2.94    9.87
  -9  -5   1    0.47    9.47
  -7   7   4  115.87   26.42
   7  -7  -4  104.03   24.34
   7  -7  -4  118.93   27.73
   7  -7  -4  128.58   27.13
  -7  -7   4  141.68   17.41
   7   7  -4  112.20   24.77
   5  -3   6   28.58   11.97
  -5  -3  -6   26.94    7.26
   5   3   6   30.02   12.09
  -5  -3  -6   25.23    9.60
  -5   3  -6   32.91   10.71
  -5  -3  -6   31.18    7.50
  -1   5   7   -1.41   12.04
   1   5  -7   -0.01    7.27
   1   5  -7    1.68   18.21
   1  -5  -7    0.27    9.31
   2  14  -3   17.22    8.52
   2 -14  -3   13.84    9.16
  -2 -14   3   17.88   15.57
  -2  14   3   20.76   11.48
  -2  14   3   15.30    7.85
   5  -5  -6   15.85    7.15
   5   5  -6   23.64    9.37
  -5  -5   6   25.60   12.41
  -5   5   6   17.28   12.10
   5  -5  -6   17.02   10.90
  -1  15  -2    3.24    7.89
   1  15   2    6.26   12.15
   1 -15   2    7.08   16.40
   1  15   2    9.59    8.11
  -1 -15  -2    7.11    7.99
   7 -10  -2   44.32   12.61
  -7  10   2   45.87   15.72
   7 -10  -2   38.12   11.88
  -7  10   2  158.77   34.44
   7 -10  -2   35.67   11.54
  -7 -10   2   39.88   14.36
   7  10  -2   29.20   10.40
  -2 -11  -5  294.33   41.74
  -2  11  -5  396.74   50.13
   2  11   5  373.10   52.68
  -2  11  -5  398.36   50.60
  -2  11  -5  361.30   46.47
  -2  11  -5  321.34   42.72
   2  11   5  252.89   35.64
   2 -11   5  356.72   48.37
   1   9   6   32.57   15.02
   1  -9   6   33.18   11.46
  -1   9  -6   39.49   11.42
  -1  -9  -6   29.51    8.83
  -1   9  -6   42.82   11.30
  -4   6  -6    4.82    5.60
  -4   6  -6    5.70    9.17
   4   6   6    6.63    7.54
   4  -6   6   10.17   11.55
  -4  -6  -6    7.18    7.75
  -4  -6  -6    4.87    9.49
   7   6   4   28.24    9.58
   7   6   4   22.67   13.47
   7  -6   4   31.02    7.56
  -7  -6  -4   18.77    9.82
  -7  -6  -4   29.69   10.95
  -7   6  -4   24.82    8.99
   7  -6   4   20.41   12.86
   6 -12   1   82.22   18.71
   6  12   1   65.83   16.94
   6 -12   1   75.77   21.32
   6 -12   1   92.35   23.08
  -6  12  -1   71.55   17.59
  -6 -12  -1   73.39   18.00
  -6 -12  -1   80.58   21.73
   4  -7  -6    2.05    7.31
   4   7  -6    3.99    8.15
   4  -7  -6    0.38    9.85
  -4   7   6   14.19   12.09
  -4  -7   6    4.17   11.69
  -9  -4   2   -1.96    9.33
  -9  -4   2    0.05   11.36
  -9   4   2    1.67   11.39
   9  -4  -2    1.01   10.84
   9   4  -2   -6.90    9.43
   9  -4  -2   -0.02    8.72
   9   4  -2    3.48    7.28
   9  -4  -2   -1.38    9.03
   3   3  -7  204.58   30.01
  -3   3   7  184.09   30.74
   3   3  -7  599.97   86.85
  -3  -3   7  221.31   35.04
   3  -3  -7  169.43   26.18
   5  12  -3   35.06    9.64
   5 -12  -3   33.91    9.16
   5 -12  -3   36.96    8.48
  -5  12   3   26.81   10.18
  -5 -12   3   34.81   13.72
   7   9  -3  193.07   28.34
   7  -9  -3  219.02   30.01
   7  -9  -3  195.87   29.23
   7  -9  -3  197.37   28.19
  -7  -9   3  203.20   31.22
  -2 -14  -3   29.94   10.52
   2  14   3   24.45    8.08
   2  14   3   34.87   14.65
  -2  14  -3   28.46    8.25
   2 -14   3   19.16   15.49
   6   0  -6  233.84   32.75
  -6   0   6  287.29   41.34
   6   0  -6  232.74   31.94
  -1   5  -7  205.05   34.41
  -1  -5  -7   83.18   19.07
  -1   5  -7   82.16   18.72
  -1   5  -7  107.69   25.45
  -3  15   0  136.51   29.55
   3  15   0  113.20   25.63
   3 -15   0  135.23   30.69
   3  15   0  122.16   28.23
  -3  15   0  110.69   25.43
   3 -15   0  136.34   28.53
  -4  13   3   26.14   12.00
   4 -13  -3   25.44    9.91
   4 -13  -3   25.16    7.97
   4  13  -3   28.16    9.45
  -3   0  -7    2.44    8.60
  -3   0  -7    1.51    8.24
  -3   0  -7    0.97    7.89
  -2 -13   4   52.55   19.83
  -2  13   4   44.98   16.57
   2  13  -4   55.07   14.86
  -2  13   4   50.03   13.03
   2 -13  -4   51.75   14.76
   9   3   2  122.74   30.34
  -9  -3  -2  151.16   22.59
   9   3   2  146.32   22.91
   9  -3   2  141.90   21.39
   9  -3   2  165.11   23.95
  -5  -8  -5  222.43   31.22
  -5   8  -5  261.35   34.45
  -5  -8  -5  167.16   23.62
   5  -8   5  213.70   29.53
   5   8   5  171.39   27.64
   5  -8   5  212.27   31.92
   4 -10  -5  511.17   65.17
  -4 -10   5  594.17   78.25
  -4  10   5  459.58   67.90
   4 -10  -5  511.02   67.65
   4  10  -5  524.58   66.36
  -6  -1   6   37.31   15.52
  -6   1   6   31.30   12.30
   6  -1  -6   24.48    8.69
   6   1  -6   39.40   15.64
   6   1  -6   26.18    8.11
   6  -1  -6   24.84    7.26
   9   5   1  345.85   48.41
  -9  -5  -1  357.08   46.52
   9  -5   1  375.37   50.28
  -9  -5  -1  395.42   52.94
   9  -5   1  362.95   52.86
   9   5   1  334.62   48.52
  -2   9   6  241.29   33.02
   2   9  -6  266.68   35.25
  -2  -9   6  325.75   45.12
  -2   4  -7    9.73    8.50
  -2   4  -7   11.53    8.88
  -2  -4  -7   16.98   10.65
  -2  -4  -7    8.31    7.73
  -2   4  -7   10.19    6.40
   8  -8  -2   82.76   20.81
   8  -8  -2   81.42   18.73
  -8  -8   2   83.72   21.60
   8   8  -2   79.38   19.57
   8  -8  -2   71.67   17.86
  -6   7   5   78.66   20.12
   6  -7  -5   79.77   17.97
   6  -7  -5   76.73   18.76
   6  -7  -5   98.49   23.25
  -6  -7   5   98.94   24.86
   6   7  -5   91.01   20.61
  -3  -1  -7  360.70   46.14
  -3  -1  -7  380.89   49.42
  -3   1  -7  382.81   49.77
  -3  -1  -7  373.44   49.33
  -3   1  -7  398.81   51.01
   7  -4  -5   51.90   13.62
   7  -4  -5   42.17   13.50
  -7  -4   5   43.75   14.67
  -7   4   5   49.35   15.47
   7  -4  -5   35.54   10.16
   7   4  -5   49.65   14.46
  -7  -4   5   54.11   16.95
  -9   0   3   -3.85   11.46
   9   0  -3    0.70   10.94
   9   0  -3   -0.28    8.58
   9   0  -3   -0.04   11.52
   5 -13  -2   29.79    9.91
   5 -13  -2   22.65   10.22
   5 -13  -2   30.01    8.66
  -5  13   2   20.35   10.88
  -5 -13   2   28.04   13.36
   5  13  -2   31.46    9.36
   8   4  -4  996.82  133.32
  -8  -4   4 1340.58   63.00
  -8   4   4 1464.88   57.97
   8  -4  -4 1081.81  137.80
   8  -4  -4 1065.42  150.03
  -8  -4   4 1023.09  127.71
   8  -4  -4  934.97  125.34
   2   5  -7  292.96   44.54
  -2   5   7  134.28   31.06
   2   5  -7  125.83   27.32
   2  -5  -7  138.66   30.27
   8   0   4  210.51   32.04
   8   0   4  212.60   29.95
   9   1  -3  348.59   59.40
  -9   1   3  106.62   25.75
   9   1  -3  127.51   28.41
   9  -1  -3  133.72   29.38
   9  -1  -3  136.57   31.75
  -9  -1   3   83.22   21.57
   9  -1  -3  118.87   26.25
   5   4   6  141.33   16.69
   5  -4   6  149.09   24.45
  -5   4  -6  165.35   24.65
  -5  -4  -6  124.36   26.18
  -2  15   2  188.94   26.88
  -2  15   2  199.30   30.01
  -2 -15   2  223.56   34.48
   2 -15  -2  186.85   27.81
   2  15  -2  182.21   27.22
   6   6   5  346.40   45.99
   6  -6   5  382.60   48.55
  -6   6  -5  397.67   50.82
  -6  -6  -5  341.45   44.95
  -6  -6  -5  269.88   36.03
   6  -6   5  378.83   51.34
   6   6   5  328.37   45.15
  -3  15   1  438.83   58.03
  -3  15   1  443.82   57.46
   3  15  -1  441.33   64.63
   3 -15  -1  451.94   63.41
   7 -11   0   36.03   10.58
  -7 -11   0   31.53    8.24
  -7  11   0   29.20    9.53
   7  11   0   26.70    9.66
  -7 -11   0   31.26   12.40
   7 -11   0   29.73   11.64
   7 -11   0   34.28    9.34
   6   2  -6   99.47   22.26
  -6   2   6  101.62   24.65
  -6  -2   6  111.29   27.66
   6   2  -6   87.08   20.02
   6  -2  -6   79.27   17.85
   6  -2  -6   70.46   17.19
   6   2  -6  333.97   61.12
   7   0   5   -3.03   10.10
   7   0   5    0.10    7.17
  -7   0  -5   -3.37   11.25
  -8  -9   0  170.37   24.44
   8  -9   0  192.07   26.39
  -8   9   0  183.64   27.28
   8   9   0  166.46   24.75
  -8  -9   0  179.77   27.27
   8  -9   0  169.08   26.77
  -3   2  -7   97.79   21.75
  -3  -2  -7   99.65   23.32
  -3   2  -7   91.95   20.98
  -3  -2  -7   87.05   20.75
  -3  -2  -7   96.44   21.19
  -3  11   5   81.09   22.52
  -3 -11   5   85.21   24.79
   3 -11  -5   71.12   16.12
   3  11  -5   89.48   20.31
   3 -11  -5   78.52   18.62
   8   1   4  137.69   32.49
   8  -1   4  139.99   16.92
   8  -1   4  152.64   22.00
   8   1   4  132.93   28.67
  -8  -1  -4  143.03   13.52
   7  10   2   40.96   14.24
  -7 -10  -2   52.08   17.79
  -7 -10  -2   40.71   12.85
  -7  10  -2   51.13   14.09
   7  10   2   43.28   13.41
   7 -10   2   48.19   12.39
   7 -10   2   44.24   16.43
   2  13   4  105.35   24.67
  -2  13  -4  163.32   22.90
   2  13   4  153.73   27.89
   2 -13   4  150.22   25.67
  -2 -13  -4  120.46   27.27
  -6  11   3    2.15    9.64
   6 -11  -3    1.53    8.63
   6 -11  -3   -0.55    9.30
   6  11  -3    6.37    9.58
   6 -11  -3   -0.05    7.38
  -6 -11   3    4.31   12.31
   5  -9  -5   46.14   13.67
   5   9  -5   47.18   13.05
   5  -9  -5   51.19   13.51
   9   6   0  128.70   30.31
   9   6   0  124.08   27.41
   9  -6   0  134.40   31.70
  -9  -6   0  138.12   31.23
   9  -6   0  129.89   28.03
  -9  -6   0  127.72   27.57
   7   1   5    7.41   11.32
   7  -1   5   13.08    7.82
   7   1   5   14.49    8.05
  -7   1  -5   11.25   10.61
   7  -1   5   13.64   11.32
  -3  -8  -6  215.90   31.31
  -3   8  -6  228.25   30.83
   3  -8   6  211.37   30.27
  -3  -8  -6  175.45   25.09
  -3   4   7  231.18   34.67
   3  -4  -7  240.64   34.64
   3   4  -7  565.63   77.60
  -3  -4   7  279.14   43.65
   3 -15   1   36.83   15.44
   3  15   1   32.03   10.31
  -3  15  -1   34.90   10.94
  -3 -15  -1   30.22   12.61
  -3  15  -1   27.32    7.75
   4 -12  -4   13.98    7.22
   4 -12  -4   10.43    8.46
   4  12  -4   13.24    8.01
  -4 -12   4    8.96   13.35
  -4  12   4   11.49   12.74
  -2 -15  -2    4.05    9.97
   2  15   2    2.01   13.83
  -2  15  -2    5.41    8.09
   2  15   2    4.12    8.60
   2 -15   2    9.90   15.91
   5 -11  -4  200.63   29.99
  -5  11   4  200.41   30.68
   5 -11  -4  228.17   30.41
   5  11  -4  233.15   32.25
   4  14  -2  262.09   38.16
   4 -14  -2  272.27   39.38
   4 -14  -2  298.12   38.79
  -4  14   2  249.02   36.12
   4 -14  -2  238.96   33.62
   8   6   3  140.49   14.45
  -8  -6  -3  156.44   24.17
  -8   6  -3  139.05   29.30
  -8  -6  -3  141.08   15.51
   8   6   3  108.88   26.49
   8  -6   3  148.76   21.64
  -8   7   3  117.29   28.16
   8  -7  -3   97.16   21.98
   8  -7  -3   94.18   23.30
   8  -7  -3   89.25   21.37
   8   7  -3   92.42   21.58
  -8  -7   3  108.70   25.99
   9   2  -3  216.40   37.40
   9  -2  -3  131.72   28.59
   9   2  -3  116.63   27.02
   9  -2  -3  107.04   26.23
  -9   2   3  115.11   27.60
  -9  -2   3   65.49   18.91
   9  -2  -3  113.20   25.89
  -4   0   7    1.73   11.84
   4   0  -7    5.32    8.12
  -4  13  -3    6.42    8.49
   4 -13   3   10.74    7.05
   4  13   3    6.46    7.86
  -4 -13  -3    4.14    9.41
   4 -13   3    5.64   10.83
   4 -13   3   14.25   13.65
  -4 -13  -3    7.15    8.32
   5  12   3   71.70   17.58
  -5 -12  -3   83.15   19.44
   5 -12   3   79.55   21.39
  -5  12  -3   93.95   21.30
  -5 -12  -3   69.99   18.43
   5 -12   3   90.22   20.10
   7 -11  -1  306.11   41.84
   7 -11  -1  265.45   36.84
  -7  11   1  231.15   32.28
  -7 -11   1  269.50   37.82
   7 -11  -1  283.80   39.24
   0   6  -7  636.27   83.49
   0  -6  -7  303.36   41.39
   0   6   7  321.66   45.59
   0   6  -7  281.47   37.51
  -8  -9   1    5.41    8.59
   8  -9  -1    1.79    8.67
  -8   9   1    2.30    9.61
  -8  -9   1    2.37    9.99
   8  -9  -1   -5.58    9.55
   6 -12  -2  110.47   24.03
   6  12  -2  102.09   23.92
   6 -12  -2  111.53   26.00
  -6 -12   2  106.23   26.03
   6 -12  -2  124.01   27.44
  -6  12   2  111.90   27.20
   6  -9   4  497.76   62.22
   6   9   4  406.96   57.34
  -6   9  -4  473.72   59.42
   6   9   4  429.77   58.71
  -6  -9  -4  480.34   61.16
  -6  -9  -4  336.88   45.12
   0 -16   0   64.38   18.71
   0 -12   5  165.60   28.21
   0  12   5  102.75   22.21
   0  12  -5  164.55   23.18
   0  12   5  134.54   31.35
   0 -12  -5  126.52   27.79
  -9  -6   1   12.05    9.79
   9  -6  -1   14.89   12.77
   9   6  -1   11.17    7.81
  -9   6   1   15.52   11.51
  -9  -6   1   16.42   12.08
   2  -9   6   51.26   14.96
  -2   9  -6   51.73   13.01
  -2  -9  -6   44.74   12.85
  -2   9  -6   52.87   13.92
   9   5  -2  464.78   66.61
  -9   5   2  514.80   69.06
  -9  -5   2  491.65   65.36
   9  -5  -2  494.72   69.89
   9  -5  -2  467.84   71.86
  -9  -5   2  535.45   69.42
   9   5  -2  506.25   65.56
   9  -5  -2  541.98   72.08
  -8   2  -4   35.74    9.16
  -8  -2  -4   38.78   13.03
   8  -2   4   44.65   15.24
   8   2   4   33.62    9.69
   8  -2   4   33.69    8.43
   8   2   4   25.96   13.71
  -4  -1   7  481.68   64.65
   4   1  -7  404.76   54.25
   4  -1  -7  292.12   41.18
  -4   1   7  472.46   63.19
   1  -6  -7    5.68    9.09
  -1   6   7    4.09   11.07
   1   6  -7    2.11    7.31
   9   4   2  492.08   68.08
   9  -4   2  571.26   75.00
  -9  -4  -2  535.45   68.49
   9   4   2  481.92   63.95
   5  13   2  176.05   27.20
  -5 -13  -2  176.65   25.54
  -5 -13  -2  170.53   26.73
  -5  13  -2  190.47   26.66
   5 -13   2  202.74   27.23
   5 -13   2  190.11   28.76
   5 -13   2  218.54   35.20
   5   6  -6    7.27    8.19
   5  -6  -6    7.39    7.00
   5  -6  -6    5.37    9.73
  -5   6   6    9.84   11.03
   7   2   5   34.16   12.21
  -7   2  -5   40.34   13.15
   7  -2   5   35.17    7.87
   7   2   5   41.79   12.29
   7  -2   5   34.47   13.23
  -1 -12   5   19.59   15.89
  -1  12   5   13.41   12.63
   1  12  -5   19.20    8.39
   6  -3  -6    2.36    6.75
   6   3  -6   -0.44    7.15
  -6   3   6   -1.61   10.34
   6  -3  -6    2.48    9.70
   6   3  -6    1.69   19.59
  -6  -3   6    5.77   11.92
  -3 -14   3  239.25   36.22
  -3  14   3  227.54   33.80
  -3  14   3  183.22   25.37
   3  14  -3  200.25   28.93
   3 -14  -3  200.77   31.46
  -3   3  -7   18.97    7.91
  -3  -3  -7   18.67    7.52
  -3   3  -7   23.40    9.03
  -3  -3  -7   22.64   11.15
  -8  -8  -2   68.60   18.59
  -8   8  -2   68.31   17.23
   8  -8   2   73.63   20.45
   8   8   2   59.81   16.19
  -8  -8  -2   61.59   16.34
   8  -8   2   77.57   18.28
   8   8   2   58.12   17.17
  -1  16   0  604.37   78.37
   1 -16   0  589.09   77.72
  -1 -16   0  584.83   75.32
   7   9   3   36.21    9.64
  -7   9  -3   50.23   13.54
  -7  -9  -3   40.16   14.55
   7  -9   3   52.26   17.59
  -7  -9  -3   51.39   14.67
   7  -9   3   53.42   13.70
  -2   5  -7  172.90   24.45
  -2  -5  -7  205.04   29.89
  -2  -5  -7  159.30   22.60
  -2   5  -7  163.85   23.90
  -4 -14  -2    5.68    7.91
   4 -14   2    7.98    7.59
  -4  14  -2    9.06    8.42
   4  14   2    3.48    8.53
  -4 -14  -2    9.47   12.11
   4 -14   2   11.01   10.81
   4 -14   2    3.74   14.27
   7 -11   1   49.30   16.77
   7  11   1   52.75   15.56
   7 -11   1   59.33   15.17
  -7  11  -1   57.72   15.53
  -7 -11  -1   53.10   14.54
  -7 -11  -1   46.92   16.47
   4   2  -7   11.50    8.81
   4   2  -7   14.94   11.87
  -4  -2   7   15.01   13.33
  -4   2   7   13.25   12.14
  -4  -7  -6   59.35   14.80
  -4   7  -6   84.65   20.08
   4  -7   6   86.10   22.21
  -4  -7  -6   76.03   19.26
  -7  -5   5   55.19   17.23
   7  -5  -5   62.10   17.49
   7  -5  -5   62.73   15.36
  -7   5   5   48.67   15.19
   7   5  -5   58.31   15.39
   7  -5  -5   45.37   13.78
   8  -9   1  154.19   25.05
   8  -9   1  167.76   23.78
   8   9   1  142.34   15.34
  -8  -9  -1  136.19   30.50
   8   9   1  143.87   15.71
  -8   9  -1  168.88   24.87
  -7  -7  -4  173.77   26.28
  -7  -7  -4  202.40   29.40
   7   7   4  183.16   27.09
  -7   7  -4  214.36   28.99
   7  -7   4  218.17   28.97
   7  -7   4  204.71   31.23
   7   7   4  176.46   28.79
   1 -12   5  116.09   28.27
   1  12   5   96.91   25.29
  -1  12  -5  112.29   24.02
   1  12   5   87.28   19.61
  -1 -12  -5   97.19   22.45
  -1   6  -7   93.02   29.91
  -1  -6  -7   30.88    8.94
   1   6   7   39.83   17.82
  -1   6  -7   25.35    8.27
   4  10   5  376.13   56.52
  -4  10  -5  609.75   75.55
   4 -10   5  458.83   60.64
  -4 -10  -5  562.14   71.94
  -4 -10  -5  477.25   63.16
  -7  -8   4  172.39   27.86
   7  -8  -4  156.43   24.33
   7   8  -4  136.50   29.54
   7  -8  -4  152.72   21.89
  -7   8   4  129.75   28.91
   7  -8  -4  146.92   24.28
  -9  -3   3  268.47   37.01
   9   3  -3  268.70   38.90
  -9  -3   3  110.22   26.10
   9  -3  -3  263.36   39.88
  -9   3   3  263.28   38.35
   9  -3  -3  228.12   36.19
   0 -16  -1   42.52   14.41
   0  16   1   47.32   16.24
   0 -16   1   41.36   17.54
   0  16   1   48.92   14.04
   0  16  -1   47.89   13.50
  -8   5   4   24.37   14.41
  -8  -5   4   24.05   13.70
   8  -5  -4   21.99   10.70
   8  -5  -4   18.75    8.00
   8  -5  -4   21.07   10.67
  -8  -5   4   28.73   12.21
   8   5  -4   18.17    9.58
   9  -6   1   23.97    9.31
   9   6   1   23.21   12.57
  -9  -6  -1   26.92    8.42
   9   6   1   21.15    9.97
  -9  -6  -1   28.20   11.34
  -9   6  -1   17.05    9.05
   9  -6   1   16.61   13.36
  -3 -11  -5   90.93   21.55
   3 -11   5   84.67   21.25
  -3  11  -5   98.03   21.59
   3  11   5   70.00   16.68
  -3  11  -5   79.96   18.01
  -3 -11  -5   69.07   16.79
   0  10   6   38.03   15.80
   0  10  -6   50.42   13.17
   0 -10   6   47.64   15.95
   0 -10  -6   34.29    9.50
   8   3   4  201.56   28.63
  -8   3  -4  220.19   30.17
   8  -3   4  214.88   29.30
   8   3   4  189.73   30.44
   8  -3   4  195.86   29.60
  -8  -3  -4  238.85   33.81
   5  -5   6   88.45   22.88
  -5   5  -6   97.55   22.61
  -5  -5  -6   87.84   20.75
  -5  -5  -6   80.32   18.20
   5   5   6   77.14   20.21
  -3  13   4   36.27   14.07
  -3 -13   4   37.08   16.46
  -3  13   4   21.22    7.90
   3 -13  -4   31.97   10.30
   3  13  -4   31.72    9.46
   3   9  -6   -0.61    7.81
   3  -9  -6   -0.23    8.42
  -3  -9   6   -1.83   13.29
   6  12   2   77.91   18.80
  -6 -12  -2   89.68   20.84
  -6 -12  -2   79.02   21.19
   6 -12   2  103.25   25.06
   6 -12   2  112.54   24.27
  -6  12  -2  102.56   23.39
   7  -3   5   35.57   13.46
  -7   3  -5   34.76   10.65
  -7  -3  -5   25.48   11.78
   7  -3   5   25.21    7.53
   7   3   5   23.26   11.49
   7   3   5   22.72    8.90
  -4   8   6  149.91   20.87
  -4  -8   6  172.06   21.48
   4  -8  -6  146.04   16.53
   4   8  -6  169.61   17.42
   4  -8  -6  167.69   16.95
  -6 -10   4   50.46   15.52
   6 -10  -4   31.30    9.01
  -6  10   4   27.59   10.96
   6 -10  -4   39.93    8.51
   6  10  -4   40.58    9.81
   1  10  -6   -0.08    7.22
   1 -10  -6    1.60    8.21
  -1 -10   6   -2.62   12.06
  -1  10   6   -3.82   11.45
  -1  10   6    0.32    6.14
   2  -6  -7   11.20   10.12
  -2  -6   7    8.85   10.02
  -2   6   7   13.55   11.97
  -1  16   1  423.57   38.65
   1  16  -1  425.17   43.87
   1 -16  -1  432.91   38.76
  -1 -16   1  459.95   40.41
  -1  16   1  446.26   35.44
   3  14   3   28.81    8.94
  -3  14  -3   40.94    8.47
  -3 -14  -3   28.16    9.81
  -3  14  -3   41.49    9.35
  -3 -14  -3   42.55   10.54
   4  12   4   23.27    8.17
  -4 -12  -4   21.94    8.89
   4 -12   4   24.96    7.37
  -4  12  -4   29.80    8.73
  -4 -12  -4   27.10   10.22
   4 -12   4   24.59   10.81
   4 -12   4   20.91   11.62
   6  11   3   18.21   11.30
   6 -11   3   16.79   12.31
  -6 -11  -3   21.22   10.96
  -6  11  -3   27.40    9.50
   6 -11   3   22.47    8.14
   6  11   3   21.74    9.07
  -6 -11  -3   19.44    8.89
  -5 -14   0  288.68   30.49
   5 -14   0  285.45   27.52
   5 -14   0  287.02   24.22
   5  14   0  284.78   29.87
  -5  14   0  410.58   38.83
   3   5  -7    9.19   20.15
  -3   5   7    6.11   11.94
   3   5  -7    5.66    8.54
   3  -5  -7    6.09   10.31
  -1 -16  -1   17.87   11.64
   1 -16   1   19.89   13.45
   1  16   1   15.22   12.94
   1  16   1   15.32    9.09
  -1  16  -1   12.56    8.59
   2  12  -5  100.25   11.15
   2 -12  -5   81.36   11.56
  -2  12   5   70.97    9.25
  -2  12   5   91.41   15.16
  -2 -12   5   79.17   18.47
  -4  -3   7  308.83   32.49
  -4   3   7  312.31   30.57
  -6  -4   6   50.01   15.18
   6  -4  -6   42.47    8.10
   6  -4  -6   45.47   11.31
  -6  -4   6   37.87   11.87
   6   4  -6   38.46    9.71
  -6   4   6   46.92   14.05
  -6   8   5   73.55   13.01
   6  -8  -5   82.72    9.50
   6  -8  -5   77.75   12.96
  -6  -8   5   89.91   16.06
   6   8  -5   86.26   10.87
  -5 -11  -4   14.52    9.26
  -5  11  -4   14.56    7.40
   5  11   4   13.94    8.41
   5 -11   4    7.08   11.71
   5 -11   4   15.49    8.02
  -5 -11  -4   18.97    9.79
   0 -15   3   24.17   17.45
   0  15  -3   14.40    8.06
   0 -15  -3   16.92    9.61
   0  15   3   22.44   13.45
   0  15   3   18.10    8.47
  -3   4  -7  133.19   13.71
  -3  -4  -7  127.57   13.45
  -3  -4  -7  156.27   17.81
  -3   4  -7  142.89   15.93
   9   0   3    7.28    8.71
  -9   0  -3   -3.26    8.37
   9   0   3    3.87   13.29
  -3  15   2   45.08   13.86
  -3  15   2   47.13    8.89
   3  15  -2   44.88   10.23
  -3 -15   2   54.99   16.02
   3 -15  -2   45.76   11.04
   1  10   6   23.91   13.35
  -1 -10  -6   16.65    8.66
   1 -10   6   17.48   10.65
  -1  10  -6   20.88    7.58
   9  -5   2    8.83    8.50
  -9   5  -2   10.14    9.09
  -9  -5  -2    8.38    8.45
   9   5   2   10.49   12.68
   9   5   2   10.73    9.50
   6   7   5   21.88    8.91
   6  -7   5   27.28    7.70
   6  -7   5   31.79   13.68
  -6   7  -5   27.28    9.27
  -6  -7  -5   25.96   10.56
  -6  -7  -5   17.02    7.58
   6   7   5   25.83   11.55
   6 -13   0   88.35   14.86
   6 -13   0   93.30   11.42
  -6 -13   0   77.40   15.87
  -6  13   0   72.94   11.73
   6  13   0   81.21   12.60
   6 -13   0   87.98   13.15
   5 -14  -1    2.23    9.32
   5 -14  -1    2.33    9.15
  -5  14   1    0.43   11.15
   5  14  -1    0.52    8.94
  -5 -14   1    2.60   12.01
   5 -14  -1    1.84    7.99
   9   1   3  111.05   21.28
  -9  -1  -3  122.54   14.85
  -9   1  -3  136.22   14.77
   9   1   3  118.62   15.66
   9  -1   3  120.35   14.56
   9  -1   3  119.76   20.58
   2 -16   0   80.42   14.04
   2  16   0   77.36   11.07
  -2  16   0   73.88   13.23
  -2 -16   0   78.31   15.31
   7 -10  -3  110.52   14.80
   7 -10  -3  114.21   16.93
  -7  10   3  111.65   17.77
   7 -10  -3  117.09   13.27
   7  10  -3  127.85   15.85
  -7 -10   3  120.74   17.93
   5  -9   5    2.45    6.25
  -5  -9  -5    3.68    7.62
  -5   9  -5    8.50    7.34
  -5  -9  -5    9.57    9.49
   5  -9   5    2.26   11.27
   5   9   5    7.50    7.99
   8   9  -2   79.01   12.61
   8  -9  -2   80.09   10.75
  -8  -9   2   81.77   14.32
   8  -9  -2   77.87   11.73
   8  -9  -2   89.11   14.42
  -8   9   2   59.73   11.48
   9  -7   0   70.47   10.55
  -9  -7   0   69.31   10.79
   9  -7   0   77.60   15.08
  -9  -7   0   73.53   13.76
   9   7   0   69.71   14.38
   9   7   0   61.29   11.64
  -7 -11   2   68.33   14.10
  -7  11   2   75.37   16.93
   7 -11  -2   68.76   10.50
   7  11  -2   68.05   11.97
   7 -11  -2   63.60   12.81
   1 -15  -3  104.08   13.12
   1  15  -3  116.70   13.82
  -1  15   3  100.94   12.49
  -1  15   3  106.21   17.15
  -1 -15   3  130.03   22.24
  -9   6   2   69.01   12.86
   9   6  -2   63.94   11.84
   9  -6  -2   80.81   11.77
  -9  -6   2   72.07   15.64
  -9  -6   2   77.64   15.05
   9  -6  -2   73.36   14.44
   9  -6  -2   77.14   11.51
  -9  -4   3   80.65   14.35
  -9   4   3  157.22   20.46
   9   4  -3  163.52   20.07
   9  -4  -3  188.21   20.65
   9  -4  -3  151.31   19.40
   9  -4  -3  152.10   20.31
  -9  -4   3  180.02   20.51
  -6   0  -6  278.79   24.81
   6   0   6  295.51   28.79
   0  14  -4  162.46   16.23
   0  14   4  121.52   18.54
   0 -14   4   95.55   18.10
   0  14   4  123.58   14.03
  -8   7  -3    9.51    8.35
  -8  -7  -3   13.07   10.45
  -8  -7  -3    8.22   11.16
   8   7   3    6.69   12.76
   8  -7   3    8.13    8.40
   8   7   3    9.36    8.97
  -3  13  -4  197.07   18.05
  -3 -13  -4  151.53   19.39
  -3 -13  -4  170.82   18.49
   3 -13   4  170.05   20.46
   3  13   4  129.17   16.46
  -4 -15   0    6.58   14.90
   4 -15   0    2.83   10.24
   4 -15   0    2.18    7.55
   4  15   0    2.17   11.50
  -4  15   0    0.63   10.84
  -8   4  -4  103.02   10.99
   8  -4   4   99.46   15.70
   8  -4   4  111.75   12.79
   8   4   4  104.61   13.36
  -8  -4  -4  112.37   16.22
   8   4   4  102.14   18.35
   0   7   7   23.22   14.51
   0  -7   7   24.96   10.24
   0  -7  -7   24.43    8.94
   0   7  -7   22.26    8.40
  -6   1  -6    2.73   10.93
   6  -1   6    4.24   11.75
   6   1   6   -1.00   10.89
  -6  -1  -6   -2.57   10.17
  -3  15  -2   50.69    8.51
   3 -15   2   53.55   18.21
  -3  15  -2  113.74   23.33
  -3 -15  -2   62.63   12.87
  -3 -15  -2   66.58   10.53
   3  15   2   54.45   11.10
   1  15   3  502.68   46.36
   1 -15   3  530.27   47.48
   1  15   3  552.16   48.31
  -1  15  -3  572.04   42.38
  -6 -13   1   14.62   12.48
   6 -13  -1    3.18   10.50
   6 -13  -1    6.38    8.91
  -6  13   1   14.35   17.00
   6  13  -1    6.96    8.73
   6 -13  -1   15.32    8.06
  -2 -10   6   91.96   16.96
  -2  10   6   65.09    9.52
   2  10  -6   81.82   10.09
  -2  10   6   82.68   15.58
  -5 -14  -1  141.93   19.57
   5 -14   1  157.83   15.63
   5 -14   1  165.82   20.52
  -5  14  -1  155.55   17.25
   5 -14   1  151.70   22.12
   5  14   1  136.17   18.32
  -7   4  -5  160.21   17.38
   7  -4   5  152.59   15.15
  -7  -4  -5  150.57   17.78
   7   4   5  142.86   16.11
   7   4   5  131.53   18.32
   7  -4   5  152.87   20.27
   9  -7  -1    7.07   12.51
  -9  -7   1    6.28   10.79
  -9  -7   1    0.52    9.34
  10   0   0  145.04   17.14
 -10   0   0  172.34   18.09
  -1 -14   4    3.39   15.53
   1  14  -4    7.11    8.17
  -1  14   4    8.16    7.68
  -1  14   4    5.44   11.92
   1 -14  -4    7.51    9.00
   2 -12   5    8.00   11.89
   2  12   5    5.35    6.76
  -2 -12  -5    4.48    8.29
   2  12   5    7.57   15.63
  -2  12  -5    7.24    7.85
  -9  -2  -3  102.11   12.18
   9   2   3   95.06   18.62
   9  -2   3  119.73   14.34
   9   2   3  107.37   14.67
   9  -2   3   99.54   16.73
  -1   7   7   11.51   12.87
   1  -7  -7    8.40    9.04
  -1  -7   7   10.17   10.80
   5   7  -6   27.30    9.44
   5  -7  -6   27.13    7.56
  -5   7   6   35.02   12.36
   5  -7  -6   27.29   11.29
   4   0   7   -2.26   10.50
  -4   0  -7    4.35    9.68
  -4   0  -7    1.44    7.01
  -2  -6  -7    0.97    8.09
  -2  -6  -7    3.18    9.90
  -2   6  -7    7.33    8.16
  -2   6  -7    7.39   13.70
 -10  -1   0  108.69   14.38
  10  -1   0  116.56   15.47
  10   1   0   89.29   13.97
  10  -1   0  106.55   18.90
 -10   1   0  120.03   15.29
  -8   8   3  222.45   27.36
   8   8  -3  159.88   18.73
   8  -8  -3  149.62   19.17
  -8  -8   3  194.94   22.94
   8  -8  -3  177.01   17.59
   8  -8  -3  144.27   18.91
   2  16  -1   10.70    9.21
  -2  16   1   10.31    7.87
  -2  16   1    9.79   11.42
  -2 -16   1    4.26   14.21
   2 -16  -1   -0.32   10.07
   7   6  -5  190.21   20.60
   7  -6  -5  207.18   18.94
   7  -6  -5  210.42   26.81
  -7  -6   5  196.50   22.41
   7  -6  -5  145.49   18.37
  -7   6   5  151.12   18.64
   4 -11  -5   27.83    9.39
   4  11  -5   28.33    8.57
   4 -11  -5   32.02    8.57
  -4  11   5   32.72   13.11
  -4 -11   5   40.73   15.46
  -4   1  -7  318.66   25.87
  -4  -1  -7  309.48   26.80
  -4   1  -7  311.78   26.99
  -4  -1  -7  302.99   24.54
   4   1   7  276.35   27.10
   4  -1   7  275.73   26.80
 -10   0   1    2.82   11.53
  10   0  -1   -4.57   12.83
  -3   9  -6   74.23    9.88
  -3  -9  -6   81.88   12.82
   3  -9   6   74.50   11.49
  -3  -9  -6   63.38   10.09
   1  14   4   28.77   13.82
  -1 -14  -4   27.62    9.06
   1 -14   4   19.44   15.26
   1  14   4   28.04    7.99
  -1  14  -4   38.11    8.63
  -4   4   7   23.76   13.47
  -4  -4   7   25.88   15.14
   4   4  -7   39.82   23.74
  -4 -15   1    4.09   13.46
  -4  15   1    4.69    9.71
   4 -15  -1    4.25    7.48
   4 -15  -1    3.11    9.51
   4  15  -1    5.44    9.43
  -6   2  -6  315.16   27.55
  -6  -2  -6  276.88   25.49
   6  -2   6  258.80   26.74
   6   2   6  268.73   26.99
  -8   6   4    4.39   13.19
   8  -6  -4    9.19   10.51
  -8  -6   4    5.70   12.02
   8   6  -4    6.81    8.12
   8  -6  -4    7.96    8.40
   8  -6  -4    8.99   10.34
   2  16   1  101.63   12.06
  -2  16  -1  113.21   13.94
   2 -16   1  109.85   19.69
  -6 -13  -1  816.26   37.16
   6 -13   1  871.95   28.76
   6  13   1  683.28   64.86
  -6  13  -1  799.15   58.56
   6 -13   1  844.86   33.70
  10   1  -1   61.88   15.89
  10  -1  -1   68.09   15.81
 -10  -1   1   72.69   13.37
 -10   1   1   65.33   13.63
   8 -10   0   35.64    9.22
   8  10   0   32.95   10.05
  -8 -10   0   34.13   11.64
  -8 -10   0   36.46    8.69
   8 -10   0   37.91   13.17
  -8  10   0   38.12   10.92
  -5  -6  -6   54.72    9.52
  -5   6  -6   60.32   11.63
   5  -6   6   59.03   14.24
  -5  -6  -6   54.99   11.24
  -5  13   3  545.32   45.10
   5 -13  -3  667.87   49.85
  -5 -13   3  671.02   54.84
   5  13  -3  605.99   56.01
   5 -13  -3  655.72   60.25
   5  10  -5   30.48    9.42
   5 -10  -5   28.86    9.19
   5 -10  -5   22.11    7.72
  -1   7  -7    1.87   17.07
  -1  -7  -7   -1.83    8.02
  -1   7  -7   -1.09    7.41
   1   7   7    3.49   14.28
  10  -2   0    7.83    9.49
  10  -2   0   -1.29   14.98
  10   2   0    9.55   13.11
  10   2   0    6.49    9.98
 -10  -2   0   10.35    9.01
 -10   2   0    9.64   10.41
   4 -15   1  112.64   12.94
   4  15   1   89.77   13.75
  -4  15  -1  203.46   26.02
   4 -15   1  129.47   20.28
  -4 -15  -1  100.04   16.23
   0  16   2   44.45   13.46
   0 -16  -2   43.53   10.33
   0  16   2   49.44   10.20
   0  16  -2   43.75    9.33
   0 -16   2   65.49   18.53
   6   5  -6   56.94   10.94
   6  -5  -6   36.10    9.52
  -6  -5   6   55.99   13.33
   6  -5  -6   57.82   11.73
  -6   5   6   55.22   13.53
   6  -5  -6   55.35    8.33
   9   7   1   10.29    9.47
  -9   7  -1   11.89    9.85
  -9  -7  -1   11.50   11.03
   9  -7   1    8.57   12.76
   9   7   1   16.01   11.96
   9  -7   1   14.98    8.11
  -9  -7  -1    7.92    8.50
   8   0  -5    2.34   10.77
   8   0  -5    2.79    7.79
  -8   0   5    1.03   11.03
  -4  -2  -7  106.53   14.42
  -4  -2  -7  100.25   10.15
   4   2   7   91.68   14.53
  -4   2  -7   96.91   12.23
   4  -2   7   92.94   14.53
  -3  -5  -7    0.15   10.18
  -3   5  -7    1.28    6.60
  -3  -5  -7   -0.22    7.07
  -3   5  -7    1.39    9.66
  -3  -6   7  348.91   30.88
   3  -6  -7  375.62   39.29
  -3   6   7  349.16   32.96
   9  -3   3  105.30   17.69
   9   3   3   93.77   18.27
   9   3   3  103.72   12.54
  -9  -3  -3  104.34   12.16
   9  -3   3  111.35   13.56
   7 -11   2  306.94   25.19
  -7 -11  -2  313.83   31.44
   7  11   2  259.59   26.37
   7 -11   2  296.96   29.40
   7  11   2  274.37   30.64
  -7 -11  -2  278.78   25.13
  -7  11  -2  279.12   24.63
   2  15  -3   23.82    9.14
   2 -15  -3   25.49   10.40
  -2  15   3   19.21   12.23
  -2  15   3   18.88    8.69
  -2 -15   3   33.93   16.01
   4  -8   6  190.79   21.15
  -4   8  -6  218.20   20.28
  -4  -8  -6  204.41   21.03
  -4  -8  -6  176.56   18.24
  -8 -10   1   18.21   11.83
  -8  10   1   14.79    9.76
   8 -10  -1   18.71   11.23
  -6 -10  -4   -1.69    8.66
  -6  10  -4    2.82    8.55
   6 -10   4    4.99    7.72
  -6 -10  -4   -2.61    9.38
   6  10   4   -0.19    7.49
   6 -10   4    8.14   11.40
  -7  -8  -4   74.18   12.51
  -7  -8  -4   97.73   13.26
   7   8   4   56.95   14.28
   7   8   4   85.17   11.59
   7  -8   4   94.90   10.40
  -7   8  -4   95.86   10.56
   8  -1  -5   81.25   12.07
   8   1  -5   87.99   11.98
   8  -1  -5   82.50   10.43
  -8   1   5   76.71   14.54
   8   1  -5  155.15   24.88
  -8  -1   5   76.70   14.68
 -10   2   1  287.74   28.24
  10  -2  -1  266.49   31.34
 -10  -2   1  313.90   28.91
   2 -10   6  129.52   16.81
  -2 -10  -6  112.46   14.11
   8   9   2  109.89   16.17
   8   9   2  108.74   14.81
  -8  -9  -2  111.69   17.11
  -8  -9  -2  117.88   14.91
  -8   9  -2  124.50   16.25
   8  -9   2  129.63   14.90
   8  -9   2  118.51   17.56
   2  -7  -7  293.94   30.11
  -2   7   7  273.79   31.04
  -2  -7   7  291.06   27.26
   7 -12   0  183.08   21.90
   7  12   0  161.19   20.33
  -7  12   0  153.36   20.37
   7 -12   0  161.62   24.58
  -7 -12   0  167.14   20.34
   1  16  -2   89.65   12.23
  -1  16   2   81.87   10.88
  -1 -16   2   98.11   18.40
  -1  16   2   84.36   14.35
   1 -16  -2   75.40   12.44
  -4 -14   3   48.34   15.82
   4 -14  -3   35.62   11.12
  -4  14   3   44.16   13.50
   4  14  -3   39.60   10.01
   4 -14  -3   42.83    8.65
  10   0   1   -1.71    9.23
 -10   0  -1    3.00    8.73
  10   0   1    4.12   15.22
  -3 -12   5   49.55   17.41
  -3  12   5   56.58   15.17
  -3  12   5   46.34    8.47
   3 -12  -5   55.10   10.55
   3  12  -5   60.82    9.75
  -2  14   4   12.71    8.06
  -2  14   4   14.09   12.70
   2  14  -4   13.64    8.84
   2 -14  -4   12.44    9.91
  -2 -14   4   18.51   16.18
   9  -5  -3   23.89   11.46
  -9   5   3   28.63   13.39
   9   5  -3   27.14   10.70
   9  -5  -3   25.62   10.05
  -9  -5   3   20.17   11.77
   9  -5  -3   33.29    9.69
  -9  -5   3   36.67   12.47
   6 -12  -3   30.86    8.67
   6 -12  -3   30.88    9.53
  -6 -12   3   27.08   13.78
   6  12  -3   23.65   10.20
  -6  12   3   21.17   10.26
  -6   3  -6   10.78   10.79
   6  -3   6   15.75   12.37
   6   3   6   15.75   12.39
   9   6   2    2.30   11.91
   9  -6   2    3.80    8.08
  -9  -6  -2    5.78    8.39
  -9   6  -2   -2.12    8.86
   9  -6   2   -0.76   13.24
   9   6   2   -2.29    9.41
  -1  16  -2  166.85   17.50
   1 -16   2  246.63   30.96
  -1 -16  -2  159.69   17.91
   1  16   2  183.58   18.84
   1  16   2  164.87   22.14
  10  -1   1    2.22   15.93
 -10   1  -1    6.48    8.21
 -10  -1  -1    7.20    7.94
  10  -1   1   10.43    9.05
  10   1   1    2.93    9.87
  10   1   1    6.03   14.29
   7  -9  -4  609.93   46.62
   7   9  -4  569.19   48.53
   7  -9  -4  552.49   55.41
   7  -9  -4  542.27   49.00
  -7  -9   4  598.49   48.90
   8   5   4    2.86   13.99
   8   5   4    2.15    8.90
  -8   5  -4    4.91    8.70
   8  -5   4    2.38   12.06
  -8  -5  -4   -3.76   10.40
   8  -5   4    1.28    7.82
   2  15   3   50.95   16.96
  -2  15  -3   48.43    9.46
  -2 -15  -3   31.89   10.07
   2 -15   3   20.65   14.75
   2  15   3   37.82    9.22
  -7  10  -3  228.35   20.76
   7 -10   3  245.56   21.32
  -7 -10  -3  202.57   25.07
   7  10   3  191.76   19.45
  -7 -10  -3  230.01   22.63
   7 -10   3  238.65   25.73
   7  10   3  147.94   19.33
  -5  12   4  134.64   19.17
   5  12  -4  134.49   15.91
   5 -12  -4  133.96   16.75
   5 -12  -4  134.96   14.41
  -5   0   7   -5.22   13.76
   8   2  -5    3.74    9.21
   8  -2  -5    9.15    9.31
  -8   2   5    6.99   11.07
  -8  -2   5    7.43   11.59
   8   2  -5    8.87   24.98
   8  -2  -5    6.52    7.96
   7   5   5    7.13    9.69
  -7   5  -5    5.86    8.87
   7   5   5    6.83   11.56
  -7  -5  -5    7.76   10.94
   7  -5   5    8.57    7.24
   7  -5   5    6.89   11.46
  10  -3   0   94.50   18.88
  10   3   0   85.88   17.62
  10   3   0   90.24   12.99
  10  -3   0   92.97   12.90
 -10   3   0   95.61   13.73
 -10  -3   0   91.14   11.56
   7 -12  -1  197.67   19.50
   7 -12  -1  216.14   23.36
   7 -12  -1  223.50   22.49
  -7 -12   1  194.45   22.31
  -7  12   1  167.33   18.79
   5  14  -2   24.51    9.42
   5 -14  -2   38.43    9.00
  -5  14   2   33.48   11.92
   5 -14  -2   34.09   11.81
  -5 -14   2   23.14   13.96
  -5  -1   7   46.77   13.67
   5  -1  -7   32.69    9.43
  -5   1   7   50.82   14.43
   8  10   1  349.50   32.93
   8  10   1  309.06   31.68
   8 -10   1  338.19   31.65
  -8 -10  -1  370.52   34.17
   8 -10   1  383.73   31.47
  -8  10  -1  373.22   31.66
  -8 -10  -1  266.83   26.04
  -4   3  -7  305.78   26.71
   4  -3   7  320.84   29.84
  -4  -3  -7  292.59   24.39
  -4  -3  -7  332.85   28.72
   4  -9  -6   80.46    9.86
  -4  -9   6   87.91   17.41
   4  -9  -6   74.79   11.73
   4   9  -6   74.81   10.49
  -4   9   6   64.46   14.50
   4 -13  -4  112.38   12.87
   4 -13  -4  112.02   15.76
  -4  13   4  112.58   17.78
  -4 -13   4  132.15   21.37
   4  13  -4  127.28   15.24
 -10  -3   1  781.46   58.95
 -10  -3   1  830.35   37.05
 -10   3   1  787.85   62.13
  10  -3  -1  685.16   77.78
   3 -16   0  288.93   30.53
   3  16   0  260.77   25.84
  -3  16   0  209.21   22.62
  -9   7   2   -1.10   11.10
   9  -7  -2    5.74    8.76
  -9  -7   2    3.35   11.84
   9   7  -2    3.95    9.60
   9  -7  -2   13.31   11.57
 -10  -2  -1   40.28    9.18
  10  -2   1   38.92    9.88
  10   2   1   34.17   16.39
  10   2   1   42.19   10.67
 -10   2  -1   39.69    9.81
   4   5  -7   69.23   23.04
  -4   5   7   31.67   13.17
   9   0  -4   -0.69    9.87
   9   0  -4    0.30    8.83
  -9   0   4    9.34   20.05
   5  13   3   29.77    9.35
   5 -13   3   32.38    8.11
  -5  13  -3   30.45    9.10
  -5 -13  -3   23.89   11.56
   5 -13   3   28.71   12.88
  -5 -13  -3   27.62    9.79
   2  14   4  -10.91   14.48
   2  14   4   -0.81    7.85
  -2  14  -4    0.72    7.80
  -2 -14  -4    1.18    8.39
   2 -14   4   -4.37   14.36
   6 -13  -2  147.87   15.91
  -6  13   2  119.18   16.71
  -6 -13   2  140.28   19.45
   6 -13  -2  156.04   19.21
   6 -13  -2  135.07   17.66
   6  13  -2  122.68   16.96
   6  -8   5   14.79    7.50
  -6   8  -5   14.93    9.50
   6  -8   5   17.68   13.64
  -6  -8  -5    4.24    7.42
  -6  -8  -5   12.86   10.12
   6   8   5   13.58    8.63
   3 -10  -6    5.90    9.02
   3  10  -6    6.68    8.05
  -3 -10   6    8.83   14.49
  -3  10   6    1.66    6.47
   0  13   5  344.45   33.80
   0 -13   5  429.00   39.96
   0 -13  -5  364.48   37.06
   0  13   5  317.05   28.43
   0  13  -5  469.18   35.86
  -4  11  -5   30.12    8.04
   4  11   5   16.80    7.62
  -4 -11  -5   28.00   11.24
  -4 -11  -5   27.94    9.34
  -4  11  -5   34.84    8.76
   9   1  -4   77.42   11.44
  -9  -1   4  115.66   24.52
   9  -1  -4   81.85   14.77
   9  -1  -4   68.94   11.36
   9  -1  -4   77.72   11.17
   9   1  -4  162.65   28.33
  -9   1   4  133.15   26.61
   9  -4   3   19.55   14.76
   9  -4   3   22.15    9.01
  -9   4  -3   22.21    9.01
  -9  -4  -3   20.87    9.99
   9   4   3   21.27    9.94
   9   4   3   21.62   14.93
  -5  -2   7  172.21   23.34
   5  -2  -7  135.37   16.17
  -5   2   7  141.16   20.43
  10   0  -2   20.53   14.24
  10   0  -2    5.04   11.19
 -10   0   2    7.23   12.56
  10   0  -2    7.63    9.33
   9   8   0  190.18   21.91
   9  -8   0  204.33   20.73
  -9  -8   0  188.10   21.16
  -9  -8   0  188.48   19.40
  -9   8   0  194.94   21.41
   9  -8   0  214.81   24.49
   6  -9  -5  112.29   16.33
   6  -9  -5  119.61   12.96
   6   9  -5  115.92   13.86
  -6  -9   5  140.76   21.17
  -6   9   5  100.17   13.92
   7  12   1    3.62   10.04
  -7 -12  -1    5.93   12.68
   7 -12   1    5.76   13.06
   7 -12   1   -1.59    9.46
  -7  12  -1    2.05    9.52
   0  11   6  228.87   27.61
   0 -11  -6  216.10   23.06
   0  11  -6  285.66   24.02
   0 -11   6  262.83   27.10
   7   0  -6  296.62   25.55
  -7   0   6  380.86   35.72
   7   0  -6  293.45   28.36
  -1 -13   5  135.16   21.71
  -1  13   5  116.32   13.66
  -1  13   5  132.88   19.50
   1  13  -5  155.79   15.82
   4  14   3  163.56   18.91
   4 -14   3  229.24   26.30
  -4  14  -3  215.97   20.50
  -4 -14  -3  176.91   18.41
  -4  14  -3  197.81   17.49
  -4 -14  -3  161.63   20.12
   8   8   3  176.84   18.74
   8  -8   3  215.90   20.56
  -8  -8  -3  229.55   22.97
  -8  -8  -3  245.52   26.58
   8  -8   3  217.86   25.29
  -8   8  -3  228.95   20.38
   8   8   3  162.26   20.82
  -8  -3   5    5.90   11.12
   8  -3  -5    5.62    9.50
   8   3  -5   12.48   19.01
   8   3  -5    1.97    8.63
   8  -3  -5    3.59    8.27
   8  -3  -5    1.15   10.42
  -8   3   5   -1.10   11.45
  10   1  -2    1.33   28.69
  10   1  -2   -5.25   12.07
 -10  -1   2    4.04   12.30
  10   1  -2    7.49    9.77
  -2   7  -7   24.48    9.15
  -2  -7  -7   20.69    8.50
  -2   7  -7   64.74   22.25
   7  -1  -6   53.18    8.95
   7   1  -6   70.05   14.59
  -7   1   6   69.52   14.54
  -7  -1   6   68.15   15.67
   7  -1  -6   54.52   11.00
   7   1  -6   44.23    8.71
   6  11  -4   30.72   10.08
  -6  11   4   22.85   11.51
  -6 -11   4   31.53   15.51
   6 -11  -4   32.91    9.26
   6 -11  -4   43.68    9.29
   1 -11  -6    5.72    8.02
  -1 -11   6   12.22   13.72
   1  11  -6    8.48    8.10
  -1  11   6    9.28   13.17
  -2 -16   2  134.62   21.58
  -2  16   2   94.85   14.91
   2 -16  -2   94.85   13.29
  -2  16   2  104.26   11.60
   2  16  -2   97.77   12.49
   0  -8  -7   23.50    8.83
   0  -8   7   25.67   10.44
  -6   4  -6  240.93   22.27
   6  -4   6  202.00   22.47
   6   4   6  168.93   20.84
  -5 -14  -2   57.19   13.68
   5 -14   2   69.88   13.33
  -5  14  -2   66.79   10.31
   5  14   2   51.68   11.15
   5 -14   2   65.63    9.57
  -5 -14  -2   53.34    9.50
  -7   7   5    7.75   10.62
   7   7  -5   10.06    9.83
   7  -7  -5    8.51   10.00
   7  -7  -5    9.63    6.97
   7  -7  -5    7.25   10.02
  -7  -7   5   14.75   12.55
   4  15  -2  450.66   44.25
   4 -15  -2  433.62   33.50
   4 -15  -2  439.27   42.67
  -4  15   2  418.61   36.50
   3 -16  -1   63.40   11.99
   3  16  -1   51.63   10.92
  -3  16   1   59.68    9.41
  -3  16   1   55.19   13.22
  -3 -16   1   67.02   16.88
  -3  12  -5   33.45    8.32
   3  12   5   26.07    7.76
  -3 -12  -5   35.27   11.44
   3 -12   5   30.83   11.62
  -3 -12  -5   28.09    9.21
  -9  -8   1   42.77   12.94
   9  -8  -1   40.48   12.57
  -9  -8   1   40.46   10.37
   9   2  -4   10.08   22.41
   9  -2  -4    5.09    8.50
  -9  -2   4    7.48   18.75
   9  -2  -4    4.79   10.32
   9  -2  -4    9.43    9.95
   9   2  -4    6.09    9.10
  -9   2   4    4.22   21.97
  -1   8   7   19.42   13.67
  -1  -8   7   21.97   10.70
   1  -8  -7   19.80    9.07
   8   7  -4    5.15    9.00
   8  -7  -4    2.15   10.16
  -8   7   4    3.40   11.62
   8  -7  -4    3.50    7.27
  -8  -7   4   13.93   11.99
   8  -7  -4   -0.70    9.96
   5  -8  -6   41.18   11.15
   5  -8  -6   41.15    8.56
  -5  -8   6   40.09   14.69
  -5   8   6   47.18   14.36
   5   8  -6   36.99    9.68
   6  -6  -6   30.84    7.58
   6  -6  -6   34.82   12.11
  -6  -6   6   36.22   12.14
  -6   6   6   35.72   12.52
   6   6  -6   31.90    9.23
   1  13   5  218.03   28.63
   1  13   5  189.75   21.74
  -1  13  -5  244.90   24.69
   1 -13   5  240.39   30.00
  -1 -13  -5  184.14   23.29
  10  -4   0    9.93    9.24
  10   4   0    7.76   13.42
  10  -4   0   10.98   15.68
 -10  -4   0   12.64    8.92
 -10   4   0   13.68   10.43
  10   4   0    9.67   10.62
  -3   6  -7   86.12    9.67
  -3   6  -7   85.81   12.02
  -3  -6  -7   74.06   10.10
 -10  -3  -1   51.75    9.38
  10   3   1   40.71   16.16
 -10   3  -1   55.41   10.97
  10  -3   1   56.25   11.29
  10   3   1   42.17   11.26
  10  -3   1   31.68   17.44
  -3  16  -1   30.33    8.39
  -3  16  -1   22.21    9.96
   3 -16   1   33.79   15.26
  -3 -16  -1   24.29   13.35
   3  16   1   29.35   10.19
  -5   7  -6   12.33    9.62
  -5  -7  -6    9.95   10.72
  -5  -7  -6    7.07    8.13
   5  -7   6    8.26   12.61
  -2  16  -2   16.16    8.00
   2  16   2   12.46   15.60
   2  16   2    9.74    8.89
  -2 -16  -2   10.45    9.85
   2 -16   2   18.47   19.24
  -5 -10  -5   82.14   12.36
  -5 -10  -5   59.04   10.24
   5  10   5   58.71   10.57
  -5  10  -5   76.18   10.05
   5 -10   5   74.73    9.11
  -6 -12  -3    6.35    8.82
  -6  12  -3   12.73    8.88
   6 -12   3   13.16    7.99
  -6 -12  -3    6.87   10.75
   6 -12   3   11.76   11.96
   6  12   3    9.53    8.64
  10   2  -2   44.81   18.15
  10   2  -2   23.15   10.73
 -10  -2   2   29.79   13.73
  10  -2  -2   23.85   10.66
  10  -2  -2   18.04   12.63
 -10   2   2   26.20   12.92
  10   2  -2   28.57   12.89
  -4  -4  -7  122.27   15.53
  -4  -4  -7  131.05   17.53
  -4   4  -7  146.45   18.84
   4  -4   7  137.59   19.73
   8 -10  -2  268.36   28.00
  -8  10   2  240.39   27.58
  -8 -10   2  275.86   30.91
   8  10  -2  240.82   29.43
   8 -10  -2  275.08   29.27
   8 -10  -2  271.21   30.26
   7  -2  -6  216.55   25.57
  -7   2   6  246.29   29.62
  -7  -2   6  287.69   34.28
   7  -2  -6  194.14   22.27
   7   2  -6  235.37   25.55
   1 -11   6   58.44   13.95
  -1 -11  -6   42.40   10.38
   1  11   6   42.71   15.02
  -5  -3   7    1.50   11.83
  -5   3   7    7.82   12.31
   5  -3  -7    9.61    9.68
   0   0  -8    1.27   10.22
   0   0  -8    7.36    9.47
   6 -13   2  235.92   24.00
  -6 -13  -2  177.46   20.30
   6  13   2  179.85   22.17
   6 -13   2  216.24   25.87
  -6 -13  -2  197.82   25.14
  -6  13  -2  218.75   23.52
 -10   4   1    5.93   11.42
 -10  -4   1    3.94   10.16
 -10  -4   1   -1.97    9.40
  10   4  -1    3.76   12.81
  10  -4  -1   -1.80   13.69
  -3  15   3   95.72   18.28
  -3 -15   3   92.04   18.36
   3 -15  -3   77.93   12.39
   3  15  -3   90.54   13.79
  -3  15   3   81.87   10.19
  -3   7   7   95.98   17.79
  -3  -7   7   89.86   14.31
  -8  -9   3    7.78   12.16
   8   9  -3    5.63    9.08
   8  -9  -3    3.40    8.11
   8  -9  -3    1.17    8.85
   8  -9  -3    0.81    9.86
   9  -6  -3  390.37   45.59
   9  -6  -3  396.20   44.10
  -9  -6   3  458.74   45.62
   9   6  -3  417.60   47.80
   9  -6  -3  433.23   43.94
  -9   6   3  430.46   46.98
   1   0  -8  616.02   61.88
   1   0  -8  529.76   49.33
   7  11  -3   68.19   10.93
  -7  11   3   58.12   13.00
   7 -11  -3   65.11   13.04
   7 -11  -3   73.45   10.17
   7 -11  -3   69.15   10.75
  -7 -11   3   76.47   15.64
   0  -1  -8   48.45   13.20
   0   1  -8   41.03   16.43
   0   1  -8   42.08   13.61
   0  -1  -8   45.52   10.89
  -4 -13  -4  189.28   22.19
  -4 -13  -4  134.84   18.01
   4  13   4  142.24   18.00
  -4  13  -4  186.18   19.55
  -4  13  -4  179.65   20.56
   4  15   2   42.99   10.33
  -4 -15  -2   44.00    9.83
   4 -15   2   43.43   18.24
  -4 -15  -2   31.15   13.32
  -4  15  -2   42.65   10.78
   1  -8   7    8.04    9.32
  -1  -8  -7   11.19    7.95
   5  12   4    4.85    7.99
  -5 -12  -4   12.39    9.24
   5 -12   4    5.88    7.31
   5 -12   4    6.74   12.22
  -5 -12  -4   12.06    9.61
  -5  12  -4    9.20    8.44
   8   6   4  160.61   20.04
  -8   6  -4  179.69   19.90
  -8  -6  -4  187.79   22.33
   8  -6   4  169.65   23.48
   8  -6   4  179.72   20.16
   8   6   4  155.31   24.34
   1   1  -8   -4.93   10.56
   1   1  -8    0.73    7.72
   1  -1  -8   -2.04    8.93
  -1   1   8    5.05   15.78
  -3  14   4   28.84    8.11
  -3  14   4   35.06   14.23
  -3 -14   4   54.13   17.55
   3  14  -4   38.79    9.87
   3 -14  -4   30.63   11.03
   9  -8   1   34.90    8.85
   9   8   1   23.09   11.74
   9   8   1   18.34    9.90
  -9   8  -1   37.11   11.52
  -9  -8  -1   31.60    9.19
  -9  -8  -1   28.23   11.42
   9  -8   1   31.04   13.53
   0 -17   0   -3.66   12.29
   7   6   5   10.43   10.04
   7   6   5    9.32   12.67
  -7  -6  -5   14.86   11.16
   7  -6   5   11.69    7.60
  -7   6  -5   11.02    8.91
   7  -6   5    8.92   12.86
   2 -13  -5   16.23   10.46
  -2 -13   5   19.08   16.45
   2  13  -5   28.55    9.59
  -2  13   5   17.42   13.08
  -2  13   5   18.30    7.57
   9  -3  -4   81.14   13.28
  -9  -3   4   86.03   25.05
  -9   3   4  143.82   32.95
   9  -3  -4   68.25   13.33
   9   3  -4   68.29   11.53
   9  -3  -4   78.35   11.24
   9  -7   2    1.39    8.76
   9   7   2    4.58   12.35
  -9   7  -2    5.12    9.76
   9   7   2    3.27    8.95
   9  -7   2    5.09   13.81
  -9  -7  -2    1.51    8.57
   8   4  -5   55.82   11.06
   8  -4  -5   56.81   12.79
  -8  -4   5   50.15   11.82
   8  -4  -5   52.06   13.19
   8  -4  -5   61.56    9.57
  -8   4   5   53.86   12.47
  -2  11   6    9.33   13.55
   2  11  -6    2.93    8.08
  -2 -11   6   -1.47   14.29
  -7 -12   2  146.23   20.47
   7 -12  -2  148.32   19.76
   7 -12  -2  143.58   20.64
   7 -12  -2  150.52   17.97
  -7  12   2  178.61   25.84
   7  12  -2  136.30   19.49
  -3  10  -6  175.13   19.14
  -3 -10  -6  132.35   17.43
  -3 -10  -6  171.10   21.98
  -9  -5  -3   22.85    9.76
   9  -5   3   13.83    9.41
   9   5   3   12.56   14.13
   9   5   3   14.44   10.03
   9  -5   3   18.51   15.45
  -9   5  -3   11.36    9.30
  -2  -8   7   28.33   12.34
   2  -8  -7   30.46   10.43
  -2   8   7   29.83   14.50
   0  -2  -8   94.86   16.71
   0  -2  -8   79.02   11.30
   0   2  -8   71.06   10.43
   0   2  -8   77.54   12.05
  10   3  -2   10.54   12.34
  10  -3  -2   11.01   13.03
  10   3  -2    4.76   10.05
 -10   3   2   36.71   13.33
 -10  -3   2    9.48   13.88
 -10  -3   2    3.43    8.63
  10  -3  -2    5.72   14.09
  -7   3   6    1.46   12.29
   7   3  -6   -0.92    7.85
   7  -3  -6    1.85    7.04
   7   3  -6   12.09   24.58
   7  -3  -6   10.21    9.88
  -7  -3   6   -2.71   13.03
  -4  -6   7    4.93   11.08
  -4   6   7    6.89   13.04
   1   2  -8  159.12   20.17
   1  -2  -8  151.48   18.57
   1   2  -8  130.12   15.64
  -1   2   8  168.26   25.44
  -1   0  -8   82.75   11.11
  -1   0  -8   81.57   12.23
   1 -17   0   32.27   12.94
  -1 -17   0   28.94   12.84
  -4  -9  -6   85.60   13.05
   4  -9   6   72.35   13.83
  -4  -9  -6   59.92    9.83
  -4   9  -6   79.48    9.64
   3  15   3   13.22    8.97
  -3 -15  -3   13.03    8.93
   3 -15   3    5.50   15.47
  -3  15  -3   15.21    7.48
  -3 -15  -3    3.03   10.86
  -7  -9  -4   15.20   10.03
   7   9   4   12.29   13.47
  -7  -9  -4   14.44    9.86
  -7   9  -4   19.05    8.60
   7  -9   4   19.35    8.16
   7   9   4   15.58    9.09
   5  15   0   -4.48   10.02
   5 -15   0    0.48   10.85
   5 -15   0    0.26    9.80
  -5  15   0    0.76   14.81
  -5 -15   0    1.38   13.51
   5 -15   0    0.00    8.35
 -10  -4  -1  266.33   27.36
  10  -4   1  278.51   30.19
  10   4   1  253.65   30.32
 -10   4  -1  278.13   28.80
  10  -4   1  289.32   35.77
  10   4   1  257.73   34.66
  10   0   2    9.41   15.88
  10   0   2    8.22    9.68
 -10   0  -2    9.79    9.23
  -1  -1  -8    3.92   11.56
  -1  -1  -8    3.53    9.24
  -1   1  -8    1.91    9.24
  -1   1  -8    4.58    8.05
   6  -5   6   39.66   13.81
  -6   5  -6   45.89   10.50
  -6  -5  -6   49.90   12.83
  -6 -14   0  400.55   42.77
  -6  14   0  417.90   42.37
   6 -14   0  445.12   41.77
   6 -14   0  404.19   41.29
   6 -14   0  384.18   41.12
   6  14   0  384.02   43.40
   8  11   0   46.19   11.84
  -8 -11   0   38.97   12.48
   8 -11   0   45.88   13.18
   8 -11   0   44.65    9.79
  -8  11   0   38.40   10.55
 -10  -1  -2  247.00   26.89
 -10   1  -2  239.77   25.28
  10   1   2  226.67   27.22
  10  -1   2  224.36   25.62
  10   1   2  204.69   32.84
  10  -1   2  231.36   36.02
   0 -17   1  194.97   26.88
   0  17  -1  168.96   21.69
   0  17   1  174.55   20.96
   0 -17  -1  175.17   22.36
   2   0  -8   11.89    8.79
  -2   0   8   12.85   15.77
   5  -4  -7    3.99   11.06
  -5   4   7    8.67   12.43
   5 -11  -5   26.43    9.21
  -5  11   5   27.48   12.70
   5  11  -5   31.26    9.90
   5 -11  -5   26.45    8.32
   4  12  -5  385.94   37.30
   4 -12  -5  312.34   38.35
   4 -12  -5  344.00   33.26
  -4 -12   5  408.40   44.73
  -4  12   5  417.87   46.61
  10  -5   0   16.59    9.46
  10   5   0   20.00   13.50
 -10  -5   0   12.49    8.92
 -10   5   0   20.06   11.57
  10   5   0   14.97   10.41
  10  -5   0   18.47   16.25
   2 -13   5  292.05   33.28
  -2 -13  -5  206.49   24.70
   2  13   5  285.91   34.66
  -2  13  -5  300.62   29.40
   2  13   5  189.73   23.51
   8 -10   2  213.46   26.98
  -8 -10  -2  173.40   23.33
  -8 -10  -2  165.27   20.82
  -8  10  -2  211.63   23.68
   8 -10   2  199.11   22.03
   8  10   2  166.35   21.52
   8  10   2  152.50   20.17
  -2  -1   8   46.03   16.64
   2  -1  -8   34.48    9.94
  -2   1   8   52.25   16.83
   2   1  -8   36.00    9.36
   8   0   5   -2.66   11.22
   8   0   5   -0.31    7.76
  -4  -5  -7   80.60   10.12
   4  -5   7   94.12   16.44
  -4   5  -7  101.63   15.12
   3 -14   4  369.73   40.29
  -3 -14  -4  286.07   33.03
  -3  14  -4  394.83   37.17
   3  14   4  302.11   33.36
  -3 -14  -4  347.02   35.72
   9   8  -2  126.51   18.33
   9  -8  -2  144.89   20.96
   9  -8  -2  151.91   18.88
  -9  -8   2  159.57   22.27
   5 -15  -1  116.08   17.24
   5  15  -1  107.73   17.36
  -5 -15   1  123.83   22.07
  -5  15   1  117.21   17.66
   5 -15  -1  122.50   15.62
   5 -15  -1  120.88   17.85
  -1  -2  -8  354.34   34.48
  -1   2  -8  320.33   32.78
  -1  -2  -8  399.39   40.14
  -1   2  -8  342.18   33.20
  -8  11   1   21.16   10.62
  -8 -11   1   19.65   12.21
   8 -11  -1   16.14   11.05
   8  -1   5   -0.26    7.84
   8   1   5    4.42    8.10
  -8   1  -5   -1.19   10.43
   8  -1   5    7.33   11.02
   8   1   5    9.43   12.32
   6 -14  -1  598.78   57.24
   6 -14  -1  684.64   40.65
  -6 -14   1  605.50   58.66
   6  14  -1  524.04   61.33
   6 -14  -1  659.03   25.08
  -6  14   1  757.88   34.96
   0   3  -8   12.35    8.23
   0  -3  -8   11.40   12.43
   0  -3  -8   10.52    9.41
   0   3  -8   10.23    7.73
  -1 -17   1   75.03   17.42
  -1  17   1   58.99   13.66
   1 -17  -1   59.51   12.31
   1  17  -1   70.30   12.01
  -1  17   1   65.38   11.20
   6 -11   4   38.32    8.82
   6  11   4   34.98   10.49
   6 -11   4   41.02   14.92
  -6  11  -4   42.26    9.68
  -6 -11  -4   31.05   10.63
  -6 -11  -4   31.86    9.91
   5   0   7    4.50   11.21
  -5   0  -7    4.43   10.31
 -10  -5   1  378.98   37.91
 -10  -5   1  369.71   38.13
  10  -5  -1  340.79   41.58
 -10   5   1  383.43   39.60
  10   5  -1  338.48   42.57
   2 -11   6   52.34   12.46
  -2 -11  -6   43.41   10.52
   0 -16   3  166.51   26.66
   0  16  -3  141.60   16.78
   0 -16  -3  138.91   18.99
   0  16   3  127.15   16.48
   0  16   3  154.61   22.82
   7 -10  -4   53.21   10.23
  -7 -10   4   52.39   15.40
   7 -10  -4   55.16    8.90
   7  10  -4   44.73   10.35
  -1 -17  -1   56.07   13.99
  -1  17  -1   57.68   11.24
   1  17   1   68.85   12.07
   1 -17   1   59.84   15.37
  10   2   2   14.52    9.47
 -10   2  -2   12.54    9.43
  10  -2   2   22.87   16.53
  10  -2   2   13.58    9.64
  10   2   2   17.68   16.61
 -10  -2  -2   16.51    9.20
  -9  -4   4   28.54   11.37
   9  -4  -4   25.16   12.63
   9   4  -4   35.41   10.80
  -9   4   4   58.57   24.56
  -9  -4   4   44.98   22.89
   9  -4  -4   26.92   13.28
   9  -4  -4   32.83   13.75
   1   3  -8   97.71   14.56
   1   3  -8   89.47   10.80
   1  -3  -8  110.67   16.09
  -1   3   8  114.46   21.30
   3 -16  -2  113.91   16.79
  -3 -16   2  145.77   22.78
  -3  16   2  133.79   21.15
  -3  16   2  108.16   14.60
   3  16  -2  123.83   18.04
   0 -15   4   19.37   15.62
   0  15   4   33.76   13.03
   0  15   4   32.59    8.71
   0  15  -4   32.21    9.29
  -5   1  -7   67.92   10.96
   5  -1   7   66.61   14.89
  -5  -1  -7   69.59   12.58
   2  -2  -8   23.59   10.49
  -2   2   8    8.77   13.32
   2   2  -8   12.92    8.36
   2   2  -8   16.93   11.65
  -7 -12  -2   94.47   19.23
   7  12   2   80.53   12.61
   7 -12   2   83.37   10.81
   7 -12   2   80.39   15.87
  -7  12  -2   85.12   12.31
  -7 -12  -2   73.11   11.34
   6  -9   5  132.97   15.63
   6  -9   5  108.65   18.79
  -6   9  -5  139.26   16.82
  -6  -9  -5   84.31   11.93
  -6  -9  -5  121.34   16.80
   6   9   5   97.14   14.80
   6  -7  -6  210.83   22.70
   6   7  -6  163.29   20.65
  -6   7   6  216.91   27.19
   6  -7  -6  234.35   28.60
  -6  -7   6  231.19   28.32
  10   4  -2   14.00   10.45
 -10  -4   2   22.06   11.01
 -10  -4   2   15.88   12.49
  10  -4  -2   18.90   13.95
 -10   4   2   15.95   12.63
  10  -4  -2   14.47    8.98
  -2  -8  -7   -1.72   11.70
  -2   8  -7    5.78   16.36
  -2  -8  -7    6.41    8.34
  -2   8  -7    3.64    8.41
   5 -15   1  201.53   24.58
  -5  15  -1  214.53   24.56
   5  15   1  207.83   25.03
   5 -15   1  219.05   22.82
   5 -15   1  209.15   28.36
  -5 -15  -1  201.04   26.87
   4 -10  -6    3.80    9.06
  -4 -10   6   -3.49   13.81
   4  10  -6   -5.37    8.28
   4 -10  -6   -0.44    7.63
   1 -16  -3   30.93   11.16
   1  16  -3   36.16    9.48
  -1  16   3   31.99    9.28
  -1  16   3   32.31   13.93
  -1 -16   3   45.13   18.13
  -3   7  -7  377.23   36.67
  -3  -7  -7  301.64   31.15
  -1 -15   4   -0.81   16.03
   1  15  -4    2.83    8.75
   1 -15  -4    5.28    9.14
  -1  15   4    1.30    7.87
  -1  15   4    7.56   12.78
   7  -4  -6   43.79    7.97
   7  -4  -6   57.94   12.47
   7   4  -6  102.73   26.78
   7  -4  -6   41.06   11.25
  -7   4   6   41.44   12.71
   7   4  -6   49.13   10.97
  -7 -11  -3  157.11   21.68
  -7  11  -3  192.58   21.30
  -7 -11  -3  178.64   21.88
   7 -11   3  211.42   26.99
   7  11   3  171.15   20.63
   7  11   3  124.91   19.10
   7 -11   3  206.49   21.65
   8  -2   5   54.60   14.51
   8   2   5   61.26   14.81
   8  -2   5   55.89    9.11
   8   2   5   56.33   10.53
  -8   2  -5   65.39   11.79
  -8  -2  -5   76.80   13.54
  -7  -8   5   18.67   14.03
  -7   8   5   18.66   11.39
   7  -8  -5   14.39    9.40
   7  -8  -5   16.36    7.90
   7   8  -5   19.76    9.39
   6 -14   1   94.63   14.03
   6 -14   1   79.01   14.18
  -6 -14  -1   85.24   16.68
  -6  14  -1   71.14   11.47
   6  14   1   77.89   12.27
   8  -5  -5   11.68   10.91
   8   5  -5   10.29   10.54
   8  -5  -5    9.74    8.39
  -8   5   5    8.26   10.89
  -8  -5   5    6.87   11.83
   8  -5  -5    5.67    9.86
   4  16   0  136.80   19.90
   4 -16   0  156.09   21.54
  -4 -16   0  121.17   20.86
  -4  16   0  127.78   18.42
   9   9   0   56.05   12.62
   9  -9   0   53.78   10.50
   9  -9   0   44.33   13.65
  -9  -9   0   54.71   12.53
  -9   9   0   59.50   13.19
  -9  -9   0   38.03    8.18
  -9   0  -4  276.78   28.74
   9   0   4  275.77   33.16
   9   0   4  262.46   27.62
  -3  16  -2   20.30    8.16
   3 -16   2   20.13   17.53
  -3 -16  -2   22.76   12.59
   3  16   2   20.20   10.46
  -8   8   4   33.15   12.57
  -8  -8   4   38.20   13.94
   8  -8  -4   34.67    9.76
   8  -8  -4   36.64   12.10
   8  -8  -4   44.49    9.11
   8   8  -4   40.11    9.98
   5 -14  -3  141.13   16.98
  -5  14   3  128.81   19.32
   5 -14  -3  154.66   20.03
   5  14  -3  137.35   18.07
   2 -17   0   19.55   12.07
  -2 -17   0    8.42   13.91
   2  17   0   18.07    9.30
  -1  16  -3   26.40    8.71
   1  16   3   21.03    8.78
   1 -16   3   26.10   17.89
   1  16   3   23.77   13.96
   8 -11   1  572.74   53.05
  -8 -11  -1  427.41   43.77
   8  11   1  468.88   55.04
  -8  11  -1  545.62   51.31
  -8 -11  -1  497.79   49.70
   8 -11   1  559.29   54.73
   8   9   3   -0.87   11.34
   8  -9   3    3.25    7.49
   8   9   3    1.36    8.52
  -8   9  -3    9.09    9.28
  -8  -9  -3    6.66   10.73
  -8  -9  -3    4.53   11.64
   8  -9   3   12.35   14.17
   5  -2   7    3.16   11.81
  -5   2  -7   -0.60    9.95
   5   2   7    6.17   11.10
  -5  -2  -7    1.73   10.16
   9   1   4    8.86    9.33
  -9  -1  -4    9.42   10.52
   9  -1   4    3.51    8.85
   9   1   4    7.41   13.48
   9  -1   4   13.76   13.94
  -9  -7   3   36.99   12.91
  -9   7   3   45.38   14.82
   9   7  -3   31.38   10.02
   9  -7  -3   34.72   12.84
   9  -7  -3   31.40    9.67
   9  -7  -3   26.93    9.80
   1 -15   4   75.13   19.22
   1  15   4  106.93   14.20
  -1  15  -4  129.33   16.43
   1  15   4  117.17   20.45
  -1 -15  -4  102.31   15.54
   5  -8   6    8.49   12.38
  -5   8  -6    6.24    8.62
  -5  -8  -6    6.85   10.55
  -5  -8  -6    6.39    8.20
   0  -9  -7   -1.22    7.77
   0  -9   7    0.85   10.05
  -1  -3  -8   10.14   11.51
  -1   3  -8   10.12    8.89
  -1   3  -8    9.72   10.07
  -1  -3  -8   10.56    9.30
   7 -13   0  175.04   23.31
  -7  13   0  129.03   16.68
   7  13   0  139.66   18.83
   7 -13   0  163.93   18.73
  -7 -13   0  160.75   21.95
   6 -10  -5   39.73   10.31
   6 -10  -5   35.11    9.07
  -6 -10   5   45.14   16.58
   6  10  -5   34.90    9.38
  -9  -9   1   33.53   14.05
  -9   9   1   29.58   12.14
   9  -9  -1   26.07   12.11
  10  -5   1   91.19   14.38
  10   5   1   86.37   13.28
 -10  -5  -1   91.91   12.99
  10   5   1   91.73   18.53
  10  -5   1   91.26   19.84
   3 -13  -5    6.99    9.42
  -3  13   5   12.16    7.53
   3  13  -5    8.24    8.47
  -3  13   5    3.36   13.78
  -3 -13   5   10.89   16.46
   8  -7   4  200.98   21.03
   8   7   4  151.34   24.63
   8  -7   4  188.90   25.15
  -8  -7  -4  186.97   22.35
  -8   7  -4  193.16   20.84
   8   7   4  169.17   21.23
  10  -3   2   46.41   10.70
  10   3   2   30.45   17.25
 -10   3  -2   40.37    9.40
 -10  -3  -2   45.75    9.74
  10   3   2   32.85   11.10
  10  -3   2   51.72   16.95
   9  -6   3  127.92   16.82
  -9   6  -3  125.35   16.40
   9   6   3   89.41   17.21
   9   6   3  123.90   16.96
  -9  -6  -3  106.95   15.82
  -1  -9   7  190.67   23.27
   1  -9  -7  169.72   21.80
   6 -13  -3   85.36   10.69
  -6  13   3   68.61   13.30
   6 -13  -3   88.22   12.76
  -6 -13   3   78.04   16.50
   6  13  -3   78.47   12.19
  -2   0  -8   30.58    9.29
  -2   0  -8   29.15   10.03
  10   0  -3    5.04   12.04
 -10   0   3    4.04   11.38
  10   0  -3    2.38   10.17
   5  -9  -6  330.12   41.63
  -5  -9   6  369.53   40.13
   5  -9  -6  349.23   34.25
  -5   9   6  366.81   38.82
   5   9  -6  308.57   33.39
   3 -11  -6   47.22   10.20
  -3 -11   6   65.90   18.38
   3  11  -6   47.65    9.35
  -3  11   6   40.31   15.37
   7  -7   5   90.33   17.32
  -7  -7  -5   87.64   13.32
  -7   7  -5   82.26   10.76
   7  -7   5   80.31    9.55
   7   7   5   65.64   11.77
  -3  -8   7  153.67   21.30
  -3   8   7  124.56   21.18
   2   3  -8   -1.82    8.56
   2   3  -8   -1.25    9.16
   2  -3  -8   -0.35   10.57
  -2   3   8    1.00   13.79
   4 -16  -1   99.88   13.75
  -4  16   1   96.69   15.97
   4  16  -1   90.34   14.31
   4 -16  -1  100.41   16.41
  -2  -1  -8  126.40   18.09
  -2  -1  -8  121.02   15.68
  -2   1  -8  137.32   16.55
  -2   1  -8  128.52   16.81
  10  -1  -3  470.59   49.82
 -10   1   3  333.53   37.51
  10   1  -3  442.30   53.41
  10  -1  -3  468.63   52.30
  10   1  -3  493.88   55.49
  10  -1  -3  308.89   38.80
 -10  -1   3  249.23   30.79
   5 -13  -4  352.47   34.52
   5 -13  -4  346.45   37.68
  -5  13   4  351.14   39.66
   5  13  -4  344.36   35.11
   5  -5  -7    7.69   11.39
  -5   5   7    2.93   13.16
   5   5  -7   12.62   22.07
   0   4   8   27.54   16.48
   0   4  -8   24.63    9.67
   0  -4  -8   21.70    9.69
   0   4  -8   23.18    9.63
   9  -2   4   75.35   15.53
   9   2   4   77.01   16.80
   9   2   4   80.51   11.80
   9  -2   4   80.41   10.98
  -9  -2  -4   77.20   12.68
   1   4  -8   19.55   10.20
   1  -4  -8   12.88   10.38
   1   4  -8   11.33    8.84
  -1   4   8   15.97   15.25
  -7  13   1   66.69   15.13
   7 -13  -1   59.73   11.23
  -7 -13   1   67.70   14.37
   7 -13  -1   67.58   13.98
   7 -13  -1   72.34   14.70
  -6  -6  -6  264.68   28.48
  -6   6  -6  279.18   28.35
   6  -6   6  273.68   31.11
  -2 -17   1   14.54   16.01
   2  17  -1   18.90   11.00
  -2  17   1   22.59   11.39
  -2  17   1   21.83    9.19
   2 -17  -1   20.04   10.93
  -8   3  -5   34.50    9.89
   8  -3   5   27.41   14.10
   8   3   5   37.02   14.82
  -8  -3  -5   44.30   13.05
   8  -3   5   28.90    8.37
   8   3   5   31.66   10.23
  -7   0  -6   75.46   13.75
   7   0   6   60.30   14.12
  -4  12  -5  332.58   32.16
   4  12   5  226.43   24.63
  -4 -12  -5  274.68   29.25
  -4 -12  -5  219.64   24.83
   4  -7  -7  116.62   16.67
  -4  -7   7  136.28   20.12
  -4   7   7  137.26   21.44
  -4  16  -1   44.69    8.15
  -4 -16  -1   51.35   15.26
  -4  16  -1   54.48   13.04
   4 -16   1   60.55   15.76
   4  16   1   42.22   11.61
   9   8   2   -0.54    9.30
   9  -8   2   -0.77   13.18
   9  -8   2   -2.58    8.19
   9   8   2    4.34   11.13
  -9  -8  -2    1.02    9.79
  -9   8  -2   -0.33   10.05
   2  17   1   26.95   10.11
   2 -17   1   32.34   15.50
  -2  17  -1   28.30    9.42
   3   0  -8   48.07    9.96
  -3   0   8   68.93   17.18
  -5   3  -7   63.03   11.98
  -5  -3  -7   65.59   11.82
   5  -3   7   60.72   13.75
  -1  -9  -7   43.12    9.50
   1  -9   7   58.95   11.74
   1   9   7   49.08   17.63
   7  -1   6    1.19   12.78
  -7  -1  -6    6.24   11.34
  -7   1  -6    7.37   11.90
   7   1   6    3.70   13.14
  10   6   0  193.04   26.97
 -10  -6   0  214.67   24.07
  10   6   0  212.18   25.66
  10  -6   0  224.25   24.54
  10  -6   0  226.99   29.89
   4  15  -3  192.43   22.24
  -4 -15   3  192.36   26.03
   4 -15  -3  169.41   18.75
   4 -15  -3  174.38   23.31
  -4  15   3  161.85   22.74
   0  12   6   87.92   17.34
   0 -12  -6  100.21   15.82
   0 -12   6  126.46   20.66
  -2 -15   4  205.27   28.81
  -2  15   4  147.63   21.82
   2 -15  -4  171.40   22.13
   2  15  -4  185.84   20.79
  -2  15   4  152.52   18.18
  -9   5   4    6.95   17.51
   9  -5  -4   17.24   10.56
  -9  -5   4   17.49   11.54
   9   5  -4   12.07    9.66
   9  -5  -4   16.34   11.81
   9  -5  -4    7.23    8.21
  -2  16   3   56.08   14.30
   2  16  -3   49.00   10.65
  -2 -16   3   55.69   17.49
  -2  16   3   42.49    9.57
   2 -16  -3   47.79   11.89
  -6   0   7   -1.37   14.44
   6   0  -7    0.73    8.79
  -2   2  -8    5.18    8.28
  -2  -2  -8    9.72    8.94
  -2   2  -8    4.26    9.66
  -2  -2  -8    3.26   10.43
  10   2  -3  135.80   19.54
 -10  -2   3   86.80   15.21
  10  -2  -3  123.52   21.80
  10  -2  -3  118.05   19.94
  10   2  -3  345.96   47.13
  10   2  -3  164.09   23.25
 -10   2   3  118.23   19.97
  10  -2  -3  140.76   19.66
   3   1  -8    4.46    8.09
   3  -1  -8    0.02   10.07
  -3   1   8    6.49   13.25
  -3  -1   8    6.33   15.07
  -9  -9  -1    0.08   11.02
  -9  -9  -1   -0.23    8.24
   9  -9   1   -5.28   12.52
  -9   9  -1    2.26   11.24
   9   9   1    2.68    9.31
   9  -9   1   -5.61    8.56
   9   9   1   -2.21   10.24
  -4  -6  -7  182.35   20.38
  -4   6  -7  237.30   25.61
   6 -12  -4    4.70    8.97
   6  12  -4    1.40    8.71
  -6 -12   4    2.15   14.11
   6 -12  -4   -1.54    8.06
  -6  12   4    4.03   11.20
  -8  10   3    6.78   12.97
   8  10  -3    9.52   10.53
   8 -10  -3   11.31    8.95
   8 -10  -3   11.99    8.40
   8 -10  -3    8.98   11.23
  -8 -10   3    9.64   13.51
  -1 -12   6    9.35   14.33
   1  12  -6   -0.07    7.43
   1 -12  -6    0.64    8.81
  -1  12   6    8.18   12.73
  -4  14   4   91.94   16.74
   4  14  -4   89.53   11.80
   4 -14  -4   73.60    9.15
  -4 -14   4   99.81   18.55
   4 -14  -4   85.59   12.93
   6  -1  -7    6.60    9.44
  -6   1   7   15.52   14.08
   6   1  -7   12.14   10.58
  -6  -1   7   11.65   12.72
  -5 -11  -5   21.59   10.24
   5  11   5   18.89    8.75
   5 -11   5   19.68    7.80
  -5  11  -5   15.99    7.80
  -5 -11  -5   11.02    8.77
   0  17   2   -2.74   12.58
   0 -17   2   12.34   17.35
   0  17  -2    0.49    8.84
   0 -17  -2    2.90   11.47
   0  17   2    6.00    9.84
  10  -5  -2    0.26    9.41
  10  -5  -2   -3.59   12.05
 -10  -5   2    1.14   10.04
  10   5  -2    1.76   10.71
 -10  -5   2   -0.26   12.47
 -10   5   2   -0.37   12.15
   8 -11  -2  461.11   44.07
  -8 -11   2  470.13   46.63
   8  11  -2  444.36   50.97
   8 -11  -2  497.63   51.04
   8 -11  -2  458.68   46.23
  -8  11   2  471.92   49.17
 -10   6   1    6.45   11.58
 -10  -6   1    6.63   10.17
  10  -6  -1    3.91   13.90
  10   6  -1    0.68   11.64
 -10  -6   1    4.53   12.11
   7 -13   1   44.90   13.32
  -7  13  -1   35.49   10.23
   7 -13   1   49.09   10.17
   7  13   1   34.44   11.01
  -7 -13  -1   39.18   14.58
  -7  -5   6  203.63   24.71
  -7   5   6  208.74   26.75
   7  -5  -6  242.50   30.21
   7  -5  -6  208.15   22.49
   7   5  -6  220.17   25.57
   5  14   3    3.72    8.73
   5 -14   3    3.36    7.98
  -5  14  -3   -4.61    8.47
  -5 -14  -3    1.17    8.97
  -5 -14  -3   -1.71   11.50
   5 -14   3    2.17   12.04
  -5  15   2   89.58   14.16
   5  15  -2  105.12   14.02
   5 -15  -2  103.49   10.67
   5 -15  -2  119.52   17.57
  -5 -15   2  109.76   16.92
  -1  -4  -8  318.64   34.89
  -1   4  -8  267.35   27.60
  -1  -4  -8  239.80   26.01
  -1   4  -8  250.89   25.37
  -6  14   2   15.54   11.35
   6 -14  -2   19.88    9.76
   6 -14  -2   16.85    8.83
  -6 -14   2   21.74   12.55
   6  14  -2   18.32    9.89
  -2   9   7    7.56   13.06
  -2  -9   7   -0.78   11.55
   2  -9  -7    2.76    9.70
   0 -14  -5    0.55   10.42
   0 -14   5    5.74   16.99
   0  14   5   -5.30   13.12
   0  14   5    4.76    7.24
   0  14  -5    3.21    8.42
  -9   3  -4   12.88    9.50
   9  -3   4    9.90   13.51
  -9  -3  -4    9.23   10.69
   9  -3   4   14.04    8.86
   9   3   4   14.45    9.32
   9   3   4   13.05   13.92
   7   2   6   41.32   13.73
   7  -2   6   47.14   13.61
  -7   2  -6   54.23   12.78
  10   4   2   19.73   14.95
  10  -4   2   23.77    9.26
  10   4   2   21.75   11.44
 -10  -4  -2   23.82    9.39
   2 -16   3   77.74   18.87
   2  16   3  126.00   23.66
  -2 -16  -3   92.40   13.89
  -2  16  -3  122.22   15.39
   2  16   3   91.47   11.63
   3   2  -8   10.91    9.50
  -3  -2   8   12.97   15.88
   3  -2  -8   13.17   10.32
  -3   2   8   11.23   14.04
   1 -17  -2  148.50   20.28
  -1  17   2  161.64   19.05
   1  17  -2  170.86   20.96
  -1  17   2  167.96   23.40
  -1 -17   2  202.45   27.69
  -3 -13  -5   71.28   12.35
  -3 -13  -5   64.28   11.53
  -3  13  -5   78.39   10.46
   3  13   5   55.99    9.15
  -1 -14   5  268.56   33.62
  -1  14   5  248.01   26.30
   1  14  -5  331.98   32.33
  -1  14   5  283.34   34.13
   2  -4  -8   16.91   10.66
   2   4  -8   12.63    8.73
   2   4  -8   13.71   12.28
  -2   4   8   12.27   14.61
  -2  15  -4   13.73    8.32
   2  15   4    3.83    7.93
   2  15   4    3.76   15.80
   2 -15   4    5.28   14.70
  -2 -15  -4    4.70    9.54
   1  12   6    5.72   15.22
  -1 -12  -6   10.90    9.90
   1 -12   6   10.46   12.08
   6  -2  -7   68.11   12.21
  -6   2   7   83.30   15.51
  -6  -2   7   82.06   17.04
   6   2  -7   98.86   17.08
  -8   6   5   74.99   13.09
   8  -6  -5   82.57   10.33
   8  -6  -5   70.76   13.31
   8   6  -5   80.63   13.16
  -8  -6   5   85.96   14.49
   8  -6  -5   90.40   14.78
   1  17   2   20.15    9.31
  -1 -17  -2   20.56   12.05
   1  17   2   29.64   13.80
  -1  17  -2   25.96    9.33
   1 -17   2   37.68   18.26
  -4 -10  -6   33.35   12.03
  -4  10  -6   31.28    8.39
  -4 -10  -6   28.55    9.70
   7 -12  -3  141.30   16.66
  -7 -12   3  148.23   21.15
   7  12  -3  141.43   19.82
  -7  12   3  117.48   18.37
   7 -12  -3  138.23   18.20
  -2  -3  -8  192.30   23.35
  -2   3  -8  165.31   20.02
  -2   3  -8  169.17   19.29
  -2  -3  -8  157.55   18.58
  -8   4  -5  127.16   16.36
   8   4   5  108.56   13.79
  -8  -4  -5  136.32   19.47
   8  -4   5  119.83   19.82
   8   4   5  113.06   18.50
   8  -4   5  112.37   11.37
  10  -3  -3    6.07   11.37
 -10  -3   3   -0.81   11.73
  10  -3  -3    5.60    9.72
  10  -3  -3    5.27   10.00
  10   3  -3    3.80    9.66
 -10   3   3   10.36   13.27
  -7 -10  -4   69.25   12.40
   7 -10   4   97.88   16.19
  -7  10  -4  107.55   10.86
  -7 -10  -4   91.07   12.16
   7  10   4   81.76   11.37
   7 -10   4  101.66   10.55
   6 -13   3  169.55   23.13
  -6 -13  -3  133.13   19.77
   6  13   3  129.85   17.21
   6 -13   3  171.63   18.80
  -6  13  -3  173.38   19.89
  -6 -13  -3  166.17   20.22
  -3 -11  -6  135.85   18.23
  -3 -11  -6  160.83   20.54
  -4 -15  -3  265.67   30.27
  -4 -15  -3  273.82   29.57
   4  15   3  270.86   30.20
  -4  15  -3  323.55   31.07
   0   5  -8  257.71   27.56
   0   5   8  332.79   39.39
   0  -5  -8  279.61   29.59
   0   5  -8  381.66   37.97
   1 -14   5   11.50   15.27
   1  14   5    6.53    8.05
   1  14   5    7.13   14.04
  -1  14  -5   12.67    8.51
  -1 -14  -5    2.75    9.46
  -5  -4  -7   25.49   12.01
  -5   4  -7   19.41   10.40
   5  -4   7   14.89   12.81
   9   9  -2  105.67   13.96
  -9  -9   2  117.30   19.17
   9  -9  -2  100.55   15.39
   9  -9  -2  115.24   15.80
  10   6   1  378.81   42.94
  10  -6   1  403.65   41.19
  10  -6   1  430.04   47.00
  10   6   1  357.16   42.39
 -10  -6  -1  385.97   39.72
   1  -5  -8    3.03   10.32
  -1   5   8    1.65   14.15
   1   5  -8    3.74   16.56
  -5 -15  -2  445.38   47.92
  -5  15  -2  338.89   33.47
   5  15   2  454.80   49.29
   5 -15   2  474.61   46.97
   5 -15   2  496.27   45.79
   6  -8  -6    4.31   10.97
   6  -8  -6   -0.57    7.30
   6   8  -6    4.22    8.72
  -6   8   6    0.40   12.09
  -2 -12   6  408.62   44.63
   2  12  -6  382.55   36.60
  -2  12   6  321.52   37.95
   3 -17   0   96.60   15.95
   3  17   0   93.66   12.98
  -3  17   0   87.24   13.59
   5 -13   4   17.23    7.64
   5  13   4   10.08    8.76
  -5  13  -4   17.27    9.59
  -5 -13  -4   17.74   10.08
   5 -13   4   16.37   13.30
  -5 -13  -4   14.64    9.43
   7   3   6  131.87   21.02
   7  -3   6  156.72   22.82
  -7   3  -6  167.62   20.62
  -3  -8  -7  168.59   21.28
  -3   8  -7  138.62   17.77
  -3  -8  -7  137.43   17.01
  -5   6   7   10.46   12.28
   5  -6  -7   11.73   12.13
  -5  -6   7    6.34   11.42
  -3  -3   8    1.44   15.76
   3   3  -8   -2.57   10.64
  -3   3   8    2.98   13.64
   3  -3  -8    1.68    9.84
   6  14   2   58.21   11.85
  -6 -14  -2   62.48   14.20
  -6  14  -2   74.64   10.76
   6 -14   2   73.73   10.37
   6 -14   2   61.95   13.80
   9  -7   3  297.62   30.34
  -9   7  -3  314.13   31.14
  -9  -7  -3  323.67   33.78
   9   7   3  231.90   30.35
   9   7   3  252.39   28.79
   6  -3  -7  207.89   25.14
  -6   3   7  222.32   28.27
  -4  16   2  117.35   18.62
   4 -16  -2  119.77   18.48
   4  16  -2  110.47   13.35
  -4 -14  -4  257.61   29.62
  -4 -14  -4  366.95   36.76
  -4  14  -4  354.59   34.17
   4  14   4  288.32   31.46
  -2  -9  -7   65.51   10.68
  -2  -9  -7   85.33   15.43
   2  -9   7   65.99   11.78
   9   4   4   -1.42    9.62
   9  -4   4   -1.25    7.93
   9  -4   4    7.72   14.76
  -9   4  -4    4.75    9.18
   9   4   4    5.10   14.54
  -9  -4  -4   -4.45   10.99
   7  13  -2    4.45    9.55
   7 -13  -2   -4.43    9.18
   7 -13  -2   -3.25   11.32
   7 -13  -2    3.56    9.92
  -7 -13   2    2.83   12.41
  -7  13   2   -1.11   12.23
  -8 -11  -2   50.10   11.74
  -8  11  -2   49.97   11.79
   8  11   2   39.15   10.72
  -8 -11  -2   58.71   15.26
   8 -11   2   46.20    9.24
   8 -11   2   51.88   15.29
   8  11   2   44.86   11.21
   9  -8  -3   47.88   14.56
   9  -8  -3   47.02    9.57
  -9   8   3   49.24   17.56
   9   8  -3   41.92   10.98
  -9  -8   3   59.05   14.01
   9  -8  -3   44.42   10.36
   7   9  -5   64.63   10.70
   7  -9  -5   60.81   11.15
  -7   9   5   53.53   12.50
  -7  -9   5   73.72   15.75
   7  -9  -5   61.92    9.66
   2 -14  -5  336.81   39.73
   2  14  -5  414.77   40.12
  -2  14   5  342.30   39.24
  -2 -14   5  312.63   38.13
  -2  14   5  307.69   32.27
   8  12   0  141.64   19.46
   8 -12   0  147.33   20.66
  -8  12   0  136.51   18.09
  -8 -12   0  128.61   19.56
   8 -12   0  155.33   18.70
   8  -8   4   15.14    7.90
   8   8   4   17.34    9.66
   8   8   4    9.14   14.97
  -8   8  -4    9.94    9.43
  -8  -8  -4   21.56   11.22
  -9   6   4  180.21   27.65
   9   6  -4  137.66   18.92
  -9  -6   4  143.84   20.46
   9  -6  -4  120.92   19.01
   9  -6  -4  138.18   22.06
   9  -6  -4  143.60   17.58
   2 -17  -2   24.18   11.37
   2  17  -2   21.68   10.42
  -2  17   2   24.65   12.20
  -2  17   2   29.98    9.63
  -2 -17   2   32.46   16.90
  -1  -5  -8   -1.30   12.77
  -1   5  -8    0.79    9.02
  -1   5  -8    3.08    7.65
  -1  -5  -8    7.41    8.62
  -6   7  -6  114.81   15.35
  -6  -7  -6  124.02   17.81
   6  -7   6  109.81   16.38
  -8   9   4    8.24   11.21
  -8  -9   4   12.30   14.02
   8  -9  -4    8.16    8.47
   8  -9  -4   15.11    8.00
   8   9  -4    7.15    8.86
  -6 -10  -5    2.11    8.46
  -6  10  -5    5.05    8.00
   6 -10   5    5.18    7.19
   6  10   5    0.83    8.42
  -6 -10  -5    5.28    9.44
   5  12  -5    1.44    9.45
  -5 -12   5   -4.12   15.38
   5 -12  -5    0.54    9.29
   5 -12  -5    7.92    7.65
  -5  12   5    8.65   13.34
  -3 -17   1  478.77   49.90
  -3  17   1  438.98   44.27
  -3  17   1  407.39   40.67
   3  17  -1  377.82   44.51
   3 -17  -1  419.71   45.10
   7  -8   5    1.53    7.19
  -7   8  -5    4.26    8.30
  -7  -8  -5    1.18   10.30
   7   8   5    6.58    9.51
   7  -8   5    3.33   13.25
  -3   0  -8   21.59   10.24
  -3   0  -8   22.60    8.96
   7 -11  -4  144.06   17.30
  -7  11   4  118.91   18.33
  -7 -11   4  156.12   23.37
   7 -11  -4  132.10   18.79
   7  11  -4  154.89   19.34
  10   5   2  357.17   38.44
 -10  -5  -2  350.31   35.47
  10   5   2  287.17   37.72
  10  -5   2  344.48   35.66
  10   0   3    0.08   15.97
  10   0   3    1.85    8.94
 -10   0  -3   -1.41    8.94
  -5   9  -6   82.91   10.61
  -5  -9  -6   56.79   10.37
   5  -9   6   72.01   14.87
  -5  -9  -6   80.37   12.91
   3  15  -4   13.63    9.69
   3 -15  -4   11.83   10.82
  -3  15   4   13.39    8.07
  -3 -15   4   12.11   15.90
  -3  15   4   11.35   13.85
  -2  -4  -8    3.63    8.28
  -2   4  -8    0.17    7.31
  -2   4  -8   -4.65    8.32
  -2  -4  -8    6.46   12.00
 -10  -4   3   12.63   10.32
 -10   4   3   11.41   13.31
  10  -4  -3   13.38    9.50
  10   4  -3   14.86   10.26
  10  -4  -3   10.01   12.30
 -10  -4   3   12.13   12.69
  10  -6  -2    1.72   13.03
 -10   6   2   -0.41   12.59
  10  -6  -2    7.22    9.64
 -10  -6   2    4.18   11.26
  10   6  -2    8.63   10.83
   9  10   0    0.83   10.61
  -9  10   0   -0.75   10.72
   9 -10   0    3.66   11.43
   9 -10   0    1.80    9.70
  -9 -10   0    0.32   11.88
  -3  16   3   91.61   16.07
   3 -16  -3   81.35   13.30
  -3  16   3   78.60   10.18
   3  16  -3   94.07   12.47
  -3 -16   3  110.38   19.72
  10   7   0   -3.00   11.69
  10  -7   0  -10.24   13.25
 -10  -7   0    4.94    8.54
  10   7   0   -6.79   10.91
  10  -7   0    3.51    9.44
  -3  -1  -8   12.78    7.50
  -3   1  -8   13.25    9.90
  -3  -1  -8   12.02   11.14
   7  -6  -6   32.42   12.26
   7  -6  -6   29.24    7.96
  -7   6   6   31.53   13.09
  -7  -6   6   27.02   13.75
   7   6  -6   27.76    9.99
 -10   1  -3  376.19   36.42
  10  -1   3  372.57   45.28
 -10  -1  -3  405.94   40.49
  10   1   3  331.82   43.04
  10   1   3  360.86   36.97
  10  -1   3  362.17   38.90
  -9   0   5    0.10   12.24
   9   0  -5    0.72   10.59
   9   0  -5    2.26    8.16
   3  17   1   21.14   10.97
  -3  17  -1   25.06    8.94
  -3 -17  -1   23.63   14.00
   3 -17   1   36.94   16.75
  -2   5   8  115.30   20.47
   2  -5  -8  130.99   18.75
   2   5  -8  337.36   46.14
   2 -17   2  478.68   53.15
  -2  17  -2  369.58   36.15
   2  17   2  318.09   35.88
   8 -12  -1    5.28   11.88
  -8  12   1    4.28   10.79
  -8 -12   1    6.54   12.29
   6  12   4  301.79   36.34
   6 -12   4  385.42   36.51
  -6 -12  -4  334.46   34.65
   6 -12   4  355.22   38.39
  -6  12  -4  415.13   39.15
  -6 -12  -4  307.66   35.12
   8  10   3   75.12   14.30
  -8 -10  -3  110.50   13.92
   8 -10   3  119.39   20.81
   8 -10   3  102.32   11.94
  -8 -10  -3  100.69   15.71
   8  10   3   88.73   11.89
  -8  10  -3  116.11   15.63
  -4 -13   5   19.47   17.54
   4 -13  -5   15.98   10.15
   4  13  -5   12.26    9.58
  -4  13   5   12.09   14.09
   4 -13  -5   10.57    7.39
  -4  -7  -7   26.72    8.66
  -4  -7  -7   36.88   12.61
  -4   7  -7   32.86   10.84
  -4  16  -2  200.43   20.83
   4  16   2  214.06   27.09
   4 -16   2  183.11   27.33
  -4 -16  -2  220.40   27.78
   4 -11  -6   47.30    8.80
   4 -11  -6   43.30   10.54
  -4 -11   6   55.25   17.44
   4  11  -6   47.42   10.07
   2 -12   6   21.52   10.73
  -2 -12  -6   16.38    9.39
  -3  -9   7    8.05   13.30
  -3   9   7    7.17   11.97
  -4  -8   7   75.19   15.17
  -4   8   7   69.73   15.17
   4  -8  -7   57.70   12.70
   9  -1  -5  120.83   15.93
   9   1  -5  135.15   20.69
   9  -1  -5   89.98   13.94
   9   1  -5  119.14   16.62
  -9  -1   5  100.63   16.96
  -9   1   5  115.66   19.59
   0  10   7   32.50   15.23
   0 -10   7   24.70   12.33
   0 -10  -7   12.19    9.04
   8  -5   5    3.90    8.32
   8  -5   5    2.10   14.19
  -8   5  -5    0.47    9.37
   8   5   5   -0.53   12.91
  -8  -5  -5   -1.51   11.76
  10   7  -1   16.90   11.36
  10  -7  -1   13.42   14.37
 -10   7   1   16.19   12.17
 -10  -7   1   23.13   12.66
  -9 -10   1  488.16   49.03
   9 -10  -1  466.63   47.60
  -9  10   1  431.99   43.53
   7   4   6  227.75   28.69
   7  -4   6  289.97   32.83
  -7   4  -6  301.41   30.78
  -7  -4  -6  297.11   32.29
   1 -10  -7  160.47   21.52
  -1 -10   7  196.65   24.64
   3  -4  -8   92.69   13.20
  -3   4   8   80.56   16.04
   3   4  -8  139.73   23.94
   5 -10  -6  191.28   21.25
   5  10  -6  177.59   22.16
   5 -10  -6  185.61   23.12
  -5  10   6  177.75   24.23
  -5 -10   6  200.56   27.66
  -5   5  -7    6.17    9.79
   5  -5   7   11.87   12.79
   8   0  -6  408.58   43.68
  -8   0   6  492.82   53.31
   8   0  -6  459.44   45.53
  -3  -2  -8   46.03   12.85
  -3  -2  -8   42.15    9.39
  -3   2  -8   40.63   10.04
  -2  14  -5  132.34   16.53
   2  14   5   85.07   11.60
   2 -14   5  141.11   22.51
  -2 -14  -5   90.24   12.81
   2  14   5  110.63   20.21
 -10  -2  -3   17.57   10.11
 -10   2  -3   18.34    9.14
  10  -2   3   21.05   17.39
  10  -2   3   18.29    9.71
  10   2   3   19.37   10.35
  10   2   3   14.64   16.52
  -4   0   8   43.40   15.75
   4   0  -8   32.50   10.35
   6  -4  -7    2.61   10.34
  -6   4   7   10.00   12.33
   6   4  -7   28.22   27.98
   9   9   2  216.21   26.16
  -9  -9  -2  212.85   25.06
   9   9   2  208.84   25.74
  -9   9  -2  265.62   27.93
   9  -9   2  281.68   29.48
   9  -9   2  248.86   30.94
   7 -12   3   20.00   13.48
  -7 -12  -3   24.29   13.91
   7  12   3   18.44    9.69
   7 -12   3   19.45    9.16
  -7  12  -3   17.54    9.66
  -7 -12  -3   17.37   10.73
   6 -15   0   28.50    9.56
   6  15   0   30.57   11.22
  -6 -15   0   36.32   15.34
  -6  15   0   55.55   18.67
   6 -15   0   28.09   11.88
   6  11  -5  426.62   42.16
   6 -11  -5  312.84   42.47
  -6 -11   5  418.96   46.20
   6 -11  -5  401.81   39.58
  -8   1   6   11.49   13.37
  -8  -1   6    2.48   12.38
   8   1  -6    2.92   12.64
   8  -1  -6    1.87   10.12
   8  -1  -6    4.61    8.73
   8   1  -6    2.62    9.22
   9  -2  -5  176.52   20.24
  -9  -2   5  161.49   23.44
   9  -2  -5  164.97   22.48
  -9   2   5  163.87   24.97
   9   2  -5  162.93   20.66
   9  -2  -5  162.28   22.42
   9   2  -5  532.80   72.38
   7 -13   2  122.62   19.85
   7  13   2   74.80   12.88
   7  13   2   91.78   13.14
  -7 -13  -2   93.66   16.34
   7 -13   2  117.50   15.32
  -7  13  -2  101.69   11.92
  -4  -1   8   20.00   14.61
   4   1  -8   11.74    9.48
  -4   1   8    8.71   13.77
   4  -1  -8   18.89   10.35
   0   6  -8    9.66   16.71
   0   6   8   -3.10   15.77
   0  -6  -8    2.36    8.78
   8  12   1    0.86   10.58
   8 -12   1    5.70    9.32
  -8 -12  -1   -4.32   11.76
   8 -12   1    0.22   13.05
  -8  12  -1    2.74   10.67
   3  16   3    3.77    8.65
  -3 -16  -3    1.20    9.05
   3 -16   3    6.65   14.55
  -3 -16  -3    3.50   10.75
  -3  16  -3    4.73    8.14
   8   7  -5  124.56   17.14
   8  -7  -5  115.58   19.15
  -8  -7   5  131.10   20.01
  -8   7   5  103.96   13.90
   8  -7  -5  124.32   15.49
   5 -16   0   40.38   12.29
   5  16   0   33.56   11.66
  -5  16   0   39.47   12.63
   5 -16   0   40.13   12.82
   5 -16   0   44.85    9.66
  -5 -16   0   38.23   15.33
   1  -6  -8  202.00   23.53
  -1   6   8  210.87   28.82
   0 -18   0  160.24   23.50
   3 -15   4  370.89   41.21
  -3 -15  -4  254.70   29.45
  -3 -15  -4  348.72   35.14
   3  15   4  275.58   30.51
  -3  15  -4  390.36   37.38
   1 -10   7   39.35   11.27
  -1 -10  -7   32.04   10.14
   1  10   7   44.08   16.90
   9  -5   4    0.10   13.61
  -9   5  -4    9.25    9.46
   9   5   4    1.14   14.34
  -9  -5  -4   -1.88   10.93
   9   5   4   -3.03   10.71
   9  -5   4    9.50   10.42
  -6 -15   1  270.46   31.77
   6 -15  -1  259.89   29.78
   6 -15  -1  258.79   29.89
  -6  15   1  253.73   29.43
   6  15  -1  185.60   29.14
   6 -15  -1  259.40   26.85
   3 -12  -6  282.93   31.63
  -3  12   6  330.77   39.34
   3  12  -6  305.98   30.86
  -3 -12   6  361.81   41.59
  -9  10  -1  178.83   22.18
   9 -10   1  195.67   22.02
   9  10   1  144.29   20.16
  -9 -10  -1  203.30   25.11
   9 -10   1  188.99   25.01
   9  10   1  148.88   20.10
  -9 -10  -1  149.28   19.20
  -8   2   6   24.55   13.01
   8   2  -6   45.45   20.41
   8   2  -6   34.56   10.51
   8  -2  -6   39.34    8.77
  -8  -2   6   42.50   15.17
   8  -2  -6   35.01   11.68
  10   7   1   27.36   12.38
  10  -7   1   28.49   15.40
 -10  -7  -1   23.08    8.97
 -10   7  -1   30.95   12.19
  10   7   1   31.50   11.81
  10  -7   1   29.60    9.78
  -4   2   8   25.86   13.85
   4   2  -8   37.53   11.69
   4  -2  -8   19.80   10.68
  -4  -2   8   29.15   15.00
  11   0   0   19.50   10.69
 -11   0   0   20.90   11.48
  -3   3  -8   -5.71    9.62
  -3  -3  -8    0.18   10.54
  -3  -3  -8   -0.14    8.25
 -10  -3  -3  280.68   29.80
  10   3   3  237.87   33.16
  10  -3   3  279.11   36.40
  10   3   3  256.84   29.72
  10  -3   3  280.58   29.83
  -5 -16   1   70.14   15.90
   5 -16  -1   75.50   10.67
  -5  16   1   63.79   13.26
   5  16  -1   51.44   12.39
   5 -16  -1   64.34   12.37
  -1 -18   0    2.00   13.24
   1 -18   0    5.15   13.14
   2 -10  -7   77.67   12.30
  -2 -10   7   90.28   15.64
  -2   5  -8    9.80    7.79
  -2  -5  -8   10.50    8.03
  -2  -5  -8    9.88   12.75
  -2   5  -8   11.57    9.58
 -10   5   3   16.00   13.36
  10  -5  -3   12.91   12.89
  10  -5  -3   26.80   10.47
  10   5  -3   11.91   10.90
 -10  -5   3   18.25   12.39
  11  -1   0    2.03   15.83
  11  -1   0    2.07   10.01
 -11   1   0   -0.13   10.48
 -11  -1   0   28.55   20.06
  -5  -7   7  110.03   16.49
   5  -7  -7  128.93   19.28
  -5   7   7  105.78   16.77
  -8 -11   3   10.50   13.34
  -8  11   3   12.17   12.32
   8  11  -3    6.14   10.19
   8 -11  -3    9.05    8.75
   8 -11  -3   12.00    8.98
 -11   0   1    9.38   12.34
  11   0  -1    7.26   14.75
   9   3  -5  123.17   16.77
   9  -3  -5  125.10   16.71
   9   3  -5  249.59   37.88
   9  -3  -5  112.56   15.15
   9  -3  -5  114.82   19.90
  -9   3   5  122.43   20.88
   6   0   7   -1.42   11.02
  -6   0  -7    5.11   11.24
  -1   6  -8   32.47   11.21
  -1  -6  -8   26.87   10.35
  -1  -6  -8   29.26   14.83
   0  16  -4  223.23   24.20
   0  16   4  165.43   23.71
   0  16   4  152.09   19.36
   0 -16   4  123.74   23.32
  -7  14   0   11.22   11.26
   7 -14   0   12.69   12.90
   7  14   0    7.68   10.34
  -7 -14   0    9.33   13.33
   7 -14   0    3.56   10.29
  -6  15  -1   34.32   11.51
   6 -15   1   34.50   10.02
   6  15   1   20.53   11.26
   6 -15   1   34.98   12.29
  -6 -15  -1   46.24   16.57
   3  14  -5   10.36    9.07
  -3  14   5   13.49    8.86
   3 -14  -5    9.08   10.01
  -3  14   5   19.31   14.55
  -3 -14   5   13.16   17.74
  10  -6   2   62.57   10.74
  10  -6   2   68.92   17.13
 -10  -6  -2   60.72   10.33
 -10   6  -2   56.88   11.10
  10   6   2   56.86   15.95
  10   6   2   58.00   11.14
   0 -18  -1  658.70   67.25
   0 -18   1  782.40   38.22
   0  18   1  652.91   69.20
   0  18  -1  654.24   66.88
 -11  -1   1   -0.02   11.58
 -11   1   1   -2.11   12.90
  11   1  -1    2.74   13.68
  11  -1  -1    5.99   14.50
   6  -1   7   28.14   13.20
   6   1   7   28.17   13.33
  -6  -1  -7   32.38   12.58
  -6   1  -7   29.77   11.24
  -6  14   3   44.43   12.85
   6 -14  -3   63.70   12.29
   6  14  -3   57.57   11.91
  -6 -14   3   63.90   16.46
   6 -14  -3   57.95   10.20
  -5  15   3    2.83   12.36
   5 -15  -3   -0.60   10.43
   5 -15  -3    1.26    8.36
   5  15  -3   -1.56    9.18
  -5  16  -1   31.04   21.98
  -5 -16  -1   13.52   13.75
   5 -16   1    8.20   11.52
   5 -16   1   14.24    8.64
   5  16   1   14.27   10.73
  -7   5  -6   88.75   12.42
  -7  -5  -6   85.78   13.93
   7  -5   6   84.12   16.41
   0  17   3   86.35   15.72
   0 -17   3  114.53   24.54
   0  17   3   78.41   10.74
   0  17  -3   98.57   11.74
   0 -17  -3   90.28   14.19
  -4  13  -5  228.61   23.98
  -4 -13  -5  138.87   18.53
  -4 -13  -5  202.02   23.47
   4  13   5  142.30   18.23
   1 -16  -4   92.45   13.91
  -1  16   4   96.33   16.00
  -1 -16   4  117.44   23.98
   1  16  -4  119.67   15.76
  -1  16   4   93.88   12.59
   9  -7  -4   93.28   14.10
   9  -7  -4   78.80   14.42
   9  -7  -4   82.99   11.29
   9   7  -4   75.57   12.13
  -9   7   4   91.89   17.38
  -9  -7   4   84.46   14.70
  -2   6   8    7.25   13.73
   2  -6  -8   -1.02   10.16
   2   6  -8    2.82   27.40
   9  -8   3  436.62   50.16
   9   8   3  355.88   41.36
  -9   8  -3  447.97   42.78
   9  -8   3  458.66   43.87
   9   8   3  373.01   42.51
  -9  -8  -3  428.44   42.61
  -3 -17   2  155.35   24.05
   3 -17  -2  137.34   20.32
  -3  17   2  150.74   17.87
   3  17  -2  147.65   20.08
  -3  17   2  155.51   22.11
   5  14  -4  163.09   19.83
   5 -14  -4  169.03   21.58
  -5  14   4  167.57   24.18
   5 -14  -4  155.42   17.86
  11   2   0   33.04   11.70
 -11  -2   0   37.57   10.58
 -11   2   0   36.85   12.68
  11  -2   0   36.45   18.35
  11   2   0   24.09   14.78
  11  -2   0   29.95   10.90
   3  -5  -8   50.85   12.33
   3   5  -8  262.11   65.19
  -3   5   8   51.36   15.18
  -5  12  -5    4.58    7.58
  -5 -12  -5   -2.87   10.47
   5 -12   5   -1.84   12.82
   5 -12   5   -0.74    6.32
   5  12   5   -1.12    8.27
  -5 -12  -5   -4.71    8.48
  -6   9   6  138.48   21.00
   6  -9  -6  134.73   20.28
   6   9  -6  125.00   16.60
   6  -9  -6  137.93   16.83
   8 -12  -2  180.34   24.61
  -8  12   2  289.64   38.05
   8 -12  -2  211.68   23.49
  -8 -12   2  213.81   26.18
   8  12  -2  187.28   23.83
   8  -3  -6   42.09   12.64
   8  -3  -6   52.40   12.84
   8   3  -6  174.84   41.36
   8  -3  -6   56.71   10.29
  -8   3   6   60.98   15.48
   8   3  -6   57.08   10.59
  -3  -9  -7    5.64   12.36
  -3  -9  -7    8.91    9.00
   0 -13   6   57.12   16.17
   0  13   6   51.44   16.23
   0 -13  -6   46.71   11.19
   7 -14  -1   71.51   11.01
   7 -14  -1   72.74   14.69
  -7 -14   1   77.49   16.39
  -7  14   1  148.84   27.64
 -10   0   4   43.58   20.66
  10   0  -4   46.58   11.26
  10   0  -4   42.42   10.69
  10   0  -4   49.02   13.68
   4   3  -8   -4.81   11.57
   4  -3  -8    0.83   10.86
  -4   3   8    0.74   13.41
   6  -5  -7   60.74   14.22
   6   5  -7  113.88   30.52
  -6   5   7   50.21   14.21
  -8   6  -5  258.64   26.35
   8   6   5  211.23   28.25
   8  -6   5  271.93   32.27
  -8  -6  -5  246.42   27.60
  -1  18   1  155.69   19.54
   1  18  -1  149.83   19.98
   1 -18  -1  163.99   22.21
  -1 -18   1  183.79   26.81
  10  -7  -2   43.81   15.44
  10   7  -2   50.08   12.07
 -10  -7   2   45.10   12.88
 -10   7   2   49.60   14.19
  10  -7  -2   49.94   11.87
   1 -17  -3    9.88   10.76
  -1  17   3    6.69   13.01
  -1  17   3    3.92    8.38
  -1 -17   3   22.66   18.61
   1  17  -3    5.48    9.87
  -9 -10   2   12.92   12.71
   9 -10  -2    6.78    9.37
   9  10  -2    9.46   10.16
  -9  10   2    8.71   11.69
   9 -10  -2   12.72   11.27
   7  -7  -6   46.51   13.27
   7  -7  -6   46.31    8.87
  -7  -7   6   48.58   14.24
   7   7  -6   47.26   11.59
  -7   7   6   46.52   13.31
  -6 -13   4   18.50   14.63
   6  13  -4   17.30    9.81
  -6  13   4   18.75   11.90
   6 -13  -4   19.98   10.15
   6 -13  -4   12.21    8.78
   1 -18   1  101.14   21.27
  -1 -18  -1   80.81   15.35
  -1  18  -1   89.38   11.54
   1  18   1   93.81   12.60
  -1 -16  -4   68.49   12.19
  -1  16  -4   89.00   11.71
   1  16   4   75.87   17.48
   1 -16   4   38.47   16.09
   1  16   4   52.17    9.65
  11  -2  -1  157.95   25.29
 -11   2   1  164.35   22.09
 -11  -2   1  180.69   22.55
   1 -13  -6   79.23   13.31
  -1  13   6   79.96   16.37
  -1 -13   6  108.25   23.03
   6  -2   7  345.68   36.90
   6   2   7  330.99   36.18
  -6  -2  -7  381.12   38.45
  -6   2  -7  402.51   39.97
  10   1  -4   33.89   10.85
  10   1  -4   43.80   14.73
 -10  -1   4   16.06   16.63
  10  -1  -4   35.30   11.31
  10  -1  -4   32.13   12.27
  10   1  -4   34.12   12.80
  10  -1  -4   32.69   10.67
 -10   1   4   24.56   21.36
  -6  -8  -6    2.87   10.25
   6  -8   6   -2.12   13.27
  -6   8  -6   -2.95    8.82
  -4 -11  -6   16.92   11.37
  -4 -11  -6   14.23    9.37
   7  11   4   47.79   10.00
  -7  11  -4   61.44   10.39
  -7 -11  -4   58.97   11.90
   7 -11   4   60.30   15.60
   7 -11   4   64.45   10.23
  -7 -11  -4   46.47   12.94
   4 -17   0  779.81   36.59
  -4 -17   0  767.17   40.21
   4  17   0  641.22   85.33
  -4  17   0  586.25   67.21
  -5   6  -7   68.54   11.29
   5  -6   7   77.85   15.22
  -5  -6  -7   62.72   11.92
  -9   9   3  273.40   39.46
   9  -9  -3  165.24   25.74
   9   9  -3  170.06   25.69
   9  -9  -3  209.41   26.47
  -9  -9   3  197.00   27.84
  -3  17  -2  550.05   60.05
   3 -17   2  645.34   76.18
   3  17   2  494.34   59.87
  -3 -17  -2  460.42   56.00
   1  17   3  526.65   62.93
   1 -17   3  512.36   62.04
  -1  17  -3  509.64   55.99
   1  17   3  395.30   50.84
  11   0   1   -5.97   17.09
  11   0   1    2.03   10.16
 -11   0  -1    0.34    9.47
  10   8   0    2.36    9.48
 -10   8   0    5.99   11.81
  10  -8   0   -4.08   12.34
 -10  -8   0   10.43    8.85
  10   8   0    8.66   11.87
  10  -8   0    6.22    9.89
  -3  -4  -8   94.33   10.36
  -3   4  -8   95.82   11.55
  -3  -4  -8  110.42   17.94
  -8   9  -4  426.32   47.03
   8   9   4  351.80   43.34
  -8  -9  -4  424.12   49.15
   8  -9   4  439.80   49.15
  10  -4   3    3.26    9.22
 -10   4  -3   -0.38    9.12
 -10  -4  -3   -0.93    9.41
  10  -4   3   -0.83   13.97
  10   4   3    2.40   10.07
  10   4   3   -3.03   15.84
  -4   8  -7   22.09    9.39
  -4  -8  -7   20.29   11.77
  -4  -8  -7   29.74   10.05
  -2 -10  -7   15.21    9.25
  -2 -10  -7   22.90   12.62
  -7  -9  -5   10.83   11.22
   7  -9   5   10.23   13.51
   7  -9   5    5.30    6.98
  -7   9  -5    2.48    9.35
  11   1   1  692.58   87.71
  11  -1   1  668.76   85.23
  11   1   1  685.96   80.35
 -11  -1  -1  657.96   73.22
 -11   1  -1  729.75   26.56
  11  -1   1  494.81   88.85
  -7 -14  -1   17.89   15.09
   7 -14   1   22.86   13.49
  -7  14  -1   19.03    9.50
   7  14   1   19.22   10.97
   7 -14   1   17.43    9.92
  -3 -12  -6   45.10   12.80
  -3 -12  -6   34.17    9.92
   9  -4  -5   54.05   13.58
  -9   4   5   72.71   16.19
   9  -4  -5   72.50   14.76
   9   4  -5   66.10   12.20
   9  -4  -5   72.97   11.30
 -10   2   4   -6.85   21.53
  10  -2  -4    1.24   10.46
  10  -2  -4   -2.20    8.78
  10   2  -4   -0.36    9.71
 -10  -2   4    0.47   17.29
  10  -2  -4   -5.09   10.93
  10   2  -4    6.35   45.19
   1  13   6  267.19   36.66
  -1 -13  -6  204.23   27.51
   1 -13   6  293.18   37.23
  -2 -18   0    5.57   14.26
   2 -18   0    2.68   12.98
   2  18   0    4.90   10.44
  11  -3   0   -2.67   10.63
  11  -3   0   -9.35   15.65
  11   3   0  -13.09   18.44
 -11   3   0    7.45   12.13
   7 -10  -5   52.06   10.97
  -7 -10   5   48.27   15.81
   7 -10  -5   53.18   10.12
   7  10  -5   47.61   10.09
  -7  10   5   38.12   12.83
  10  -8  -1  191.82   28.78
 -10  -8   1  239.24   32.30
   9  -6   4   34.82    9.32
  -9  -6  -4   41.65   12.55
   9   6   4   30.73   16.96
   9  -6   4   33.63   15.65
   9   6   4   31.62   11.61
  -9   6  -4   34.49    9.97
  -4  17   1   97.63   10.96
  -4  17   1  101.45   18.60
   4  17  -1  108.39   19.04
   4 -17  -1  115.49   19.21
  -4  15   4  245.36   30.05
  -4  15   4  292.83   38.17
   4 -15  -4  282.28   38.13
  -4 -15   4  346.91   44.44
   4  15  -4  303.18   36.38
  -8 -10   4  173.18   26.69
   8  10  -4  145.49   20.95
   8 -10  -4  170.00   21.77
   8 -10  -4  131.02   20.26
  -7  13   3   13.94   11.39
   7 -13  -3   24.60   10.46
   7 -13  -3   20.85    8.83
  -7 -13   3   31.21   15.55
   7  13  -3   29.20   11.40
   0  -7  -8  234.89   28.77
   0   7   8  262.32   36.96
   3  14   5    3.88    8.52
  -3 -14  -5   18.66   11.55
  -3  14  -5    9.17    8.92
  -3 -14  -5    9.22    9.86
   4  16  -3   13.23    9.88
  -4  16   3   14.97   14.09
  -4 -16   3   13.06   15.79
   4 -16  -3   17.73   10.46
  -4  16   3   13.56    8.23
   2 -16  -4   44.79   11.67
   2  16  -4   47.47   10.92
  -2  16   4   35.88   14.14
  -2  16   4   37.99    9.37
  -2 -16   4   50.70   19.44
  -4  -9   7   49.98   14.59
   4  -9  -7   54.72   11.32
  -4   9   7   58.07   15.31
 -11  -3   1  220.65   29.28
 -11   3   1  207.66   28.89
  11  -3  -1  207.79   32.30
   1  -7  -8    8.61    9.11
   1   7  -8   20.68   21.69
  -1   7   8    8.41   14.54
   5 -10   6  205.43   28.45
  -5 -10  -6  150.93   21.41
  -5 -10  -6  192.95   25.43
  -5  10  -6  237.21   27.93
  -6  -3  -7   83.12   13.53
  -6   3  -7   87.13   13.02
   6  -3   7   88.77   15.92
   5 -15   3   21.97    8.37
   5 -15   3   28.83   12.73
  -5 -15  -3   26.98   13.28
   5  15   3   19.75    9.31
   6  15  -2   -0.09   10.71
  -6  15   2    1.31   10.91
  -6 -15   2    6.91   13.44
   6 -15  -2    8.24   10.89
   6 -15  -2    1.11    8.76
   0 -15   5  238.13   34.70
   0 -15  -5  223.57   30.28
   0  15  -5  291.45   33.47
   0  15   5  214.85   27.36
   0  15   5  224.49   31.95
  11  -2   1   45.53   11.56
  11   2   1   39.37   11.14
 -11   2  -1   40.18   10.43
 -11  -2  -1   41.65    9.73
  11   2   1   35.68   18.20
   8  -4  -6   41.07    8.96
   8   4  -6   43.94   10.41
   8   4  -6  112.54   29.84
   8  -4  -6   52.10   13.06
  -8   4   6   48.85   15.00
   4  17   1    0.15   10.94
   4 -17   1    1.52   14.17
  -4 -17  -1    3.03   14.20
  -4  17  -1    7.80    8.14
  -4   4   8  132.47   22.30
   4  -4  -8  127.68   20.84
   4   4  -8  242.39   37.04
  -6  11  -5  231.52   27.56
  -6 -11  -5  153.53   22.29
   6 -11   5  213.27   25.77
   6  11   5  152.27   22.69
  -6 -11  -5  223.75   27.85
  -2   6  -8    7.18    8.24
  -2  -6  -8    3.89    7.85
  -2  -6  -8    7.13   12.58
  10  -6  -3   14.10   12.71
 -10  -6   3    7.58   11.27
  10  -6  -3   14.94   10.04
  10   6  -3    2.53   10.68
 -10   6   3   -0.23   14.89
  -6  14  -3    7.68    9.00
  -6 -14  -3    6.37   12.30
   6 -14   3   13.75   12.30
  -6 -14  -3    2.70    7.68
   6  14   3    0.71    9.43
   6 -14   3   10.39    8.90
   8  -8  -5   -1.61    9.11
  -8  -8   5    1.47   12.45
  -8   8   5   -1.20   11.10
   8   8  -5    4.49    9.60
   8  -8  -5    0.45   11.32
  -2  13   6   14.29   14.20
  -2 -13   6   11.52   17.56
  11   0  -2  218.57   31.63
  11   0  -2  214.97   33.03
 -11   0   2  239.05   32.48
  -4   0  -8   15.97   10.06
  -3 -10   7   51.50   14.85
   8 -12   2   22.09   10.99
   8  12   2   22.44   11.01
  -8 -12  -2   27.08   12.80
   8 -12   2   22.02   15.00
   8  12   2   26.77   10.73
  -8  12  -2   29.96   13.36
   1  15  -5   -1.52    9.41
  -1  15   5    5.06    7.49
  -1  15   5   -1.55   12.49
  -1 -15   5    9.10   17.42
   2 -17  -3   55.62   12.78
  -2  17   3   59.86   10.23
   2  17  -3   52.67   11.03
  -2  17   3   62.98   15.09
  -2 -17   3   69.54   19.06
  -5  16   2   10.61   12.41
  -5 -16   2   18.26   13.60
   5 -16  -2    9.99   10.87
   5  16  -2    8.25   10.03
   5 -16  -2    9.79    9.19
   2  18  -1   53.76   11.30
   2 -18  -1   50.08   13.24
  -2  18   1   51.00   10.43
  -2 -18   1   56.21   17.38
   7   0  -7    7.83    9.74
  -7   0   7    6.74   14.02
 -11   1   2   98.96   19.35
  11  -1  -2  102.24   20.95
 -11  -1   2  102.80   20.10
  11   1  -2   78.96   13.87
  11  -1  -2   94.69   15.12
  11   1  -2   82.59   17.11
   9 -11   0  156.20   21.06
  -9 -11   0  137.91   21.31
  -9  11   0  131.84   19.49
   9  11   0  149.31   22.36
   9 -11   0  170.29   25.53
  -4  -1  -8   48.05   11.13
  -4   1  -8   40.56   11.14
  10  -3  -4   -0.87    9.33
  10   3  -4    0.11    9.07
  10  -3  -4    4.35   10.37
  10   3  -4   -1.38   19.70
  10  -3  -4    5.87   12.63
 -10   3   4  -18.66   23.52
   2  18   1   22.27   11.47
  -2  18  -1   24.44    9.37
   2 -18   1   20.52   16.12
  -2 -18  -1   10.41   14.33
  -7  -1   7   12.33   14.55
   7  -1  -7   10.09   10.44
   7   1  -7    9.13   11.04
  -7   1   7    9.29   12.95
  -8 -11  -3   35.89   11.00
   8  11   3   32.85    9.82
   8 -11   3   36.64    9.80
  -8  11  -3   44.43   10.81
  -8 -11  -3   27.05   14.04
   8 -11   3   46.23   15.82
  -5 -14  -4   56.46   11.39
  -5 -14  -4   34.61   11.53
   5  14   4   42.79   10.42
   5 -14   4   51.08   13.94
   7  -6   6    5.87   13.66
  -7   6  -6   -5.27    9.15
  -7  -6  -6   11.53   10.93
  10  -8   1   62.22   16.02
  10   8   1   42.45   12.96
 -10   8  -1   56.28   12.67
 -10  -8  -1   56.03   10.63
  10  -8   1   60.11   11.09
  10   8   1   56.52   11.99
   7  12  -4  123.77   18.57
   7 -12  -4  139.75   19.08
  -7 -12   4  148.15   24.79
  -7  12   4   96.66   14.67
   7 -12  -4  117.73   18.68
   2  16   4  101.68   22.27
  -2  16  -4   97.98   15.03
   2  16   4   69.52   10.65
   2 -16   4   76.64   19.58
  -2 -16  -4   53.57   11.50
   0 -11  -7   33.34   10.84
   0  11   7   33.86   16.56
   0 -11   7   43.51   13.15
  -1  -7  -8   33.16    9.53
  -1  -7  -8   55.89   15.29
  -1   7  -8   93.88   23.92
   9  10   2  276.00   35.53
  -9  10  -2  381.67   43.60
   9  10   2  315.01   39.40
   9 -10   2  389.38   47.57
  -9 -10  -2  305.78   36.88
   9 -10   2  349.61   41.83
   3  -6  -8    1.22   10.63
  -3   6   8    2.29   12.97
   3   6  -8    2.68   24.51
   1  15   5   10.51   14.77
   1  15   5   12.78    8.56
  -1 -15  -5   16.65   11.24
   1 -15   5   19.64   17.56
  -1  15  -5   14.83    8.87
  -9  11   1   71.20   13.27
  -9 -11   1   76.84   15.10
   9 -11  -1   80.96   14.47
   8  13   0    5.82   11.80
   8 -13   0   -3.30    9.58
  -8  13   0   -4.93    9.51
  -8 -13   0    7.78   13.88
   8 -13   0    2.15   12.23
  10   7   2    2.69   12.76
 -10   7  -2   -0.27    9.87
 -10  -7  -2    5.88    9.60
  10  -7   2    7.58    8.62
  10   7   2    3.67   10.50
  10  -7   2   13.96   14.45
  -1 -11   7   60.30   14.77
  -1  11   7   47.32   16.29
   1 -11  -7   46.08   10.89
  -6   6   7   -8.12   13.13
   6  -6  -7    4.51   11.54
   2  17   3   36.02   17.27
   2 -17   3   17.50   17.10
   2  17   3   22.97   10.31
  -2 -17  -3   21.29   12.55
  -2  17  -3   28.12    9.18
 -11  -4   0   82.30   11.95
  11  -4   0   85.87   19.85
 -11   4   0   89.50   14.56
  11   4   0   63.04   16.05
  11   4   0   64.13   13.21
  11  -4   0   81.95   12.89
  -5  -8   7  260.12   34.26
   5  -8  -7  240.05   34.00
  -5   8   7  274.96   36.70
  -5  13   5  121.18   21.99
  -5 -13   5  146.91   25.76
   5 -13  -5  109.15   18.07
   5 -13  -5  123.74   16.96
   5  13  -5  131.76   18.46
   5 -11  -6   29.18    9.00
   5 -11  -6   27.70   10.16
   5  11  -6   35.24    9.94
  -5 -11   6   32.23   17.99
   9   0   5    6.40   13.37
   0 -18  -2    5.01   12.30
   0  18  -2    9.35    9.59
   0 -18   2   18.20   17.17
   0  18   2    7.96    9.37
 -11  -2   2   12.38   13.47
  11   2  -2   -0.82   12.11
 -11   2   2    2.85   12.39
  11  -2  -2    7.84   10.46
  11  -2  -2    3.76   14.77
  11   2  -2    6.35   10.49
  11  -3   1   -0.49   10.82
 -11   3  -1    1.34   10.10
  11   3   1    8.70   15.11
  11   3   1    1.04   10.81
  11  -3   1    5.59   15.79
 -11  -3  -1   -1.55    8.83
   4 -12  -6   44.70   10.78
  -4 -12   6   40.33   18.10
   4  12  -6   45.70    9.97
  -4  12   6   48.11   16.61
  -7 -14   2   12.03   12.48
   7 -14  -2   12.26    9.35
  -7  14   2    3.64   11.29
   7 -14  -2   13.97   12.44
   7  14  -2   11.83   10.49
  -4   2  -8    3.58    9.78
  -4  -2  -8    0.89    9.51
  -3  -5  -8    6.39   12.17
  -3  -5  -8    6.44    7.64
  -3   5  -8    8.02    9.28
  10   5   3   15.21   10.83
  10   5   3    9.97   15.73
 -10  -5  -3   16.62   10.66
  10  -5   3   16.77   15.28
  10  -5   3   20.49    9.40
 -10   5  -3   17.79    9.61
  -2   7   8    9.71   13.92
   2   7  -8   30.18   22.36
   2  -7  -8   13.71   10.20
  -4 -16  -3   42.07   13.31
  -4  16  -3   50.81    9.62
   4  16   3   46.67   10.78
   7   2  -7    5.60   13.30
   7  -2  -7   -5.16   10.57
  -7   2   7    1.72   13.90
   9  -1   5  503.78   59.24
  -9  -1  -5  511.24   58.53
  -9   1  -5  557.11   62.23
   9   1   5  559.06   65.48
   6 -15   2   -1.51    8.59
  -6 -15  -2    2.79   12.77
  -6  15  -2    2.47    8.41
   6 -15   2    5.94   13.42
   6  15   2   -0.83    9.99
 -11   4   1   12.66   12.55
  11  -4  -1    5.18   16.66
 -11  -4   1    7.44   10.85
  11   4  -1   11.07   13.66
   9  -5  -5   76.44   13.65
   9   5  -5   87.12   12.91
   9  -5  -5  100.27   15.97
  -9   5   5   82.25   16.13
  -9  -5   5   84.90   14.17
   9  -5  -5  102.57   18.90
   6  -4   7    9.19   12.88
  -6   4  -7   13.72   11.23
   8 -13  -1  168.97   25.28
  -8  13   1  143.76   21.80
  -8 -13   1  164.52   24.62
   8 -13  -1  130.96   19.96
  -5   0   8  211.53   31.55
  -8   7  -5   40.40   10.39
  -8  -7  -5   36.95   12.19
   8  -7   5   36.22   15.42
   5 -16   2  448.64   49.16
   5  16   2  407.33   51.67
   5 -16   2  438.08   51.00
  -5 -16  -2  343.43   42.68
   6  13   4   19.49   10.08
  -6  13  -4   27.23   10.32
   6 -13   4   32.85    9.05
  -6 -13  -4   27.53    9.60
  -6 -13  -4   17.79   11.77
   6 -13   4   21.90   13.45
   4  15   4   14.31    9.05
  -4 -15  -4   11.82   11.27
  -4 -15  -4   10.19   10.16
  -4  15  -4   13.98    8.96
   1  18  -2   98.33   16.12
  -1  18   2   88.54   12.42
  -1 -18   2  108.66   21.93
   1 -18  -2   87.78   15.06
  -2 -13  -6  132.79   20.40
  -9   8   4    1.54   13.06
   9   8  -4    0.50   10.05
  -9  -8   4   -2.53   12.31
   9  -8  -4    4.11   11.37
   9  -8  -4    6.96    8.85
   9  -8  -4   -0.26    8.86
  -5  -1   8   17.40   16.03
   5   1  -8   15.59    9.36
  -5   1   8   24.75   14.42
  -5   7  -7    5.00    9.25
   5  -7   7    0.38   12.40
  -5  -7  -7    0.41   10.39
  -1 -18  -2    7.65   11.40
   1 -18   2    9.14   19.36
  -1  18  -2   11.17    8.72
   1  18   2    3.64    9.95
   1 -11   7  209.55   27.38
  -1 -11  -7  181.42   24.96
   1  11   7  222.84   34.22
   6  12  -5   10.89    9.19
  -6  12   5    4.36   11.62
   6 -12  -5    6.01    9.08
   6 -12  -5    8.14    8.11
  -2  15   5   78.85   11.11
  -2 -15   5   69.81   20.19
  -2  15   5   80.47   17.08
   2 -15  -5   70.03   12.69
   2  15  -5   87.01   10.80
  -9  -2  -5   -4.81   11.32
   9  -2   5    2.34   12.42
   9   2   5   -1.76   14.40
  -9   2  -5    2.19   10.20
   4  14  -5   22.18    9.52
   4 -14  -5   20.90    9.77
  -4 -14   5   32.14   19.14
  -4  14   5   20.94    8.29
  -4  14   5   26.70   15.05
  -9 -11  -1   21.43   11.95
  -9  11  -1   23.80   12.24
   9  11   1   15.37   10.24
   9 -11   1   24.34   10.12
   9  11   1   23.96   10.77
   9 -11   1   17.58   13.20
 -10  -8   2  213.61   29.54
  10   8  -2  172.20   26.23
  10  -8  -2  183.23   24.41
  10  -8  -2  168.11   26.34
 -10   8   2  173.99   24.86
   8   0   6  204.95   29.14
  -8   0  -6  220.33   29.16
  -8  -5   6   99.54   18.52
   8   5  -6   90.99   12.07
   8  -5  -6  112.46   21.82
   8  -5  -6   98.11   14.65
  -8   5   6   88.71   15.44
   7   8  -6  129.54   18.68
   7  -8  -6  113.01   16.52
  -7   8   6  128.63   21.75
   7  -8  -6  100.83   18.07
  -7  -8   6  124.34   21.70
   9   9   3   13.36    9.47
   9   9   3   16.20   12.55
  -9   9  -3   27.33    9.90
   9  -9   3   25.40   15.26
   9  -9   3   21.35    9.03
  -9  -9  -3   18.43   11.13
  10   4  -4   31.23   10.93
 -10   4   4   87.50   32.37
  10  -4  -4   24.52   12.32
  10  -4  -4   37.84   11.13
  10  -4  -4   38.33   12.45
  -4   5   8  128.80   22.54
   4  -5  -8  102.88   19.67
   4   5  -8  495.87   76.97
   7  13   3  337.30   43.13
  -7 -13  -3  372.61   43.59
  -7  13  -3  441.33   49.24
   7 -13   3  417.08   46.17
  -7 -13  -3  328.65   42.51
   7 -13   3  393.54   47.28
  11   3  -2   49.51   15.17
  11  -3  -2   57.03   16.55
 -11   3   2   45.80   15.90
 -11  -3   2   68.11   16.00
  11  -3  -2   64.07   13.58
  11   3  -2   44.90   11.86
   8   1   6  127.17   21.66
  -8   1  -6  143.91   21.23
   8  -1   6  136.40   23.20
  -8  -1  -6  162.76   23.62
  -4  -3  -8   22.40   11.46
  -4   3  -8   26.25   11.02
  -2  11   7    0.77   13.85
  -2 -11   7   -0.14   13.60
   2 -11  -7   -4.75    9.21
  -5   2   8   36.66   14.44
   5   2  -8   28.95   11.28
   7   3  -7   -8.66   22.35
   7  -3  -7    3.19   11.19
  -7   3   7   -7.43   13.64
  -8 -13  -1   29.16   14.62
   8  13   1   25.67   11.52
   8 -13   1   29.86   13.76
   8 -13   1   31.08   10.02
  -8  13  -1   29.70   10.67
  -4  17   2   93.42   11.09
   4  17  -2  116.43   18.99
  -4  17   2  108.94   19.51
   4 -17  -2  114.04   19.34
   3  18   0   43.43   12.29
   3 -18   0   32.46   14.55
   9  -7   4   61.63   16.34
   9   7   4   51.25   12.68
   9  -7   4   64.02   10.87
   9   7   4   42.63   16.51
  -9  -7  -4   55.62   12.41
  -9   7  -4   65.79   11.04
   6  -9   6   19.07   14.06
  -6  -9  -6   17.82   11.38
  -6   9  -6   21.24    9.68
  -3 -16   4  549.41   65.35
   3 -16  -4  434.55   56.02
   3  16  -4  464.33   53.23
  -3  16   4  413.80   47.53
  -3  16   4  482.94   57.59
   6  10  -6    1.26    8.45
  -6  10   6    3.58   12.01
   6 -10  -6    3.09    8.08
   6 -10  -6   -3.65   10.29
  11   4   1    5.07   14.30
 -11   4  -1    4.12   10.93
 -11  -4  -1    8.00    8.75
  11  -4   1    5.76   16.70
  11   4   1    2.09   11.23
  11  -4   1    7.05   10.68
  -3 -10  -7  271.81   33.76
  -3 -10  -7  348.25   41.81
  11   0   2   55.89   20.44
  11   0   2   39.30   11.90
 -11   0  -2   53.48   10.70
  -7 -14  -2    6.10   14.60
  -7  14  -2    2.44    9.63
   7  14   2    0.89   10.29
   7 -14   2    1.32    8.30
   7 -14   2    7.20   12.23
   3 -13  -6   -3.66   10.09
  -3 -13   6   12.50   18.37
  -3  13   6   12.19   14.22
  -8   2  -6  275.86   33.45
   8  -2   6  245.93   33.00
   8   2   6  215.59   30.11
  10  -9   0   54.96   15.00
  10   9   0   41.13   12.16
  10  -9   0   60.94   11.85
  10   9   0   49.15   11.70
 -10   9   0   60.07   13.92
  -2  15  -5    9.39    8.95
   2 -15   5   -0.82   14.83
   2  15   5    8.21   16.90
   2  15   5    3.28    7.81
  -2 -15  -5    1.66    9.34
   8 -12  -3    6.62   10.59
  -8  12   3    3.45   12.00
  -8 -12   3    5.97   12.49
   8 -12  -3    3.61    8.32
   8  12  -3    4.02   10.77
 -11  -1  -2   -5.31    9.53
 -11   1  -2    2.74    9.86
  11   1   2    2.19   10.76
  11  -1   2   -1.51   10.05
  11  -1   2    3.03   18.36
  11   1   2    2.62   17.20
  -2  -7  -8   74.31   15.23
  -2  -7  -8   45.75    9.36
  10  -7  -3  339.79   44.60
  10  -7  -3  382.60   44.68
  10   7  -3  358.17   45.26
 -10  -7   3  401.60   47.31
 -10   7   3  360.99   44.42
  11  -5   0   33.12   11.16
  11  -5   0   36.54   17.52
  11   5   0   36.84   11.24
 -11   5   0   33.29   13.54
 -11  -5   0   33.44    9.67
  11   5   0   29.51   14.47
   0   8  -8   36.62   24.04
   0  -8  -8    9.20    9.35
   0   8   8    7.15   15.33
   9   3   5   14.17   15.16
  -9  -3  -5    1.43   11.23
  -9   3  -5   11.48   10.61
   9  -3   5   11.82   13.39
  -4  -9  -7   42.96   10.22
  -4  -9  -7   47.88   12.48
  -3 -17   3   84.15   17.92
   3 -17  -3   62.41   13.31
  -3  17   3   75.94   15.55
  -3  17   3   58.55    9.79
   3  17  -3   61.23   11.44
  10   0   4   -1.98   14.63
  10   0   4   -1.09   10.35
 -10   0  -4   -0.74    9.28
   9  10  -3   -0.76   10.32
   9 -10  -3    0.34   10.98
  -9 -10   3    2.26   13.75
   9 -10  -3    4.46    9.31
  -1   8   8   74.72   17.13
   1  -8  -8   77.43   11.49
   1   8  -8  187.97   32.20
  -2  18   2    7.03    9.36
   2 -18  -2    9.21   11.20
   2  18  -2   -0.57    9.56
  -2  18   2   -5.10   11.45
  -2 -18   2   -4.50   15.38
   3 -18  -1    3.90   12.13
   3  18  -1   10.29   10.59
  -3 -18   1    7.66   14.69
  -3  18   1    5.82    8.85
  -4 -17  -2    7.31   12.99
  -4  17  -2    2.58    7.83
   4  17   2    2.97   10.25
 -10   9   1    7.00   11.28
 -10  -9   1    4.97   11.47
  10  -9  -1    1.25   12.95
   9 -11  -2   56.67   10.62
  -9  11   2   48.85   15.09
  -9 -11   2   57.62   15.39
   9 -11  -2   52.95   14.09
   9  11  -2   50.02   11.99
  -8  10  -4    3.45    9.52
   8 -10   4   14.36   14.13
   8  10   4    1.35    9.48
   8 -10   4    0.98    8.20
  -8 -10  -4    1.91   10.99
  10  -1   4  183.69   29.06
  10   1   4  127.75   24.35
  10   1   4  134.54   19.88
  10  -1   4  145.48   20.95
 -10   1  -4  147.97   20.46
 -10  -1  -4  158.03   22.19
 -11  -5   1  136.77   20.31
 -11   5   1  124.25   20.31
  11   5  -1   94.02   18.00
  11  -5  -1  123.47   24.22
  -6   5  -7    6.71   10.35
   6  -5   7    4.04   12.51
   5   3  -8    9.41   13.75
  -5   3   8    5.42   12.89
  -6 -16   0   78.45   17.33
  -6  16   0  101.16   19.69
   6 -16   0   79.88   14.87
   6 -16   0   84.66   11.38
   6  16   0   69.24   12.41
  -7  10  -5  150.38   20.12
  -7 -10  -5  137.47   20.02
  -7  -7  -6  109.94   18.06
   7  -7   6  120.21   21.24
  -7   7  -6  126.72   18.32
  -3   6  -8    2.87   10.26
  -3  -6  -8   -0.31   11.38
  -3  -6  -8   -0.76    8.08
  10   6   3    0.31    9.82
  10  -6   3    0.37    9.02
 -10  -6  -3    1.66   10.24
  10   6   3    0.94   15.20
 -10   6  -3    3.57    9.39
   3 -18   1  111.93   23.76
  -3 -18  -1   73.48   17.28
  -3  18  -1   98.91   15.14
   3  18   1  104.17   17.59
  11   2   2   12.16    9.85
 -11   2  -2   14.55    9.72
  11  -2   2   14.88   17.14
  11  -2   2    8.70   10.41
 -11  -2  -2   15.66    9.04
  11   2   2   17.03   17.44
  -2  18  -2   51.45   10.25
   2  18   2   49.35   11.62
   2 -18   2   64.43   19.94
  -3   7   8    2.14   13.71
   3  -7  -8   -0.02   10.11
   3   7  -8    8.86   22.69
  11  -4  -2   25.88   11.28
  11   4  -2   21.76   10.74
  11  -4  -2   20.20   15.76
 -11  -4   2   20.90   14.04
 -11   4   2   15.64   13.98
  -4  -4  -8    9.47   11.21
  -4   4  -8    7.88   11.23
   9  -6  -5  101.28   15.16
  -9   6   5  110.28   20.69
   9   6  -5  109.79   17.79
  -9  -6   5  116.59   19.56
   9  -6  -5  101.30   19.24
  -6   7   7   23.38   14.36
   6  -7  -7   29.92   12.41
  -4 -12  -6   17.26   10.16
  -4 -12  -6   20.76   11.47
   7  -4  -7   -2.29   11.63
   7   4  -7   16.31   36.78
  -7   4   7    0.91   13.23
  -5  13  -5    2.10    8.03
  -5 -13  -5    1.18   10.24
   5 -13   5    3.84   11.95
  -5 -13  -5   -3.11    8.75
  -7  12  -4    0.06    9.01
  -7 -12  -4    1.04   10.38
   7 -12   4   -6.88   12.63
  -7 -12  -4    3.75    9.58
   7  12   4    5.32    8.48
   7 -12   4    2.16    8.18
   8  -9  -5   67.95   13.20
  -8  -9   5   77.13   16.16
   8   9  -5   67.38   11.13
   8  -9  -5   77.70   10.64
  -8   9   5   66.87   13.40
  -2 -11  -7    8.65   13.30
  -2 -11  -7    6.80    8.86
  -3 -16  -4   11.61   11.04
  -3  16  -4    6.31    8.70
   3  16   4    5.83    8.34
  -3 -16  -4    8.43    9.91
   8  13  -2   95.00   13.77
  -8 -13   2   96.92   15.79
  -8  13   2  109.47   21.52
   8 -13  -2  103.47   16.29
  -8   3  -6   40.39   11.11
   8   3   6   31.31   14.06
  -8  -3  -6   35.84   13.39
   8  -3   6   47.99   15.26
  10   2   4   -0.35    9.74
  10  -2   4    2.40    9.01
  10   2   4   -4.81   14.60
  10  -2   4    7.41   14.55
 -10  -2  -4    5.59   10.38
   4 -10  -7    7.76   10.47
  -4 -10   7   11.07   14.83
 -10  -5   4    0.28   11.05
  10  -5  -4   22.13   11.33
  10  -5  -4   16.79   13.91
  10  -5  -4   28.48   14.59
 -10   5   4   20.57   26.43
  10   5  -4    2.82   10.40
  -1   8  -8   11.01   28.02
  -1  -8  -8   -2.21    8.54
  -1  -8  -8   -1.73   13.18
  -6 -16   1  149.40   22.97
  -6  16   1  126.17   19.09
   6 -16  -1  137.33   20.78
   7  11  -5   14.73    9.12
   7 -11  -5   13.87    8.88
   7 -11  -5   13.44    9.12
  -7 -11   5   20.60   15.77
   3  17   3    1.02    9.80
   3 -17   3   -0.64   14.24
  -3 -17  -3    1.55   11.50
  -3  17  -3    6.49    8.62
  -5 -17   0   69.26   17.16
   5 -17   0   67.23   15.99
  -5  17   0   53.66   11.95
  -4 -14  -5   23.32   11.15
  -4  14  -5   19.45    9.08
   4  14   5   13.16    8.08
  -4 -14  -5   14.07    9.83
  10   8   2   29.77   13.24
  10  -8   2   51.28   15.47
  10  -8   2   44.59   10.41
  10   8   2   45.86   11.29
 -10   8  -2   44.74   12.16
 -10  -8  -2   42.56   10.32
  -8 -11   4   21.24   14.80
   8 -11  -4   18.55    9.33
   8  11  -4   23.34   10.13
   8 -11  -4   25.01    9.51
  -7  15   0  431.10   45.31
  -7 -15   0  365.07   40.47
   7 -15   0  378.68   40.66
   8  -6  -6  206.42   27.04
   8  -6  -6  169.59   19.34
   8   6  -6  179.78   22.43
  -8   6   6  174.08   23.89
  -8  -6   6  191.48   24.90
   0 -14  -6   31.68   10.55
   0  14   6   30.69   15.56
   0 -14   6   28.81   16.82
  10   9   1   37.93   10.70
  10  -9   1   46.59   10.44
  10  -9   1   48.18   15.11
 -10   9  -1   49.13   12.86
  10   9   1   41.64   12.56
  -3  15   5    7.17    7.83
  -3  15   5    9.96   14.77
   3 -15  -5   13.41   10.88
   3  15  -5    8.24    9.55
  -3 -15   5   18.79   18.61
  -2   8   8   85.95   18.53
   2  -8  -8   90.16   14.68
  -5 -11  -6   81.99   14.00
  -5 -11  -6  102.27   16.23
   6 -15  -3  104.10   17.17
  -6  15   3   92.53   17.21
   6 -15  -3   98.16   14.06
   6  15  -3   96.31   16.44
  11   0  -3   -5.24   12.88
 -11   0   3    0.04   12.65
  11   0  -3    4.49   10.64
  -4   6   8    1.81   12.75
   4   6  -8   41.62   27.44
   9  -4   5   -2.18   12.88
  -9  -4  -5   12.36   12.80
   9   4   5    0.86   14.90
  -9   4  -5    7.30   10.15
  11   5   1   16.23   11.07
  11   5   1   14.98   13.39
  11  -5   1   13.63   10.34
 -11  -5  -1    8.75    8.52
   6  14  -4    1.62   10.01
  -6  14   4    4.89   12.64
   6 -14  -4    0.83    9.00
   6 -14  -4    0.65   10.22
  -1  14   6   99.29   19.52
  -1 -14   6  129.06   25.43
  11   3   2    7.24   17.01
  11  -3   2    7.92    9.53
  11   3   2    9.03   10.11
 -11  -3  -2   12.81    9.00
 -11   1   3   54.00   15.17
 -11  -1   3   55.70   15.04
  11  -1  -3   61.31   14.90
  11  -1  -3   58.76   12.58
  11   1  -3   59.00   13.43
  11   1  -3   73.28   16.56
  -8   8  -5   12.74    9.80
  -8  -8  -5    7.17   11.75
  -5  15   4   26.25   15.22
   5 -15  -4   24.68   10.90
   5 -15  -4   22.29    8.87
   5  15  -4   28.80   11.20
   5  -9  -7   68.37   12.71
  -6  16  -1    4.60   11.90
  -6 -16  -1   -3.30   15.08
   6 -16   1    5.18   11.58
   6 -16   1    3.12    8.98
   6  16   1    4.13   10.80
  -3 -13  -6    8.59    9.81
  -3 -13  -6    1.65   10.56
  -3 -11   7   29.45   15.64
  -5  17   1   49.97   12.53
   5 -17  -1   61.86   13.86
  -7  15   1  221.51   28.31
  -7 -15   1  186.26   25.86
   5 -16  -3  157.77   18.59
   5 -16  -3  156.33   21.75
   5  16  -3  161.24   21.17
  -5  16   3  161.27   23.11
  -5   4   8    3.35   13.32
   5  -8   7  199.46   25.87
  -5   8  -7  217.95   24.02
  10   3   4   23.05   10.84
 -10  -3  -4   31.58   11.40
  10   3   4   28.97   17.94
  10  -3   4   30.67   15.28
  10  -3   4   35.22   10.25
   0  17   4   66.57   15.21
   0  17   4   56.36   10.27
   0  17  -4   83.23   13.76
   0 -17   4   64.40   20.45
  -6  12  -5  230.37   24.51
  -6 -12  -5  161.83   21.07
  -6 -12  -5  232.07   26.28
   6 -12   5  237.85   24.82
   0 -19   0    4.10   13.47
  -9  -9   4  137.59   21.22
   9   9  -4  124.87   18.11
   9  -9  -4  146.41   18.16
   9  -9  -4  117.85   16.82
  11  -2  -3    1.93   10.05
  11  -2  -3    7.47   13.53
 -11  -2   3   -0.04   13.23
 -11   2   3   -0.72   13.05
  11   2  -3    5.05   10.99
  11   2  -3    2.00   11.61
  -1 -14  -6   27.12   10.84
   1  14   6   28.52   15.56
   1 -14   6   43.43   17.28
   9  11   2   71.05   12.47
  -9  11  -2   96.79   15.74
   9 -11   2  101.73   19.13
   9  11   2   75.95   13.36
   9 -11   2   94.09   14.38
  11   6   0   -1.73   12.11
 -11  -6   0    7.71    9.44
  11  -6   0    6.57   17.03
  -5 -17  -1   73.95   19.16
  -9  12   0   57.67   12.79
   9 -12   0   74.83   17.04
  -9 -12   0   61.66   13.81
   8  -4   6   91.85   18.06
  -8   4  -6   90.51   15.51
   1  17  -4   18.44   10.24
  -1  17   4    8.87   12.75
  -1 -17   4   26.49   19.06
  -1  17   4   18.77    8.70
   7  14  -3   15.59   11.06
  -7  14   3   13.97   11.77
   7 -14  -3   13.06    9.39
   7 -14  -3   17.07   10.54
   8 -12   3  140.29   17.84
  -8  12  -3  147.14   19.05
   8  12   3   96.06   15.96
  -8 -12  -3  129.03   18.68
   8 -12   3  121.10   20.52
  -8 -12  -3  125.71   22.02
  10  -9  -2    5.17   11.98
 -10  -9   2   -0.09   12.04
  11  -5  -2   43.53   16.67
 -11   5   2   42.39   14.57
   0   0  -9    1.14   11.16
   0   0  -9   -0.11    9.82
   9   8   4   26.52   11.72
  -9   8  -4   27.37   10.24
   9   8   4   18.39   15.02
   9  -8   4   32.62    9.60
  -9  -8  -4   37.37   13.27
  -7  15  -1   53.87   12.29
   7 -15   1   53.15   13.75
  -7 -15  -1   49.73   16.08
  -4   5  -8   10.53   10.30
   7  -9  -6   -2.39    9.78
   7   9  -6   -2.97    8.29
   7  -9  -6    1.63    7.68
  -8  13  -2  136.66   18.92
  -8 -13  -2  140.11   22.83
   8 -13   2  139.65   21.71
   8  13   2  126.36   18.89
   8 -13   2  144.47   18.55
   1   0  -9   -7.94   12.28
   1   0  -9   -3.50    9.49
  11  -6  -1    6.93   15.79
  -6   6  -7   43.17   12.31
   6  -6   7   36.27   14.46
   0 -12  -7   54.17   11.05
   0 -12   7   68.69   14.73
   1 -19   0   26.61   13.89
   7  -5  -7   61.28   14.24
  -7   5   7   61.61   16.22
   0   1  -9    0.65   11.62
   0  -1  -9    4.75   10.42
   0   1  -9    4.58    9.79
   0  -1  -9   15.22   12.25
  -9 -12   1  131.01   20.72
   9 -12  -1  123.31   19.85
   0  18   3   41.26   14.17
   0 -18   3   42.64   18.82
   0  18  -3   50.28   11.01
   0  18   3   37.83   10.36
   7   0   7   -0.18   12.11
  -1  17  -4  129.26   16.88
   1  17   4   87.30   15.06
   1 -17   4   66.08   18.77
   1  17   4  112.47   21.63
   1   1  -9   17.62   11.45
   1  -1  -9    0.46   14.04
   1  -1  -9   15.99   10.46
   1   1  -9    7.28    9.77
  -1 -12   7   54.70   15.72
   3 -18  -2   17.54   12.11
  -3  18   2   17.62   12.31
  -5   0  -8    6.40   11.02
   5  12  -6    4.94    8.96
   5 -12  -6   -0.79    8.55
  -2  14   6    7.78   14.39
  -2 -14   6    4.49   17.10
  -3 -15  -5  118.65   17.29
   3  15   5  122.75   16.64
  -3  15  -5  190.43   21.37
  -3 -15  -5  152.87   20.26
   7   1   7   11.64   13.25
   7  -1   7    9.08   13.49
  -7   1  -7   17.12   11.78
   7 -13  -4   70.07   10.87
   7 -13  -4   51.83   11.69
   7  13  -4   62.06   12.41
  -9   0   6   31.27   16.04
   9   0  -6   17.29   10.73
   9   0  -6   27.32    9.98
   0 -19   1   22.68   17.00
   9  10   3   43.24   12.73
  -9 -10  -3   45.33   11.71
   9 -10   3   49.44   10.61
   9  10   3   35.81   11.02
  -9  10  -3   49.05   11.01
  11   4   2    3.06    9.88
  11  -4   2    8.24   10.23
 -11  -4  -2    6.60    9.06
  11   4   2   19.71   17.45
  -5  -1  -8   -1.11   10.57
  -5   1  -8    3.68   10.88
   5  -1   8   -0.77   10.68
  -2  -8  -8   88.02   13.85
 -10  -8   3  105.55   18.10
  10  -8  -3  103.15   15.09
  10  -8  -3   91.41   17.65
  10   8  -3  100.00   16.91
   1  18  -3   12.75    9.88
  -1 -18   3   13.20   17.54
  -1  18   3    8.30    9.38
  -1  18   3   12.46   12.15
  -3  -7  -8   66.73   10.50
  10  -7   3   78.16   13.45
  10   7   3   68.48   13.76
 -10  -7  -3   73.04   14.06
  10   7   3   71.72   16.74
   9  -1  -6   -2.89    9.05
   9   1  -6   11.03   11.68
  -9   1   6    3.37   15.21
   9   1  -6   -3.22    8.90
   9  -1  -6    1.21   10.67
  11  -3  -3   76.73   17.10
 -11   3   3   66.58   16.20
 -11  -3   3   74.62   16.35
  10  -6  -4    2.12    9.44
 -10  -6   4   -1.68   10.86
  10  -6  -4    7.10   11.42
 -10   6   4    2.34   20.42
  10   6  -4   -5.35   10.25
   4 -16  -4    3.93   11.17
  -4  16   4    6.31    8.23
  -4  16   4   -3.23   14.83
   4  16  -4    0.27    9.89
  -9   5  -5    0.80    9.25
   9   5   5   -0.10   15.28
  -6 -15  -3   10.81   13.32
   6 -15   3   12.87    8.71
   6 -15   3   15.57   13.23
   6  15   3    9.47    9.59
   4 -18   0   18.06   14.22
   0  -2  -9   72.19   12.13
   0   2  -9   64.36   11.00
   0   2  -9   68.19   11.99
   0  -2  -9   82.94   17.21
  10   4   4    7.48   10.42
  10  -4   4    9.05    9.43
 -10  -4  -4    8.63   10.57
  10   4   4    8.36   16.75
   1   2  -9   12.52   10.18
   1   2  -9   19.19   11.75
   1  -2  -9   11.50   13.72
   1  -2  -9    7.86   10.22
   9  -7  -5   20.06    9.32
   9  -7  -5   24.10   11.70
   9   7  -5    8.61   10.65
  -9  -7   5    2.22   12.15
  -5 -16  -3   92.72   17.41
  -5  16  -3   89.55   12.69
   5  16   3   79.08   14.97
  -6 -10  -6   21.57   11.40
  -6  10  -6   29.73    9.13
   3  18   2    5.97   10.05
   3 -18   2    8.54   18.49
  -6  16   2   30.27   12.37
   6 -16  -2   36.34   11.58
  -1  18  -3    9.13    9.72
   1 -18   3   19.10   19.26
   1  18   3   12.50    9.98
   0  -9  -8   30.36   10.41
   1 -19  -1  135.58   21.55
   0 -16   5   14.99   17.70
   0  16   5   21.16   14.29
   0  16   5   18.89    8.52
   0  16  -5   32.22   10.74
  -1   0  -9    9.36   10.66
  -1   0  -9   -2.14    9.69
  -1 -12  -7   71.69   11.56
   1 -12   7   89.11   16.75
  -7   8  -6   69.54   10.73
  -8 -14   0   -1.50   12.39
   8 -14   0   -4.81   12.37
  -8  14   0    1.45   11.03
  10   0  -5   -1.68    9.75
 -10   0   5    1.66   13.55
  10   0  -5    1.27   13.14
  10   0  -5   -1.36    9.93
  -7   2  -7    4.38   11.74
   7  -2   7   -6.84   11.89
   1 -19   1  139.09   23.39
  -1  -9   8   72.71   14.83
  -5   2  -8  103.78   16.17
   5  -2   8  102.91   18.00
  -5   5   8   -0.25   14.08
   5  14  -5   31.09   11.37
   5 -14  -5   30.74   10.64
   5 -14  -5   27.15    8.29
  -3  -8   8    2.99   12.37
   9  12   1   30.04   10.99
  -9  12  -1   41.14   11.77
  -9 -12  -1   41.00   13.46
   9 -12   1   39.60   14.51
  -1   1  -9    2.31    9.66
  -1  -1  -9    4.24   10.19
  -1  -1  -9    6.81   11.73
  -1   1  -9   -2.97    9.76
   2   0  -9    1.98   10.23
   2   0  -9    3.40   13.90
 -11  -6  -1   28.48    9.82
  11   6   1   32.05   15.54
  -5 -15  -4   59.86   13.43
  -5 -15  -4   61.95   11.11
  -5  15  -4   83.78   12.51
   5  15   4   61.75   11.65
  10 -10   0    3.09   12.88
  10  10   0    7.16   11.23
   4 -17  -3   12.96   12.03
   4  17  -3    9.02    9.96
  -4  17   3   10.77    8.38
  -4  17   3    4.74   12.86
  10  -1  -5  167.97   21.32
 -10  -1   5  120.36   21.10
  10   1  -5  157.25   21.80
  10  -1  -5  157.89   22.13
  10  -1  -5  160.85   22.70
  10   1  -5  156.68   22.78
 -10   1   5  150.48   23.78
   2  17  -4  182.06   21.88
  -2  17   4  161.54   20.08
  -2  17   4  181.20   25.83
  -2 -17   4  195.12   29.63
  -1 -16   5   28.16   19.20
  -1  16   5   33.78   15.13
   1  16  -5   59.59   11.13
  -1  16   5   45.86   10.27
   9  -2  -6   12.94   12.35
   9   2  -6   20.65   15.11
   9   2  -6   18.64    9.71
   9  -2  -6   16.05   10.44
   9  -2  -6   13.46   11.52
  -9   2   6   14.87   14.89
   6 -11  -6    3.65    9.45
   6  11  -6   -3.44    8.45
  -4 -10  -7    3.69    9.63
  -2   1   9   18.51   18.19
   2   1  -9   10.47   10.40
   2  -1  -9   15.65   11.13
   2   1  -9   16.69   13.97
   6 -13  -5   24.86   10.48
   6 -13  -5   28.06    8.72
   6  13  -5   32.48   10.65
   8   7  -6   14.84   10.80
   8  -7  -6   15.60    7.92
   8  -7  -6    7.55   12.41
  -3 -11  -7   43.06   10.70
   4 -18  -1   51.40   13.88
  -4  18   1   46.95   13.46
   8 -14  -1   65.55   14.20
  -8  14   1   78.55   19.70
  -8 -14   1   58.49   15.14
  -2 -12   7   -1.07   15.15
  -6 -14  -4   35.23   12.77
   6  14   4   43.55   10.16
   6 -14   4   49.41    9.49
  -6 -14  -4   59.84   11.89
  10 -10  -1  116.47   19.29
 -10 -10   1  134.27   21.10
   8  -5   6  126.21   21.15
  -8   5  -6  139.77   18.15
  -7  15   2   22.49   11.51
  -2 -14  -6   36.73   11.32
  -6   0   8  212.84   29.16
   5 -17  -2  172.43   23.30
  -5  17   2  172.18   23.41
   2 -19   0   32.06   15.71
   1  16   5   73.26   18.80
   1 -16   5   69.15   19.14
  -1  16  -5   79.26   12.86
   1  16   5   50.18    9.54
   0  -3  -9   -8.58   14.01
   0   3  -9   -2.01   10.23
   0  -3  -9    1.82    9.67
   0   3  -9   -5.73    9.69
  -1  -2  -9   -1.67   12.55
  -1  -2  -9    1.04    9.48
  -1   2  -9   -1.31    9.21
  -1   2  -9   -0.37    9.93
  -6   1   8   11.92   14.85
  10  -2  -5   -0.40   11.83
  10   2  -5    4.37   10.95
  10   2  -5   10.65   15.25
  10  -2  -5    6.44   11.32
  10  -2  -5    1.85    9.03
 -10   2   5    0.21   14.42
  -9 -11   3   -5.79   13.26
   1  -3  -9   65.58   11.68
   1   3  -9   66.65   10.94
   4 -18   1   66.59   17.45
  -1  -9  -8   -2.75    8.88
  -1   9  -8   12.53   20.83
  -2   2   9  156.16   26.22
   2   2  -9  107.85   15.44
   2  -2  -9  109.56   16.40
  -7   3  -7   72.24   13.33
   7  -3   7   61.86   15.12
   8  11   4   47.49   10.40
  -8 -11  -4   52.85   12.54
  -8  11  -4   61.51   11.08
   8 -11   4   60.82   10.15
 -10  -9  -2   67.99   11.26
  10  -9   2   70.95   10.86
  10   9   2   61.44   11.65
  10   9   2   57.25   14.23
  -2  18   3  467.04   47.71
   2  18  -3  570.00   58.54
  -2  18   3  550.11   56.49
   2 -17   4  134.17   23.26
  -2  17  -4  186.23   20.91
   2  17   4  124.85   18.28
 -11   4   3   43.72   15.67
  11  -4  -3   48.04   15.34
  -5   3  -8    2.72   10.49
   5  -3   8    8.14   13.80
   7 -14   3  272.76   28.23
  -7 -14  -3  201.48   26.47
  -7  14  -3  253.62   27.65
   7  14   3  216.60   25.89
  -6 -16  -2   56.80   16.08
   6 -16   2   59.87   14.71
   8  10  -5  165.35   20.49
   8 -10  -5  167.44   22.09
   8 -10  -5  164.87   19.47
  11  -6  -2   77.01   19.77
  -7 -11  -5   -1.04   10.16
  -7  11  -5    0.71    8.64
  -4   6  -8   62.09   12.21
  -9   3   6    7.27   13.83
   9   3  -6    0.24   37.83
   9  -3  -6   -4.65   11.12
   9   3  -6    0.95    9.18
   9  -3  -6   -0.84    9.72
   9  -3  -6   -2.72   11.42
  -2  -9   8   -5.09   11.48
  11   5   2   17.34   14.78
  11  -5   2    6.72    9.60
 -11  -5  -2    6.17    9.77
  11   5   2    8.34   10.59
  11   0   3    1.45   10.41
  -7   6   7   35.55   15.31
  -8  14  -1   -2.18    9.84
  -8 -14  -1    0.97   15.00
   8 -14   1   -0.37   12.97
   4  15  -5  113.23   15.86
  -4  15   5   81.60   12.57
  -4 -16  -4  100.85   15.72
  -4  16  -4  136.35   17.13
   4  16   4   96.26   14.91
  -4 -16  -4   88.41   16.23
  -6   2   8   13.71   14.80
  -9 -12   2   40.24   14.01
   4  17   3  142.36   19.37
  -4  17  -3  167.37   19.01
   2 -19  -1    5.38   12.34
  11  -1   3   44.02   11.67
  11   1   3   39.83   11.39
  -8   9  -5  203.37   22.65
  -8  -9  -5  159.97   20.93
   2  16  -5   55.80   11.06
  -2  16   5   39.10    9.59
  -2  16   5   38.16   15.41
  10  10   1   98.76   18.03
  10  -5   4  329.97   33.59
  10   5   4  203.47   29.65
  10   5   4  292.80   32.66
  11  -7  -1   20.41   14.38
  -6   7  -7   66.45   12.37
   2  18   3   37.97   10.99
  -2  18  -3   29.66    9.44
   2 -18   3   34.85   21.21
   2 -19   1   16.61   18.28
  -1   3  -9  115.98   16.08
  -1  -3  -9  146.80   21.42
  -1  -3  -9  114.11   15.83
  -1   3  -9  125.67   16.93
 -10   3   5   11.34   14.77
  10  -3  -5    4.17   11.08
  10  -3  -5   11.44    9.69
  10  -3  -5   15.87   12.26
  10   3  -5    7.38    9.87
  10   3  -5   57.25   40.38
  -8   0   7   -0.89   16.15
  -2 -12  -7   49.58   11.02
   2   3  -9   59.24   10.89
  -2   3   9   75.72   20.34
  -8   1   7    4.92   14.45
  -7  15  -2    7.05   10.45
  -7 -15  -2   12.18   14.27
   7 -15   2    3.62   13.38
  -2   0  -9   -0.89   11.17
  11   2   3   10.17   10.90
  11  -2   3    8.82   10.16
   7  12  -5    7.58    9.59
   7 -12  -5    2.65   10.11
   7 -12  -5    5.47    8.84
   0 -19   2    3.33   16.71
   0  -4  -9    9.81    9.67
   0   4  -9    2.17    8.59
   1   4  -9    5.56   10.00
   1  -4  -9    2.39    9.64
  -2  -1  -9   61.67   11.20
  -2  -1  -9   57.83   13.29
  -2   1  -9   55.29   12.60
  10  -7  -4   53.70   14.13
 -10  -7   4   83.30   16.84
  10  -7  -4   67.70   11.09
  10   7  -4   63.56   12.57
  -4 -13  -6   20.46   11.23
  -4 -13  -6   15.36   10.98
   8 -12  -4    6.45    8.80
   8  12  -4    7.10   10.13
   8 -12  -4    6.36    9.74
  -7  13  -4  137.42   17.61
  -7 -13  -4  114.31   16.94
  -7 -13  -4  113.25   19.14
   7 -13   4  137.16   17.07
   7  13   4  106.43   15.62
   9   9   4   13.79   11.05
  -9  -9  -4    9.23   11.84
  -9   9  -4   16.09   10.04
   9  -9   4   11.65    9.08
  -3   0   9   -1.62   16.39
  -6   3   8   75.90   17.69
   7  -4   7    2.90   13.27
  -7   4  -7   10.07   10.63
   9  10  -4    9.98   10.09
   9 -10  -4    5.87    8.81
  -5 -12  -6  134.52   18.47
  -5 -12  -6  150.51   19.98
  -5   4  -8  263.21   28.90
  -3   1   9   80.10   20.80
  -3  -8  -8    7.66    9.07
  -8   2   7    9.44   14.80
   2  16   5   43.71    9.44
  -2  16  -5   71.57   10.93
  10  -8   3    6.17    9.57
 -10  -8  -3    6.39   10.45
  10   8   3    8.66   10.94
  10   8   3    7.65   14.35
   9  -4  -6    7.83    9.54
  -9   4   6    6.51   13.97
   9   4  -6   14.96   11.72
   9  -4  -6   13.04   11.92
  -3  17   4   59.44   16.88
  -3  17   4   58.53   10.41
   3  17  -4   69.48   12.23
  -5  14  -5   69.79   11.31
  -5 -14  -5   36.69   11.41
  -5 -14  -5   49.43   12.20
 -10 -10   2  146.31   21.84
  10 -10  -2  141.45   22.40
   1 -19   2   76.62   21.36
 -11  -7  -1  414.14   43.23
  -8   6  -6   62.56   11.48
   7  10  -6    2.09    9.14
   7 -10  -6    2.15    9.96
   9  -8  -5    7.27   11.77
   9  -8  -5    7.86    9.04
   9   8  -5    9.15   10.28
  -2   2  -9   35.69   11.52
  -2  -2  -9   31.61   10.11
  11  -5  -3  101.56   19.39
  -2  -9  -8  256.58   28.72
  10  -9  -3    2.08   13.40
 -10  -9   3    1.38   12.22
   4 -18  -2   24.23   11.65
  -4  18   2   36.93   14.11
  11  -3   3  168.36   23.00
  11   3   3  166.92   22.42
  -1   4  -9   -1.92    9.05
  -1  -4  -9    2.83    9.03
  -3   2   9   32.04   16.94
  10  -4  -5   22.90    9.55
  10  -4  -5   33.15   12.52
 -10   4   5   25.65   15.12
  10  -4  -5   28.95   12.36
  10   4  -5   25.66   10.41
  10   4  -5   77.18   26.45
   9  12   2   20.82   10.20
  -9  12  -2   18.32   11.23
   2   4  -9    6.06   10.19
   3 -19   0    3.88   13.69
   8   8  -6  151.75   20.03
   8  -8  -6  142.85   21.61
   8  -8  -6  140.76   17.40
  -7   9  -6  217.35   24.19
  -4 -15  -5    2.54   10.29
  -4 -15  -5    0.52    9.45
  -4  15  -5    5.39    9.47
 -11  -6  -2    1.97    9.13
  11   6   2    7.25   15.12
  -6 -13  -5   78.79   15.62
  -6 -13  -5   91.83   14.91
  -6  17   0   42.35   14.38
 -11   0   4   16.79   18.59
  -3  18   3    7.14   13.48
  -3 -14  -6   84.87   15.40
   0 -15   6   23.56   17.29
  -8   3   7  154.80   25.56
  -9  11  -3    0.83    9.80
   9  11   3    1.71    9.89
  -9 -11  -3    1.38   10.57
   9 -11   3    0.19    9.11
   0 -10   8   20.26   11.22
  11  -7  -2    0.68   15.04
 -11  -1   4   92.31   23.49
 -11   1   4   76.12   23.73
   9 -13   0  240.45   29.29
  -9 -13   0  223.48   27.72
  -6   4   8   12.21   14.77
   6 -15  -4   94.78   13.73
   6 -15  -4   90.52   15.64
  10   6   4   17.14   16.24
  10  -6   4   26.55   10.51
  10   6   4   26.79   11.21
  -1 -15   6  142.18   26.67
  -1 -10   8   20.38   12.10
  -2   3  -9   36.50   10.25
  -2  -3  -9   32.82    9.74
   8  13   3    4.93    9.98
  -8 -13  -3    3.79   13.07
  -8  13  -3    3.42   10.06
   8 -13   3    3.64    9.46
  -7  16   0  101.93   27.75
   7 -16   0   48.17   13.57
  -3  17  -4   -0.63    9.41
   3  17   4   -2.32    8.37
   0   5  -9   22.02   10.37
   0  -5  -9   22.76   10.09
  -3  16   5   36.43    9.95
   3  16  -5   48.88   11.25
   1   5  -9   77.35   13.96
   6 -16  -3   69.34   13.72
   0 -13   7   80.72   17.47
 -12  -1   0  156.53   20.36
  -6  17   1  100.39   17.03
   3 -19  -1   80.79   16.65
 -12   0   1   -6.11   12.73
   9 -13  -1  234.63   29.63
  -9 -13   1  215.77   27.51
  -3   3   9  244.95   33.07
  -7   5  -7   -1.46   10.03
  -1 -13   7   37.74   16.79
  -5   5  -8    3.33   10.77
   5 -16  -4   44.37    8.88
  11  -2  -4    3.39   12.09
 -11   2   4   -2.97   21.55
 -12  -1   1  130.78   20.41
  10 -11   0   19.25   13.55
  10  11   0   14.13   10.89
  -8  14  -2    7.72    9.95
  -8 -14  -2    4.58   14.42
   9  -5  -6   -1.12   13.71
   9   5  -6   -0.37    9.59
   9  -5  -6    1.31    8.11
   3 -19   1  348.63   43.19
  -7  16   1   -0.23   12.07
   1 -15   6   50.51   16.84
   2 -19   2  229.82   32.23
  11  -4   3   43.05   10.70
  11   4   3   29.52   11.82
  -4 -11  -7    3.36    9.17
  -6   8  -7  182.88   21.06
 -12  -2   0   59.23   12.20
   7 -15  -3   83.45   16.82
   6 -17   1   -8.34   11.47
  10 -11  -1   60.32   14.92
 -10 -11   1   65.85   14.89
   7 -14  -4    8.48   10.91
  10  10   2   -1.98   11.94
   5 -17  -3   17.01   11.62
  -5  17   3    3.33   13.28
  -1  -5  -9    1.78    9.92
 -12  -2   1   -0.04   13.15
  10   5  -5   -2.95   10.43
  10  -5  -5    5.18   12.20
  10  -5  -5    0.14    8.87
  -3 -12  -7   60.78   11.77
  -8   4   7    5.89   14.41
   9   0   6    2.27   14.19
 -11  -6   3   64.00   12.71
  11  -6  -3   51.61   16.20
   9  13   1    4.53    9.44
  -9 -13  -1    2.52   14.19
  -7  16  -1  317.82   34.45
   7 -16   1  301.15   34.01
  -5  18   1   -5.48   13.19
   5 -18  -1    0.43   11.93
  -2  -4  -9   21.55    8.74
  -2   4  -9   29.46   10.29
   9  -1   6   -4.12   13.88
   9   1   6   -2.58   14.14
 -10  -8   4   39.72   13.60
  -8  10  -5    0.52    9.78
   8 -11  -5   35.96    9.73
   8  11  -5   21.45    9.99
   8 -11  -5   25.97   10.49
  11   3  -4  268.50   60.74
  11  -3  -4   57.45   15.19
  -3   1  -9  161.75   20.62
  10   1   5   24.42   16.07
   0  18   4   -3.36   12.86
   0 -18   4   15.45   18.59
   0  18  -4   -2.83    9.49
   0  18   4    1.97    8.77
  -3 -16  -5   46.19   13.04
  -3  16  -5   53.46   11.56
  -8  12  -4   94.87   14.66
  -8 -12  -4   77.69   14.70
   8  12   4   65.04   11.29
   8 -12   4  102.41   14.82
 -12  -3   0   92.01   14.99
  -7 -12  -5   16.63   10.56
  -7  12  -5   14.66    9.27
   6 -14  -5    2.24    8.81
   6  14  -5    3.32   10.04
   8 -15   0   54.37   14.21
  -1  18   4   -1.02   12.46
  -1  18   4   -1.62    8.38
  10  11   1    6.57   10.56
   9   2   6    1.31   14.51
  -4   1   9   41.04   17.43
   5  15  -5   78.90   13.48
   5 -15  -5   65.70    9.40
 -12  -3   1   59.99   14.30
  -3   2  -9    8.88    9.85
  -3  -9  -8   -3.24    9.48
  10   2   5    8.40   16.66
  10   9   3   69.52   15.95
 -10  -9  -3   79.75   14.26
  10   9   3   98.00   16.27
 -11  -7  -2   67.29   11.06
   0   6  -9   30.04   10.63
   9 -10   4  101.87   14.43
  -9 -10  -4   81.02   15.93
   9  10   4   71.10   12.39
   1 -18   4   31.68   17.16
   1  18   4   54.72   17.52
   1  18   4   47.71   10.35
   1   6  -9   47.70   12.69
 -12   0   2  224.17   28.58
   9  -9  -5    5.55    8.78
   9  -9  -5    1.59    9.53
   9   9  -5   -1.43   10.04
  11   5   3   56.69   11.87
   6 -15   4  164.27   19.15
  -6 -15  -4  121.18   19.01
   6  15   4  116.90   16.99
   5  16   4   30.71   11.00
  -5  16  -4   46.68   10.33
   6  -2   8    1.21   12.34
  10   7   4   21.66   11.27
  10   7   4   14.04   18.09
  10  -7   4   29.38   10.34
 -12  -1   2   41.70   14.02
  -5   6  -8   -2.55   11.25
   6 -17  -2   79.62   15.85
  -6  17   2   71.82   14.74
  -4   2   9    1.32   15.01
   0 -17   5   23.16   17.40
   0  17  -5   47.59   11.76
   0  17   5   33.39    9.15
   0  17   5   41.14   16.24
   9  -6  -6   56.55   14.60
   9  -6  -6   61.68   10.80
   9   6  -6   39.09   10.74
 -10 -10   3  231.91   29.60
  11  -8  -2   -2.14   14.18
  11   4  -4   15.70   21.02
  11  -4  -4    7.99   12.42
   8   9  -6   29.94   10.21
   1  17  -5    2.89   11.11
  -1  17   5    5.84    8.37
   9   3   6    2.28   14.46
  -7 -15  -3   77.92   16.83
  10 -11  -2   34.32   14.25
 -10 -11   2   37.30   14.91
  -3   3  -9    9.47    9.96
  10   3   5   18.46   16.81
 -12  -2   2    1.88   13.05
  -2  -5  -9    7.35    8.64
 -12  -4   0   12.55   10.82
   7 -13  -5   15.62    9.14
   7  13  -5   24.20    9.92
   8 -15   1   69.52   14.98
  -8  15  -1   49.20   11.92
   4 -19   0  387.84   43.89
  -1  -6  -9    0.94    8.68
  -7  10  -6   39.43   10.29
  -4  18   3   67.64   17.91
  10  -6  -5   85.75   16.94
  10  -6  -5   98.83   14.90
  -2  18   4   88.09   18.56
   3 -19   2  176.06   29.49
   8 -13  -4   31.14   10.51
   1 -19   3   27.16   21.44
  -1  17  -5   11.16    9.55
   1  17   5   12.16   15.28
   1 -17   5    2.11   17.12
 -12  -4   1    5.25   12.24
  -7   1   8   23.74   15.97
   6  -3   8   75.93   16.47
  -5 -13  -6   23.34   10.90
  -4  16   5    8.29    9.05
   4  16  -5   11.88    9.74
   8   0   7   -5.41   13.23
  11  -7  -3   -1.39   14.34
 -11  -7   3    6.34   11.36
   7 -14   4  118.40   15.69
  -7 -14  -4   81.95   16.34
   7  14   4   97.79   15.09
   8  -1   7   35.16   14.98
;
_shelx_hkl_checksum              42637
loop_
_space_group_symop_id
_space_group_symop_operation_xyz
1 +X,+Y,+Z
2 -X,1/2+Y,1/2-Z
3 -X,-Y,-Z
4 +X,-1/2-Y,-1/2+Z
loop_
_atom_site_label
_atom_site_type_symbol
_atom_site_fract_x
_atom_site_fract_y
_atom_site_fract_z
_atom_site_U_iso_or_equiv
_atom_site_adp_type
_atom_site_occupancy
_atom_site_site_symmetry_order
_atom_site_calc_flag
_atom_site_refinement_flags_posn
_atom_site_refinement_flags_adp
_atom_site_refinement_flags_occupancy
_atom_site_disorder_assembly
_atom_site_disorder_group
Br1 Br 0.18456(3) 0.51363(2) 0.40143(4) 0.02515(10) Uani 1 1 d . . . . .
Br2 Br 0.59917(3) 0.84853(2) 0.31796(5) 0.03019(11) Uani 1 1 d . . . . .
Br3 Br 0.33043(3) 0.96615(2) 0.39851(4) 0.02527(10) Uani 1 1 d . . . . .
Br4 Br -0.06995(3) 0.62845(2) 0.23130(5) 0.02972(10) Uani 1 1 d . . . . .
C1 C 0.2810(3) 0.61857(19) 0.3522(4) 0.0204(6) Uani 1 1 d . . . . .
C2 C 0.4253(3) 0.6090(2) 0.3616(5) 0.0269(7) Uani 1 1 d . . . . .
H2 H 0.4654 0.5533 0.3779 0.032 Uiso 1 1 calc R U . . .
C3 C 0.5132(3) 0.6807(2) 0.3474(4) 0.0263(7) Uani 1 1 d . . . . .
H3 H 0.6126 0.6731 0.3439 0.032 Uiso 1 1 calc R U . . .
C4 C 0.4573(3) 0.7613(2) 0.3386(4) 0.0209(6) Uani 1 1 d . . . . .
C5 C 0.3073(3) 0.77689(19) 0.3338(4) 0.0193(6) Uani 1 1 d . . . . .
C6 C 0.2405(3) 0.8597(2) 0.3362(4) 0.0220(7) Uani 1 1 d . . . . .
C7 C 0.0969(3) 0.8692(2) 0.3058(4) 0.0254(7) Uani 1 1 d . . . . .
H7 H 0.0554 0.9248 0.3071 0.030 Uiso 1 1 calc R U . . .
C8 C 0.0130(3) 0.7969(2) 0.2732(5) 0.0281(7) Uani 1 1 d . . . . .
H8 H -0.0845 0.8041 0.2419 0.034 Uiso 1 1 calc R U . . .
C9 C 0.0683(3) 0.7156(2) 0.2853(4) 0.0223(7) Uani 1 1 d . . . . .
C10 C 0.2153(3) 0.7007(2) 0.3239(4) 0.0204(6) Uani 1 1 d . . . . .
loop_
_atom_site_aniso_label
_atom_site_aniso_U_11
_atom_site_aniso_U_22
_atom_site_aniso_U_33
_atom_site_aniso_U_23
_atom_site_aniso_U_13
_atom_site_aniso_U_12
Br1 0.02777(18) 0.01698(17) 0.0308(2) 0.00118(12) 0.00262(14) -0.00157(12)
Br2 0.02208(18) 0.02602(19) 0.0425(2) -0.00566(14) 0.00179(14) -0.00616(13)
Br3 0.02804(18) 0.01829(17) 0.0290(2) -0.00122(12) -0.00554(13) -0.00171(12)
Br4 0.02316(18) 0.02416(18) 0.0414(2) 0.00537(14) -0.00454(14) -0.00670(13)
C1 0.0265(17) 0.0182(15) 0.0166(16) 0.0003(12) 0.0023(12) -0.0051(12)
C2 0.0289(18) 0.0214(17) 0.0304(19) 0.0010(14) -0.0011(14) 0.0021(13)
C3 0.0208(16) 0.0310(18) 0.0272(18) -0.0017(14) 0.0013(13) -0.0013(13)
C4 0.0224(16) 0.0222(16) 0.0181(16) 0.0009(12) -0.0014(12) -0.0064(13)
C5 0.0229(16) 0.0205(16) 0.0142(15) 0.0012(12) -0.0019(12) -0.0025(12)
C6 0.0253(17) 0.0211(16) 0.0194(17) 0.0033(12) 0.0006(13) -0.0055(12)
C7 0.0268(18) 0.0195(17) 0.0297(19) 0.0036(13) -0.0001(14) -0.0005(13)
C8 0.0222(17) 0.0268(18) 0.035(2) 0.0071(14) -0.0010(14) -0.0006(13)
C9 0.0228(16) 0.0237(17) 0.0204(17) 0.0036(13) 0.0005(12) -0.0062(12)
C10 0.0227(16) 0.0215(16) 0.0170(16) 0.0010(12) -0.0005(12) -0.0007(12)
loop_
_atom_type_symbol
_atom_type_description
_atom_type_scat_dispersion_real
_atom_type_scat_dispersion_imag
_atom_type_scat_source
C C 0.0033 0.0016
;
International Tables for Crystallography
(Vol. C, Tables 4.2.6.8 and 6.1.1.4)
;
H H 0.0000 0.0000
;
International Tables for Crystallography
(Vol. C, Table 6.1.1.4)
;
Br Br -0.2901 2.4595
;
International Tables for Crystallography
(Vol. C, Tables 4.2.6.8 and 6.1.1.4)
;
loop_
_geom_angle_atom_site_label_1
_geom_angle_atom_site_label_2
_geom_angle_atom_site_label_3
_geom_angle
_geom_angle_site_symmetry_1
_geom_angle_site_symmetry_3
_geom_angle_publ_flag
C2 C1 C10 122.0(3) . . ?
C2 C1 Br1 112.3(2) . . ?
C10 C1 Br1 125.4(2) . . ?
C1 C2 C3 120.3(3) . . ?
C1 C2 H2 119.8 . . ?
C3 C2 H2 119.8 . . ?
C4 C3 C2 120.4(3) . . ?
C4 C3 H3 119.8 . . ?
C2 C3 H3 119.8 . . ?
C3 C4 C5 122.5(3) . . ?
C3 C4 Br2 112.4(2) . . ?
C5 C4 Br2 125.0(2) . . ?
C6 C5 C4 125.9(3) . . ?
C6 C5 C10 117.5(3) . . ?
C4 C5 C10 116.6(3) . . ?
C7 C6 C5 121.8(3) . . ?
C7 C6 Br3 112.0(2) . . ?
C5 C6 Br3 126.0(2) . . ?
C6 C7 C8 119.7(3) . . ?
C6 C7 H7 120.1 . . ?
C8 C7 H7 120.1 . . ?
C9 C8 C7 121.2(3) . . ?
C9 C8 H8 119.4 . . ?
C7 C8 H8 119.4 . . ?
C8 C9 C10 122.0(3) . . ?
C8 C9 Br4 112.5(2) . . ?
C10 C9 Br4 125.5(2) . . ?
C9 C10 C1 126.0(3) . . ?
C9 C10 C5 116.8(3) . . ?
C1 C10 C5 117.2(3) . . ?
loop_
_geom_bond_atom_site_label_1
_geom_bond_atom_site_label_2
_geom_bond_distance
_geom_bond_site_symmetry_2
_geom_bond_publ_flag
Br1 C1 1.909(3) . ?
Br2 C4 1.918(3) . ?
Br3 C6 1.908(3) . ?
Br4 C9 1.914(3) . ?
C1 C2 1.373(5) . ?
C1 C10 1.430(4) . ?
C2 C3 1.396(5) . ?
C2 H2 0.9500 . ?
C3 C4 1.360(4) . ?
C3 H3 0.9500 . ?
C4 C5 1.440(4) . ?
C5 C6 1.433(4) . ?
C5 C10 1.470(4) . ?
C6 C7 1.377(4) . ?
C7 C8 1.391(4) . ?
C7 H7 0.9500 . ?
C8 C9 1.369(4) . ?
C8 H8 0.9500 . ?
C9 C10 1.430(4) . ?
loop_
_geom_torsion_atom_site_label_1
_geom_torsion_atom_site_label_2
_geom_torsion_atom_site_label_3
_geom_torsion_atom_site_label_4
_geom_torsion
_geom_torsion_site_symmetry_1
_geom_torsion_site_symmetry_2
_geom_torsion_site_symmetry_3
_geom_torsion_site_symmetry_4
_geom_torsion_publ_flag
C10 C1 C2 C3 1.3(5) . . . . ?
Br1 C1 C2 C3 -173.6(2) . . . . ?
C1 C2 C3 C4 5.2(5) . . . . ?
C2 C3 C4 C5 -3.3(5) . . . . ?
C2 C3 C4 Br2 -179.6(3) . . . . ?
C3 C4 C5 C6 175.8(3) . . . . ?
Br2 C4 C5 C6 -8.3(4) . . . . ?
C3 C4 C5 C10 -4.9(4) . . . . ?
Br2 C4 C5 C10 171.0(2) . . . . ?
C4 C5 C6 C7 170.8(3) . . . . ?
C10 C5 C6 C7 -8.6(4) . . . . ?
C4 C5 C6 Br3 -14.5(5) . . . . ?
C10 C5 C6 Br3 166.1(2) . . . . ?
C5 C6 C7 C8 0.5(5) . . . . ?
Br3 C6 C7 C8 -174.9(3) . . . . ?
C6 C7 C8 C9 5.4(5) . . . . ?
C7 C8 C9 C10 -2.8(5) . . . . ?
C7 C8 C9 Br4 -179.4(3) . . . . ?
C8 C9 C10 C1 175.2(3) . . . . ?
Br4 C9 C10 C1 -8.7(4) . . . . ?
C8 C9 C10 C5 -5.4(4) . . . . ?
Br4 C9 C10 C5 170.8(2) . . . . ?
C2 C1 C10 C9 170.1(3) . . . . ?
Br1 C1 C10 C9 -15.6(4) . . . . ?
C2 C1 C10 C5 -9.4(4) . . . . ?
Br1 C1 C10 C5 164.9(2) . . . . ?
C6 C5 C10 C9 10.7(4) . . . . ?
C4 C5 C10 C9 -168.7(3) . . . . ?
C6 C5 C10 C1 -169.8(3) . . . . ?
C4 C5 C10 C1 10.8(4) . . . . ?
