#------------------------------------------------------------------------------
#$Date: 2020-11-04 03:28:11 +0200 (Wed, 04 Nov 2020) $
#$Revision: 258715 $
#$URL: file:///home/coder/svn-repositories/cod/cif/1/55/92/1559263.cif $
#------------------------------------------------------------------------------
#
# This file is available in the Crystallography Open Database (COD),
# http://www.crystallography.net/
#
# All data on this site have been placed in the public domain by the
# contributors.
#
data_1559263
loop_
_publ_author_name
'Olivon, Florent'
'Retailleau, Pascal'
'Desrat, Sandy'
'Touboul, David'
'Roussi, Fanny'
'Apel, C\'ecile'
'Litaudon, Marc'
_publ_section_title
;
 Isolation of Picrotoxanes from <i>Austrobuxus carunculatus</i> Using
 Taxonomy-Based Molecular Networking.
;
_journal_issue                   10
_journal_name_full               'Journal of natural products'
_journal_page_first              3069
_journal_page_last               3079
_journal_paper_doi               10.1021/acs.jnatprod.0c00636
_journal_volume                  83
_journal_year                    2020
_chemical_absolute_configuration unk
_chemical_formula_moiety         'C15 H18 O6'
_chemical_formula_sum            'C15 H18 O6'
_chemical_formula_weight         294.29
_space_group_crystal_system      triclinic
_space_group_IT_number           1
_space_group_name_Hall           'P 1'
_space_group_name_H-M_alt        'P 1'
_atom_sites_solution_hydrogens   mixed
_atom_sites_solution_primary     other
_atom_sites_solution_secondary   difmap
_audit_creation_method           SHELXL-2018/3
_cell_angle_alpha                81.9415(19)
_cell_angle_beta                 73.770(2)
_cell_angle_gamma                62.844(3)
_cell_formula_units_Z            1
_cell_length_a                   6.9816(2)
_cell_length_b                   7.0672(16)
_cell_length_c                   7.8911(18)
_cell_measurement_reflns_used    9767
_cell_measurement_temperature    293(2)
_cell_measurement_theta_max      29.6580
_cell_measurement_theta_min      3.5760
_cell_volume                     332.59(11)
_computing_cell_refinement       'CrysAlisPro 1.171.39.43c (Rigaku OD, 2018)'
_computing_data_collection       'CrysAlisPro 1.171.39.43c (Rigaku OD, 2018)'
_computing_data_reduction        'CrysAlisPro 1.171.39.43c (Rigaku OD, 2018)'
_computing_structure_refinement  'SHELXL-2018/3 (Sheldrick, 2015b)'
_computing_structure_solution    'SHELXT (Sheldrick, 2015a)'
_diffrn_ambient_environment      air
_diffrn_ambient_temperature      293(2)
_diffrn_detector                 'HPAD Pilatus3R 200K'
_diffrn_measured_fraction_theta_full 0.995
_diffrn_measured_fraction_theta_max 0.995
_diffrn_measurement_device       'four-circle diffractometer'
_diffrn_measurement_device_type  'XtaLAB AFC12 (RINC): Kappa single'
_diffrn_radiation_monochromator  'Rigaku MaxFlux mirror'
_diffrn_radiation_probe          x-ray
_diffrn_radiation_type           'Mo K\a'
_diffrn_radiation_wavelength     0.71073
_diffrn_reflns_av_R_equivalents  0.0491
_diffrn_reflns_av_unetI/netI     0.0311
_diffrn_reflns_Laue_measured_fraction_full 0.995
_diffrn_reflns_Laue_measured_fraction_max 0.995
_diffrn_reflns_limit_h_max       8
_diffrn_reflns_limit_h_min       -8
_diffrn_reflns_limit_k_max       9
_diffrn_reflns_limit_k_min       -9
_diffrn_reflns_limit_l_max       10
_diffrn_reflns_limit_l_min       -10
_diffrn_reflns_number            17603
_diffrn_reflns_point_group_measured_fraction_full 0.981
_diffrn_reflns_point_group_measured_fraction_max 0.976
_diffrn_reflns_theta_full        25.242
_diffrn_reflns_theta_max         27.097
_diffrn_reflns_theta_min         3.772
_diffrn_source                   'micro-focus sealed X-ray tube'
_diffrn_source_type              'Rigaku (Mo) mm003 X-ray Source'
_exptl_absorpt_coefficient_mu    0.114
_exptl_absorpt_correction_T_max  1.00000
_exptl_absorpt_correction_T_min  0.52374
_exptl_absorpt_correction_type   multi-scan
_exptl_absorpt_process_details
;
CrysAlisPro 1.171.39.43c (Rigaku Oxford Diffraction, 2018)
Empirical absorption correction using spherical harmonics,
 implemented in SCALE3 ABSPACK scaling algorithm.
;
_exptl_crystal_colour            colourless
_exptl_crystal_density_diffrn    1.469
_exptl_crystal_description       prism
_exptl_crystal_F_000             156
_exptl_crystal_size_max          0.42
_exptl_crystal_size_mid          0.32
_exptl_crystal_size_min          0.23
_refine_diff_density_max         0.217
_refine_diff_density_min         -0.186
_refine_diff_density_rms         0.035
_refine_ls_abs_structure_details
;
 Refined as an inversion twin.
;
_refine_ls_abs_structure_Flack   0.6(10)
_refine_ls_extinction_method     none
_refine_ls_goodness_of_fit_ref   1.063
_refine_ls_hydrogen_treatment    mixed
_refine_ls_matrix_type           full
_refine_ls_number_parameters     199
_refine_ls_number_reflns         2858
_refine_ls_number_restraints     4
_refine_ls_restrained_S_all      1.062
_refine_ls_R_factor_all          0.0341
_refine_ls_R_factor_gt           0.0325
_refine_ls_shift/su_max          0.000
_refine_ls_shift/su_mean         0.000
_refine_ls_structure_factor_coef Fsqd
_refine_ls_weighting_details
'w=1/[\s^2^(Fo^2^)+(0.0569P)^2^+0.0258P] where P=(Fo^2^+2Fc^2^)/3'
_refine_ls_weighting_scheme      calc
_refine_ls_wR_factor_gt          0.0862
_refine_ls_wR_factor_ref         0.0870
_reflns_Friedel_coverage         0.962
_reflns_Friedel_fraction_full    0.968
_reflns_Friedel_fraction_max     0.957
_reflns_number_gt                2790
_reflns_number_total             2864
_reflns_threshold_expression     'I > 2\s(I)'
_cod_data_source_file            np0c00636_si_002.cif
_cod_data_source_block           FO5-115_1_Mo
_cod_depositor_comments
'Adding full bibliography for 1559261--1559267.cif.'
_cod_database_code               1559263
_shelx_space_group_comment
;
The symmetry employed for this shelxl refinement is uniquely defined
by the following loop, which should always be used as a source of
symmetry information in preference to the above space-group names.
They are only intended as comments.
;
_shelx_res_file
;
TITL exp_1_a.res in P1
    exp_1_Mo.res
    created by SHELXL-2018/3 at 10:32:51 on 02-Apr-2020
REM Old TITL exp_1 in P1
REM SHELXT solution in P1
REM R1 0.310, Rweak 0.256, Alpha 0.000, Orientation as input
REM Flack x = -1.081 ( 3.624 ) from Parsons' quotients
REM Formula found by SHELXT: C9 N4 O6
CELL 0.71073 6.9816 7.06723 7.89106 81.9415 73.770 62.844
ZERR 1 0.0002 0.0016 0.0018 0.0019 0.002 0.003
LATT -1
SFAC C H O
UNIT 15 18 6
L.S. 10
PLAN  20
BOND $H
list 4
fmap 2
acta
OMIT      1   1   1
OMIT   -1  -1  -1
OMIT   0  -1   1
OMIT   0   1   1
OMIT   -1  -1   0
OMIT   -1  -1   1
REM <olex2.extras>
REM <HklSrc "%.\\exp_1.hkl">
REM </olex2.extras>
CONF
SADI O4 H4O O1 H1O
SHEL 999 0.78
EQIV $1 x+1, y, z
EQIV $2 x-1, y+1, z
HTAB O1 O4_$1
HTAB O4 O3_$2
HTAB C14 O1
HTAB C14 O5_$1
TWIN
WGHT    0.056900    0.025800
BASF   0.58554
FVAR       5.99892
O1    3    0.896780    0.656876    0.340206    11.00000    0.03387    0.06241 =
         0.02930   -0.00945   -0.00045   -0.03347
H1O   2    0.964377    0.685345    0.395644    11.00000   -1.50000
C1    1    0.599335    0.568625    0.348770    11.00000    0.01897    0.02185 =
         0.02096   -0.00301   -0.00564   -0.00785
O2    3    0.866913    0.322217    0.607537    11.00000    0.02527    0.03181 =
         0.03609   -0.00312   -0.01313   -0.00328
C2    1    0.698982    0.657614    0.452914    11.00000    0.02298    0.02733 =
         0.02363   -0.00426   -0.00416   -0.01347
AFIX  13
H2    2    0.593680    0.807098    0.476269    11.00000   -1.20000
AFIX   0
O3    3    0.800752    0.043543    0.602024    11.00000    0.05443    0.02069 =
         0.05536   -0.00256   -0.01766   -0.00183
C3    1    0.729862    0.551599    0.631254    11.00000    0.02350    0.02965 =
         0.02720   -0.00502   -0.00923   -0.01021
AFIX  13
H3    2    0.797772    0.612710    0.686881    11.00000   -1.20000
AFIX   0
O4    3    0.201825    0.656856    0.512094    11.00000    0.01736    0.03043 =
         0.03821   -0.01367   -0.00692   -0.00327
H4O   2    0.191679    0.761086    0.560139    11.00000   -1.50000
C4    1    0.514265    0.559934    0.755809    11.00000    0.02860    0.02428 =
         0.01970    0.00043   -0.00669   -0.01109
AFIX  13
H4    2    0.552964    0.486615    0.864951    11.00000   -1.20000
AFIX   0
O5    3    0.425587    0.360036    0.204966    11.00000    0.03018    0.04357 =
         0.03821   -0.01226   -0.01201   -0.01577
C5    1    0.490894    0.402255    0.655473    11.00000    0.02779    0.01977 =
         0.02646   -0.00018   -0.00547   -0.01014
AFIX  13
H5    2    0.388874    0.347299    0.730387    11.00000   -1.20000
AFIX   0
C6    1    0.424115    0.497881    0.478681    11.00000    0.01726    0.02154 =
         0.02761   -0.00532   -0.00559   -0.00666
O6    3    0.883723    0.384967    0.064209    11.00000    0.03661    0.05310 =
         0.02686   -0.01195    0.00236   -0.02006
C7    1    0.493326    0.747590    0.221316    11.00000    0.03945    0.02902 =
         0.03228    0.00383   -0.01763   -0.01202
AFIX 137
H7A   2    0.412369    0.707635    0.164640    11.00000   -1.50000
H7AB  2    0.607541    0.771025    0.133695    11.00000   -1.50000
H7AC  2    0.393878    0.875851    0.286031    11.00000   -1.50000
AFIX   0
C8    1    0.314031    0.769018    0.810683    11.00000    0.03003    0.02836 =
         0.01838   -0.00485   -0.00290   -0.00966
C9    1    0.320565    0.955357    0.784619    11.00000    0.04979    0.03095 =
         0.03244   -0.00926    0.00071   -0.01411
AFIX  93
H9A   2    0.196587    1.077375    0.833022    11.00000   -1.20000
H9AB  2    0.449133    0.964254    0.717905    11.00000   -1.20000
AFIX   0
C10   1    0.107996    0.750051    0.918169    11.00000    0.03406    0.04875 =
         0.03082   -0.00983    0.00290   -0.01710
AFIX 137
H10A  2   -0.010514    0.889449    0.947543    11.00000   -1.50000
H10B  2    0.136939    0.670374    1.024595    11.00000   -1.50000
H10C  2    0.066244    0.678240    0.850878    11.00000   -1.50000
AFIX   0
C11   1    0.432434    0.318710    0.386916    11.00000    0.02679    0.02915 =
         0.03507   -0.00867   -0.00553   -0.01442
AFIX  13
H11   2    0.374961    0.221097    0.456253    11.00000   -1.20000
AFIX   0
C12   1    0.637754    0.234718    0.249474    11.00000    0.02710    0.02705 =
         0.03384   -0.01088   -0.00636   -0.00953
AFIX  13
H12   2    0.718957    0.081801    0.226497    11.00000   -1.20000
AFIX   0
C13   1    0.759680    0.364470    0.238947    11.00000    0.02133    0.02875 =
         0.02457   -0.00702   -0.00481   -0.00822
C14   1    1.002121    0.256689    0.194247    11.00000    0.02163    0.04687 =
         0.04492   -0.01857   -0.00500   -0.00690
AFIX  23
H14A  2    1.079349    0.312462    0.242393    11.00000   -1.20000
H14B  2    1.073540    0.103439    0.181724    11.00000   -1.20000
AFIX   0
C15   1    0.730709    0.231092    0.618839    11.00000    0.03437    0.02503 =
         0.02932   -0.00041   -0.01146   -0.00546
HKLF 4




REM  exp_1_a.res in P1
REM wR2 = 0.0870, GooF = S = 1.063, Restrained GooF = 1.062 for all data
REM R1 = 0.0325 for 2790 Fo > 4sig(Fo) and 0.0341 for all 2858 data
REM 199 parameters refined using 4 restraints

END

WGHT      0.0569      0.0258

REM Highest difference peak  0.217,  deepest hole -0.186,  1-sigma level  0.035
Q1    1   0.6087  0.5708  0.6928  11.00000  0.05    0.22
Q2    1   0.5075  0.4826  0.7082  11.00000  0.05    0.20
Q3    1   0.6382  0.6114  0.4036  11.00000  0.05    0.19
Q4    1   0.5100  0.5450  0.4212  11.00000  0.05    0.19
Q5    1   0.7157  0.5890  0.5422  11.00000  0.05    0.18
Q6    1   0.4656  0.4618  0.5637  11.00000  0.05    0.18
Q7    1   0.4215  0.4159  0.4375  11.00000  0.05    0.17
Q8    1   0.7019  0.3004  0.2544  11.00000  0.05    0.17
Q9    1   0.6882  0.4605  0.3015  11.00000  0.05    0.16
Q10   1   0.4132  0.6569  0.7719  11.00000  0.05    0.15
Q11   1   0.5533  0.6453  0.2884  11.00000  0.05    0.14
Q12   1   0.5383  0.2639  0.3362  11.00000  0.05    0.14
Q13   1   0.6025  0.3131  0.6197  11.00000  0.05    0.14
Q14   1   0.2170  0.7630  0.8496  11.00000  0.05    0.13
Q15   1   0.6873  0.1380  0.1686  11.00000  0.05    0.13
Q16   1   0.3301  0.5867  0.4865  11.00000  0.05    0.12
Q17   1   0.3177  0.2840  0.4431  11.00000  0.05    0.12
Q18   1   0.3417  0.8422  0.8666  11.00000  0.05    0.11
Q19   1   0.2796  0.8752  0.7387  11.00000  0.05    0.11
Q20   1   0.8546  0.2903  0.2620  11.00000  0.05    0.10
;
_shelx_res_checksum              61781
_shelx_hkl_file
;
  -9  -7  -3 31.1561 25.0602   7
  -9  -7  -2 81.0200 31.9528   7
  -9  -6  -5 14.6224 22.2905   6
  -9  -6  -4 63.3008 27.8000   8
  -9  -6  -4 55.3716 27.3616   6
  -9  -6  -3 153.054 41.3713   7
  -9  -6  -3 151.797 39.5701   8
  -9  -6  -3 112.129 34.7100   6
  -9  -6  -2 94.8898 32.3634   6
  -9  -6  -2 69.4431 32.5485   7
  -9  -6  -2 93.2617 31.8161   8
  -9  -6  -1 1149.66 111.624   7
  -9  -6   0 567.000 75.2945   7
  -9  -5  -6 799.815 80.6141   5
  -9  -5  -6 791.042 82.5331   9
  -9  -5  -5 74.4454 30.4126   5
  -9  -5  -4 44.3602 28.2797   6
  -9  -5  -4 83.1049 33.6027   8
  -9  -5  -4 90.8981 30.9419   5
  -9  -5  -3 100.855 34.7535   8
  -9  -5  -3 128.328 35.5202   5
  -9  -5  -3 135.151 36.5370   6
  -9  -5  -2 75.8960 29.0658   6
  -9  -5  -2 71.5127 34.3865   7
  -9  -5  -2 61.8642 27.2226   8
  -9  -5  -1 297.672 51.6461   8
  -9  -5  -1 371.578 62.5368   7
  -9  -5  -1 182.980 44.0419   6
  -9  -5   0 384.723 59.2865   8
  -9  -5   0 552.742 69.8004   6
  -9  -4  -6 823.137 84.1019  12
  -9  -4  -6 863.963 82.6119   9
  -9  -4  -5 308.299 48.8875   9
  -9  -4  -5 223.884 41.9391   5
  -9  -4  -4 163.722 37.5307   9
  -9  -4  -4 129.189 34.3815   5
  -9  -4  -3 102.901 32.8614   5
  -9  -4  -3 126.479 37.3107   6
  -9  -4  -3 83.7650 32.2257   8
  -9  -4  -2 219.220 46.1947   6
  -9  -4  -2 241.101 45.9431   5
  -9  -4  -2 191.044 44.6035   8
  -9  -4  -1 87.1263 32.4991   6
  -9  -4  -1 129.533 36.8593   8
  -9  -4   0 134.810 37.2383   8
  -9  -4   0 131.264 40.3412   6
  -9  -3  -6 865.106 83.1214   9
  -9  -3  -5 303.484 48.5923   9
  -9  -3  -5 313.395 56.2594   2
  -9  -3  -5 279.071 43.8341   5
  -9  -3  -4 150.429 36.8212   9
  -9  -3  -4 135.717 38.1583   2
  -9  -3  -4 174.431 36.6817   5
  -9  -3  -3 168.609 37.6580   5
  -9  -3  -2 13.2420 21.2884   2
  -9  -3  -2 25.5359 18.3652   5
  -9  -2  -5 130.849 35.8490   9
  -9  -2  -5 192.890 43.1434   2
  -9  -2  -4 34.9625 24.6756   2
  -9  -2  -4 48.9207 24.1296   9
  -9  -2  -4 52.0895 25.0125   2
  -9  -2  -4 30.7847 22.1900   5
  -9  -2  -3 102.981 30.4225   2
  -9  -2  -3 79.9263 28.7039   5
  -9  -2  -2 190.889 41.1388   5
  -9  -2  -2 161.098 41.6428   2
  -9  -1  -2 726.189 79.2356   2
  -8  -8  -5 297.618 55.8965   7
  -8  -8  -4 627.514 76.2626   7
  -8  -8  -3 57.2404 25.1548   7
  -8  -7  -7 841.785 84.9052  12
  -8  -7  -6 262.158 45.4513  12
  -8  -7  -5 209.447 41.3728  12
  -8  -7  -5 157.908 44.7195   7
  -8  -7  -4 292.584 53.1942   7
  -8  -7  -4 364.298 66.8660  10
  -8  -7  -4 312.382 47.8391   6
  -8  -7  -4 429.420 60.5785  12
  -8  -7  -3 401.502 60.8759   7
  -8  -7  -3 400.872 68.6933  10
  -8  -7  -3 399.386 51.9835   6
  -8  -7  -3 467.109 64.2686   4
  -8  -7  -2 145.821 35.7571   7
  -8  -7  -2 117.223 34.8690   4
  -8  -7  -2 126.390 39.6575  10
  -8  -7  -1 317.929 53.1942   4
  -8  -7  -1 308.562 57.5948  10
  -8  -7  -1 236.820 45.1698   7
  -8  -7   0 581.366 79.5417  10
  -8  -7   1 194.118 44.6844  11
  -8  -6  -7 989.255 88.0521   5
  -8  -6  -7 747.691 76.9965  12
  -8  -6  -7 755.178 78.5151   9
  -8  -6  -6 263.249 44.8083  12
  -8  -6  -6 281.599 45.7462   9
  -8  -6  -6 227.006 43.1135   5
  -8  -6  -6 172.848 42.2831   6
  -8  -6  -5 119.930 32.8515   9
  -8  -6  -5 90.1299 30.5620   6
  -8  -6  -5 147.978 38.5773   4
  -8  -6  -5 131.861 34.9594   3
  -8  -6  -5 154.826 41.0185   5
  -8  -6  -5 262.619 54.4219   2
  -8  -6  -5 86.1266 33.2795  10
  -8  -6  -5 187.867 39.7730  12
  -8  -6  -5 135.340 40.0695   7
  -8  -6  -4 1394.21 124.743   7
  -8  -6  -4 1282.87 126.799  10
  -8  -6  -4 1552.06 121.543   5
  -8  -6  -4 1211.14 110.516   8
  -8  -6  -4 1191.80 109.456   6
  -8  -6  -4 1601.93 139.957   2
  -8  -6  -4 1701.11 121.559  12
  -8  -6  -4 1485.47 118.009   9
  -8  -6  -4 1334.81 115.774   4
  -8  -6  -4 1505.57 120.374   3
  -8  -6  -3 492.453 69.0146   7
  -8  -6  -3 458.935 71.1465  10
  -8  -6  -3 649.238 71.4095  12
  -8  -6  -3 429.993 59.7171   8
  -8  -6  -3 668.950 74.0579   9
  -8  -6  -3 497.651 63.1005   6
  -8  -6  -3 565.755 68.8819   4
  -8  -6  -2 232.042 40.6856   6
  -8  -6  -2 167.928 40.1398   4
  -8  -6  -2 297.464 45.8422   8
  -8  -6  -2 355.493 55.3691   5
  -8  -6  -2 343.721 54.5640   9
  -8  -6  -2 295.832 49.2814  12
  -8  -6  -2 246.760 46.9003   7
  -8  -6  -2 245.433 46.6650   3
  -8  -6  -2 225.333 49.7326  10
  -8  -6  -1 415.236 61.0427   5
  -8  -6  -1 235.720 40.8370   6
  -8  -6  -1 326.552 52.7750   3
  -8  -6  -1 246.336 41.2673   8
  -8  -6  -1 308.813 57.4205  10
  -8  -6  -1 266.775 47.8067   7
  -8  -6   0 1808.55 139.476  12
  -8  -6   0 1628.52 119.799   6
  -8  -6   0 1691.08 136.524   3
  -8  -6   0 1595.15 116.132   8
  -8  -6   0 1621.43 128.416   7
  -8  -6   0 1722.50 138.222   9
  -8  -6   0 1738.93 147.189  10
  -8  -6   1 5.95614 21.8230   7
  -8  -6   1 26.1603 24.8649   3
  -8  -6   1 21.3053 21.6504  11
  -8  -6   2 124.234 36.2044   3
  -8  -5  -7 95.2722 26.7409  12
  -8  -5  -7 71.2072 24.8438   9
  -8  -5  -7 73.0208 25.9395   5
  -8  -5  -7 76.9158 29.2158   3
  -8  -5  -6 333.122 61.0525   7
  -8  -5  -6 454.011 55.6040   9
  -8  -5  -6 307.516 60.5887   2
  -8  -5  -6 398.825 63.9544   8
  -8  -5  -6 450.600 56.3492   5
  -8  -5  -6 333.478 58.1664   6
  -8  -5  -6 335.305 50.0001  12
  -8  -5  -6 385.850 54.7962   3
  -8  -5  -6 411.691 58.2549   4
  -8  -5  -5 1234.92 98.4863   9
  -8  -5  -5 1063.24 108.831   2
  -8  -5  -5 909.051 98.1027   8
  -8  -5  -5 1137.72 99.8051   3
  -8  -5  -5 890.370 101.448   7
  -8  -5  -5 1116.62 95.1127   5
  -8  -5  -5 1055.76 102.168   6
  -8  -5  -5 1148.08 100.356   4
  -8  -5  -5 1103.13 93.7023  12
  -8  -5  -4 645.196 82.1129   2
  -8  -5  -4 508.151 75.6904  10
  -8  -5  -4 481.896 68.0249   8
  -8  -5  -4 633.737 79.7295   7
  -8  -5  -4 720.154 74.9950  12
  -8  -5  -4 794.590 78.2712   3
  -8  -5  -4 694.847 76.4698   6
  -8  -5  -4 790.074 78.1014   9
  -8  -5  -4 626.087 70.4167   5
  -8  -5  -3 328.872 50.0833   9
  -8  -5  -3 279.259 48.5053   8
  -8  -5  -3 292.178 53.1697   7
  -8  -5  -3 261.168 52.5742  10
  -8  -5  -3 374.819 54.4589  12
  -8  -5  -3 311.624 50.5660   6
  -8  -5  -3 373.135 55.3466   5
  -8  -5  -3 349.529 53.3908   3
  -8  -5  -2 415.680 57.8319   5
  -8  -5  -2 303.959 49.2152   8
  -8  -5  -2 327.547 54.5439   7
  -8  -5  -2 299.022 48.8450  12
  -8  -5  -2 369.274 54.3956   3
  -8  -5  -2 437.206 59.5518   9
  -8  -5  -2 303.663 49.8826   6
  -8  -5  -2 324.644 57.0713  10
  -8  -5  -1 610.380 67.7432   8
  -8  -5  -1 500.020 67.2282   3
  -8  -5  -1 495.625 72.6572  10
  -8  -5  -1 776.065 81.5932   9
  -8  -5  -1 612.408 69.2285   6
  -8  -5  -1 533.423 70.0470   7
  -8  -5  -1 832.844 82.1624   5
  -8  -5   0 212.796 44.7274   7
  -8  -5   0 169.821 35.9204   8
  -8  -5   0 203.114 43.7544   9
  -8  -5   0 176.512 40.3486   3
  -8  -5   0 179.175 37.7947   6
  -8  -5   0 145.122 37.2063  12
  -8  -5   0 255.430 49.9416   5
  -8  -5   0 186.129 45.7936  10
  -8  -5   1 142.022 40.0251   9
  -8  -5   1 173.380 39.6587   3
  -8  -5   1 178.855 41.4290  12
  -8  -5   1 163.343 40.0293  11
  -8  -5   1 101.179 30.8854   6
  -8  -5   1 174.614 39.9336   7
  -8  -5   1 92.7799 35.9022  10
  -8  -5   1 149.780 32.9696   8
  -8  -5   2 419.263 61.8368   7
  -8  -5   2 482.746 60.9899   6
  -8  -5   3 240.754 48.7758   7
  -8  -4  -8-10.1342 19.9407   3
  -8  -4  -7 506.238 72.3572   2
  -8  -4  -7 554.515 64.0681   3
  -8  -4  -7 558.054 58.0371   5
  -8  -4  -7 541.599 61.7093  12
  -8  -4  -7 634.577 63.1432   9
  -8  -4  -6 614.415 81.1797   8
  -8  -4  -6 806.430 77.3889   3
  -8  -4  -6 673.735 84.9125  10
  -8  -4  -6 793.788 88.3707   2
  -8  -4  -6 539.195 75.2834   6
  -8  -4  -6 751.047 72.0373   9
  -8  -4  -6 681.498 87.4051   7
  -8  -4  -6 783.160 74.3376  12
  -8  -4  -6 806.010 72.0390   5
  -8  -4  -5 312.955 57.3974   8
  -8  -4  -5 462.814 56.6447   9
  -8  -4  -5 409.961 52.2171   5
  -8  -4  -5 563.655 73.7712  10
  -8  -4  -5 446.056 66.1078   2
  -8  -4  -5 413.895 62.4620   6
  -8  -4  -5 494.426 69.9520   7
  -8  -4  -5 418.836 55.9489  12
  -8  -4  -5 553.543 62.3895   3
  -8  -4  -4 173.741 37.1003   9
  -8  -4  -4 157.144 40.6200  10
  -8  -4  -4 135.720 31.4338  12
  -8  -4  -4 109.427 34.4287   2
  -8  -4  -4 88.6867 33.2111   7
  -8  -4  -4 93.6216 33.7577   6
  -8  -4  -4 138.947 33.5373   5
  -8  -4  -4 103.676 33.4154   8
  -8  -4  -4 150.215 35.2959   3
  -8  -4  -3 1405.35 118.589   8
  -8  -4  -3 1279.20 118.437   7
  -8  -4  -3 1387.94 112.177   5
  -8  -4  -3 1546.93 116.030  12
  -8  -4  -3 1291.60 120.546  10
  -8  -4  -3 1576.15 116.822   9
  -8  -4  -3 1443.97 114.426   3
  -8  -4  -3 1191.18 111.461   6
  -8  -4  -2 273.497 49.7580   6
  -8  -4  -2 357.818 57.5534   7
  -8  -4  -2 369.827 55.5034   8
  -8  -4  -2 459.200 58.3139  12
  -8  -4  -2 365.924 53.9169   9
  -8  -4  -2 459.421 58.6234   5
  -8  -4  -1 145.971 36.1899   8
  -8  -4  -1 177.618 38.9997   6
  -8  -4  -1 143.977 36.1045   9
  -8  -4  -1 225.406 44.3269   5
  -8  -4  -1 114.804 35.0220   7
  -8  -4  -1 164.035 37.6985   3
  -8  -4   0 27.1324 22.8608   7
  -8  -4   0 18.3636 18.6637   6
  -8  -4   0 6.43247 17.2983   2
  -8  -4   0 32.7810 24.0202   5
  -8  -4   0-7.91109 21.2704  10
  -8  -4   0 25.0354 22.0325  12
  -8  -4   0 23.7418 20.8949   8
  -8  -4   0 20.9256 21.2651  11
  -8  -4   1 1168.84 109.969   9
  -8  -4   1 1264.77 104.983   8
  -8  -4   1 1218.49 109.803   2
  -8  -4   1 1156.53 104.265   6
  -8  -4   1 1122.21 105.741  12
  -8  -4   1 1207.95 112.568   5
  -8  -4   1 1148.97 108.218   7
  -8  -4   1 1115.89 109.170  11
  -8  -4   1 1104.72 115.056  10
  -8  -4   2 121.430 34.2571   6
  -8  -4   2 176.081 43.9266   7
  -8  -4   2 118.135 32.8576   8
  -8  -4   3 46.7909 26.3827   6
  -8  -3  -8 7.13323 21.7407   2
  -8  -3  -7 423.700 63.7733   2
  -8  -3  -7 440.601 50.6372   9
  -8  -3  -6 380.094 63.0426   8
  -8  -3  -6 378.753 62.6563  10
  -8  -3  -6 439.176 55.5112  12
  -8  -3  -6 449.198 63.6684   2
  -8  -3  -6 437.904 48.7652   5
  -8  -3  -6 342.530 58.8453   6
  -8  -3  -6 544.889 56.4145   9
  -8  -3  -5 131.946 30.5999   9
  -8  -3  -5 155.763 41.0980   8
  -8  -3  -5 149.719 38.8756   6
  -8  -3  -5 192.041 32.9515   5
  -8  -3  -5 125.527 38.0686  10
  -8  -3  -5 113.725 33.8475  12
  -8  -3  -5 147.899 40.3524   2
  -8  -3  -4 127.815 30.4352  12
  -8  -3  -4 131.009 32.7120   9
  -8  -3  -4 184.922 42.0819  10
  -8  -3  -4 177.486 41.0271   6
  -8  -3  -4 200.677 35.6621   5
  -8  -3  -4 102.119 33.0370   7
  -8  -3  -4 191.480 43.7795   8
  -8  -3  -4 174.361 40.3255   2
  -8  -3  -3 198.031 44.4299   7
  -8  -3  -3 353.774 55.9346   8
  -8  -3  -3 251.720 48.3826   6
  -8  -3  -3 288.599 44.2250   5
  -8  -3  -3 325.569 49.2924  12
  -8  -3  -3 361.957 51.6438   9
  -8  -3  -3 275.460 52.3579  10
  -8  -3  -2 23.0283 19.4029  12
  -8  -3  -2 6.91171 17.2056   7
  -8  -3  -2 32.5210 21.9192   6
  -8  -3  -2 6.62187 19.0327   8
  -8  -3  -2-5.79829 19.5417   9
  -8  -3  -2 35.8711 23.0515  10
  -8  -3  -2 16.2631 24.6325   5
  -8  -3  -1 58.3205 24.7681   8
  -8  -3  -1 83.2835 30.8417   7
  -8  -3  -1 66.5688 31.9844  10
  -8  -3  -1 37.5464 23.9280   9
  -8  -3  -1 65.6617 25.8585   5
  -8  -3  -1 45.3013 23.8466   6
  -8  -3  -1 66.0752 26.7256   2
  -8  -3   0 54.0594 28.5322   9
  -8  -3   0 69.9346 27.6375   2
  -8  -3   0 124.343 35.3625   6
  -8  -3   0 83.6593 28.7231   8
  -8  -3   0 111.521 33.5147   5
  -8  -3   0 95.5842 28.4461  12
  -8  -3   0 46.4600 27.4867  10
  -8  -3   0 84.4436 32.1718   7
  -8  -3   1 721.941 81.3083  12
  -8  -3   1 583.243 76.8284   7
  -8  -3   1 670.945 76.8697   8
  -8  -3   1 693.962 79.9654   6
  -8  -3   1 614.750 78.3257  11
  -8  -3   1 732.784 87.0878   5
  -8  -3   1 701.074 80.2222   2
  -8  -3   1 714.660 82.7865   9
  -8  -3   2 69.3484 28.2644   6
  -8  -3   2 52.1002 28.3751   7
  -8  -3   2 32.9288 23.2793   8
  -8  -3   3 488.530 67.2505   8
  -8  -2  -7 234.635 44.9516   2
  -8  -2  -6 109.840 27.8763   9
  -8  -2  -6 112.098 30.6698   2
  -8  -2  -6 72.8863 31.7315  10
  -8  -2  -5 160.674 36.0422   2
  -8  -2  -5 146.792 32.4969   9
  -8  -2  -5 142.096 40.0082  10
  -8  -2  -5 99.8588 24.5193   5
  -8  -2  -5 200.076 43.6792   7
  -8  -2  -5 195.009 43.5382   8
  -8  -2  -5 100.970 34.1343   6
  -8  -2  -4 14.3988 20.7526   7
  -8  -2  -4 30.6050 22.6476   9
  -8  -2  -4 61.8780 25.1984   2
  -8  -2  -4 69.8128 27.5171   6
  -8  -2  -4 13.7060 19.7608  10
  -8  -2  -4 51.6409 20.5722   5
  -8  -2  -4 43.3735 26.5294   8
  -8  -2  -3 182.709 42.2145   8
  -8  -2  -3 150.228 38.0116   6
  -8  -2  -3 173.279 34.9420   5
  -8  -2  -3 150.139 38.6170  10
  -8  -2  -3 131.899 34.2274   9
  -8  -2  -2 537.189 63.6692   5
  -8  -2  -2 544.075 70.6259  10
  -8  -2  -2 516.233 68.0259   8
  -8  -2  -2 523.547 65.5383   9
  -8  -2  -2 491.505 67.3645   7
  -8  -2  -2 480.733 67.0545   6
  -8  -2  -2 615.211 67.0851   2
  -8  -2  -1 7.11922 20.4566   7
  -8  -2  -1 7.22498 20.7605  10
  -8  -2  -1 27.2004 22.9119   6
  -8  -2  -1 5.97258 20.1241   5
  -8  -2  -1-6.82641 20.8051   8
  -8  -2  -1 5.89938 16.9522   2
  -8  -2  -1 19.3440 19.6520   9
  -8  -2  -1-7.04952 21.4849  11
  -8  -2   0 59.6660 28.5874   5
  -8  -2   0 20.5497 19.7035   8
  -8  -2   0 14.5060 22.1233   7
  -8  -2   0 36.6101 24.6866  11
  -8  -2   0 31.9899 23.4522   2
  -8  -2   0 6.89049 18.5428   6
  -8  -2   0 45.5536 27.8234  10
  -8  -2   0 6.99367 15.9136   9
  -8  -2   1 163.279 40.0562   6
  -8  -2   1 134.646 40.7564   7
  -8  -2   1 133.243 38.9164   5
  -8  -2   1 174.801 44.2875   2
  -8  -2   1 139.199 38.6517   8
  -8  -2   2 28.6534 25.2403   8
  -8  -1  -6 647.542 79.5064  10
  -8  -1  -5 445.821 59.0499   2
  -8  -1  -5 524.444 59.8916   9
  -8  -1  -5 461.409 65.0528  10
  -8  -1  -4 200.510 34.6739   5
  -8  -1  -4 251.521 49.1957   7
  -8  -1  -4 179.305 34.6585   2
  -8  -1  -4 222.398 40.4703   9
  -8  -1  -4 193.011 43.1058  10
  -8  -1  -4 148.182 34.8577   2
  -8  -1  -3 155.561 38.9401   6
  -8  -1  -3 106.271 32.6671  10
  -8  -1  -3 102.933 30.5159   9
  -8  -1  -3 63.6620 29.0900   7
  -8  -1  -3 94.3710 32.4549   8
  -8  -1  -3 125.532 28.9479   5
  -8  -1  -3 79.7855 25.7218   2
  -8  -1  -2 7.15194 17.8130   7
  -8  -1  -2 21.5000 19.2772   8
  -8  -1  -2 74.8715 31.6946  10
  -8  -1  -2 42.3641 22.6947   6
  -8  -1  -2 5.36607 15.4375   2
  -8  -1  -2 13.8693 22.2901  11
  -8  -1  -2 5.45532 16.6433   5
  -8  -1  -2 24.7511 21.7883   9
  -8  -1  -1 308.506 53.7390   9
  -8  -1  -1 214.094 45.8265   6
  -8  -1  -1 162.678 41.2715  10
  -8  -1  -1 257.845 44.1103   2
  -8  -1  -1 213.406 42.7712   5
  -8  -1  -1 215.161 46.0438   8
  -8  -1  -1 245.687 48.6423  11
  -8  -1   0 601.505 78.1275   8
  -8  -1   0 717.570 79.3247   2
  -8  -1   0 716.918 85.6929  10
  -8  -1   0 717.788 81.2246   5
  -8  -1   1 392.222 61.4483   2
  -8   0  -6 434.475 63.2260  10
  -8   0  -5 126.710 35.6614  10
  -8   0  -4 215.174 43.7271  10
  -8   0  -4 262.457 48.5222  11
  -8   0  -3 1042.54 85.4142   2
  -8   0  -3 890.615 83.6512   5
  -8   0  -3 955.333 96.4520  11
  -8   0  -3 1031.04 97.3870  10
  -8   0  -2 424.273 58.1335   5
  -8   0  -2 398.942 59.9423  10
  -8   0  -2 360.418 51.0524   2
  -8   0  -2 385.417 61.2714  11
  -8   0  -1 154.948 36.3992   2
  -8   0  -1 159.468 40.6799  10
  -8   0  -1 260.641 47.2861   5
  -8   0   0 192.218 42.0657   2
  -8   1  -4 1128.54 102.378  11
  -8   1  -3 933.145 93.9066  11
  -8   1  -2 414.797 61.7819  10
  -7  -9  -4 532.601 79.0864  10
  -7  -9  -3 563.764 79.1683  10
  -7  -9   0 101.662 32.5958   4
  -7  -8  -6 566.492 77.0295   7
  -7  -8  -5 300.993 52.9307   7
  -7  -8  -5 390.608 58.5258  12
  -7  -8  -5 208.881 50.9472  10
  -7  -8  -4 191.756 48.5939  10
  -7  -8  -4 280.898 49.2919   7
  -7  -8  -4 321.924 54.0214  12
  -7  -8  -3 508.110 68.3407   4
  -7  -8  -3 629.873 86.5891   2
  -7  -8  -3 745.317 81.7901  12
  -7  -8  -3 641.160 81.3817  10
  -7  -8  -3 465.181 60.2696   7
  -7  -8  -2 38.7957 27.3402  10
  -7  -8  -2 36.9526 28.1883   2
  -7  -8  -2 24.4317 17.9522   7
  -7  -8  -2 38.6725 25.3972   4
  -7  -8  -2 27.1207 23.9005   3
  -7  -8  -1 63.5526 31.9597   2
  -7  -8  -1-6.18364 19.8825   4
  -7  -8  -1 22.5305 24.1404  10
  -7  -8  -1 53.5762 24.5437   3
  -7  -8   0 76.3777 28.7194   4
  -7  -8   0 39.6902 27.8063   3
  -7  -8   0 43.3341 26.5576  10
  -7  -8   1 302.396 48.6387   4
  -7  -8   1 300.231 52.6846   3
  -7  -8   1 295.350 53.4751  10
  -7  -7  -7 82.3339 30.0605   9
  -7  -7  -7 105.575 32.3227   5
  -7  -7  -7 54.0858 23.6692  12
  -7  -7  -6 132.364 35.4271   3
  -7  -7  -6 78.3679 32.1931   7
  -7  -7  -6 138.093 38.0828   5
  -7  -7  -6 101.813 30.1779   9
  -7  -7  -6 114.033 31.0646  12
  -7  -7  -6 78.0427 33.2971  10
  -7  -7  -5 297.789 48.2750   9
  -7  -7  -5 169.731 46.2663   2
  -7  -7  -5 276.755 46.3485  12
  -7  -7  -5 196.719 45.5907   5
  -7  -7  -5 164.087 40.7123   7
  -7  -7  -5 141.292 42.3392  10
  -7  -7  -5 193.561 40.3711   3
  -7  -7  -4 107.656 31.0886  12
  -7  -7  -4 48.5329 26.9693   3
  -7  -7  -4 18.8013 23.0792   4
  -7  -7  -4 47.9448 28.2213  10
  -7  -7  -4 78.9530 33.4297   2
  -7  -7  -4 73.7738 27.3275   9
  -7  -7  -4 65.4379 29.0744   5
  -7  -7  -4 32.5519 22.0652   7
  -7  -7  -3 270.770 52.4104  10
  -7  -7  -3 228.459 48.7588   5
  -7  -7  -3 128.969 28.2919   6
  -7  -7  -3 219.007 42.3132   7
  -7  -7  -3 281.872 46.8047  12
  -7  -7  -3 195.352 41.7713   4
  -7  -7  -3 276.666 54.9756   2
  -7  -7  -3 298.487 48.6381   9
  -7  -7  -2 81.5396 20.8237   6
  -7  -7  -2 230.834 42.6416  12
  -7  -7  -2 117.742 34.9394   5
  -7  -7  -2 119.439 39.1249   2
  -7  -7  -2 124.036 31.4482   7
  -7  -7  -2 154.262 36.0560   4
  -7  -7  -2 109.024 31.2258   3
  -7  -7  -2 127.399 36.1055  10
  -7  -7  -1 79.1408 27.1582   3
  -7  -7  -1 49.0153 19.5658   7
  -7  -7  -1 129.848 36.0516  10
  -7  -7  -1 114.547 31.8416   9
  -7  -7  -1 79.2447 18.4348   6
  -7  -7  -1 46.0341 25.0195   4
  -7  -7   0 30.3410 21.4040   3
  -7  -7   0 21.6848 22.0769  10
  -7  -7   0 35.8646 17.6987   7
  -7  -7   0 32.3218 20.8175   9
  -7  -7   0 44.9876 24.4716  12
  -7  -7   0 49.4890 23.0777   4
  -7  -7   0 13.3467 23.5288   5
  -7  -7   1 259.626 47.6125   3
  -7  -7   1 285.152 52.6920   5
  -7  -7   1 322.100 53.2512   9
  -7  -7   1 249.128 50.4245  10
  -7  -7   1 270.746 51.3346   2
  -7  -7   1 310.013 53.4235  12
  -7  -7   2 34.4466 24.3405   2
  -7  -7   2 45.0300 26.4991  10
  -7  -7   2 47.2339 25.7394   9
  -7  -7   2 49.5529 23.6434  11
  -7  -7   2 71.8889 29.2663   3
  -7  -7   3 552.590 77.7534  10
  -7  -7   3 542.814 68.4496   3
  -7  -6  -8 11.2343 22.1043   5
  -7  -6  -8 9.74956 16.4303   9
  -7  -6  -8 10.5350 17.7530   3
  -7  -6  -7 30.4189 22.3458   4
  -7  -6  -7 30.2778 21.8132   9
  -7  -6  -7 67.9463 26.4116   5
  -7  -6  -7 8.39329 24.1740   7
  -7  -6  -7 42.7303 20.3710   3
  -7  -6  -7 48.0117 22.6703  12
  -7  -6  -6 513.453 60.6104   9
  -7  -6  -6 403.675 58.3614   5
  -7  -6  -6 454.202 61.3297   4
  -7  -6  -6 380.077 65.1552   2
  -7  -6  -6 424.688 56.6002   3
  -7  -6  -6 357.084 60.5493   7
  -7  -6  -6 473.371 54.6446  12
  -7  -6  -6 391.610 63.8716  10
  -7  -6  -5 1044.72 87.7806  12
  -7  -6  -5 805.975 84.4197   6
  -7  -6  -5 1200.60 95.9485   9
  -7  -6  -5 1140.54 97.1053   5
  -7  -6  -5 1111.63 94.3437   3
  -7  -6  -5 1003.48 91.8966   4
  -7  -6  -5 1021.83 101.466   7
  -7  -6  -5 828.979 96.6127  10
  -7  -6  -5 856.850 98.8288   2
  -7  -6  -4 262.115 43.0647   3
  -7  -6  -4 252.600 44.3977   5
  -7  -6  -4 200.750 40.7445  12
  -7  -6  -4 314.670 48.1445   9
  -7  -6  -4 199.401 41.7350   7
  -7  -6  -4 188.594 44.4950  10
  -7  -6  -4 179.587 37.1149   6
  -7  -6  -3 115.612 28.3665   8
  -7  -6  -3 158.269 36.7174   4
  -7  -6  -3 226.222 45.7775  10
  -7  -6  -3 158.742 32.7806   6
  -7  -6  -3 198.340 37.9451  12
  -7  -6  -3 184.100 38.7321   7
  -7  -6  -3 231.943 43.9994   5
  -7  -6  -3 227.281 41.3675   9
  -7  -6  -2 103.057 30.0402  12
  -7  -6  -2 119.572 26.8008   6
  -7  -6  -2 113.973 29.8877   7
  -7  -6  -2 141.399 37.1901   5
  -7  -6  -2 98.1029 32.1775  10
  -7  -6  -2 85.4146 27.5339   9
  -7  -6  -2 81.9290 22.8225   8
  -7  -6  -2 94.7417 27.5526   3
  -7  -6  -2 133.364 32.2743   4
  -7  -6  -1 202.013 33.7055   6
  -7  -6  -1 238.268 47.5690  10
  -7  -6  -1 213.374 39.3418   3
  -7  -6  -1 170.083 35.3519   7
  -7  -6  -1 221.524 39.4939   4
  -7  -6  -1 196.897 31.9674   8
  -7  -6   0 300.907 45.2650   7
  -7  -6   0 283.950 48.7515   3
  -7  -6   0 312.818 50.6975   9
  -7  -6   0 272.979 38.0795   6
  -7  -6   0 383.765 58.8526  10
  -7  -6   0 436.799 56.4830  12
  -7  -6   0 242.462 34.7535   8
  -7  -6   1 194.309 41.6283   9
  -7  -6   1 183.123 34.2497   7
  -7  -6   1 218.193 33.0785   6
  -7  -6   1 191.833 40.3962   5
  -7  -6   1 168.724 39.6167  12
  -7  -6   1 206.005 42.3556   3
  -7  -6   1 199.334 41.3808   2
  -7  -6   1 159.344 27.3061   8
  -7  -6   1 182.483 43.4171  10
  -7  -6   2 223.049 42.6490   3
  -7  -6   2 198.006 41.4416  11
  -7  -6   2 262.332 47.6690   2
  -7  -6   2 218.165 43.6089  12
  -7  -6   2 201.838 42.9804   9
  -7  -6   2 220.387 48.6022  10
  -7  -6   2 224.123 37.1468   7
  -7  -6   2 213.980 43.5550   5
  -7  -6   3 302.784 48.2993   3
  -7  -6   3 238.084 45.1566  12
  -7  -6   3 289.514 51.8187   9
  -7  -6   3 300.509 52.0905  11
  -7  -6   4 77.6577 31.4552  11
  -7  -5  -8 337.087 49.9926   4
  -7  -5  -8 297.142 45.2809   3
  -7  -5  -8 219.065 37.4952   9
  -7  -5  -8 288.835 43.6009   5
  -7  -5  -7 23.2216 22.2942   2
  -7  -5  -7 61.8964 25.6400   5
  -7  -5  -7 43.6966 20.3944   3
  -7  -5  -7 43.4536 20.2876   9
  -7  -5  -7 8.12727 20.2822   7
  -7  -5  -7 32.2392 17.4372  12
  -7  -5  -7 66.6225 28.2414   4
  -7  -5  -6 45.4967 24.8400   6
  -7  -5  -6 59.9513 28.6016   2
  -7  -5  -6 65.8453 26.2728   4
  -7  -5  -6 29.4365 18.8274   3
  -7  -5  -6 77.5110 25.7023   5
  -7  -5  -6 60.7143 31.8925   7
  -7  -5  -6 108.568 27.6935   9
  -7  -5  -6 50.5619 22.3916  12
  -7  -5  -5 93.7314 27.4490   9
  -7  -5  -5 44.3902 23.6175   5
  -7  -5  -5 30.0832 20.4063   6
  -7  -5  -5 56.2442 26.2797   8
  -7  -5  -5 103.011 29.7514   4
  -7  -5  -5 39.5139 20.0831  12
  -7  -5  -5 44.7309 22.7005   3
  -7  -5  -5 95.2995 32.5444   2
  -7  -5  -5 35.4582 22.9014   7
  -7  -5  -5 44.0278 23.6886  10
  -7  -5  -4 929.324 80.8369   3
  -7  -5  -4 758.681 74.3873   9
  -7  -5  -4 688.692 81.4031  10
  -7  -5  -4 719.967 80.4805   7
  -7  -5  -4 627.565 79.1550   2
  -7  -5  -4 780.835 72.0292  12
  -7  -5  -4 711.333 74.3686   6
  -7  -5  -4 648.996 73.8477   8
  -7  -5  -4 1009.07 83.9564   5
  -7  -5  -3 566.324 63.0766   8
  -7  -5  -3 678.432 78.0937   2
  -7  -5  -3 638.359 66.5832   5
  -7  -5  -3 636.370 66.6494   9
  -7  -5  -3 481.972 66.1971  10
  -7  -5  -3 438.367 61.7394   7
  -7  -5  -3 595.251 64.1011   6
  -7  -5  -3 573.442 63.0855   3
  -7  -5  -3 478.383 59.9935   4
  -7  -5  -3 542.339 59.9291  12
  -7  -5  -2 4.84678 14.7705   6
  -7  -5  -2-6.68926 19.2195  10
  -7  -5  -2 14.8934 15.9475  12
  -7  -5  -2-10.5093 16.8796   4
  -7  -5  -2 32.1664 22.4541   5
  -7  -5  -2 21.0070 17.6938   9
  -7  -5  -2-4.88691 13.1342   8
  -7  -5  -2-5.82698 15.6607   7
  -7  -5  -1 355.667 47.0673   6
  -7  -5  -1 356.663 49.1143   3
  -7  -5  -1 267.565 40.9317   8
  -7  -5  -1 418.197 54.8922   5
  -7  -5  -1 318.077 52.3636  10
  -7  -5  -1 204.881 41.3347   7
  -7  -5   0 90.0500 25.2611   6
  -7  -5   0 86.8188 27.1980  12
  -7  -5   0 72.3261 22.2750   8
  -7  -5   0 63.2494 25.6664   9
  -7  -5   0 42.6204 21.2101   7
  -7  -5   0 76.3618 26.7701   3
  -7  -5   0 97.0997 31.6752  10
  -7  -5   1 197.234 39.4913   2
  -7  -5   1 209.981 41.4649  11
  -7  -5   1 222.769 39.9333   7
  -7  -5   1 314.624 49.8065   5
  -7  -5   1 244.067 42.9774  12
  -7  -5   1 198.876 40.3511   3
  -7  -5   1 216.598 45.5560  10
  -7  -5   1 153.016 31.3659   6
  -7  -5   1 206.296 41.4567   9
  -7  -5   1 179.716 33.6930   8
  -7  -5   2 137.494 36.0810   5
  -7  -5   2 89.3697 31.4032   9
  -7  -5   2 103.380 25.2774   8
  -7  -5   2 110.688 26.4469   6
  -7  -5   2 124.657 33.8556  12
  -7  -5   2 117.631 31.0330   7
  -7  -5   2 55.4417 26.1745   3
  -7  -5   2 68.6354 27.2425  11
  -7  -5   2 95.7395 32.0612   2
  -7  -5   3 98.5089 31.2952   7
  -7  -5   3 139.622 38.4836   9
  -7  -5   3 92.9152 31.7986  12
  -7  -5   3 115.601 28.9014   6
  -7  -5   3 113.314 32.0925  11
  -7  -5   3 76.6917 30.4001   2
  -7  -5   3 90.6115 34.2687   5
  -7  -5   4-12.8984 22.6943  12
  -7  -5   4 7.22092 20.7473  11
  -7  -4  -9 279.073 45.0803   4
  -7  -4  -8 484.162 57.2871   4
  -7  -4  -8 426.043 46.1870   9
  -7  -4  -8 308.344 56.2292   2
  -7  -4  -8 445.066 52.9010   3
  -7  -4  -8 354.560 43.9898   5
  -7  -4  -7 4.54316 14.5995   3
  -7  -4  -7-7.10760 19.1067   6
  -7  -4  -7 15.1213 18.8171  10
  -7  -4  -7 15.1504 15.8688   9
  -7  -4  -7 20.4901 18.0301   4
  -7  -4  -7 19.5676 16.3960   5
  -7  -4  -7 7.82634 14.3379  12
  -7  -4  -7 14.1118 20.2768   2
  -7  -4  -6 663.114 65.7647   3
  -7  -4  -6 566.465 72.9113   8
  -7  -4  -6 646.188 61.9537  12
  -7  -4  -6 596.882 65.2263   4
  -7  -4  -6 604.198 60.0696   5
  -7  -4  -6 545.759 71.7952   2
  -7  -4  -6 662.971 78.4124  10
  -7  -4  -6 506.625 72.0192   7
  -7  -4  -6 602.158 59.6936   9
  -7  -4  -6 604.728 73.0675   6
  -7  -4  -5 949.184 79.7727   5
  -7  -4  -5 740.307 84.3529   8
  -7  -4  -5 870.514 91.7930  10
  -7  -4  -5 1001.39 80.8429   9
  -7  -4  -5 929.357 94.4247   7
  -7  -4  -5 929.038 90.4407   6
  -7  -4  -5 935.099 84.6413   4
  -7  -4  -5 998.685 84.2828   3
  -7  -4  -5 850.766 90.3052   2
  -7  -4  -5 977.975 79.9964  12
  -7  -4  -4 147.372 31.2848   9
  -7  -4  -4 219.920 37.3770   3
  -7  -4  -4 133.472 34.1273   6
  -7  -4  -4 238.540 40.5893   4
  -7  -4  -4 175.058 39.6346   7
  -7  -4  -4 186.375 38.3403   8
  -7  -4  -4 189.499 40.4827   2
  -7  -4  -4 164.411 32.4194   5
  -7  -4  -4 95.7160 26.4051  12
  -7  -4  -3 44.2121 22.8924   3
  -7  -4  -3 13.9953 18.3843   5
  -7  -4  -3 24.5934 17.6971   7
  -7  -4  -3 16.8645 18.0891   8
  -7  -4  -3 22.6501 17.2506  12
  -7  -4  -3 21.8303 17.5635   6
  -7  -4  -3 28.1413 18.4829   9
  -7  -4  -2 11.7311 14.6106   7
  -7  -4  -2 21.1246 18.5962   8
  -7  -4  -2 25.9965 17.5300   6
  -7  -4  -2 19.9937 16.8538   9
  -7  -4  -2 4.73918 15.2387  12
  -7  -4  -2 14.7846 15.8453   5
  -7  -4  -1 1200.95 98.4728   8
  -7  -4  -1 1160.84 101.579   7
  -7  -4  -1 1117.02 97.5054   3
  -7  -4  -1 1297.89 111.796  10
  -7  -4  -1 1465.10 109.822   9
  -7  -4  -1 1399.30 106.681   5
  -7  -4  -1 1131.07 96.3729   6
  -7  -4   0 45.1458 21.5692   7
  -7  -4   0 67.9780 23.7639   8
  -7  -4   0 71.5227 26.3122   2
  -7  -4   0 47.6277 20.9437   3
  -7  -4   0 25.0738 18.5072   6
  -7  -4   0 60.8827 25.8121  10
  -7  -4   0 50.6536 24.3625   5
  -7  -4   0 57.6137 22.0544  12
  -7  -4   1 149.874 34.4536   9
  -7  -4   1 141.984 32.3367   6
  -7  -4   1 109.181 33.1723  11
  -7  -4   1 198.948 39.3711  12
  -7  -4   1 148.278 31.7068   8
  -7  -4   1 85.4277 27.2074   7
  -7  -4   1 162.969 34.9996   3
  -7  -4   2 196.946 41.8102   9
  -7  -4   2 189.522 36.6124   6
  -7  -4   2 263.592 40.2830   8
  -7  -4   2 198.601 41.6762   7
  -7  -4   2 201.716 42.7757   5
  -7  -4   2 178.468 40.9286  11
  -7  -4   2 181.146 39.5219  12
  -7  -4   3 63.8365 23.5557   8
  -7  -4   3 61.4725 27.8876  11
  -7  -4   3 72.8839 29.0674   7
  -7  -4   3 77.9983 27.2790   6
  -7  -4   3 55.6775 24.6424   2
  -7  -4   3 35.5238 26.1649   5
  -7  -4   3 55.3810 26.6603  12
  -7  -4   3 67.7165 30.8840   9
  -7  -4   4 96.0474 32.2312   7
  -7  -4   4 129.041 37.3908  12
  -7  -4   4 119.596 33.6215   6
  -7  -4   4 57.9567 27.9583   9
  -7  -4   5 374.652 59.7014  12
  -7  -3  -9 20.8495 22.3448   2
  -7  -3  -8 13.4216 18.0854   2
  -7  -3  -8 29.3472 17.0873   3
  -7  -3  -8 38.0807 20.5582   4
  -7  -3  -8 52.9863 27.7561  10
  -7  -3  -7 308.572 41.1078  12
  -7  -3  -7 262.955 50.7869   6
  -7  -3  -7 251.222 50.2098  10
  -7  -3  -7 392.074 48.7420   4
  -7  -3  -7 242.965 49.7516   8
  -7  -3  -7 236.251 37.6748   3
  -7  -3  -7 290.448 51.3045   2
  -7  -3  -7 345.109 57.0974   7
  -7  -3  -7 345.303 40.7219   9
  -7  -3  -7 324.792 38.0778   5
  -7  -3  -6 792.744 65.5150   5
  -7  -3  -6 784.877 85.1771  10
  -7  -3  -6 830.779 73.6030   3
  -7  -3  -6 804.011 70.9052  12
  -7  -3  -6 809.254 67.4676   9
  -7  -3  -6 572.899 73.5485   6
  -7  -3  -6 706.868 82.4637   8
  -7  -3  -6 677.361 77.2817   2
  -7  -3  -5 2895.31 193.521  10
  -7  -3  -5 2981.16 178.024   3
  -7  -3  -5 2964.28 173.800   9
  -7  -3  -5 2647.87 188.699   8
  -7  -3  -5 3091.35 176.570  12
  -7  -3  -5 3066.79 171.250   5
  -7  -3  -5 2873.65 188.747   2
  -7  -3  -5 2367.61 181.476   6
  -7  -3  -4 2643.92 183.311  10
  -7  -3  -4 3106.27 171.924   5
  -7  -3  -4 3021.63 176.864   3
  -7  -3  -4 2774.90 171.174  12
  -7  -3  -4 2243.41 174.241   6
  -7  -3  -4 2842.41 184.875   2
  -7  -3  -4 2677.06 183.970   7
  -7  -3  -4 2541.16 181.596   8
  -7  -3  -4 3249.03 176.815   9
  -7  -3  -3 248.409 45.7369   7
  -7  -3  -3 248.082 43.5731   6
  -7  -3  -3 294.970 41.8782  12
  -7  -3  -3 297.601 49.0794   8
  -7  -3  -3 263.883 41.4645   9
  -7  -3  -3 273.862 39.7129   5
  -7  -3  -3 343.006 45.8675   3
  -7  -3  -3 286.522 48.0372  10
  -7  -3  -2 309.719 42.9764   5
  -7  -3  -2 206.535 40.2013   8
  -7  -3  -2 233.552 43.1165  10
  -7  -3  -2 239.836 43.6551   7
  -7  -3  -2 169.192 37.3623   6
  -7  -3  -2 228.748 39.3332   9
  -7  -3  -2 227.559 38.0803  12
  -7  -3  -1 682.976 70.4335   6
  -7  -3  -1 571.000 68.0525   7
  -7  -3  -1 640.924 68.1998   9
  -7  -3  -1 749.310 71.7273   5
  -7  -3  -1 549.208 69.8841  10
  -7  -3  -1 615.644 67.6353   8
  -7  -3   0 118.826 30.7484   2
  -7  -3   0 64.8379 24.7945   6
  -7  -3   0 63.7000 23.7640   8
  -7  -3   0 68.3598 24.1439  12
  -7  -3   0 82.2150 27.5604   7
  -7  -3   0 87.7656 28.0799   5
  -7  -3   1 53.9445 25.2513   7
  -7  -3   1 58.2251 23.8146   2
  -7  -3   1 60.3202 26.1387   5
  -7  -3   1 44.5950 21.3615  12
  -7  -3   1 99.5671 29.3239   6
  -7  -3   1 43.6114 21.1659  11
  -7  -3   1 60.5877 25.5217   9
  -7  -3   1 90.4623 27.1642   8
  -7  -3   2 278.215 46.9071   6
  -7  -3   2 299.816 50.4089   2
  -7  -3   2 349.475 53.6857   7
  -7  -3   2 314.039 52.4539   9
  -7  -3   2 326.926 49.2546   8
  -7  -3   2 264.008 48.9106  11
  -7  -3   2 319.971 51.8601  12
  -7  -3   3 490.375 63.2128  12
  -7  -3   3 353.177 60.9742   5
  -7  -3   3 475.882 60.9177   8
  -7  -3   3 385.219 60.6156  11
  -7  -3   3 481.319 62.4686   6
  -7  -3   3 342.493 57.6231   7
  -7  -3   3 474.890 69.0828   9
  -7  -3   4 677.247 77.6164   6
  -7  -3   4 604.440 72.0465   8
  -7  -3   4 588.253 75.5090   7
  -7  -3   4 630.346 76.3909  12
  -7  -3   4 630.652 80.6966   9
  -7  -2  -8 86.9228 35.3971  10
  -7  -2  -8 48.8268 24.9537   2
  -7  -2  -7 47.1957 25.5564   2
  -7  -2  -7 51.9860 17.3437   9
  -7  -2  -7 57.9094 26.6381   7
  -7  -2  -7 80.2767 33.2542   8
  -7  -2  -7 68.6609 30.5119  10
  -7  -2  -6 6.53152 16.2570  10
  -7  -2  -6 6.68011 16.6266   6
  -7  -2  -6 3.53424 11.3601   9
  -7  -2  -6 5.68593 11.9140   5
  -7  -2  -6 20.5180 18.3859   7
  -7  -2  -6 34.0383 22.3229   2
  -7  -2  -5 659.316 77.7598   8
  -7  -2  -5 780.105 62.6946   5
  -7  -2  -5 790.756 67.3314   9
  -7  -2  -5 720.060 79.5686  10
  -7  -2  -5 620.563 74.7066   6
  -7  -2  -5 805.219 77.7191   2
  -7  -2  -5 768.413 82.9970   7
  -7  -2  -4 2363.37 142.884   5
  -7  -2  -4 2501.66 164.517  10
  -7  -2  -4 2223.85 148.179  12
  -7  -2  -4 2129.33 152.984   2
  -7  -2  -4 2136.91 158.366   8
  -7  -2  -4 2229.11 158.847   6
  -7  -2  -4 2500.71 149.065   9
  -7  -2  -3 656.550 75.6379   6
  -7  -2  -3 959.027 76.0677   5
  -7  -2  -3 833.087 83.7414  10
  -7  -2  -3 896.214 76.8896   9
  -7  -2  -3 934.495 81.1861  12
  -7  -2  -3 773.494 81.4270   8
  -7  -2  -2 331.216 45.2551   9
  -7  -2  -2 266.671 42.3514   5
  -7  -2  -2 326.755 49.9389  10
  -7  -2  -2 247.000 41.2192  12
  -7  -2  -2 279.102 46.5222   7
  -7  -2  -2 290.460 46.3449   8
  -7  -2  -2 261.911 44.3775   6
  -7  -2  -1 273.748 47.2256   8
  -7  -2  -1 363.693 51.4716   6
  -7  -2  -1 400.121 54.8653   7
  -7  -2  -1 319.611 50.8825  10
  -7  -2  -1 384.067 49.8355   2
  -7  -2  -1 343.066 47.8621   5
  -7  -2  -1 398.250 53.2875   9
  -7  -2   0 510.856 64.4952   7
  -7  -2   0 498.547 62.7082   9
  -7  -2   0 590.915 66.1319   5
  -7  -2   0 487.736 60.7856  12
  -7  -2   0 447.740 59.9503   6
  -7  -2   0 627.661 65.6158   2
  -7  -2   0 461.317 59.8308   8
  -7  -2   1 18.8856 20.2242   7
  -7  -2   1 5.94874 15.9905   6
  -7  -2   1 23.2617 17.7247  12
  -7  -2   1 5.93020 14.7586   2
  -7  -2   1 18.5435 18.8391   5
  -7  -2   1-5.80668 17.6980   8
  -7  -2   2 6.01163 16.1570   8
  -7  -2   2-6.87137 15.6080   9
  -7  -2   2-6.90594 17.1838   5
  -7  -2   2 12.5246 20.1165   6
  -7  -2   2-6.56346 16.3316   2
  -7  -2   2 6.94927 17.2916  11
  -7  -2   2 6.61890 15.0346   7
  -7  -2   3 329.834 56.4773  11
  -7  -2   3 301.900 54.0479   7
  -7  -2   3 322.820 52.3238   8
  -7  -2   3 280.801 49.8064   6
  -7  -2   3 344.845 58.2783   2
  -7  -2   3 208.738 49.1022   9
  -7  -2   4 79.2090 30.3743   6
  -7  -2   4 80.8244 30.8098   8
  -7  -1  -8 48.6367 25.5424  10
  -7  -1  -7 538.411 61.4806   2
  -7  -1  -7 499.955 69.1761   8
  -7  -1  -7 550.411 72.3571   6
  -7  -1  -7 499.413 70.3592   7
  -7  -1  -7 534.334 69.4667  10
  -7  -1  -6 138.630 36.9302   8
  -7  -1  -6 215.279 44.0459   6
  -7  -1  -6 125.326 20.9795   5
  -7  -1  -6 91.3128 23.1210   9
  -7  -1  -6 80.1714 31.5034   7
  -7  -1  -6 71.6867 24.3597   2
  -7  -1  -6 157.097 37.0117  10
  -7  -1  -5 51.8120 18.2590   9
  -7  -1  -5 64.1867 26.9870   7
  -7  -1  -5 53.0993 25.3380   8
  -7  -1  -5 50.8999 17.6306   5
  -7  -1  -5 35.0746 21.1186   2
  -7  -1  -5 72.4801 26.8483  10
  -7  -1  -4 1314.91 93.1259   5
  -7  -1  -4 1494.38 104.040   9
  -7  -1  -4 1358.79 112.868   7
  -7  -1  -4 1256.52 102.548   2
  -7  -1  -4 1208.66 106.909  10
  -7  -1  -3 234.670 44.5162   8
  -7  -1  -3 351.680 48.0644   9
  -7  -1  -3 221.810 41.2416  10
  -7  -1  -3 264.693 37.9027   5
  -7  -1  -3 240.567 43.8593   6
  -7  -1  -3 234.856 43.4839   7
  -7  -1  -2 659.443 74.1015   7
  -7  -1  -2 541.812 68.2155   6
  -7  -1  -2 749.634 77.0509   8
  -7  -1  -2 665.453 73.3581  10
  -7  -1  -2 686.978 66.8919   5
  -7  -1  -2 809.621 70.9663   2
  -7  -1  -2 721.031 72.6372   9
  -7  -1  -1 146.126 35.1817  11
  -7  -1  -1 72.1783 26.8881   8
  -7  -1  -1 64.1448 23.7983   2
  -7  -1  -1 94.6733 30.1619   9
  -7  -1  -1 66.0630 25.0311   5
  -7  -1  -1 71.7923 26.0474   6
  -7  -1  -1 102.222 31.3642  10
  -7  -1   0 341.231 52.4459   9
  -7  -1   0 413.428 53.9352   2
  -7  -1   0 304.997 49.8721   6
  -7  -1   0 460.630 60.0057  11
  -7  -1   0 292.397 49.8100   8
  -7  -1   0 246.445 44.9255   5
  -7  -1   0 334.368 53.7724   7
  -7  -1   1 65.8856 27.8574   7
  -7  -1   1 62.6558 23.4317   1
  -7  -1   1 100.229 31.4067   8
  -7  -1   1 108.977 30.9861   2
  -7  -1   1 120.665 32.4811   6
  -7  -1   1 88.8078 30.4879  11
  -7  -1   1 70.8624 30.2298   5
  -7  -1   2 210.072 44.8963   9
  -7  -1   2 210.605 45.0065   5
  -7  -1   2 124.518 36.1569   8
  -7  -1   2 150.527 35.1289   1
  -7  -1   2 276.662 49.1496   2
  -7  -1   2 180.954 41.4225   7
  -7  -1   2 181.076 41.1194   6
  -7  -1   3 711.273 85.4047   2
  -7  -1   3 617.258 80.3181   7
  -7  -1   3 644.155 78.5510   8
  -7  -1   3 751.901 85.8774   6
  -7  -1   3 737.887 73.3122   1
  -7   0  -8 19.8452 19.0274  10
  -7   0  -7 31.5868 21.3071  10
  -7   0  -7 13.7879 19.8326   7
  -7   0  -6 13.1835 20.0882   7
  -7   0  -6 6.05634 16.2772  10
  -7   0  -6 6.82965 18.3555   6
  -7   0  -6-4.46388 13.6036   2
  -7   0  -6-6.98911 22.4513   8
  -7   0  -5 287.335 51.6930   7
  -7   0  -5 559.026 56.9881   2
  -7   0  -5 399.834 58.0771   6
  -7   0  -5 356.894 53.5365  10
  -7   0  -5 591.033 71.1304   8
  -7   0  -5 427.438 43.6706   5
  -7   0  -4 1841.18 145.845   6
  -7   0  -4 2260.59 131.135   2
  -7   0  -4 1937.72 146.617   7
  -7   0  -4 2219.51 155.157   8
  -7   0  -4 1941.96 133.410   2
  -7   0  -4 2003.94 143.803  10
  -7   0  -4 1943.96 126.303   5
  -7   0  -3 324.897 51.2509   7
  -7   0  -3 254.562 43.7561  10
  -7   0  -3 209.044 35.9046   5
  -7   0  -3 276.046 47.9327   6
  -7   0  -3 311.762 40.0915   2
  -7   0  -2 84.2638 25.5408   5
  -7   0  -2 148.645 35.3021   7
  -7   0  -2 134.760 27.9222   2
  -7   0  -2 73.5251 25.4224  10
  -7   0  -2 71.3231 28.0118  11
  -7   0  -1 250.727 46.1116  11
  -7   0  -1 252.143 40.0419   2
  -7   0  -1 236.437 44.0210  10
  -7   0  -1 234.532 44.3266   7
  -7   0  -1 213.328 41.0371   5
  -7   0  -1 159.040 37.8875   8
  -7   0   0 1120.88 103.586   7
  -7   0   0 1094.23 99.9734   5
  -7   0   0 1117.40 99.8886   1
  -7   0   0 1210.66 99.3991   2
  -7   0   0 1288.37 110.409  11
  -7   0   0 985.576 99.3001   6
  -7   0   0 1097.64 102.654   8
  -7   0   1 161.439 40.3388   8
  -7   0   1 148.817 38.1538   6
  -7   0   1 226.885 43.0366   1
  -7   0   1 260.643 50.2048  11
  -7   0   1 176.531 43.5211   5
  -7   0   2 242.856 48.7326   6
  -7   0   2 314.266 57.5871   5
  -7   0   2 276.312 47.8114   1
  -7   0   2 343.327 57.9423  10
  -7   0   2 250.329 49.5866   2
  -7   0   2 312.760 57.6024  11
  -7   0   2 282.477 52.3140   8
  -7   0   3 48.6290 25.5536   1
  -7   1  -6 26.3531 23.1844   7
  -7   1  -6-5.75618 17.5428  10
  -7   1  -5 236.898 46.8847   7
  -7   1  -5 252.494 43.7287  10
  -7   1  -5 304.908 53.1580   6
  -7   1  -5 214.046 45.7517   8
  -7   1  -4 202.587 44.6398   8
  -7   1  -4 164.967 35.5177  11
  -7   1  -4 146.053 37.7860   6
  -7   1  -4 182.447 38.6380   7
  -7   1  -4 198.031 38.7265  10
  -7   1  -3 126.676 36.3411   8
  -7   1  -3 225.998 43.2615   7
  -7   1  -3 160.457 29.9272   2
  -7   1  -3 199.343 38.6002  10
  -7   1  -3 230.467 44.7899   6
  -7   1  -3 287.147 45.2208  11
  -7   1  -3 255.686 38.5483   5
  -7   1  -2 153.118 37.4598   8
  -7   1  -2 127.270 32.2847  10
  -7   1  -2 95.9047 32.3049   7
  -7   1  -2 118.953 36.5803   6
  -7   1  -2 167.950 31.0845   2
  -7   1  -2 144.595 35.0687  11
  -7   1  -2 85.3956 26.6123   5
  -7   1  -1 555.440 71.8991   6
  -7   1  -1 701.279 67.4682   2
  -7   1  -1 585.889 69.3655   5
  -7   1  -1 655.081 75.8374   1
  -7   1  -1 831.091 84.4756  11
  -7   1  -1 676.364 77.3876   7
  -7   1  -1 638.638 72.2466  10
  -7   1   0 779.339 86.5729   7
  -7   1   0 833.517 88.5082   6
  -7   1   0 868.006 88.5929   1
  -7   1   0 865.153 89.3386   5
  -7   1   0 776.152 77.9535   2
  -7   1   0 827.576 91.2347  11
  -7   1   1 237.539 49.8727  11
  -7   1   1 288.748 53.0374   5
  -7   1   1 253.862 49.0662  10
  -7   1   1 221.347 45.1208   2
  -7   1   1 247.008 47.3274   1
  -7   1   2 328.729 55.5827   2
  -7   1   2 318.113 53.4726   1
  -7   2  -4 32.1678 24.4961   7
  -7   2  -3 11.1272 17.9033  11
  -7   2  -3 51.7041 27.0900   7
  -7   2  -2 200.731 38.8460   5
  -7   2  -2 139.565 33.0431  10
  -7   2  -2 145.811 36.1678  11
  -7   2  -1 326.123 53.0311  11
  -7   2  -1 262.635 48.5321   5
  -7   2  -1 266.016 45.9507  10
  -7   2   0 34.2387 26.2856   5
  -7   2   0 117.109 37.3569  11
  -7   2   0 91.1233 30.4543  10
  -7   2   0 125.096 36.1299  10
  -7   2   1 75.2946 32.7898  10
  -6  -9  -5 8.01700 18.2139  10
  -6  -9  -4 719.679 87.6524  11
  -6  -9  -4 742.073 87.3850  10
  -6  -9  -3 431.157 65.8719  11
  -6  -9  -3 406.299 64.2111  10
  -6  -9  -3 595.426 83.3466   2
  -6  -9  -2 161.517 45.7449   2
  -6  -9  -2 300.515 53.1050   4
  -6  -9  -1 104.125 38.7693   2
  -6  -9  -1 124.581 36.2416   4
  -6  -9   0-6.07267 22.2445   4
  -6  -9   0-8.37992 25.5400   2
  -6  -9   1 365.244 63.3224   2
  -6  -8  -7 315.926 49.5312  12
  -6  -8  -6 163.838 36.1645  12
  -6  -8  -6 80.2616 32.8600   7
  -6  -8  -6 185.461 44.8994  10
  -6  -8  -5 323.026 58.1133   5
  -6  -8  -5 162.052 38.7748   7
  -6  -8  -5 176.652 45.6897  11
  -6  -8  -5 248.206 55.5064   2
  -6  -8  -5 270.486 54.0770  10
  -6  -8  -5 253.382 49.8731   3
  -6  -8  -5 349.383 58.4909   9
  -6  -8  -5 256.704 48.8917  12
  -6  -8  -4 686.900 92.6328   2
  -6  -8  -4 734.789 76.9801   7
  -6  -8  -4 802.166 86.1620   4
  -6  -8  -4 878.575 92.0479   9
  -6  -8  -4 851.761 93.2088   5
  -6  -8  -4 674.312 84.0526  10
  -6  -8  -4 764.537 86.7360   3
  -6  -8  -4 1008.59 93.2983  12
  -6  -8  -3 54.1474 21.3611   7
  -6  -8  -3 84.7378 28.9699   4
  -6  -8  -3 58.9145 28.3222  12
  -6  -8  -3 77.9046 30.6247  10
  -6  -8  -3 17.3492 23.4472   2
  -6  -8  -3 56.2285 30.3942   9
  -6  -8  -3 61.0167 26.7894   3
  -6  -8  -2 192.572 40.9220   4
  -6  -8  -2 154.454 31.0310   7
  -6  -8  -2 248.768 48.6572  12
  -6  -8  -2 180.326 41.6995   3
  -6  -8  -2 194.865 43.3714   9
  -6  -8  -2 215.190 44.1406  10
  -6  -8  -2 256.513 50.9565   5
  -6  -8  -2 261.372 52.8769   2
  -6  -8  -1 114.652 37.5063   2
  -6  -8  -1 116.557 24.3426   7
  -6  -8  -1 81.8434 28.2565   4
  -6  -8  -1 153.706 40.4283   5
  -6  -8  -1 95.6631 32.9023   9
  -6  -8  -1 96.7170 31.7695  10
  -6  -8  -1 98.3099 31.5871   3
  -6  -8   0 226.279 49.2763   5
  -6  -8   0 210.908 42.9701  10
  -6  -8   0 175.758 44.8248   2
  -6  -8   0 186.024 38.5923   4
  -6  -8   0 280.933 51.9159  12
  -6  -8   0 261.314 49.6185   9
  -6  -8   0 249.067 47.8311   3
  -6  -8   1 35.5664 24.0561  12
  -6  -8   1 61.0057 25.8482   5
  -6  -8   1 43.0905 24.3083   3
  -6  -8   1 60.6722 23.6285   4
  -6  -8   1 59.3786 30.7834   9
  -6  -8   1 29.7457 21.0383  10
  -6  -8   2 58.6577 30.3652   9
  -6  -8   2 33.6493 24.6803   5
  -6  -8   2 19.1116 19.4539   2
  -6  -8   2 17.7514 21.7079   3
  -6  -8   3 289.411 52.0349   2
  -6  -8   3 310.586 49.5371   3
  -6  -7  -8 130.968 34.7139   9
  -6  -7  -7 458.365 64.3335   3
  -6  -7  -7 676.607 73.9667   9
  -6  -7  -7 649.149 64.4993  12
  -6  -7  -7 401.189 69.7206  10
  -6  -7  -7 544.515 72.6995   5
  -6  -7  -7 470.883 72.1137   7
  -6  -7  -6 8.62829 19.6267   2
  -6  -7  -6 26.4993 22.3443   5
  -6  -7  -6 32.2891 23.2167  10
  -6  -7  -6 22.0432 21.1373   7
  -6  -7  -6 5.93352 19.0890   3
  -6  -7  -6 38.7663 26.2740   4
  -6  -7  -6 29.9729 18.3263  12
  -6  -7  -6 36.5728 24.7898   9
  -6  -7  -5 349.221 56.7571   7
  -6  -7  -5 426.466 65.7162  10
  -6  -7  -5 449.575 63.8803   5
  -6  -7  -5 575.961 67.5518   3
  -6  -7  -5 576.907 64.1996  12
  -6  -7  -5 639.976 72.6656   9
  -6  -7  -5 509.594 73.3865   2
  -6  -7  -4 14.4205 19.4570  10
  -6  -7  -4 41.4912 24.1477   3
  -6  -7  -4 29.2692 19.7994   7
  -6  -7  -4 60.0439 27.2206  12
  -6  -7  -4 16.2323 20.2704   2
  -6  -7  -4 57.7479 26.1304   5
  -6  -7  -4 54.2969 24.5760   4
  -6  -7  -4 91.6012 30.4404   9
  -6  -7  -3 130.427 36.0082  10
  -6  -7  -3 158.319 38.5520   9
  -6  -7  -3 133.287 34.2918   4
  -6  -7  -3 157.754 38.3462   5
  -6  -7  -3 134.711 38.1817   2
  -6  -7  -3 82.7515 26.8774   7
  -6  -7  -3 129.958 33.9479  12
  -6  -7  -2 329.178 53.0309  10
  -6  -7  -2 297.190 48.6959  12
  -6  -7  -2 221.049 43.2968   3
  -6  -7  -2 265.006 45.5941   4
  -6  -7  -2 263.067 51.5896   2
  -6  -7  -2 200.524 36.4542   7
  -6  -7  -1 364.352 55.0192  10
  -6  -7  -1 489.547 60.6831   9
  -6  -7  -1 449.079 61.1171   5
  -6  -7  -1 361.362 53.6561   3
  -6  -7  -1 317.988 56.5434   2
  -6  -7  -1 334.512 43.4295   7
  -6  -7  -1 436.410 55.6284   4
  -6  -7   0 1031.11 86.9008   4
  -6  -7   0 970.395 92.3845   9
  -6  -7   0 917.392 88.6365   3
  -6  -7   0 1053.27 96.2892  12
  -6  -7   0 1217.03 101.652   5
  -6  -7   0 758.284 69.1990   7
  -6  -7   0 1026.45 93.8845  10
  -6  -7   1 65.3445 28.4303   9
  -6  -7   1 55.2021 25.0660  10
  -6  -7   1 69.9559 23.3630   4
  -6  -7   1 51.4499 17.0505   7
  -6  -7   1 56.1253 27.0095  12
  -6  -7   1 98.8253 29.6329   3
  -6  -7   1 42.9308 22.6217   5
  -6  -7   2 363.898 53.5859   2
  -6  -7   2 447.832 62.5012   9
  -6  -7   2 436.622 61.7491  12
  -6  -7   2 391.278 54.7595   3
  -6  -7   2 376.776 51.2658  11
  -6  -7   2 279.051 50.6226   5
  -6  -7   2 469.211 61.7624  10
  -6  -7   3 240.832 47.4959   9
  -6  -7   3 291.793 50.0401  10
  -6  -7   3 265.487 50.1127   5
  -6  -7   3 337.182 48.3519  11
  -6  -7   3 311.800 51.6534   2
  -6  -7   3 273.350 49.1214  12
  -6  -7   3 259.236 45.5530   3
  -6  -7   4 129.388 37.6854  10
  -6  -7   4 201.019 44.8769   2
  -6  -7   4 241.807 47.0239  12
  -6  -7   4 262.569 47.6801   9
  -6  -7   4 201.775 45.4200  10
  -6  -6  -9 209.290 42.4605   5
  -6  -6  -9 145.738 34.3408   3
  -6  -6  -8-4.99408 21.5260   3
  -6  -6  -8-14.8410 20.1040   9
  -6  -6  -8-12.0171 22.0095   4
  -6  -6  -8 28.9217 23.5060   5
  -6  -6  -7 592.351 64.7060   9
  -6  -6  -7 631.549 81.0510   2
  -6  -6  -7 510.312 55.4651  12
  -6  -6  -7 492.784 72.8675   7
  -6  -6  -7 597.001 69.2715   5
  -6  -6  -7 577.133 68.0028   4
  -6  -6  -7 409.959 67.9469  10
  -6  -6  -7 634.215 67.2384   3
  -6  -6  -6 34.0585 18.8849  12
  -6  -6  -6 37.8705 24.3568  10
  -6  -6  -6 28.5396 20.9365   4
  -6  -6  -6 14.4269 20.7566   7
  -6  -6  -6 22.6463 21.5487   5
  -6  -6  -6 30.8541 18.8684   9
  -6  -6  -6 15.3279 15.6116   3
  -6  -6  -5 968.602 88.7220   9
  -6  -6  -5 1059.90 92.8606   4
  -6  -6  -5 870.605 92.7162   7
  -6  -6  -5 1065.79 86.8430  12
  -6  -6  -5 1100.12 92.1670   3
  -6  -6  -5 951.201 98.6979  10
  -6  -6  -5 1179.37 97.9177   5
  -6  -6  -4 308.594 43.4640  12
  -6  -6  -4 176.515 40.9446  10
  -6  -6  -4 302.942 46.1936   9
  -6  -6  -4 292.649 43.9248   3
  -6  -6  -4 118.577 32.9589   7
  -6  -6  -4 299.118 47.2045   5
  -6  -6  -4 227.150 47.6202   2
  -6  -6  -3 214.237 33.7968   6
  -6  -6  -3 244.941 41.7226   9
  -6  -6  -3 243.046 42.4086   4
  -6  -6  -3 218.916 38.1893  12
  -6  -6  -3 242.894 48.2403   2
  -6  -6  -3 329.133 47.5161   5
  -6  -6  -3 201.377 42.5850  10
  -6  -6  -3 251.749 42.4592   7
  -6  -6  -2 2035.17 133.808   5
  -6  -6  -2 1557.97 122.596   9
  -6  -6  -2 1831.17 123.993   4
  -6  -6  -2 1593.88 126.906  10
  -6  -6  -2 1611.38 132.812   2
  -6  -6  -2 1926.18 127.649  12
  -6  -6  -2 1422.28 113.660   7
  -6  -6  -2 1564.60 120.492   3
  -6  -6  -2 1486.44 103.690   6
  -6  -6  -1 313.491 44.8823   3
  -6  -6  -1 293.158 43.4307   4
  -6  -6  -1 299.255 49.1113  10
  -6  -6  -1 345.427 36.8960   6
  -6  -6  -1 293.202 41.8956   7
  -6  -6  -1 291.228 46.1793   9
  -6  -6   0 728.285 70.0477   3
  -6  -6   0 624.919 68.4985   5
  -6  -6   0 486.267 45.7730   8
  -6  -6   0 671.424 64.5535   4
  -6  -6   0 621.358 68.6484   9
  -6  -6   0 702.992 70.8832  12
  -6  -6   0 707.853 73.9499  10
  -6  -6   0 550.181 48.5087   6
  -6  -6   0 556.865 57.1497   7
  -6  -6   1 311.669 43.0143   4
  -6  -6   1 253.763 45.5659   5
  -6  -6   1 266.392 30.8232   6
  -6  -6   1 250.016 36.7038   7
  -6  -6   1 276.182 47.7282  10
  -6  -6   1 286.167 46.2632  12
  -6  -6   1 305.205 45.2964   3
  -6  -6   1 230.054 26.1412   8
  -6  -6   1 266.682 44.0857   9
  -6  -6   2 68.8988 16.2998   6
  -6  -6   2 61.9492 24.4668  12
  -6  -6   2 62.9149 13.4678   8
  -6  -6   2 89.2337 27.9253   9
  -6  -6   2 59.5672 24.3788   3
  -6  -6   2 87.2438 30.8550   5
  -6  -6   2 129.994 31.5975   2
  -6  -6   2 97.3070 27.2082  11
  -6  -6   2 70.1855 26.9012  10
  -6  -6   2 42.6268 16.8212   7
  -6  -6   3 302.989 50.9811   5
  -6  -6   3 368.287 52.9982   9
  -6  -6   3 343.603 53.4187   2
  -6  -6   3 335.952 49.2299  11
  -6  -6   3 313.230 39.5191   7
  -6  -6   3 263.836 45.9657  12
  -6  -6   3 357.207 48.8481   3
  -6  -6   4 52.7377 23.9686  11
  -6  -6   4 83.9612 24.7746   3
  -6  -6   4 35.9190 24.3592  10
  -6  -6   4 94.8988 29.6447   9
  -6  -6   4 33.5724 23.7876   2
  -6  -6   4 76.1839 28.9725   5
  -6  -6   4 69.8216 26.5758  12
  -6  -6   5 164.481 41.1257  12
  -6  -6   5 166.892 44.0835  10
  -6  -6   5 156.488 37.9003   9
  -6  -5  -9 119.073 28.8574   3
  -6  -5  -9 119.477 29.2436   5
  -6  -5  -9 129.450 32.4193   4
  -6  -5  -8 381.649 50.9808   4
  -6  -5  -8 198.523 47.7677   7
  -6  -5  -8 279.691 41.3780   9
  -6  -5  -8 202.083 48.8732  11
  -6  -5  -8 275.541 37.5971  12
  -6  -5  -8 286.765 42.1957   3
  -6  -5  -8 312.046 46.4896   5
  -6  -5  -8 396.666 62.3411   2
  -6  -5  -7 243.996 50.5074   7
  -6  -5  -7 293.247 54.3442  10
  -6  -5  -7 366.460 41.8677  12
  -6  -5  -7 383.860 49.4415   5
  -6  -5  -7 285.318 45.8212   4
  -6  -5  -7 331.154 57.3128   2
  -6  -5  -7 356.818 45.1765   9
  -6  -5  -7 298.959 44.3446   3
  -6  -5  -6 1814.73 147.341   7
  -6  -5  -6 2100.92 134.737   3
  -6  -5  -6 1857.82 124.503  12
  -6  -5  -6 1913.00 149.586   2
  -6  -5  -6 1704.27 144.160  10
  -6  -5  -6 1863.83 129.061   9
  -6  -5  -6 2337.36 142.549   5
  -6  -5  -6 2093.87 138.503   4
  -6  -5  -5 254.830 43.0496   6
  -6  -5  -5 271.799 40.0057   3
  -6  -5  -5 290.346 39.6697  12
  -6  -5  -5 331.344 44.1731   9
  -6  -5  -5 299.214 43.9933   5
  -6  -5  -5 244.022 45.6208   7
  -6  -5  -5 341.252 46.4796   4
  -6  -5  -5 246.916 46.2865  10
  -6  -5  -5 305.150 51.3206   2
  -6  -5  -4 300.310 48.0441   7
  -6  -5  -4 301.941 43.3605   6
  -6  -5  -4 284.965 48.8917  10
  -6  -5  -4 320.257 42.3238  12
  -6  -5  -4 400.080 48.3563   9
  -6  -5  -4 203.708 43.4793   2
  -6  -5  -4 393.745 49.2606   5
  -6  -5  -4 318.159 44.4886   3
  -6  -5  -3 313.120 42.0504  12
  -6  -5  -3 247.579 43.2638   7
  -6  -5  -3 309.051 42.0848   8
  -6  -5  -3 334.506 45.3114   4
  -6  -5  -3 366.722 48.2471   5
  -6  -5  -3 271.508 45.9741  10
  -6  -5  -3 315.600 43.3114   3
  -6  -5  -3 302.202 41.4391   6
  -6  -5  -3 368.117 46.9172   9
  -6  -5  -2 2084.69 132.661   5
  -6  -5  -2 1588.24 115.481   8
  -6  -5  -2 1690.77 125.108   7
  -6  -5  -2 2019.35 130.187   9
  -6  -5  -2 1672.26 116.646   6
  -6  -5  -2 1524.52 126.050  10
  -6  -5  -2 2129.60 130.186  12
  -6  -5  -2 1818.56 124.533   4
  -6  -5  -1 1021.62 88.4733   7
  -6  -5  -1 1214.17 97.7219   5
  -6  -5  -1 1118.58 98.0564  10
  -6  -5  -1 1130.50 83.7650   6
  -6  -5  -1 1227.08 93.0362   4
  -6  -5  -1 1146.41 91.7966   3
  -6  -5  -1 1085.52 82.8711   8
  -6  -5   0 182.561 35.8149   9
  -6  -5   0 161.880 28.4728   6
  -6  -5   0 103.847 26.6197   7
  -6  -5   0 163.653 26.7399   8
  -6  -5   0 183.838 33.1596   4
  -6  -5   0 162.335 32.4142   3
  -6  -5   0 162.327 33.3196  12
  -6  -5   0 204.525 40.0268  10
  -6  -5   1 1439.72 104.272   3
  -6  -5   1 1505.66 109.054   9
  -6  -5   1 1196.94 94.5798   7
  -6  -5   1 1311.11 104.283  12
  -6  -5   1 1245.81 86.7496   8
  -6  -5   1 1255.86 89.9975   6
  -6  -5   1 1232.67 107.662  10
  -6  -5   1 1374.97 107.105   5
  -6  -5   2 21.5187 18.1580   9
  -6  -5   2 27.1177 21.3660   2
  -6  -5   2 35.0871 15.5750   6
  -6  -5   2 28.4701 19.3118   3
  -6  -5   2 20.6713 15.7871  11
  -6  -5   2 26.1017 12.5474   8
  -6  -5   2 44.6302 21.2326   5
  -6  -5   2 5.12861 15.6679  12
  -6  -5   2 21.0936 14.8860   7
  -6  -5   3 7.49597 11.4363   6
  -6  -5   3 22.6190 18.1740   9
  -6  -5   3 5.95312 16.0100   2
  -6  -5   3 35.4857 21.6693   5
  -6  -5   3 17.2649 15.1993   7
  -6  -5   3 5.54582 14.9161  11
  -6  -5   3 21.2817 17.9343  12
  -6  -5   3 14.0362 16.4741   3
  -6  -5   3 8.59998 11.6622   8
  -6  -5   4 248.220 48.0817  10
  -6  -5   4 140.334 37.1714   5
  -6  -5   4 274.690 45.5341  12
  -6  -5   4 213.621 36.0436   6
  -6  -5   4 225.489 44.5686   2
  -6  -5   4 230.517 42.7419  11
  -6  -5   4 175.628 39.1166   9
  -6  -5   4 157.714 31.6549   7
  -6  -5   5 188.830 41.7013  11
  -6  -5   5 213.503 43.6016   9
  -6  -5   5 247.692 46.0850  12
  -6  -5   5 255.238 50.5138   5
  -6  -5   5 197.152 47.0547  10
  -6  -4  -9 607.195 78.2049   2
  -6  -4  -9 621.754 66.5870   4
  -6  -4  -9 709.248 62.3132   3
  -6  -4  -8 732.777 58.8932  12
  -6  -4  -8 770.148 67.0867   5
  -6  -4  -8 502.849 73.4053  10
  -6  -4  -8 774.265 71.6509   4
  -6  -4  -8 714.168 60.4257   9
  -6  -4  -8 752.577 66.2356   3
  -6  -4  -8 515.556 71.6105   2
  -6  -4  -7 887.430 94.2339  10
  -6  -4  -7 980.478 82.2501   4
  -6  -4  -7 963.381 77.3038   5
  -6  -4  -7 839.553 74.2303   3
  -6  -4  -7 838.179 69.9091   9
  -6  -4  -7 807.177 88.1475   2
  -6  -4  -7 1005.16 72.6300  12
  -6  -4  -6 1827.23 119.957   5
  -6  -4  -6 1907.18 117.143   9
  -6  -4  -6 1474.33 125.989   6
  -6  -4  -6 1763.47 112.888  12
  -6  -4  -6 1757.38 118.265   3
  -6  -4  -6 1574.84 131.143   2
  -6  -4  -6 1851.99 123.701   4
  -6  -4  -6 1560.34 131.848   7
  -6  -4  -5 1306.83 95.6579   5
  -6  -4  -5 1248.62 90.0108  12
  -6  -4  -5 1217.62 103.557   8
  -6  -4  -5 1305.32 93.0499   9
  -6  -4  -5 1082.59 103.315   7
  -6  -4  -5 1341.53 99.3748   4
  -6  -4  -5 1185.39 101.746   6
  -6  -4  -5 1327.79 95.2371   3
  -6  -4  -5 1235.12 106.493   2
  -6  -4  -4 282.236 45.9318   2
  -6  -4  -4 331.198 42.4843   3
  -6  -4  -4 303.237 47.3682   7
  -6  -4  -4 297.698 42.0980   4
  -6  -4  -4 332.287 41.7389   5
  -6  -4  -4 299.077 39.0955  12
  -6  -4  -4 313.287 40.9947   9
  -6  -4  -4 292.356 44.5329   8
  -6  -4  -4 250.863 41.1073   6
  -6  -4  -3 196.006 35.5316   8
  -6  -4  -3 287.168 38.9194   9
  -6  -4  -3 222.678 40.0193  10
  -6  -4  -3 336.048 41.7942   3
  -6  -4  -3 243.824 42.9069   7
  -6  -4  -3 308.291 41.0933   5
  -6  -4  -3 226.010 37.4671   6
  -6  -4  -3 240.222 35.8570  12
  -6  -4  -2 3163.19 192.223   8
  -6  -4  -2 3493.07 193.956  12
  -6  -4  -2 2782.28 195.412  10
  -6  -4  -2 3201.23 192.479   4
  -6  -4  -2 3027.77 189.493   6
  -6  -4  -2 3752.39 199.676   5
  -6  -4  -2 3254.55 198.520   7
  -6  -4  -2 3866.48 199.684   9
  -6  -4  -1 5540.97 301.299   3
  -6  -4  -1 5645.92 304.793   7
  -6  -4  -1 5436.41 302.797   9
  -6  -4  -1 5365.66 309.942  10
  -6  -4  -1 5496.80 299.912   4
  -6  -4  -1 5578.23 298.125   6
  -6  -4  -1 5352.47 296.322   8
  -6  -4   0 3340.56 196.367   3
  -6  -4   0 3209.16 204.346  10
  -6  -4   0 3538.12 191.863   8
  -6  -4   0 3238.61 194.056  12
  -6  -4   0 3170.74 193.918   7
  -6  -4   0 3280.14 198.339   5
  -6  -4   0 3294.25 190.027   6
  -6  -4   1 1814.52 124.450   9
  -6  -4   1 1673.15 112.511   6
  -6  -4   1 1589.16 108.791   8
  -6  -4   1 1532.52 116.709   2
  -6  -4   1 1730.24 118.873   3
  -6  -4   1 1528.18 113.864   7
  -6  -4   1 1605.54 116.516  12
  -6  -4   2 191.683 38.9707   5
  -6  -4   2 110.954 29.9903  11
  -6  -4   2 225.092 38.9402   2
  -6  -4   2 170.480 36.3788   9
  -6  -4   2 238.614 39.7642  12
  -6  -4   2 180.184 33.8131   3
  -6  -4   2 173.815 34.3496   7
  -6  -4   2 159.207 30.2550   6
  -6  -4   2 201.326 31.5652   8
  -6  -4   3 143.427 32.2172  12
  -6  -4   3 187.503 34.8849   7
  -6  -4   3 103.935 26.6540   6
  -6  -4   3 112.334 29.4238   2
  -6  -4   3 162.033 29.6789   8
  -6  -4   3 148.473 33.8611  11
  -6  -4   3 157.308 36.1438   9
  -6  -4   3 89.0398 29.5366   5
  -6  -4   4 138.839 32.6049   6
  -6  -4   4 126.555 33.8670   2
  -6  -4   4 152.743 33.7049   7
  -6  -4   4 138.964 35.8242  11
  -6  -4   4 167.430 38.5641   9
  -6  -4   4 231.313 40.0123  12
  -6  -4   4 182.918 41.6375  10
  -6  -4   4 149.365 36.7939   5
  -6  -4   4 138.660 29.5301   8
  -6  -4   5 117.310 38.3469  10
  -6  -4   5 79.5216 26.7959   7
  -6  -4   5 82.8201 29.9730   9
  -6  -4   5 165.028 35.6074   6
  -6  -4   5 114.129 35.0207   5
  -6  -4   5 89.8342 32.5549   2
  -6  -4   5 70.1421 29.6974  11
  -6  -4   5 89.2202 30.8120  12
  -6  -4   6 355.258 58.0223   9
  -6  -4   6 235.758 50.8839  11
  -6  -3  -9 299.443 41.9984   4
  -6  -3  -9 308.759 53.4165  11
  -6  -3  -9 301.570 52.7402   2
  -6  -3  -9 159.127 45.1213  10
  -6  -3  -8 506.288 45.9136   5
  -6  -3  -8 382.088 44.7038   3
  -6  -3  -8 344.382 56.8672   2
  -6  -3  -8 348.885 59.7004   7
  -6  -3  -8 431.470 50.0799   4
  -6  -3  -8 447.457 65.0540  10
  -6  -3  -8 497.634 43.7136   9
  -6  -3  -7 175.855 30.0835   3
  -6  -3  -7 133.534 33.8936   2
  -6  -3  -7 118.827 28.4300   4
  -6  -3  -7 225.464 44.6935  10
  -6  -3  -7 184.801 27.7309   9
  -6  -3  -7 162.402 26.0952   5
  -6  -3  -7 71.4671 28.0495   6
  -6  -3  -7 154.792 26.7516  12
  -6  -3  -7 200.781 42.7433   7
  -6  -3  -6 1077.42 75.9790   5
  -6  -3  -6 934.738 91.6241   8
  -6  -3  -6 840.861 88.0532   6
  -6  -3  -6 935.082 88.4567   2
  -6  -3  -6 893.555 76.2910   3
  -6  -3  -6 1035.61 75.1797   9
  -6  -3  -6 1066.62 83.2798   4
  -6  -3  -6 1069.38 77.0617  12
  -6  -3  -6 956.429 92.9001  10
  -6  -3  -5 133.001 31.9152   6
  -6  -3  -5 142.442 30.0920   4
  -6  -3  -5 181.386 29.0560   5
  -6  -3  -5 181.169 29.9718   9
  -6  -3  -5 75.8950 27.1954  10
  -6  -3  -5 86.6318 27.5499   8
  -6  -3  -5 180.650 29.9891  12
  -6  -3  -5 82.2101 27.3695   2
  -6  -3  -5 171.518 31.5533   3
  -6  -3  -4 2640.83 173.989   6
  -6  -3  -4 2821.81 163.411   9
  -6  -3  -4 2877.38 163.339   5
  -6  -3  -4 2952.07 170.050   4
  -6  -3  -4 2577.78 174.221   8
  -6  -3  -4 3053.77 169.091   3
  -6  -3  -4 2669.81 161.924  12
  -6  -3  -4 2535.31 174.888   7
  -6  -3  -4 2794.32 178.778  10
  -6  -3  -4 2690.27 175.543   2
  -6  -3  -3 187.940 35.9170  10
  -6  -3  -3 243.622 34.8770   3
  -6  -3  -3 152.256 31.8613   6
  -6  -3  -3 182.539 30.4239   9
  -6  -3  -3 209.500 32.5038  12
  -6  -3  -3 314.759 40.9890   4
  -6  -3  -3 227.815 34.5729   5
  -6  -3  -3 145.522 32.0684   7
  -6  -3  -3 187.915 34.5112   8
  -6  -3  -2 4154.70 237.764  12
  -6  -3  -2 4111.54 246.545   7
  -6  -3  -2 4164.80 243.768   8
  -6  -3  -2 4021.67 241.307   6
  -6  -3  -2 4674.88 244.343   9
  -6  -3  -1 9092.56 483.484   7
  -6  -3  -1 9017.53 478.229   3
  -6  -3  -1 10544.4 486.173   5
  -6  -3  -1 9383.10 481.108   8
  -6  -3  -1 9013.14 478.879   6
  -6  -3  -1 10922.4 489.267   9
  -6  -3   0 590.806 61.0127   3
  -6  -3   0 625.323 61.5243   8
  -6  -3   0 565.183 59.8204  12
  -6  -3   0 631.805 61.8987   6
  -6  -3   0 630.837 64.7409   7
  -6  -3   0 755.130 69.2902   5
  -6  -3   1 866.581 79.1580   9
  -6  -3   1 973.290 82.9000  11
  -6  -3   1 855.888 77.8865   2
  -6  -3   1 795.594 72.0400   8
  -6  -3   1 874.037 78.1288   7
  -6  -3   1 859.117 76.0420  12
  -6  -3   1 752.757 71.9731   6
  -6  -3   2 309.905 45.9587  12
  -6  -3   2 340.180 49.8582  11
  -6  -3   2 407.145 48.4309   8
  -6  -3   2 317.245 46.5552   7
  -6  -3   2 392.128 49.1344   6
  -6  -3   2 343.482 50.3764   9
  -6  -3   3 523.716 63.7740   7
  -6  -3   3 643.111 67.8859  12
  -6  -3   3 629.110 70.3099   9
  -6  -3   3 817.371 80.1085   5
  -6  -3   3 593.531 66.5722   6
  -6  -3   3 641.344 72.2733  11
  -6  -3   3 656.978 65.9238   8
  -6  -3   4 94.5616 27.0993   8
  -6  -3   4 32.6716 23.8629  12
  -6  -3   4 151.300 38.1321   9
  -6  -3   4 85.6924 30.2561  11
  -6  -3   4 112.800 35.3499  10
  -6  -3   4 101.893 36.7682   5
  -6  -3   4 118.232 31.6224   6
  -6  -3   4 117.938 32.5467   7
  -6  -3   4 128.901 34.7282   2
  -6  -3   5 185.771 42.4803   7
  -6  -3   5 175.345 40.7942   9
  -6  -3   5 241.427 51.5060   5
  -6  -3   5 169.442 42.4804  11
  -6  -3   5 193.398 42.3725   6
  -6  -3   5 157.216 43.0560  10
  -6  -3   5 152.683 40.3990   2
  -6  -3   5 177.898 37.6553   8
  -6  -3   5 222.830 42.2665  12
  -6  -3   6 1915.75 146.947   7
  -6  -3   6 1717.01 142.004   6
  -6  -2  -9 50.3482 27.3797  10
  -6  -2  -9 26.4405 21.2873  11
  -6  -2  -9 30.4800 20.5933   2
  -6  -2  -8 202.622 39.5754   2
  -6  -2  -8 216.262 44.3206  10
  -6  -2  -8 176.516 40.2790   7
  -6  -2  -7 1525.41 128.387   7
  -6  -2  -7 1501.80 127.667   8
  -6  -2  -7 1680.26 100.756   9
  -6  -2  -7 1519.94 126.342  10
  -6  -2  -7 1705.85 125.916   2
  -6  -2  -7 1696.95 97.6815   5
  -6  -2  -6 3991.05 249.852  10
  -6  -2  -6 4284.74 224.973   9
  -6  -2  -6 4251.44 232.475   3
  -6  -2  -6 4161.74 245.244   2
  -6  -2  -6 4556.84 259.226   7
  -6  -2  -6 4362.95 221.039   5
  -6  -2  -5 182.851 36.7561  10
  -6  -2  -5 153.440 28.7628  12
  -6  -2  -5 163.008 33.3102   2
  -6  -2  -5 155.840 33.7475   6
  -6  -2  -5 140.167 26.6822   3
  -6  -2  -5 143.694 34.3084   7
  -6  -2  -5 145.891 26.4260   9
  -6  -2  -5 201.480 27.3529   5
  -6  -2  -4 4449.47 245.200   2
  -6  -2  -4 4209.73 235.532   3
  -6  -2  -4 4074.80 232.211  12
  -6  -2  -4 3894.05 244.825   8
  -6  -2  -4 4666.92 230.349   5
  -6  -2  -4 4404.12 249.014  10
  -6  -2  -4 4531.85 233.020   9
  -6  -2  -4 3956.31 243.987   6
  -6  -2  -3 2336.91 143.166  12
  -6  -2  -3 2437.61 142.781   9
  -6  -2  -3 2006.03 147.272   8
  -6  -2  -3 2244.76 150.621  10
  -6  -2  -3 2118.68 147.772   6
  -6  -2  -3 2373.32 144.171   3
  -6  -2  -3 2419.21 139.372   5
  -6  -2  -2 211.735 36.1544   6
  -6  -2  -2 138.197 31.6431   7
  -6  -2  -2 197.496 36.6251   8
  -6  -2  -2 253.277 35.4956  12
  -6  -2  -2 249.226 40.1121  10
  -6  -2  -2 248.407 35.6016   9
  -6  -2  -2 252.933 34.5217   5
  -6  -2  -1 157.074 32.2749   7
  -6  -2  -1 231.336 37.9681   6
  -6  -2  -1 191.344 34.9035   8
  -6  -2  -1 159.270 32.4440  10
  -6  -2  -1 179.056 33.0443  12
  -6  -2  -1 187.229 32.6119   5
  -6  -2  -1 239.491 37.5768   9
  -6  -2   0 807.335 75.8064  12
  -6  -2   0 1093.67 84.4775   2
  -6  -2   0 886.895 79.9960   6
  -6  -2   0 891.940 81.1254   7
  -6  -2   0 1022.63 84.9275   9
  -6  -2   0 1139.50 87.0339   5
  -6  -2   0 833.354 77.9813   8
  -6  -2   1 3917.64 260.685  11
  -6  -2   1 4768.55 264.637  12
  -6  -2   1 5631.68 276.440   5
  -6  -2   1 4706.46 263.213   8
  -6  -2   1 4592.02 263.586   6
  -6  -2   1 4457.11 264.827   7
  -6  -2   1 5453.80 272.682   2
  -6  -2   2 441.520 54.4981   8
  -6  -2   2 477.173 58.0572   6
  -6  -2   2 445.899 58.0007   2
  -6  -2   2 566.250 63.5801   7
  -6  -2   2 480.231 59.8750   9
  -6  -2   2 522.089 61.8401  11
  -6  -2   2 421.905 54.3595  12
  -6  -2   3 1211.68 86.9514   1
  -6  -2   3 1164.84 106.638  11
  -6  -2   3 1132.46 101.080   6
  -6  -2   3 1290.39 103.037   8
  -6  -2   3 1510.13 115.689   2
  -6  -2   3 1215.55 108.658   5
  -6  -2   3 1096.26 98.9295  12
  -6  -2   3 1390.15 110.314   7
  -6  -2   3 1333.78 110.947   9
  -6  -2   4 1044.83 101.233   9
  -6  -2   4 978.711 94.3654   6
  -6  -2   4 1108.63 78.0354   1
  -6  -2   4 1021.54 96.6368   7
  -6  -2   4 850.885 85.8603   8
  -6  -2   4 1021.22 101.886   5
  -6  -2   4 998.766 100.042  11
  -6  -2   5 173.396 39.6345   8
  -6  -2   5 193.163 44.7839   5
  -6  -2   5 245.501 48.4951   7
  -6  -2   5 164.245 38.9482   6
  -6  -2   5 155.809 41.1757  11
  -6  -2   6 794.844 86.6594   8
  -6  -1  -9 127.732 33.8019  11
  -6  -1  -9 137.355 36.7362  10
  -6  -1  -8 381.076 51.4329   2
  -6  -1  -8 347.279 56.8428   6
  -6  -1  -8 303.975 54.0748   8
  -6  -1  -8 412.608 60.1386   7
  -6  -1  -8 367.180 55.2076  10
  -6  -1  -7 150.358 35.7803  10
  -6  -1  -7 235.985 44.0159   6
  -6  -1  -7 139.515 36.5367   7
  -6  -1  -7 136.867 36.3264   8
  -6  -1  -7 142.300 31.1089   2
  -6  -1  -7 145.056 23.2642   9
  -6  -1  -7 159.809 18.4218   5
  -6  -1  -6 1195.13 71.8415   5
  -6  -1  -6 1144.15 99.0015  10
  -6  -1  -6 1142.38 100.554   7
  -6  -1  -6 1215.73 103.885   8
  -6  -1  -6 1040.02 76.3383   9
  -6  -1  -6 1045.14 97.8707   6
  -6  -1  -6 1188.70 93.2691   2
  -6  -1  -5 406.207 41.9520   9
  -6  -1  -5 347.312 52.2446   8
  -6  -1  -5 387.293 47.8827   2
  -6  -1  -5 386.381 36.7288   5
  -6  -1  -5 497.285 59.4201   7
  -6  -1  -5 344.455 49.5336  10
  -6  -1  -4 1640.44 114.159   2
  -6  -1  -4 1649.24 108.226   9
  -6  -1  -4 1640.27 121.969   7
  -6  -1  -4 1524.13 117.491  10
  -6  -1  -4 1703.39 103.469   5
  -6  -1  -3 376.587 40.5464   5
  -6  -1  -3 318.553 46.4914   7
  -6  -1  -3 417.486 45.7946   9
  -6  -1  -3 316.535 45.9700  10
  -6  -1  -2 832.411 68.9375   5
  -6  -1  -2 753.925 74.4923   8
  -6  -1  -2 902.823 74.6074   9
  -6  -1  -2 839.471 76.7705  10
  -6  -1  -2 789.359 75.3192   6
  -6  -1  -1 5194.58 265.501   2
  -6  -1  -1 4746.02 263.689   5
  -6  -1  -1 4684.05 269.524   6
  -6  -1  -1 4750.71 271.009  10
  -6  -1  -1 4504.42 267.881   8
  -6  -1  -1 5243.05 271.011   9
  -6  -1   0 2855.92 164.538   9
  -6  -1   0 2515.59 156.983   5
  -6  -1   0 2615.44 155.086   2
  -6  -1   0 2254.49 153.934   6
  -6  -1   0 2225.40 148.255   1
  -6  -1   0 2772.58 165.488  11
  -6  -1   0 2115.35 151.158   8
  -6  -1   0 1961.94 149.837   7
  -6  -1   1 1379.47 109.745   7
  -6  -1   1 1318.40 106.275   8
  -6  -1   1 1422.65 110.303   5
  -6  -1   1 1631.26 113.089   2
  -6  -1   1 1222.46 106.569  11
  -6  -1   1 1257.92 105.249   6
  -6  -1   1 1380.18 101.360   1
  -6  -1   2 293.282 48.2033   7
  -6  -1   2 375.520 55.7088   5
  -6  -1   2 411.652 48.4921   1
  -6  -1   2 320.612 49.5150   6
  -6  -1   2 383.505 53.2338   2
  -6  -1   2 340.325 50.0295   8
  -6  -1   2 427.701 57.4236   9
  -6  -1   3 428.671 59.2137   8
  -6  -1   3 482.371 61.8773   6
  -6  -1   3 527.025 67.4123   2
  -6  -1   3 609.193 58.7208   1
  -6  -1   3 473.997 64.0644   9
  -6  -1   3 545.202 66.8061   7
  -6  -1   3 433.834 62.0345  11
  -6  -1   3 405.870 60.6591  10
  -6  -1   4 89.6771 31.5854   7
  -6  -1   4 69.7650 28.3585   8
  -6  -1   4 93.6992 31.4044   6
  -6  -1   4 118.697 27.4490   1
  -6  -1   4 58.8525 28.2382  10
  -6  -1   4 66.1813 30.1387   2
  -6  -1   4 100.255 36.1157   5
  -6  -1   4 112.421 33.4194  11
  -6  -1   5 331.492 57.4110   6
  -6  -1   5 361.831 60.6282   7
  -6  -1   5 296.019 52.5283   8
  -6   0  -9 784.378 85.8097  10
  -6   0  -8 216.827 46.1425   6
  -6   0  -8 262.800 48.7322  10
  -6   0  -8 280.478 48.7686   7
  -6   0  -8 299.454 53.0650   8
  -6   0  -7 109.100 31.0473  10
  -6   0  -7 187.474 33.7312   2
  -6   0  -7 172.892 38.7427   7
  -6   0  -7 172.279 38.9322   6
  -6   0  -7 122.793 34.7707   8
  -6   0  -6 18.0820 20.3802   6
  -6   0  -6 33.6179 10.0417   5
  -6   0  -6 53.9534 21.9910  10
  -6   0  -6 32.4574 16.0554   2
  -6   0  -6 43.0130 22.5720   8
  -6   0  -5 68.3262 25.3932   6
  -6   0  -5 60.7126 25.8711   7
  -6   0  -5 45.8249 22.1522  10
  -6   0  -5 70.5753 19.8442   9
  -6   0  -5 128.284 32.5849   8
  -6   0  -5 51.0632 18.5344   2
  -6   0  -5 76.2313 16.3876   5
  -6   0  -4 46.2531 20.0443   2
  -6   0  -4 57.8342 15.6781   5
  -6   0  -4 15.8323 16.1814   7
  -6   0  -4 48.1081 16.4827   9
  -6   0  -4 22.2626 18.8359   8
  -6   0  -4 43.4822 20.7356   6
  -6   0  -4 43.5829 22.0714  10
  -6   0  -3 606.278 65.4914   7
  -6   0  -3 579.474 58.8441   9
  -6   0  -3 624.956 68.3087   8
  -6   0  -3 613.248 62.9679  10
  -6   0  -3 677.153 57.9784   5
  -6   0  -3 675.101 69.0188   6
  -6   0  -2 2638.67 171.137   7
  -6   0  -2 2809.11 159.862   2
  -6   0  -2 2630.21 160.006   5
  -6   0  -2 2678.82 166.057   9
  -6   0  -2 2642.12 167.854  10
  -6   0  -1 2806.92 171.887   1
  -6   0  -1 2506.39 166.387   9
  -6   0  -1 2654.89 160.152   2
  -6   0  -1 2390.27 166.938   7
  -6   0  -1 2495.60 162.398   5
  -6   0  -1 2774.19 170.507  10
  -6   0  -1 3108.11 178.151  11
  -6   0   0 163.925 34.5109   7
  -6   0   0 168.758 33.1473   5
  -6   0   0 188.953 37.8848   8
  -6   0   0 205.584 39.7387  11
  -6   0   0 235.096 38.4196   1
  -6   0   0 262.236 38.3939   2
  -6   0   0 203.078 39.0635   9
  -6   0   1 131.137 32.5611   5
  -6   0   1 90.6862 27.9778   6
  -6   0   1 87.9126 26.6497   2
  -6   0   1 89.8482 25.2461   1
  -6   0   1 84.7990 27.3102   8
  -6   0   1 145.055 35.0221  11
  -6   0   2 137.833 34.2530   8
  -6   0   2 118.603 33.3632   2
  -6   0   2 91.0133 26.1532   1
  -6   0   2 97.0128 31.2096   5
  -6   0   2 93.3157 30.0507   7
  -6   0   2 132.226 36.5028  11
  -6   0   2 121.028 32.9015   6
  -6   0   3 56.9371 23.0503   1
  -6   0   3 74.2800 30.7751   2
  -6   0   3 39.3061 23.1829   6
  -6   0   3 80.8276 29.9255   7
  -6   0   3 58.4236 26.8603  11
  -6   0   3 29.1878 22.3724   5
  -6   0   3 75.5765 29.7124  10
  -6   0   3 51.4117 24.5492   8
  -6   0   4 443.800 64.6730   6
  -6   0   4 351.262 59.7672   2
  -6   0   4 367.222 59.5224   8
  -6   0   4 437.871 55.8408   1
  -6   0   4 358.944 60.7727  10
  -6   0   4 440.088 64.8768   7
  -6   0   5 138.346 33.8360   1
  -6   1  -8 203.311 42.3291   7
  -6   1  -7 60.5067 24.6715   7
  -6   1  -7 43.0934 21.2921  10
  -6   1  -7 25.7922 22.7831   6
  -6   1  -7 58.2787 25.5588   8
  -6   1  -6 292.056 48.8703   8
  -6   1  -6 247.164 43.8644   7
  -6   1  -6 226.986 30.7443   2
  -6   1  -6 219.897 40.0171  10
  -6   1  -6 245.812 45.0183   6
  -6   1  -5 234.697 44.1995   6
  -6   1  -5 302.342 43.5616  10
  -6   1  -5 223.621 31.5443   2
  -6   1  -5 249.944 45.6038   8
  -6   1  -5 231.597 41.6878   7
  -6   1  -5 199.130 26.2704   5
  -6   1  -4 792.787 78.5049   6
  -6   1  -4 789.904 57.8566   2
  -6   1  -4 692.242 58.8048   5
  -6   1  -4 617.383 69.7646   7
  -6   1  -4 749.548 62.2483   2
  -6   1  -4 697.437 69.4642  10
  -6   1  -4 719.520 76.2866   8
  -6   1  -3 494.275 60.8859   6
  -6   1  -3 574.451 64.2308   8
  -6   1  -3 524.074 47.1060   2
  -6   1  -3 500.830 55.8436  10
  -6   1  -3 438.036 48.6215   5
  -6   1  -3 468.568 58.3955   7
  -6   1  -3 474.224 55.3463  11
  -6   1  -2 239.924 43.0396   8
  -6   1  -2 248.767 39.2569  10
  -6   1  -2 299.541 43.2031  11
  -6   1  -2 242.945 36.8765   5
  -6   1  -2 236.381 33.6095   2
  -6   1  -2 227.165 41.6316   6
  -6   1  -2 238.266 42.9480   1
  -6   1  -2 202.497 39.4141   7
  -6   1  -1 121.864 25.4493   2
  -6   1  -1 84.6630 28.2625   8
  -6   1  -1 84.3981 26.9908   1
  -6   1  -1 32.3438 19.9907  11
  -6   1  -1 50.3147 22.2165   6
  -6   1  -1 43.8419 22.4870   7
  -6   1  -1 58.1565 23.3027  10
  -6   1  -1 160.551 32.6839   5
  -6   1   0 304.832 43.8947   2
  -6   1   0 298.829 48.3674   7
  -6   1   0 453.641 58.7222  11
  -6   1   0 329.749 50.7391   6
  -6   1   0 387.296 53.1881   1
  -6   1   0 448.358 55.5978   5
  -6   1   1 516.438 63.6135   1
  -6   1   1 559.649 63.1228   2
  -6   1   1 592.524 68.6310   7
  -6   1   1 563.389 67.9322   5
  -6   1   1 440.734 62.8823   8
  -6   1   1 585.664 69.7456  11
  -6   1   2 152.627 38.0705   5
  -6   1   2 218.287 43.4475  10
  -6   1   2 242.339 48.0930  11
  -6   1   2 149.381 38.1003   8
  -6   1   2 133.408 33.6892   1
  -6   1   2 216.944 44.4566   7
  -6   1   2 145.637 34.6217   2
  -6   1   3 83.9123 32.1200   6
  -6   1   3 160.104 42.1025   8
  -6   1   3 71.3213 29.3664  10
  -6   1   3 149.518 36.7602   1
  -6   1   3 93.8907 33.1128   5
  -6   1   3 156.741 41.6385  11
  -6   1   3 83.4280 31.9387   2
  -6   1   4 285.586 49.3224   1
  -6   1   5 219.829 45.1584   1
  -6   2  -7 137.466 34.3666   7
  -6   2  -6 12.6633 19.3114   6
  -6   2  -6 31.6890 21.3670   8
  -6   2  -6 11.4961 17.5344   7
  -6   2  -5 189.616 38.0689   7
  -6   2  -5 174.118 30.4240  11
  -6   2  -5 189.953 40.2361   8
  -6   2  -5 164.659 37.0679   6
  -6   2  -5 208.873 35.5053  10
  -6   2  -4 295.078 49.2481   8
  -6   2  -4 276.797 40.2612  11
  -6   2  -4 290.810 42.5659  10
  -6   2  -4 337.592 49.4374   7
  -6   2  -4 303.623 49.4737   6
  -6   2  -3 658.155 72.3621   8
  -6   2  -3 609.790 48.8677   2
  -6   2  -3 577.003 68.8744   6
  -6   2  -3 667.123 60.7902   5
  -6   2  -3 560.806 59.2435  10
  -6   2  -3 564.671 60.5282  11
  -6   2  -3 478.808 61.7856   7
  -6   2  -2 484.761 61.9707   6
  -6   2  -2 528.997 64.2871   8
  -6   2  -2 457.635 52.1541  10
  -6   2  -2 416.606 56.4305   7
  -6   2  -2 380.185 42.0999   2
  -6   2  -2 404.117 58.7003   1
  -6   2  -2 537.426 57.3437   5
  -6   2  -2 507.336 58.6703  11
  -6   2  -1 5.99060 16.1005   6
  -6   2  -1 6.05447 17.3957   8
  -6   2  -1-4.74863 12.7626  10
  -6   2  -1 5.21822 14.9930   5
  -6   2  -1 14.8974 13.6409   2
  -6   2  -1-6.21109 16.6931   1
  -6   2  -1-5.57631 16.9938  11
  -6   2  -1-11.4845 20.2067   7
  -6   2   0 62.4500 24.8236   1
  -6   2   0 88.4102 27.6650   5
  -6   2   0 93.0433 30.4257   6
  -6   2   0 42.3073 24.0408   7
  -6   2   0 93.5438 25.0361   2
  -6   2   0 92.3879 30.8553  11
  -6   2   0 100.319 30.7503   8
  -6   2   1 1053.23 92.1001  10
  -6   2   1 856.255 88.6997   7
  -6   2   1 973.667 84.9825   2
  -6   2   1 761.865 86.2701   6
  -6   2   1 788.693 85.9306   1
  -6   2   1 1088.83 98.5474   8
  -6   2   1 855.848 90.6044   5
  -6   2   1 837.904 90.5225  11
  -6   2   2 19.6203 20.0204   1
  -6   2   2 74.4823 31.2532   5
  -6   2   2 39.3822 25.0195  10
  -6   2   2 36.7767 24.1891   2
  -6   2   2 38.0124 25.6834  11
  -6   2   2 62.3623 29.0834   7
  -6   2   2 55.3591 27.2904   6
  -6   2   3 6.77181 22.8281   1
  -6   2   3 28.4819 24.0022   2
  -6   2   3 29.3729 22.3917  10
  -6   3  -5 186.806 39.0271   7
  -6   3  -5 179.027 42.4000   6
  -6   3  -4 614.479 75.4061   8
  -6   3  -4 805.223 79.9394   7
  -6   3  -4 854.953 85.1347   6
  -6   3  -3 181.654 39.9523   6
  -6   3  -3 169.956 40.1413   8
  -6   3  -3 189.557 33.2954  11
  -6   3  -3 135.400 34.2681   7
  -6   3  -2 342.972 53.9812   8
  -6   3  -2 325.431 51.1817   7
  -6   3  -2 385.530 58.5126   6
  -6   3  -2 356.821 49.4827  11
  -6   3  -1 231.305 45.9939   6
  -6   3  -1 214.866 37.5133  10
  -6   3  -1 272.855 50.0859   8
  -6   3  -1 325.160 50.8198   7
  -6   3  -1 224.226 38.1179  10
  -6   3  -1 201.042 40.1413  11
  -6   3   0 177.872 40.2340   7
  -6   3   0 110.257 28.0710  10
  -6   3   0 153.898 37.3383  11
  -6   3   0 123.343 31.0326  10
  -6   3   1 17.4311 16.6972  10
  -6   3   1-7.18303 19.3078  11
  -6   3   2 296.185 52.2129  10
  -5  -9  -5 140.673 41.6649  11
  -5  -9  -4-15.0374 24.1576  11
  -5  -9  -4 8.94286 24.0401   2
  -5  -9  -3 479.870 66.1778  11
  -5  -9  -3 479.321 74.8851   2
  -5  -9  -2 240.177 45.3429  11
  -5  -9  -2 277.868 55.2570   2
  -5  -9  -2 350.250 58.9931   4
  -5  -9  -1 213.145 45.8216   4
  -5  -9  -1 318.827 57.0175   2
  -5  -9   0 396.287 65.1313   3
  -5  -9   0 341.969 58.2925   2
  -5  -9   0 347.986 54.3475   4
  -5  -9   1 168.514 36.3832   4
  -5  -9   1 236.723 52.2355   3
  -5  -9   2 262.710 49.3403   3
  -5  -8  -7 56.0640 24.9527  12
  -5  -8  -6 59.3942 26.3863  12
  -5  -8  -6 39.0881 26.4256  10
  -5  -8  -6 43.4456 29.3531  11
  -5  -8  -5 119.178 39.6664   9
  -5  -8  -5 104.044 35.8255  11
  -5  -8  -5 104.040 37.7333   2
  -5  -8  -5 99.1388 35.8868   5
  -5  -8  -5 79.2716 30.6374   4
  -5  -8  -5 130.461 36.4496  10
  -5  -8  -5 155.140 37.6621  12
  -5  -8  -5 181.005 43.9096   3
  -5  -8  -4 270.573 50.4158   4
  -5  -8  -4 167.204 40.5507  12
  -5  -8  -4 225.722 49.8798   2
  -5  -8  -4 219.502 47.5655  11
  -5  -8  -4 161.796 42.2180   9
  -5  -8  -4 288.842 49.8259  10
  -5  -8  -3 378.914 58.4294  11
  -5  -8  -3 536.447 68.2584  12
  -5  -8  -3 529.229 73.2108   2
  -5  -8  -3 470.204 65.5505   4
  -5  -8  -3 558.037 67.3508  10
  -5  -8  -3 401.516 65.9891   5
  -5  -8  -2 673.547 81.0703   9
  -5  -8  -2 677.433 73.5491  10
  -5  -8  -2 780.709 85.1600  12
  -5  -8  -2 857.636 88.9777   5
  -5  -8  -2 647.922 74.7531   4
  -5  -8  -2 714.044 85.7238   2
  -5  -8  -2 676.497 79.1463   3
  -5  -8  -1 26.7672 16.3385  10
  -5  -8  -1 27.5638 23.2333   9
  -5  -8  -1 27.4641 19.7473   5
  -5  -8  -1 11.6056 17.7061   4
  -5  -8  -1 7.38204 16.7913   2
  -5  -8  -1 26.5076 21.3061   3
  -5  -8   0 166.849 33.7085  10
  -5  -8   0 96.7078 31.8570   3
  -5  -8   0 106.812 36.9052   9
  -5  -8   0 112.569 34.6864  12
  -5  -8   0 135.169 36.5240   2
  -5  -8   0 96.0650 28.6692   4
  -5  -8   0 125.607 35.9319   5
  -5  -8   1 158.214 33.1395   4
  -5  -8   1 146.609 36.8014   5
  -5  -8   1 165.221 39.6309   2
  -5  -8   1 154.219 38.8263   3
  -5  -8   1 169.167 34.4611  10
  -5  -8   1 170.368 42.6911  12
  -5  -8   1 192.617 42.4106   9
  -5  -8   2 64.0557 27.1550   3
  -5  -8   2 18.4667 18.8271   9
  -5  -8   2 43.6367 23.5625   2
  -5  -8   2 24.8490 21.9189   5
  -5  -8   2 29.4668 17.1793   4
  -5  -8   2 71.1746 30.7164  12
  -5  -8   3 368.267 59.8871  12
  -5  -8   3 322.406 51.6353   5
  -5  -8   3 327.006 50.6536   2
  -5  -8   3 354.719 52.7803   3
  -5  -8   3 296.250 50.0457   9
  -5  -8   4 417.871 60.3917   5
  -5  -7  -8 1322.23 114.663   9
  -5  -7  -8 1212.26 107.359   3
  -5  -7  -7 24.2532 23.3650  10
  -5  -7  -7 52.5208 29.5994  11
  -5  -7  -7 79.3002 26.9240  12
  -5  -7  -7 77.4160 29.1213   3
  -5  -7  -7 42.6339 28.8385   2
  -5  -7  -7 74.3350 30.8035   4
  -5  -7  -7 57.5760 26.1168   9
  -5  -7  -6 562.122 78.4305  11
  -5  -7  -6 517.658 75.8838   2
  -5  -7  -6 573.697 70.5986   3
  -5  -7  -6 627.544 73.7203   4
  -5  -7  -6 625.981 78.3017  10
  -5  -7  -6 517.816 70.1196   7
  -5  -7  -6 576.075 63.6967  12
  -5  -7  -6 535.671 72.1559   5
  -5  -7  -6 658.744 76.0242   9
  -5  -7  -5 196.844 44.6687  10
  -5  -7  -5 167.224 38.1328   7
  -5  -7  -5 322.028 50.3025   3
  -5  -7  -5 202.584 44.8410   9
  -5  -7  -5 196.177 45.2433  11
  -5  -7  -5 288.873 51.4156   5
  -5  -7  -5 213.620 48.0053   2
  -5  -7  -5 328.450 47.3277  12
  -5  -7  -4 758.884 74.0341  12
  -5  -7  -4 617.833 70.5964   4
  -5  -7  -4 610.931 71.4248   3
  -5  -7  -4 790.505 81.8896   5
  -5  -7  -4 574.091 71.6185  10
  -5  -7  -4 545.980 74.3531   2
  -5  -7  -4 649.687 73.8424   9
  -5  -7  -4 509.106 62.6848   7
  -5  -7  -3 1683.52 129.158   4
  -5  -7  -3 1812.83 143.399   2
  -5  -7  -3 2010.86 140.761   9
  -5  -7  -3 1800.40 134.268  10
  -5  -7  -3 1470.10 116.422   7
  -5  -7  -3 1848.31 132.576  12
  -5  -7  -2 485.854 63.0419   5
  -5  -7  -2 430.514 48.9352   7
  -5  -7  -2 521.214 62.9665   3
  -5  -7  -2 466.079 57.8297   4
  -5  -7  -2 443.640 58.9273  10
  -5  -7  -2 506.619 62.9076  12
  -5  -7  -2 415.343 61.7238   2
  -5  -7  -1 1133.79 93.2371   4
  -5  -7  -1 1048.65 77.7248   7
  -5  -7  -1 1073.86 93.4959  10
  -5  -7  -1 1099.09 98.5674   5
  -5  -7  -1 1136.46 98.4782   3
  -5  -7  -1 1073.08 97.4882   9
  -5  -7  -1 1081.14 102.294   2
  -5  -7   0 110.638 21.3066   7
  -5  -7   0 182.569 37.5175   3
  -5  -7   0 155.209 34.7682   9
  -5  -7   0 155.172 36.2013   5
  -5  -7   0 195.495 35.7643   4
  -5  -7   0 210.174 42.4068  12
  -5  -7   0 158.583 38.0279   2
  -5  -7   0 193.009 36.0645  10
  -5  -7   1 500.670 62.0981   5
  -5  -7   1 584.288 64.7957   9
  -5  -7   1 513.425 57.7203  10
  -5  -7   1 551.059 62.7416   3
  -5  -7   1 456.563 62.7678  12
  -5  -7   1 506.059 54.2397   4
  -5  -7   1 410.574 36.1188   7
  -5  -7   2 389.884 44.7996   4
  -5  -7   2 500.621 56.7182   2
  -5  -7   2 282.261 23.3800   7
  -5  -7   2 348.072 49.0656  10
  -5  -7   2 392.019 54.8787   9
  -5  -7   2 371.709 50.1910   3
  -5  -7   2 364.694 44.7358  11
  -5  -7   2 349.477 54.9623  12
  -5  -7   2 373.566 52.5565   5
  -5  -7   3 400.906 53.2780   3
  -5  -7   3 425.347 49.5930  11
  -5  -7   3 443.395 55.5711  10
  -5  -7   3 385.858 56.2331  12
  -5  -7   3 403.765 54.5746   2
  -5  -7   3 482.703 57.5423  10
  -5  -7   3 440.660 58.7429   5
  -5  -7   3 310.235 49.0206   9
  -5  -7   4 482.899 58.8063   9
  -5  -7   4 421.839 50.4214   3
  -5  -7   4 428.827 58.3287  10
  -5  -7   4 261.203 48.1707   5
  -5  -7   4 302.645 48.8287  10
  -5  -7   4 429.638 58.8628  12
  -5  -7   4 405.620 56.1668   2
  -5  -7   5 47.1634 24.7349  12
  -5  -7   5 19.9969 20.3653   2
  -5  -7   5 35.0487 23.0278   5
  -5  -6  -9 949.632 84.3308   3
  -5  -6  -9 837.124 90.9123   5
  -5  -6  -9 1001.14 88.3975   9
  -5  -6  -8 2017.91 166.652   7
  -5  -6  -8 1735.58 156.574  10
  -5  -6  -8 2343.95 157.817   4
  -5  -6  -8 2329.46 148.212   3
  -5  -6  -8 2172.56 147.560   9
  -5  -6  -8 2019.03 129.699  12
  -5  -6  -7 1507.75 115.985   4
  -5  -6  -7 1338.96 108.303   9
  -5  -6  -7 1513.34 101.231  12
  -5  -6  -7 1294.70 120.771   7
  -5  -6  -7 1177.42 120.375  11
  -5  -6  -7 1462.24 110.097   3
  -5  -6  -7 1114.76 115.140  10
  -5  -6  -6-4.09677 15.5717  12
  -5  -6  -6-7.12549 21.7151  10
  -5  -6  -6-7.44089 18.5152   2
  -5  -6  -6-5.07393 15.4631   3
  -5  -6  -6 11.4257 19.2476   5
  -5  -6  -6 5.69156 17.3453   4
  -5  -6  -6 13.7260 19.7191   7
  -5  -6  -6-5.30989 17.8900   9
  -5  -6  -6-7.52298 17.0885  11
  -5  -6  -5 1845.53 131.678   9
  -5  -6  -5 1898.93 135.294   5
  -5  -6  -5 1666.74 136.105  10
  -5  -6  -5 1885.82 130.820   3
  -5  -6  -5 1647.84 137.742   2
  -5  -6  -5 1497.11 127.635   7
  -5  -6  -5 1962.78 134.728   4
  -5  -6  -5 1837.64 123.854  12
  -5  -6  -4 663.966 66.4844  12
  -5  -6  -4 535.786 68.7152  10
  -5  -6  -4 608.691 68.5433   7
  -5  -6  -4 950.867 82.0683   9
  -5  -6  -4 716.127 70.4785   3
  -5  -6  -4 874.911 79.5309   5
  -5  -6  -4 524.488 70.6759   2
  -5  -6  -3 291.973 43.8965   7
  -5  -6  -3 368.916 49.8204   4
  -5  -6  -3 430.997 53.7569   9
  -5  -6  -3 511.049 56.2159  12
  -5  -6  -3 463.296 56.5608   5
  -5  -6  -3 338.908 51.1606  10
  -5  -6  -3 378.994 55.4789   2
  -5  -6  -2 910.839 78.6935  12
  -5  -6  -2 790.007 81.5687   2
  -5  -6  -2 701.085 65.3441   7
  -5  -6  -2 721.868 74.6223  10
  -5  -6  -2 715.214 70.3258   4
  -5  -6  -2 695.692 71.7611   3
  -5  -6  -1 2584.15 157.288   3
  -5  -6  -1 2310.98 154.510   9
  -5  -6  -1 2609.60 159.216   5
  -5  -6  -1 2367.60 153.903  10
  -5  -6  -1 2510.99 150.928   4
  -5  -6  -1 2090.38 123.266   6
  -5  -6  -1 2204.19 138.861   7
  -5  -6   0 1248.49 96.0787  10
  -5  -6   0 1127.84 87.2251   4
  -5  -6   0 1308.87 100.092  12
  -5  -6   0 1281.89 96.1752   3
  -5  -6   0 1232.08 97.2598   5
  -5  -6   0 1403.81 100.899   9
  -5  -6   0 994.180 63.2748   6
  -5  -6   0 898.233 73.8413   7
  -5  -6   1 126.043 22.2413   7
  -5  -6   1 137.416 14.8850   6
  -5  -6   1 142.158 32.1533   9
  -5  -6   1 180.934 35.5961   5
  -5  -6   1 161.359 30.1685   4
  -5  -6   1 193.074 36.9135  12
  -5  -6   1 132.406 29.6799   3
  -5  -6   1 145.728 31.3055  10
  -5  -6   2 384.148 37.3560   7
  -5  -6   2 372.279 27.3011   6
  -5  -6   2 459.030 49.8468  11
  -5  -6   2 423.004 51.6911   2
  -5  -6   2 351.021 49.7174   5
  -5  -6   2 436.600 45.9733   4
  -5  -6   2 436.241 53.2855   9
  -5  -6   2 480.978 57.9848  12
  -5  -6   2 510.183 54.6820   3
  -5  -6   2 422.293 54.5145  10
  -5  -6   3 31.3021 19.8859   5
  -5  -6   3 49.2496 21.2785   9
  -5  -6   3 31.3193 18.4295   2
  -5  -6   3 31.0350 8.86467   6
  -5  -6   3 47.9318 24.2409  12
  -5  -6   3 55.1491 19.8050   3
  -5  -6   3 25.0608 11.4366   7
  -5  -6   3 30.3400 15.9456  11
  -5  -6   4 80.7712 23.4817   3
  -5  -6   4 75.7190 24.3019  11
  -5  -6   4 80.4163 25.2670   9
  -5  -6   4 79.6609 27.2105  12
  -5  -6   4 75.3579 27.8506   2
  -5  -6   4 92.5198 28.4163   5
  -5  -6   4 73.1075 27.2126  10
  -5  -6   5 13.7688 18.5276  10
  -5  -6   5 34.4401 24.0604   5
  -5  -6   5 36.7695 20.6882  12
  -5  -6   5 25.4916 20.0812   9
  -5  -6   5 6.56072 17.6588   2
  -5  -6   6 203.355 43.7054   5
  -5  -6   6 273.495 54.2498  10
  -5  -6   6 229.512 48.6840   2
  -5  -5  -9 392.556 57.1621   5
  -5  -5  -9 432.662 56.0718   5
  -5  -5  -9 438.144 56.5436   4
  -5  -5  -9 334.937 45.4475   3
  -5  -5  -8 1612.13 100.776  12
  -5  -5  -8 1521.87 118.038   5
  -5  -5  -8 1668.03 113.185   3
  -5  -5  -8 1366.83 128.532  10
  -5  -5  -8 1593.90 112.146   9
  -5  -5  -8 1429.84 129.197   2
  -5  -5  -8 1351.98 130.038   7
  -5  -5  -8 1797.58 123.749   4
  -5  -5  -8 1909.85 147.826  11
  -5  -5  -7 499.175 71.0013  10
  -5  -5  -7 696.608 70.1795   4
  -5  -5  -7 598.446 75.5151   2
  -5  -5  -7 633.184 67.0657   5
  -5  -5  -7 701.770 64.6363   3
  -5  -5  -7 642.263 77.8785   7
  -5  -5  -7 700.115 57.3519  12
  -5  -5  -7 628.556 62.7482   9
  -5  -5  -6-4.79990 16.8905   5
  -5  -5  -6 13.3717 16.6362   2
  -5  -5  -6-4.91707 15.7953   4
  -5  -5  -6-6.62794 15.0551  10
  -5  -5  -6-4.32712 15.2268   9
  -5  -5  -6 8.48602 14.2952   3
  -5  -5  -6 13.1860 20.0920   7
  -5  -5  -6 6.71783 12.7668  12
  -5  -5  -5 436.923 53.2868   5
  -5  -5  -5 494.366 53.8736   9
  -5  -5  -5 431.353 46.2268  12
  -5  -5  -5 408.053 51.5395   4
  -5  -5  -5 395.897 55.1887   7
  -5  -5  -5 436.201 58.4608  10
  -5  -5  -5 426.738 50.5911   3
  -5  -5  -4 1205.06 91.7299   3
  -5  -5  -4 957.999 90.7871   7
  -5  -5  -4 1009.60 85.1354   6
  -5  -5  -4 1158.17 99.0595  10
  -5  -5  -4 1247.81 93.6723   9
  -5  -5  -4 1230.99 88.9379  12
  -5  -5  -4 1321.07 97.8511   5
  -5  -5  -3 2190.64 155.449  10
  -5  -5  -3 2682.25 155.993   9
  -5  -5  -3 2380.63 153.363   7
  -5  -5  -3 2199.77 158.489   2
  -5  -5  -3 2096.53 140.083   6
  -5  -5  -3 2157.43 147.092   4
  -5  -5  -3 2666.70 154.813   3
  -5  -5  -3 2619.68 151.354  12
  -5  -5  -3 2642.46 157.785   5
  -5  -5  -2 666.682 66.0434   7
  -5  -5  -2 815.031 70.2339   4
  -5  -5  -2 705.482 61.2464   8
  -5  -5  -2 724.829 60.4672   6
  -5  -5  -2 752.456 76.7741   2
  -5  -5  -2 909.763 73.9342  12
  -5  -5  -2 794.340 74.4287  10
  -5  -5  -2 931.097 76.3473   5
  -5  -5  -2 879.601 74.4221   9
  -5  -5  -1 3723.47 218.140  10
  -5  -5  -1 4082.02 216.506   3
  -5  -5  -1 4121.78 213.907   4
  -5  -5  -1 3588.82 206.623   7
  -5  -5  -1 3438.38 196.578   8
  -5  -5  -1 3740.72 198.425   6
  -5  -5   0 534.078 55.4261   3
  -5  -5   0 475.966 42.7524   6
  -5  -5   0 542.949 57.5787   9
  -5  -5   0 515.303 43.2986   8
  -5  -5   0 567.961 54.1331   4
  -5  -5   0 586.385 59.3975   5
  -5  -5   0 510.205 56.2189  12
  -5  -5   0 505.047 50.3058   7
  -5  -5   0 510.714 57.2847  10
  -5  -5   1 957.168 87.1827  10
  -5  -5   1 973.345 67.1212   8
  -5  -5   1 1179.07 83.5406   4
  -5  -5   1 1111.66 85.4384   3
  -5  -5   1 1125.72 79.1457   7
  -5  -5   1 1177.33 91.6153   5
  -5  -5   1 1067.95 71.1684   6
  -5  -5   1 1154.85 90.2531  12
  -5  -5   1 1220.03 92.1092   9
  -5  -5   2 1036.83 84.3305   5
  -5  -5   2 1029.62 84.2801  12
  -5  -5   2 829.313 73.7683  11
  -5  -5   2 884.901 68.6419   7
  -5  -5   2 934.053 80.0374   9
  -5  -5   2 913.063 79.3829   2
  -5  -5   2 899.282 64.0628   6
  -5  -5   2 1042.98 79.8503   3
  -5  -5   2 852.515 57.8612   8
  -5  -5   3 79.8435 24.6368   9
  -5  -5   3 95.9431 26.9366   2
  -5  -5   3 71.7711 23.1135  11
  -5  -5   3 55.3633 18.8157   3
  -5  -5   3 109.845 16.8800   8
  -5  -5   3 67.0265 18.4669   7
  -5  -5   3 107.963 27.2530  12
  -5  -5   3 86.5297 18.8330   6
  -5  -5   3 140.758 30.4610   5
  -5  -5   4 522.456 59.8322   5
  -5  -5   4 375.046 41.1851   6
  -5  -5   4 373.358 45.0835   3
  -5  -5   4 407.901 52.3215   9
  -5  -5   4 390.688 33.1134   8
  -5  -5   4 395.799 56.5951  10
  -5  -5   4 310.857 39.2929   7
  -5  -5   4 385.354 49.4352  12
  -5  -5   4 397.236 56.1514   2
  -5  -5   4 354.704 48.7981  11
  -5  -5   5 115.517 33.5863   5
  -5  -5   5 234.174 46.0086  10
  -5  -5   5 219.234 33.9005   6
  -5  -5   5 198.290 38.5368  11
  -5  -5   5 146.389 28.8936   7
  -5  -5   5 136.204 35.7257   2
  -5  -5   5 202.449 36.8179  12
  -5  -5   5 181.591 36.3475   9
  -5  -5   6 386.661 58.3726  11
  -5  -5   6 357.054 51.9353   9
  -5  -5   6 401.562 57.6696   5
  -5  -5   6 338.865 61.1520  10
  -5  -5   6 361.262 50.0558  12
  -5  -5   6 383.592 60.3998   2
  -5  -4 -10 1376.00 103.800   4
  -5  -4  -9 762.090 90.5444   7
  -5  -4  -9 694.080 85.3573  11
  -5  -4  -9 745.105 66.1942   5
  -5  -4  -9 620.364 57.4570   3
  -5  -4  -9 677.320 81.8080   2
  -5  -4  -9 614.495 66.9454   5
  -5  -4  -9 636.264 81.7518  10
  -5  -4  -9 709.118 67.6214   4
  -5  -4  -8 186.395 30.5466   3
  -5  -4  -8 240.612 28.9341  12
  -5  -4  -8 231.712 35.9266   5
  -5  -4  -8 222.380 31.8358   9
  -5  -4  -8 256.215 48.9461   2
  -5  -4  -8 150.042 39.6486  11
  -5  -4  -8 221.791 47.0092  10
  -5  -4  -8 250.708 39.0401   4
  -5  -4  -7 520.966 56.2981   4
  -5  -4  -7 586.650 53.2659   9
  -5  -4  -7 577.469 47.8313  12
  -5  -4  -7 571.729 53.9871   3
  -5  -4  -7 471.983 53.4503   5
  -5  -4  -7 453.947 64.7382   7
  -5  -4  -7 495.570 64.1816   2
  -5  -4  -6 147.619 26.3103   9
  -5  -4  -6 87.6319 28.3494   7
  -5  -4  -6 123.243 28.6051   4
  -5  -4  -6 137.612 27.4473   5
  -5  -4  -6 78.0403 27.2409   2
  -5  -4  -6 159.555 25.3363  12
  -5  -4  -6 192.128 29.7420   3
  -5  -4  -5 1457.30 96.0459  12
  -5  -4  -5 1538.50 105.792   4
  -5  -4  -5 1634.08 104.259   9
  -5  -4  -5 1297.68 110.975   2
  -5  -4  -5 1296.80 105.765   6
  -5  -4  -5 1454.09 101.011   3
  -5  -4  -5 1460.98 114.895   7
  -5  -4  -5 1562.99 105.272   5
  -5  -4  -4 91.5517 23.9181   6
  -5  -4  -4 80.3811 24.8107   2
  -5  -4  -4 107.045 23.7880   5
  -5  -4  -4 82.1372 23.6664   8
  -5  -4  -4 113.835 23.0695   9
  -5  -4  -4 122.385 25.2576   3
  -5  -4  -4 157.989 31.5588  10
  -5  -4  -4 122.983 29.3751   7
  -5  -4  -4 91.4199 20.5635  12
  -5  -4  -4 130.743 26.2111   4
  -5  -4  -3 2061.64 144.721   8
  -5  -4  -3 2377.15 147.803   6
  -5  -4  -3 2292.46 152.594   7
  -5  -4  -3 2682.76 150.643   3
  -5  -4  -3 2107.31 152.413  10
  -5  -4  -3 2649.36 152.501   5
  -5  -4  -3 2660.37 147.532  12
  -5  -4  -3 2681.27 150.465   9
  -5  -4  -2 1678.39 110.375   6
  -5  -4  -2 1734.44 113.546   4
  -5  -4  -2 1798.74 113.412  12
  -5  -4  -2 1941.39 119.323   5
  -5  -4  -2 1616.91 110.049   8
  -5  -4  -2 1734.97 117.026   7
  -5  -4  -2 1797.03 115.041   9
  -5  -4  -2 1436.26 114.623  10
  -5  -4  -1 2578.87 149.149   8
  -5  -4  -1 2431.14 159.553  10
  -5  -4  -1 2750.15 159.464   5
  -5  -4  -1 2434.49 147.293   6
  -5  -4  -1 2407.52 151.892   3
  -5  -4  -1 2745.98 155.488   4
  -5  -4  -1 2779.10 157.405   7
  -5  -4   0 235.963 35.2957   9
  -5  -4   0 181.055 30.4311   3
  -5  -4   0 234.922 33.6541  12
  -5  -4   0 218.973 28.7403   8
  -5  -4   0 192.849 27.6041   6
  -5  -4   0 154.018 27.4937   7
  -5  -4   0 209.087 31.4310   4
  -5  -4   0 195.794 33.6857  10
  -5  -4   1 1841.62 122.427  12
  -5  -4   1 1888.45 114.302   6
  -5  -4   1 1861.51 121.853   3
  -5  -4   1 1851.54 111.588   8
  -5  -4   1 1894.38 125.474   9
  -5  -4   1 1862.01 118.594   7
  -5  -4   1 1835.49 125.515   5
  -5  -4   2 582.318 60.4968   9
  -5  -4   2 619.366 53.3582   6
  -5  -4   2 527.066 58.7143   5
  -5  -4   2 654.102 62.4793  12
  -5  -4   2 595.937 57.1226   3
  -5  -4   2 581.869 58.5721  11
  -5  -4   2 494.474 46.7676   8
  -5  -4   2 606.130 61.0487   2
  -5  -4   2 586.492 55.1337   7
  -5  -4   3 194.324 31.2677   3
  -5  -4   3 165.038 33.1088   2
  -5  -4   3 184.018 32.9289  12
  -5  -4   3 178.928 26.2313   8
  -5  -4   3 183.341 35.7769   5
  -5  -4   3 204.839 35.0252   9
  -5  -4   3 140.892 27.2459   6
  -5  -4   3 184.697 31.3131   7
  -5  -4   3 178.201 33.9569  11
  -5  -4   4 17.8407 16.9844  12
  -5  -4   4 11.3683 14.1817   2
  -5  -4   4 16.2161 18.2409   5
  -5  -4   4 46.7929 16.1917   8
  -5  -4   4 16.7686 14.1620   7
  -5  -4   4 20.1770 17.4228   6
  -5  -4   4 20.9757 16.8772  11
  -5  -4   4 29.3056 19.8734   9
  -5  -4   4 42.5111 22.2674  10
  -5  -4   5 490.352 64.9614   2
  -5  -4   5 505.317 63.9436   5
  -5  -4   5 494.421 59.9108   9
  -5  -4   5 451.872 48.9632   8
  -5  -4   5 420.174 62.7849  10
  -5  -4   5 538.785 57.9613  12
  -5  -4   5 546.030 58.7666   7
  -5  -4   5 562.938 59.0369   6
  -5  -4   5 545.315 65.8140  11
  -5  -4   6 187.222 40.6156   9
  -5  -4   6 171.708 41.1300   5
  -5  -4   6 271.588 44.6014   6
  -5  -4   6 244.752 50.5692   2
  -5  -4   6 262.551 41.5560  12
  -5  -4   6 302.300 45.4636   7
  -5  -4   6 286.883 50.7133  11
  -5  -4   6 220.119 50.3968  10
  -5  -4   7 65.3336 28.8314   5
  -5  -4   7 131.137 40.1504  11
  -5  -3  -9 299.298 52.8219  11
  -5  -3  -9 306.736 37.4209   5
  -5  -3  -9 222.935 31.2980   3
  -5  -3  -9 215.454 49.0017   7
  -5  -3  -9 276.369 37.9949   5
  -5  -3  -9 267.357 37.6384   4
  -5  -3  -9 239.389 48.6509  10
  -5  -3  -9 307.657 51.5831   2
  -5  -3  -8 1230.81 77.8069   9
  -5  -3  -8 1132.19 87.1576   4
  -5  -3  -8 1145.58 108.542   7
  -5  -3  -8 1216.63 75.1129  12
  -5  -3  -8 1207.34 83.6565   5
  -5  -3  -8 1051.56 103.570  10
  -5  -3  -8 1260.70 108.534  11
  -5  -3  -8 1027.55 98.7759   2
  -5  -3  -8 1174.18 82.7379   3
  -5  -3  -7 1128.60 100.821  10
  -5  -3  -7 1006.65 94.2388   2
  -5  -3  -7 958.680 96.2263   7
  -5  -3  -7 1129.10 74.0287  12
  -5  -3  -7 1083.35 83.8113   4
  -5  -3  -7 1273.96 82.9360   5
  -5  -3  -7 1100.17 74.6885   9
  -5  -3  -7 1057.21 78.1580   3
  -5  -3  -6 110.524 21.7711   9
  -5  -3  -6 154.130 26.3386   5
  -5  -3  -6 141.456 27.8534   4
  -5  -3  -6 136.617 31.6517   6
  -5  -3  -6 172.703 34.9107   2
  -5  -3  -6 171.962 35.5967  10
  -5  -3  -6 159.611 26.7136   3
  -5  -3  -6 199.462 26.4783  12
  -5  -3  -5 1256.97 104.324   8
  -5  -3  -5 1534.73 99.7539   4
  -5  -3  -5 1256.42 103.588   2
  -5  -3  -5 1432.23 93.9825   5
  -5  -3  -5 1273.34 103.866   6
  -5  -3  -5 1463.42 110.452  10
  -5  -3  -5 1412.43 94.1585   3
  -5  -3  -5 1425.81 91.7048   9
  -5  -3  -5 1344.15 88.7725  12
  -5  -3  -4 2083.08 140.243   8
  -5  -3  -4 2127.03 126.084  12
  -5  -3  -4 2387.16 136.092   4
  -5  -3  -4 2155.56 127.727   9
  -5  -3  -4 1850.25 137.904   7
  -5  -3  -4 2061.10 140.110   2
  -5  -3  -4 1770.05 133.039   6
  -5  -3  -4 2395.19 132.569   5
  -5  -3  -4 2308.01 131.943   3
  -5  -3  -3 1324.86 91.8440   3
  -5  -3  -3 1450.60 94.5268   5
  -5  -3  -3 1400.78 95.0891   4
  -5  -3  -3 1306.48 97.6243   8
  -5  -3  -3 1384.44 90.2102  12
  -5  -3  -3 1288.61 99.3789   2
  -5  -3  -3 1243.15 97.9373   7
  -5  -3  -3 1443.20 92.8616   9
  -5  -3  -3 1169.30 93.3372   6
  -5  -3  -2 1903.25 128.423   8
  -5  -3  -2 2199.51 129.282   9
  -5  -3  -2 1981.94 128.227   6
  -5  -3  -2 2214.39 127.748  12
  -5  -3  -2 1772.53 124.340   3
  -5  -3  -2 1946.52 130.962   7
  -5  -3  -1 3326.83 172.212   5
  -5  -3  -1 2673.31 162.641   6
  -5  -3  -1 2586.56 161.987   8
  -5  -3  -1 3360.72 172.183   9
  -5  -3  -1 2646.69 165.754   7
  -5  -3  -1 2775.30 164.313   4
  -5  -3   0 328.057 39.8875   3
  -5  -3   0 400.816 41.8613   8
  -5  -3   0 336.857 39.3140  12
  -5  -3   0 339.973 38.5676   6
  -5  -3   0 308.355 40.2146   5
  -5  -3   0 298.487 38.6435   7
  -5  -3   1 1206.14 89.3873   8
  -5  -3   1 1355.71 96.6037   7
  -5  -3   1 1462.79 98.5269   3
  -5  -3   1 1419.05 94.6279   6
  -5  -3   1 1409.88 99.0567   9
  -5  -3   1 1317.19 95.9474  12
  -5  -3   2 17.8376 13.6760   2
  -5  -3   2 33.8061 18.3633   3
  -5  -3   2 43.6451 18.3442   9
  -5  -3   2 40.8474 16.9390   6
  -5  -3   2 32.4126 16.5339   7
  -5  -3   2 22.6925 16.6932   5
  -5  -3   2 40.4701 15.3974   8
  -5  -3   2 50.7764 18.6730  12
  -5  -3   2 35.6223 16.9936  11
  -5  -3   3 1353.66 92.9104   8
  -5  -3   3 1233.36 101.005   5
  -5  -3   3 1193.35 92.6807   6
  -5  -3   3 1191.20 98.7023   2
  -5  -3   3 1146.65 96.7999  11
  -5  -3   3 1326.67 101.129   9
  -5  -3   3 1339.56 97.0251  12
  -5  -3   3 1288.88 97.2093   7
  -5  -3   4 499.041 52.1067   8
  -5  -3   4 549.839 56.7502  12
  -5  -3   4 373.945 54.0979   2
  -5  -3   4 387.466 54.7353   5
  -5  -3   4 537.173 64.4597  10
  -5  -3   4 482.135 55.6759   6
  -5  -3   4 509.599 58.7663   9
  -5  -3   4 388.038 51.7994   7
  -5  -3   4 438.662 56.5096  11
  -5  -3   5 430.079 57.7634   6
  -5  -3   5 584.051 65.0260   9
  -5  -3   5 577.648 69.8227   5
  -5  -3   5 512.396 57.9279  12
  -5  -3   5 417.319 59.7891  11
  -5  -3   5 560.982 71.1839  10
  -5  -3   5 540.620 68.2214   2
  -5  -3   5 662.125 67.8225   7
  -5  -3   5 538.145 58.3624   8
  -5  -3   6 699.109 76.3598   9
  -5  -3   6 726.963 78.6693   6
  -5  -3   6 713.059 76.4344   7
  -5  -3   6 684.445 82.0755  11
  -5  -3   6 707.140 83.7946   5
  -5  -3   6 710.590 70.2209   8
  -5  -3   6 576.869 78.5563  10
  -5  -3   6 591.827 79.7346   2
  -5  -3   6 728.094 70.8354  12
  -5  -3   7 1344.28 118.686   7
  -5  -3   7 1503.63 124.449   6
  -5  -3   7 1414.05 127.406   7
  -5  -3   7 1225.21 122.529  11
  -5  -2 -10 399.922 59.8440  11
  -5  -2 -10 328.084 53.3887   2
  -5  -2  -9 232.385 41.9218   2
  -5  -2  -9 178.718 41.5910  10
  -5  -2  -9 146.171 36.3654  11
  -5  -2  -9 201.230 31.1834   4
  -5  -2  -9 187.445 44.1509   7
  -5  -2  -8 1344.34 111.878  11
  -5  -2  -8 1222.37 111.291  10
  -5  -2  -8 1314.60 78.7710   9
  -5  -2  -8 1478.81 83.6063   5
  -5  -2  -8 1176.38 110.498   7
  -5  -2  -8 1478.08 89.9023   3
  -5  -2  -8 1269.75 106.766   2
  -5  -2  -8 1410.83 94.5314   4
  -5  -2  -8 1259.53 85.9792   5
  -5  -2  -7 340.431 40.2313   4
  -5  -2  -7 293.781 48.5495  10
  -5  -2  -7 380.885 39.7597   3
  -5  -2  -7 318.258 51.1185   7
  -5  -2  -7 387.085 35.0826   5
  -5  -2  -7 352.214 32.6518   9
  -5  -2  -7 364.119 49.6081   2
  -5  -2  -6 108.145 19.4258   5
  -5  -2  -6 104.529 23.1821   4
  -5  -2  -6 123.895 29.8248  10
  -5  -2  -6 130.759 29.4662   2
  -5  -2  -6 94.8065 19.8324  12
  -5  -2  -6 56.0819 23.9357   7
  -5  -2  -6 108.395 22.1488   3
  -5  -2  -6 105.480 19.3545   9
  -5  -2  -5 685.242 70.3756   7
  -5  -2  -5 708.247 61.1638   4
  -5  -2  -5 669.179 65.9963   2
  -5  -2  -5 721.021 54.9414   5
  -5  -2  -5 745.019 60.2321   3
  -5  -2  -5 811.538 59.5633  12
  -5  -2  -5 682.625 69.4914  10
  -5  -2  -5 726.243 55.3616   9
  -5  -2  -5 737.768 71.1408   6
  -5  -2  -4 5456.80 300.526  10
  -5  -2  -4 6342.53 294.110   4
  -5  -2  -4 5393.50 283.846  12
  -5  -2  -4 5054.71 298.481   8
  -5  -2  -4 5688.81 283.682   9
  -5  -2  -4 6177.88 284.277   5
  -5  -2  -4 4926.03 295.653   6
  -5  -2  -4 5731.97 288.120   3
  -5  -2  -4 5366.71 296.268   2
  -5  -2  -3 872.903 65.1667  12
  -5  -2  -3 812.902 63.4253   9
  -5  -2  -3 738.771 69.0329  10
  -5  -2  -3 664.406 67.0102   8
  -5  -2  -3 948.752 68.9767   3
  -5  -2  -3 792.536 70.1080   6
  -5  -2  -3 965.760 66.1481   5
  -5  -2  -3 843.470 67.2787   4
  -5  -2  -2 3390.11 182.459   3
  -5  -2  -2 3375.92 189.708  10
  -5  -2  -2 2901.43 181.651   6
  -5  -2  -2 3317.29 179.124   5
  -5  -2  -2 3470.00 181.817  12
  -5  -2  -2 3390.34 181.305   9
  -5  -2  -2 2921.35 183.738   7
  -5  -2  -2 3064.51 184.433   8
  -5  -2  -1 518.469 47.8137   5
  -5  -2  -1 380.773 45.7364  10
  -5  -2  -1 369.635 43.8060   7
  -5  -2  -1 531.966 48.7984   9
  -5  -2  -1 404.618 44.7545   8
  -5  -2  -1 338.978 40.8140  12
  -5  -2  -1 377.297 43.1554   6
  -5  -2   0 1908.21 122.168   3
  -5  -2   0 2240.33 128.889   5
  -5  -2   0 1817.63 121.357   6
  -5  -2   0 1796.22 123.256   7
  -5  -2   0 1927.11 122.962   8
  -5  -2   1 2472.63 158.161   5
  -5  -2   1 2633.51 155.217  12
  -5  -2   1 2456.06 157.427   9
  -5  -2   1 2634.54 155.114   8
  -5  -2   1 2686.70 159.357   7
  -5  -2   1 2678.81 157.127   6
  -5  -2   1 2500.82 158.559  11
  -5  -2   2 3093.21 176.591   8
  -5  -2   2 2970.98 176.770  12
  -5  -2   2 2972.10 162.108   1
  -5  -2   2 3100.21 181.187   7
  -5  -2   2 2933.64 179.564   2
  -5  -2   2 2846.22 175.731   6
  -5  -2   2 2841.03 179.968  11
  -5  -2   2 3101.08 181.755   9
  -5  -2   3 379.416 48.9277   6
  -5  -2   3 374.581 45.8478   8
  -5  -2   3 375.632 48.5079   7
  -5  -2   3 396.152 51.8072   5
  -5  -2   3 365.633 36.3976   1
  -5  -2   3 289.708 44.9037   9
  -5  -2   3 368.110 49.3396  11
  -5  -2   3 358.478 45.9063  12
  -5  -2   4 133.414 22.7235   1
  -5  -2   4 142.256 33.6939  11
  -5  -2   4 213.837 37.4050   8
  -5  -2   4 135.002 32.2595   7
  -5  -2   4 179.959 39.4670  10
  -5  -2   4 137.260 34.6126   6
  -5  -2   4 109.593 29.0481  12
  -5  -2   4 207.716 38.2880   9
  -5  -2   4 215.896 40.9954   5
  -5  -2   5 506.484 67.2450  10
  -5  -2   5 485.773 58.1189   8
  -5  -2   5 456.751 60.1440   9
  -5  -2   5 370.282 58.1304  11
  -5  -2   5 380.897 59.6090   2
  -5  -2   5 474.818 61.7678   7
  -5  -2   5 436.292 41.3290   1
  -5  -2   5 336.340 57.2781   5
  -5  -2   5 513.033 62.5392   6
  -5  -2   6 339.704 59.0490   5
  -5  -2   6 378.858 61.0685   2
  -5  -2   6 289.272 51.6602   6
  -5  -2   6 258.197 46.3467   8
  -5  -2   6 274.026 54.8536  10
  -5  -2   6 314.820 53.6564   7
  -5  -2   6 357.708 59.0014  11
  -5  -2   7 453.631 70.8728   7
  -5  -2   7 627.502 80.4115   6
  -5  -2   7 702.899 79.8005   8
  -5  -1 -10 623.285 72.5858  11
  -5  -1  -9 97.4722 30.4414  10
  -5  -1  -9 67.9378 29.4779   7
  -5  -1  -9 89.8476 28.6132   2
  -5  -1  -9 57.9176 23.7798  11
  -5  -1  -8 76.0303 9.49860   5
  -5  -1  -8 83.4190 8.94602   5
  -5  -1  -8 42.2716 23.9876  10
  -5  -1  -8 74.2134 24.3292   2
  -5  -1  -8 44.0454 23.2822   6
  -5  -1  -8 91.7092 27.0496  11
  -5  -1  -8 31.4010 21.4158   7
  -5  -1  -7 366.286 52.5168   8
  -5  -1  -7 322.875 49.3896  10
  -5  -1  -7 330.862 25.3110   5
  -5  -1  -7 272.329 46.2704   7
  -5  -1  -7 291.243 47.6082   6
  -5  -1  -7 313.549 28.8267   9
  -5  -1  -7 273.077 42.0760   2
  -5  -1  -6 1448.68 86.8703   9
  -5  -1  -6 1370.57 108.881  10
  -5  -1  -6 1460.18 81.8610   5
  -5  -1  -6 1514.50 115.017   6
  -5  -1  -6 1530.76 107.273   2
  -5  -1  -6 1444.51 113.550   8
  -5  -1  -6 1372.51 110.413   7
  -5  -1  -5 1244.44 101.782  10
  -5  -1  -5 1503.44 109.850   8
  -5  -1  -5 1485.45 108.557   7
  -5  -1  -5 1436.08 87.3985   9
  -5  -1  -5 1305.49 81.7988   5
  -5  -1  -5 1484.27 101.707   2
  -5  -1  -4 449.999 41.7413   9
  -5  -1  -4 433.316 50.8778  10
  -5  -1  -4 467.103 39.1204   5
  -5  -1  -4 498.157 50.0579   2
  -5  -1  -4 480.685 53.4508   7
  -5  -1  -3 2139.48 132.571   9
  -5  -1  -3 2570.45 149.120   7
  -5  -1  -3 2243.41 142.294  10
  -5  -1  -3 2347.62 138.098  12
  -5  -1  -3 2289.16 130.242   5
  -5  -1  -2 2890.39 165.594  12
  -5  -1  -2 2558.07 166.114   6
  -5  -1  -2 3054.20 171.982  10
  -5  -1  -2 2700.09 168.398   8
  -5  -1  -2 2972.08 161.002   5
  -5  -1  -2 2973.48 164.713   9
  -5  -1  -1 472.095 48.4810  12
  -5  -1  -1 516.728 48.8832   5
  -5  -1  -1 492.408 51.7077   8
  -5  -1  -1 474.342 50.5447   6
  -5  -1  -1 517.325 50.5054   9
  -5  -1  -1 484.143 51.4326  10
  -5  -1   0 806.876 67.7445   9
  -5  -1   0 714.355 61.6956   1
  -5  -1   0 813.803 69.8397  11
  -5  -1   0 737.433 65.6265   6
  -5  -1   0 721.826 64.1899   5
  -5  -1   0 787.253 64.6790   2
  -5  -1   0 610.924 62.3967   7
  -5  -1   0 670.820 63.2716   8
  -5  -1   1 2344.99 139.667   5
  -5  -1   1 1931.07 133.105   7
  -5  -1   1 2193.40 134.833   2
  -5  -1   1 2091.49 127.037   1
  -5  -1   1 1971.46 132.136   6
  -5  -1   1 1900.90 129.574  12
  -5  -1   1 1929.34 130.843   8
  -5  -1   2 3799.20 238.566   5
  -5  -1   2 4474.81 228.645   1
  -5  -1   2 4023.10 235.018   8
  -5  -1   2 3869.86 236.933   7
  -5  -1   2 4258.91 242.006   9
  -5  -1   2 3938.01 233.413  12
  -5  -1   2 4320.74 239.666   6
  -5  -1   3 67.0908 23.9607   6
  -5  -1   3 102.537 28.9114   9
  -5  -1   3 130.355 31.9193  11
  -5  -1   3 101.323 23.7928   1
  -5  -1   3 131.894 31.3811   8
  -5  -1   3 106.243 29.4770   7
  -5  -1   3 135.989 31.9116  10
  -5  -1   3 143.201 31.0406   2
  -5  -1   4 724.414 76.5368   7
  -5  -1   4 720.936 73.4747   8
  -5  -1   4 791.430 82.5963   5
  -5  -1   4 632.427 73.3975   9
  -5  -1   4 764.323 64.5989   1
  -5  -1   4 772.462 80.7260   2
  -5  -1   4 819.183 79.4817   6
  -5  -1   4 672.621 77.5202  11
  -5  -1   5 125.003 34.7572   8
  -5  -1   5 145.336 40.2282   5
  -5  -1   5 151.441 38.5617  11
  -5  -1   5 176.817 39.2774   7
  -5  -1   5 133.517 27.5475   1
  -5  -1   5 110.057 32.1370   6
  -5  -1   6 87.1168 33.8197   6
  -5  -1   6 26.3803 22.2574   8
  -5  -1   6-8.11908 21.8596  11
  -5  -1   6 40.8153 26.2545   5
  -5  -1   6 58.2165 25.6403   7
  -5  -1   7 160.286 41.8353   8
  -5   0  -9 208.521 42.3057  10
  -5   0  -9 161.695 34.3058  11
  -5   0  -9 271.288 48.1739   7
  -5   0  -8 474.498 51.3842   2
  -5   0  -8 379.018 55.9189   6
  -5   0  -8 358.696 52.9836  10
  -5   0  -8 329.651 52.0382   7
  -5   0  -8 371.802 50.2107  11
  -5   0  -7 116.757 30.8083   7
  -5   0  -7 73.7185 24.9986  10
  -5   0  -7 138.555 33.5357   6
  -5   0  -7 97.9276 23.7155   2
  -5   0  -7 168.043 37.0863   8
  -5   0  -6 903.838 71.9531   2
  -5   0  -6 878.746 48.4581   5
  -5   0  -6 794.201 77.6282   7
  -5   0  -6 696.131 72.8560  10
  -5   0  -6 998.258 86.4942   8
  -5   0  -6 849.686 80.6687   6
  -5   0  -5 546.425 59.3852   8
  -5   0  -5 431.300 53.8048   6
  -5   0  -5 458.962 41.5767   9
  -5   0  -5 466.467 34.7758   5
  -5   0  -5 419.681 45.5311   2
  -5   0  -5 369.124 48.0383  10
  -5   0  -5 466.278 53.9366   7
  -5   0  -4 831.725 64.2798   2
  -5   0  -4 871.840 75.3749   8
  -5   0  -4 747.488 70.3231   6
  -5   0  -4 815.180 71.8291   7
  -5   0  -4 728.802 59.0774   9
  -5   0  -4 683.306 65.4316  10
  -5   0  -4 717.006 52.9692   5
  -5   0  -3 1197.97 90.7004  10
  -5   0  -3 1317.96 97.7517   8
  -5   0  -3 1286.40 96.0027   6
  -5   0  -3 1236.00 81.1838   5
  -5   0  -3 1232.78 86.8836   9
  -5   0  -3 1285.76 94.8977   7
  -5   0  -2 276.027 37.5958   7
  -5   0  -2 212.176 29.2281   5
  -5   0  -2 205.752 31.6136   9
  -5   0  -2 194.710 31.5963  10
  -5   0  -1 3368.99 204.000   1
  -5   0  -1 3631.04 204.828   9
  -5   0  -1 3542.15 199.697   5
  -5   0  -1 3775.92 198.596   2
  -5   0  -1 3742.19 208.381   7
  -5   0   0 496.066 55.3212   8
  -5   0   0 688.646 63.9028  11
  -5   0   0 487.760 54.9393   9
  -5   0   0 605.995 58.3045   1
  -5   0   0 501.596 53.9505   5
  -5   0   0 626.346 56.5286   2
  -5   0   1 2213.71 137.370   2
  -5   0   1 2247.42 144.028  11
  -5   0   1 2071.47 133.901   1
  -5   0   1 2127.49 139.190   8
  -5   0   1 2111.29 139.673   5
  -5   0   1 1752.13 132.511   6
  -5   0   2 262.913 41.1856   6
  -5   0   2 274.433 41.9339   8
  -5   0   2 313.632 43.9327   2
  -5   0   2 250.905 41.5682   5
  -5   0   2 274.708 45.1662  11
  -5   0   2 233.431 36.8666   1
  -5   0   2 244.260 41.5755   7
  -5   0   3 559.648 64.0293   2
  -5   0   3 458.286 60.3597   7
  -5   0   3 526.801 62.4494   6
  -5   0   3 664.287 69.8333  10
  -5   0   3 511.192 55.4916   1
  -5   0   3 483.131 60.2738   8
  -5   0   4 159.695 38.2547   2
  -5   0   4 202.487 40.7123   8
  -5   0   4 163.790 31.4160   1
  -5   0   4 186.152 40.5396  10
  -5   0   4 88.7883 28.9084   7
  -5   0   4 167.912 38.5208   6
  -5   0   5 136.936 37.9969   2
  -5   0   5 105.043 32.8315   8
  -5   0   5 98.4186 34.4002   7
  -5   0   5 71.0278 34.1661   5
  -5   0   5 72.1579 23.6577   1
  -5   0   5 48.5472 25.6064   6
  -5   0   5 68.0348 28.9138  10
  -5   0   5 38.8192 23.8802  11
  -5   0   6 840.497 79.7218   1
  -5   0   6 875.546 93.9697   8
  -5   1  -9 282.835 50.8047   7
  -5   1  -8 808.708 76.9939  10
  -5   1  -8 791.505 80.8762   8
  -5   1  -8 783.107 79.8881   7
  -5   1  -8 697.585 79.8604   6
  -5   1  -8 701.260 67.3140  11
  -5   1  -7 357.499 49.0558  10
  -5   1  -7 346.655 52.1895   6
  -5   1  -7 506.483 58.7680   7
  -5   1  -7 416.211 40.9228   2
  -5   1  -7 252.798 47.1138   8
  -5   1  -6 314.621 46.1909   8
  -5   1  -6 292.827 33.3359   2
  -5   1  -6 232.452 41.9284   6
  -5   1  -6 186.125 36.8356   7
  -5   1  -6 245.339 38.9115  10
  -5   1  -5 505.004 35.5902   5
  -5   1  -5 476.220 56.9677   6
  -5   1  -5 510.976 53.3723  10
  -5   1  -5 427.725 42.9089   2
  -5   1  -5 373.496 51.5068   8
  -5   1  -5 451.593 53.6769   7
  -5   1  -4 1993.41 113.216   2
  -5   1  -4 1904.24 130.134   8
  -5   1  -4 1785.88 127.174   6
  -5   1  -4 1808.93 125.061   7
  -5   1  -4 1935.88 123.192  10
  -5   1  -4 1679.23 104.551   5
  -5   1  -3 1262.64 88.6706  10
  -5   1  -3 1128.32 78.4924   5
  -5   1  -3 1075.18 90.7776   6
  -5   1  -3 1004.28 86.5297   7
  -5   1  -3 1345.25 78.3301   2
  -5   1  -3 1122.46 91.9636   8
  -5   1  -2 2999.27 176.435  10
  -5   1  -2 2752.33 182.401   1
  -5   1  -2 3382.27 169.912   2
  -5   1  -2 3058.85 182.911   7
  -5   1  -2 3257.58 182.334  11
  -5   1  -2 2746.43 170.497   5
  -5   1  -2 3194.83 186.883   8
  -5   1  -2 3205.60 186.488   6
  -5   1  -1 1313.19 100.726   1
  -5   1  -1 1317.64 100.462   8
  -5   1  -1 1518.16 105.015   6
  -5   1  -1 1402.33 100.368  11
  -5   1  -1 1201.88 92.8583   5
  -5   1  -1 1260.13 88.1785   2
  -5   1  -1 1263.28 98.2123   7
  -5   1   0 2274.95 152.020   5
  -5   1   0 2377.18 154.259   1
  -5   1   0 2357.91 154.277   7
  -5   1   0 2547.37 148.804   2
  -5   1   0 2503.89 157.023   6
  -5   1   0 2455.28 156.650  11
  -5   1   1 580.336 58.5812   2
  -5   1   1 478.978 57.9038   7
  -5   1   1 469.079 55.9846   1
  -5   1   1 571.825 62.0335   5
  -5   1   1 490.378 59.1666  11
  -5   1   2 331.216 48.2854  10
  -5   1   2 316.046 49.6394   5
  -5   1   2 412.894 50.6537   2
  -5   1   2 290.742 46.1210   8
  -5   1   2 244.766 40.7536   1
  -5   1   2 356.049 50.9625   7
  -5   1   2 304.453 49.0744  11
  -5   1   3 494.578 63.7421   8
  -5   1   3 671.101 76.2510  11
  -5   1   3 520.271 65.7894  10
  -5   1   3 598.596 64.1320   1
  -5   1   3 580.350 72.1208   5
  -5   1   3 581.497 68.5401   2
  -5   1   4 48.8332 26.5988   2
  -5   1   4 22.6207 18.8794  11
  -5   1   4 71.5959 28.1299   8
  -5   1   4 48.5175 22.0053   1
  -5   1   4 81.1897 30.0319   7
  -5   1   4 34.7762 24.5651  10
  -5   1   4 53.2409 24.4656   6
  -5   1   5 954.680 98.2183   2
  -5   1   5 678.001 83.4504   6
  -5   1   5 622.292 71.9912   1
  -5   1   5 815.876 92.3321  10
  -5   1   5 785.073 87.4625   8
  -5   1   5 680.280 87.4396   5
  -5   1   5 702.595 85.1346   7
  -5   1   6 181.098 40.1038   1
  -5   2  -8 576.029 70.2601   6
  -5   2  -8 603.804 71.4575   8
  -5   2  -8 683.497 72.6126   7
  -5   2  -7 69.1957 25.7742   8
  -5   2  -7 99.3797 29.8999   6
  -5   2  -7 63.1247 24.7395   7
  -5   2  -7 86.3301 23.8740  10
  -5   2  -6 81.9483 23.3665  10
  -5   2  -6 60.5180 23.8986   8
  -5   2  -6 59.7352 23.9058   7
  -5   2  -6 60.8902 28.2739   6
  -5   2  -5 77.8120 22.1678  10
  -5   2  -5 56.7141 24.1544   7
  -5   2  -5 58.5013 11.8131   2
  -5   2  -5 26.2686 17.9026   8
  -5   2  -5 57.7153 22.7715   6
  -5   2  -5 69.6128 11.2010   2
  -5   2  -4 740.384 53.2275   2
  -5   2  -4 843.816 68.9002  10
  -5   2  -4 848.078 66.8036  11
  -5   2  -4 711.149 69.8484   7
  -5   2  -4 653.922 70.6898   6
  -5   2  -4 816.469 75.9948   8
  -5   2  -4 821.093 50.3428   2
  -5   2  -3 757.226 65.6495  10
  -5   2  -3 856.661 68.9263  11
  -5   2  -3 775.063 75.7416   1
  -5   2  -3 905.378 78.7722   8
  -5   2  -3 734.517 70.0980   7
  -5   2  -3 777.891 53.3087   2
  -5   2  -3 738.196 61.9894   5
  -5   2  -3 769.566 56.5885   2
  -5   2  -3 741.768 73.0614   6
  -5   2  -2 1152.30 94.0106   8
  -5   2  -2 1218.72 76.0490   2
  -5   2  -2 1061.13 84.0593   5
  -5   2  -2 1068.65 82.9026  10
  -5   2  -2 1151.44 91.6491   7
  -5   2  -2 1141.11 93.6491   6
  -5   2  -2 1117.73 87.3136  11
  -5   2  -1 254.192 35.2907  10
  -5   2  -1 200.811 37.8750   8
  -5   2  -1 177.684 34.7771   1
  -5   2  -1 242.124 39.0518  11
  -5   2  -1 147.939 30.6879   5
  -5   2  -1 222.000 37.0323   7
  -5   2  -1 193.198 36.0229   6
  -5   2  -1 200.660 28.2404   2
  -5   2   0 253.714 41.7639   5
  -5   2   0 269.384 43.0839   1
  -5   2   0 341.374 46.8566  11
  -5   2   0 327.124 39.6175   2
  -5   2   0 321.212 45.9338   7
  -5   2   0 362.617 48.7941   8
  -5   2   0 268.311 42.5125   6
  -5   2   1 119.422 32.1394   7
  -5   2   1 149.684 34.5311  11
  -5   2   1 128.471 31.8139  10
  -5   2   1 130.168 32.9727   5
  -5   2   1 109.503 29.9279   6
  -5   2   1 93.9201 25.8727   2
  -5   2   1 113.733 31.1100   1
  -5   2   1 145.158 34.4595   8
  -5   2   2 507.676 64.3991   6
  -5   2   2 575.897 63.9298   2
  -5   2   2 586.868 66.0781  10
  -5   2   2 551.058 66.5363   7
  -5   2   2 522.817 63.3890   1
  -5   2   2 672.849 74.9458   5
  -5   2   2 613.102 71.9164  11
  -5   2   3-7.24780 19.4794   5
  -5   2   3 11.7557 18.8816   1
  -5   2   3 13.0063 16.1816   7
  -5   2   3 12.7540 23.3566  10
  -5   2   3-6.21841 16.7128   2
  -5   2   3 6.43961 18.5023   6
  -5   2   3-7.28058 19.5675  11
  -5   2   4 187.666 46.7035   5
  -5   2   4 239.498 48.8738  10
  -5   2   4 186.368 43.6717   7
  -5   2   4 166.852 40.3286   2
  -5   2   4 122.034 38.5463  11
  -5   2   4 148.979 34.7078   1
  -5   2   4 119.871 35.8174   8
  -5   2   5 58.9659 25.9130   1
  -5   3  -7 128.402 33.5013   8
  -5   3  -7 125.218 33.6647   6
  -5   3  -6 237.165 41.9819   7
  -5   3  -6 291.396 48.0228   6
  -5   3  -6 299.400 48.2035   8
  -5   3  -5 95.5037 27.1618   7
  -5   3  -5 72.5884 18.8201  11
  -5   3  -5 71.0940 25.6209   8
  -5   3  -5 27.4608 21.7998   6
  -5   3  -4 380.644 40.4413  11
  -5   3  -4 297.917 37.4649  10
  -5   3  -4 330.298 45.6603   7
  -5   3  -4 417.411 54.0412   8
  -5   3  -4 292.905 46.8201   6
  -5   3  -3 9.08013 7.48614   2
  -5   3  -3 11.6146 17.7111   1
  -5   3  -3 42.2857 21.4886   8
  -5   3  -3 15.7844 15.1331   6
  -5   3  -3 14.5988 12.8617  11
  -5   3  -3 18.6778 15.7471   7
  -5   3  -3 16.8197 15.2978  10
  -5   3  -3 17.8594 7.02396   2
  -5   3  -2 206.018 39.4422   6
  -5   3  -2 377.855 40.5261  10
  -5   3  -2 277.849 46.7409   1
  -5   3  -2 266.671 27.9825   2
  -5   3  -2 265.516 42.8074   8
  -5   3  -2 234.593 40.4330   7
  -5   3  -2 249.943 38.1041  11
  -5   3  -1 322.358 35.6886   2
  -5   3  -1 429.487 45.8115  10
  -5   3  -1 313.047 40.5315  10
  -5   3  -1 295.171 46.4307   6
  -5   3  -1 348.729 50.8237   8
  -5   3  -1 275.445 43.6605   7
  -5   3  -1 366.307 47.7394  11
  -5   3   0 495.594 52.2989   2
  -5   3   0 627.678 69.3716   8
  -5   3   0 569.971 66.2208   6
  -5   3   0 559.976 64.1375   7
  -5   3   0 660.134 67.8773  11
  -5   3   0 610.810 68.8775   1
  -5   3   0 600.890 60.0601  10
  -5   3   1 503.154 55.4173   2
  -5   3   1 507.650 62.9049   7
  -5   3   1 448.079 61.2732  11
  -5   3   1 513.034 64.0853   1
  -5   3   1 454.776 62.1726   8
  -5   3   1 449.091 60.4931   6
  -5   3   1 557.191 60.8284  10
  -5   3   2 423.645 59.9483   6
  -5   3   2 461.419 57.8641  10
  -5   3   2 400.151 58.0820   1
  -5   3   2 427.129 59.9301   7
  -5   3   2 361.811 52.0751   2
  -5   3   2 430.464 62.9742  11
  -5   3   2 357.294 57.0283   8
  -5   3   3 242.087 52.0775  11
  -5   3   3 206.132 44.3734   7
  -5   3   3 192.547 41.8585   1
  -5   3   3 191.766 43.6840   6
  -5   3   3 127.465 34.0407   2
  -5   3   3 202.930 43.8884  10
  -5   3   4 335.214 58.9911   2
  -5   3   4 501.219 69.5343  10
  -5   4  -6 104.840 31.9146   8
  -5   4  -6 188.959 39.8189   6
  -5   4  -5 103.588 30.7693   6
  -5   4  -5 114.458 32.2168   8
  -5   4  -4 754.242 78.0145   8
  -5   4  -4 695.430 70.4161   7
  -5   4  -4 706.388 75.4218   6
  -5   4  -3 315.517 48.8716   6
  -5   4  -3 174.846 36.0079   7
  -5   4  -3 283.000 46.6663   8
  -5   4  -3 304.955 51.2567   1
  -5   4  -2 195.143 38.8249   8
  -5   4  -2 82.9564 29.0527   1
  -5   4  -2 136.527 35.3246   6
  -5   4  -2 142.162 29.5897  11
  -5   4  -1 253.717 40.6022  11
  -5   4  -1 145.137 36.4467   6
  -5   4  -1 230.132 43.2765   8
  -5   4  -1 180.854 40.3254   1
  -5   4  -1 180.030 36.7328   7
  -5   4   0 117.260 35.2865   8
  -5   4   0 101.138 29.0028  11
  -5   4   0 120.490 33.3592   6
  -5   4   0 124.179 32.3405   7
  -5   4   1 79.2026 29.7645   7
  -5   4   1 26.2345 25.8994   8
  -5   4   1 82.4781 29.6180   6
  -5   4   1 25.7747 25.4488  11
  -5   4   2 182.161 43.9328  11
  -5   5  -3 29.9532 20.2282   6
  -5   5  -1 294.723 48.4373   7
  -4  -9  -5 39.8400 26.9050  11
  -4  -9  -4 49.6182 28.0218   2
  -4  -9  -4 85.8228 30.1038  11
  -4  -9  -3 304.151 54.8502   2
  -4  -9  -3 208.916 43.1112  11
  -4  -9  -2 58.6552 30.7677   2
  -4  -9  -2 38.3805 19.3878  11
  -4  -9  -2 37.4943 26.4566   4
  -4  -9  -1 376.209 64.9140   3
  -4  -9  -1 418.892 68.3116   5
  -4  -9  -1 314.157 57.1357   4
  -4  -9  -1 317.509 54.7724   2
  -4  -9   0 73.0981 32.1051   9
  -4  -9   0 51.2738 27.7968   4
  -4  -9   0 91.7793 35.7390   5
  -4  -9   0 70.2367 31.8624   3
  -4  -9   1 783.054 89.0241   5
  -4  -9   1 631.665 84.4029   3
  -4  -9   1 718.991 87.3826   9
  -4  -9   1 750.398 77.4004   4
  -4  -9   2 53.6548 29.7216   5
  -4  -9   2 42.9715 26.2590   9
  -4  -9   2 7.09956 23.9496   3
  -4  -8  -7 111.290 35.6310  10
  -4  -8  -7 134.673 36.1145  12
  -4  -8  -6 215.562 49.8110   2
  -4  -8  -6 181.901 43.0231  10
  -4  -8  -6 229.570 46.5677  12
  -4  -8  -6 313.297 58.5850  11
  -4  -8  -5 86.6725 32.8881   3
  -4  -8  -5 62.6010 29.8262   9
  -4  -8  -5 97.2679 32.3476  12
  -4  -8  -5 32.7615 25.0599   2
  -4  -8  -5 15.0375 18.8416   4
  -4  -8  -5 59.3155 26.0254  10
  -4  -8  -5 61.7268 27.2433  11
  -4  -8  -4 261.773 49.4976  12
  -4  -8  -4 148.466 39.8897   2
  -4  -8  -4 254.458 52.1272   9
  -4  -8  -4 167.377 39.8082  11
  -4  -8  -4 177.977 37.7200  10
  -4  -8  -4 180.575 43.6973   4
  -4  -8  -4 258.771 48.6997   3
  -4  -8  -3 14.7881 19.8775   2
  -4  -8  -3-7.40016 19.8940   5
  -4  -8  -3 27.5149 22.1013   4
  -4  -8  -3 5.32650 15.3107  10
  -4  -8  -3 13.7973 21.0284  12
  -4  -8  -3 12.4626 17.9093  11
  -4  -8  -2 14.0091 20.1571   2
  -4  -8  -2 13.9899 20.1296   3
  -4  -8  -2 37.1302 22.6590   9
  -4  -8  -2 21.9710 17.6807  11
  -4  -8  -2 21.5952 23.1513   5
  -4  -8  -2 91.6708 33.6174  12
  -4  -8  -2 19.5222 20.9344   4
  -4  -8  -2 28.4191 17.3849  10
  -4  -8  -1 138.740 34.5810   4
  -4  -8  -1 128.465 29.1456  11
  -4  -8  -1 139.047 36.0359   2
  -4  -8  -1 134.505 29.1935  10
  -4  -8  -1 68.7690 27.6380   5
  -4  -8  -1 130.079 35.9080   3
  -4  -8  -1 201.355 46.5448   9
  -4  -8   0 86.4927 22.0537  10
  -4  -8   0 65.4068 30.5173  12
  -4  -8   0 33.1235 21.0971   4
  -4  -8   0 40.3371 16.5359  11
  -4  -8   0 65.6310 27.5757   5
  -4  -8   0 43.9547 23.1025   2
  -4  -8   0 48.1667 25.2973   9
  -4  -8   0 26.6121 22.5216   3
  -4  -8   1 710.801 76.3126   5
  -4  -8   1 573.530 68.9963   2
  -4  -8   1 702.343 83.5898  12
  -4  -8   1 572.730 55.2061  11
  -4  -8   1 588.454 73.5927   3
  -4  -8   1 714.185 60.3521  10
  -4  -8   1 633.464 77.4950   9
  -4  -8   1 759.636 70.4776   4
  -4  -8   2-6.11985 17.5844   9
  -4  -8   2-8.22793 16.1865   4
  -4  -8   2 13.5816 15.2537   2
  -4  -8   2-7.30373 23.4626  12
  -4  -8   2 36.1747 25.2527   3
  -4  -8   2-5.83517 16.7665   5
  -4  -8   2-11.4294 17.4164   2
  -4  -8   3 39.6986 22.3612   9
  -4  -8   3 44.1210 23.8150   3
  -4  -8   3 27.8452 19.6528   5
  -4  -8   3 21.6706 23.2515  12
  -4  -8   4 113.102 31.2694   5
  -4  -8   4 77.4415 38.7703  12
  -4  -7  -8 712.110 84.2989   9
  -4  -7  -8 807.093 83.3631   3
  -4  -7  -7 163.049 39.9896   9
  -4  -7  -7 105.923 27.2966  12
  -4  -7  -7 132.882 39.9168   2
  -4  -7  -7 91.3374 33.1241   4
  -4  -7  -7 100.631 35.5548  10
  -4  -7  -7 141.183 36.2021   3
  -4  -7  -7 103.346 38.4922  11
  -4  -7  -6 573.888 78.5220  10
  -4  -7  -6 1017.12 95.2035   9
  -4  -7  -6 891.861 89.9128   4
  -4  -7  -6 818.442 84.2983   3
  -4  -7  -6 769.753 76.5795  12
  -4  -7  -6 779.371 91.7815  11
  -4  -7  -6 743.007 88.7995   2
  -4  -7  -5 1079.50 99.4163   9
  -4  -7  -5 970.630 92.3899   3
  -4  -7  -5 765.130 89.0414  11
  -4  -7  -5 1023.41 89.9377  12
  -4  -7  -5 799.844 87.7700  10
  -4  -7  -5 869.251 94.7782   2
  -4  -7  -4 514.721 66.6986  10
  -4  -7  -4 720.199 79.7872   9
  -4  -7  -4 712.567 76.4904   3
  -4  -7  -4 810.932 77.8803  12
  -4  -7  -4 610.264 71.2622   4
  -4  -7  -4 620.942 74.5969  11
  -4  -7  -4 577.947 74.9491   2
  -4  -7  -3 190.103 40.2172  12
  -4  -7  -3 122.120 34.3821   2
  -4  -7  -3 189.933 39.6108   4
  -4  -7  -3 130.697 33.6861  11
  -4  -7  -3 118.015 31.5024  10
  -4  -7  -2-27.7464 20.3274   4
  -4  -7  -2-5.90727 14.7023   3
  -4  -7  -2-6.09623 23.1732   5
  -4  -7  -2-4.86507 15.6315  10
  -4  -7  -2 6.43569 14.6219   2
  -4  -7  -2 6.28079 20.1785   9
  -4  -7  -2 41.3209 23.9878  12
  -4  -7  -1 892.307 88.2499   2
  -4  -7  -1 856.583 85.8121   5
  -4  -7  -1 821.928 74.9359  10
  -4  -7  -1 820.843 79.2795   4
  -4  -7  -1 948.280 90.0142   9
  -4  -7  -1 1021.72 90.0853   3
  -4  -7   0 66.8147 29.1307   5
  -4  -7   0 95.2578 31.4458   3
  -4  -7   0 69.8637 28.0416   9
  -4  -7   0 117.149 28.0579   4
  -4  -7   0 111.094 32.2480   2
  -4  -7   0 86.7248 24.0834  10
  -4  -7   0 97.6559 31.2710  12
  -4  -7   1 2321.90 157.135   5
  -4  -7   1 2333.02 158.884   2
  -4  -7   1 2331.33 146.197   4
  -4  -7   1 2173.87 142.081  10
  -4  -7   1 2411.72 165.483  12
  -4  -7   1 2411.06 160.211   3
  -4  -7   1 2463.19 161.564   9
  -4  -7   2 892.994 73.8998  10
  -4  -7   2 995.537 86.2861   3
  -4  -7   2 881.856 84.2427   9
  -4  -7   2 948.405 86.1130   5
  -4  -7   2 948.539 68.5250  11
  -4  -7   2 847.142 75.6072   2
  -4  -7   2 1005.43 93.7041  12
  -4  -7   2 824.618 70.4064   4
  -4  -7   3 777.039 60.2698   4
  -4  -7   3 733.148 69.4691   2
  -4  -7   3 731.777 58.1017  11
  -4  -7   3 656.205 71.0732   5
  -4  -7   3 744.801 81.1500  12
  -4  -7   3 748.594 71.8082   3
  -4  -7   3 749.252 72.7066   9
  -4  -7   3 808.761 69.3628  10
  -4  -7   3 736.537 65.8923  10
  -4  -7   4 473.398 55.1353  10
  -4  -7   4 454.983 55.8348   5
  -4  -7   4 368.862 47.4804   3
  -4  -7   4 558.409 60.0262   2
  -4  -7   4 459.731 52.7091  10
  -4  -7   4 442.810 60.5692  12
  -4  -7   4 466.214 54.7995   9
  -4  -7   5 5.75648 17.5466  12
  -4  -7   5 9.98630 15.2210   5
  -4  -6  -9 404.965 53.4097   3
  -4  -6  -9 342.753 55.7937   5
  -4  -6  -9 374.169 56.1226   9
  -4  -6  -8 1682.53 123.998   4
  -4  -6  -8 1435.73 96.9792  12
  -4  -6  -8 1174.24 118.693  10
  -4  -6  -8 1286.75 126.644  11
  -4  -6  -8 1325.62 107.072   3
  -4  -6  -8 1485.41 116.660   9
  -4  -6  -8 1203.38 116.819   5
  -4  -6  -7 82.2620 29.1963   3
  -4  -6  -7 92.3156 25.1555  12
  -4  -6  -7 63.4071 29.1470  11
  -4  -6  -7 45.1924 24.3363   2
  -4  -6  -7 60.6402 29.0110   4
  -4  -6  -7 90.5974 29.4456   9
  -4  -6  -7 21.9437 18.3873  10
  -4  -6  -6 531.146 63.6049   3
  -4  -6  -6 644.148 74.3065   7
  -4  -6  -6 461.350 68.4261  11
  -4  -6  -6 492.694 67.4706  10
  -4  -6  -6 726.511 74.0262   4
  -4  -6  -6 646.208 60.6015  12
  -4  -6  -6 513.509 70.7245   2
  -4  -6  -6 713.664 72.9721   9
  -4  -6  -5 1430.97 117.266  10
  -4  -6  -5 1408.18 114.164   7
  -4  -6  -5 1113.82 111.262   2
  -4  -6  -5 1174.47 112.670  11
  -4  -6  -5 1413.76 113.219   4
  -4  -6  -5 1576.99 114.290   3
  -4  -6  -5 1599.16 118.489   9
  -4  -6  -5 1605.18 108.844  12
  -4  -6  -4 834.460 79.3499   9
  -4  -6  -4 809.724 77.1804   3
  -4  -6  -4 739.390 71.0768  12
  -4  -6  -4 679.803 77.0427   2
  -4  -6  -4 721.331 75.4640  10
  -4  -6  -4 725.244 71.7462   7
  -4  -6  -3 1305.39 108.194   3
  -4  -6  -3 1537.67 112.295   4
  -4  -6  -3 1344.01 108.083  10
  -4  -6  -3 1353.45 114.149   2
  -4  -6  -3 1620.19 113.148  12
  -4  -6  -3 1392.37 103.421   7
  -4  -6  -3 1592.94 117.211   9
  -4  -6  -2 3488.16 220.191   2
  -4  -6  -2 3709.38 213.467  10
  -4  -6  -2 3267.78 198.848   7
  -4  -6  -2 3799.82 214.995   4
  -4  -6  -1 4915.42 267.861  10
  -4  -6  -1 5161.62 277.634   5
  -4  -6  -1 5255.71 277.273   3
  -4  -6  -1 4322.54 249.409   7
  -4  -6  -1 4976.35 279.704   2
  -4  -6  -1 5259.26 279.824   9
  -4  -6  -1 5140.22 270.100   4
  -4  -6   0 1008.82 85.5453   9
  -4  -6   0 930.452 76.6825  10
  -4  -6   0 989.849 83.2989   3
  -4  -6   0 965.880 85.2536  12
  -4  -6   0 983.606 64.5717   7
  -4  -6   0 839.827 73.9841   4
  -4  -6   0 945.710 83.2534   5
  -4  -6   1 4.48067 15.0985   3
  -4  -6   1 5.12896 15.6329  12
  -4  -6   1 18.3208 14.7158   5
  -4  -6   1 4.65912 16.3975   9
  -4  -6   1-3.95428 15.5598  10
  -4  -6   1 7.83056 7.29587   7
  -4  -6   1 21.1184 15.1719   4
  -4  -6   2 1037.72 85.1669   3
  -4  -6   2 1109.61 87.6958   5
  -4  -6   2 1057.91 83.1998  10
  -4  -6   2 1155.45 77.9064   4
  -4  -6   2 1001.02 74.7624  11
  -4  -6   2 1278.45 97.5278  12
  -4  -6   2 1111.48 83.9124   2
  -4  -6   2 986.311 85.3649   9
  -4  -6   2 964.918 56.5046   7
  -4  -6   3 1758.04 105.535   4
  -4  -6   3 1925.32 123.673  10
  -4  -6   3 1733.95 120.903   5
  -4  -6   3 1682.99 110.108  11
  -4  -6   3 1797.29 118.221   3
  -4  -6   3 2001.15 133.036  12
  -4  -6   3 1579.54 116.647   2
  -4  -6   3 1628.39 119.484   9
  -4  -6   4 304.289 44.4094  12
  -4  -6   4 251.857 37.0735   3
  -4  -6   4 222.233 37.2133   9
  -4  -6   4 240.380 40.3848   2
  -4  -6   4 296.692 37.8560  11
  -4  -6   4 270.658 42.4265  10
  -4  -6   4 272.342 41.5207   5
  -4  -6   5 39.6222 20.8437   2
  -4  -6   5 55.6456 20.0426   9
  -4  -6   5 38.5692 19.0903   5
  -4  -6   5 56.6533 19.5675   3
  -4  -6   5 39.4380 20.1472  12
  -4  -6   5 63.8888 25.8080  10
  -4  -6   6 135.695 36.6918   2
  -4  -6   6 158.288 35.1781   5
  -4  -6   6 208.634 43.8555  10
  -4  -5 -10 560.612 66.4933   4
  -4  -5  -9 19.9626 14.0626   3
  -4  -5  -9 5.97963 17.1914   5
  -4  -5  -9 17.7533 19.6619   9
  -4  -5  -9 16.4094 20.7989   4
  -4  -5  -8 229.292 42.5296   4
  -4  -5  -8 275.267 50.9137  10
  -4  -5  -8 265.790 39.0449   3
  -4  -5  -8 247.812 30.8959  12
  -4  -5  -8 202.894 45.6823   2
  -4  -5  -8 277.796 42.4920   9
  -4  -5  -8 298.994 47.9560   5
  -4  -5  -8 318.249 56.4164  11
  -4  -5  -7 483.854 46.5042  12
  -4  -5  -7 607.325 61.6650   9
  -4  -5  -7 595.703 64.2300   4
  -4  -5  -7 510.936 68.8119   7
  -4  -5  -7 464.494 53.3323   3
  -4  -5  -7 438.936 63.4089  10
  -4  -5  -6 934.471 81.0019   4
  -4  -5  -6 928.222 68.6707  12
  -4  -5  -6 957.548 80.3630   9
  -4  -5  -6 667.777 78.8106   7
  -4  -5  -6 867.416 74.3939   3
  -4  -5  -6 674.749 78.2967  10
  -4  -5  -6 763.921 83.4657  11
  -4  -5  -5 22.6013 16.5768   9
  -4  -5  -5 45.1085 18.9998  12
  -4  -5  -5 12.0852 15.0584   2
  -4  -5  -5 16.8566 15.1242   7
  -4  -5  -5 4.23808 14.9366   3
  -4  -5  -5 28.7489 19.3895  10
  -4  -5  -5 14.2387 15.2690   4
  -4  -5  -4 244.729 33.9978  12
  -4  -5  -4 162.011 33.7425  10
  -4  -5  -4 222.733 36.2876   3
  -4  -5  -4 205.372 36.7977   7
  -4  -5  -4 175.388 36.3026   2
  -4  -5  -3 894.599 74.6615   5
  -4  -5  -3 803.876 71.5850   9
  -4  -5  -3 680.838 71.8692   2
  -4  -5  -3 696.879 66.2149   7
  -4  -5  -3 813.424 68.1121  12
  -4  -5  -3 683.551 68.8931  10
  -4  -5  -2 915.306 72.6627   7
  -4  -5  -2 1027.38 79.0433  12
  -4  -5  -2 917.284 75.5553   4
  -4  -5  -2 946.092 79.0136  10
  -4  -5  -2 866.964 80.8854   2
  -4  -5  -1 3902.86 205.488   4
  -4  -5  -1 3705.15 206.194  10
  -4  -5  -1 3868.86 198.153   7
  -4  -5  -1 3650.00 207.333   3
  -4  -5  -1 3374.74 182.640   6
  -4  -5   0 2027.33 129.432  10
  -4  -5   0 2153.37 133.666   9
  -4  -5   0 2012.85 117.815   7
  -4  -5   0 2121.87 135.053  12
  -4  -5   0 1879.75 105.419   6
  -4  -5   0 2248.50 133.741   3
  -4  -5   0 2114.38 126.574   4
  -4  -5   0 2093.77 133.118   5
  -4  -5   1 2051.69 108.180   6
  -4  -5   1 2287.85 139.266   9
  -4  -5   1 2047.15 118.750   7
  -4  -5   1 2123.02 135.310  10
  -4  -5   1 2142.99 134.750   3
  -4  -5   1 2244.91 129.064   4
  -4  -5   1 2184.83 140.295  12
  -4  -5   1 2334.00 139.832   5
  -4  -5   2 2887.00 164.212   9
  -4  -5   2 2784.22 151.624   4
  -4  -5   2 2670.56 134.793   6
  -4  -5   2 2721.03 163.470   5
  -4  -5   2 2869.82 160.489   3
  -4  -5   2 2402.45 140.698   7
  -4  -5   2 2577.09 158.369   2
  -4  -5   2 2718.71 154.417  11
  -4  -5   2 2845.06 167.291  12
  -4  -5   3 333.659 28.8998   6
  -4  -5   3 294.262 41.8946   5
  -4  -5   3 376.755 45.9327   2
  -4  -5   3 311.225 40.5775   9
  -4  -5   3 314.743 37.9729  11
  -4  -5   3 368.171 41.6061   3
  -4  -5   3 307.491 43.9060  12
  -4  -5   3 276.875 29.7256   7
  -4  -5   4 390.445 44.5135  11
  -4  -5   4 358.020 43.7648   9
  -4  -5   4 304.294 37.9717   3
  -4  -5   4 381.244 48.9051   2
  -4  -5   4 374.509 46.8825   5
  -4  -5   4 324.676 33.4757   7
  -4  -5   4 317.993 47.3029  10
  -4  -5   4 303.436 31.9700   6
  -4  -5   4 340.672 46.1363  12
  -4  -5   5 69.0053 18.7986   7
  -4  -5   5 79.9321 19.4421   6
  -4  -5   5 80.8954 25.0056  12
  -4  -5   5 71.5820 26.5637  10
  -4  -5   5 111.742 27.7125   9
  -4  -5   5 62.3185 9.03644   8
  -4  -5   5 90.7050 26.2677   5
  -4  -5   5 66.6165 17.1026   7
  -4  -5   5 64.3706 22.0888  11
  -4  -5   5 57.1681 16.6667   3
  -4  -5   5 88.3566 20.6670   6
  -4  -5   5 45.2294 8.38094   8
  -4  -5   5 73.3403 26.4136   2
  -4  -5   6 773.160 71.5600   9
  -4  -5   6 729.970 75.6998  11
  -4  -5   6 834.161 86.0044   2
  -4  -5   6 899.001 74.7076  12
  -4  -5   6 855.009 79.4062   5
  -4  -5   6 730.414 85.1768  10
  -4  -5   7 14.9142 20.0650   2
  -4  -5   7 32.1588 25.8441  10
  -4  -4 -10 125.083 31.0150   4
  -4  -4  -9 289.139 43.8065   5
  -4  -4  -9 254.655 49.2081   2
  -4  -4  -9 283.629 41.5449   4
  -4  -4  -9 287.098 54.0179  11
  -4  -4  -9 287.887 36.0753   3
  -4  -4  -9 241.064 33.8533   9
  -4  -4  -8 808.545 65.1525   9
  -4  -4  -8 717.925 50.4115  12
  -4  -4  -8 729.474 69.0340   4
  -4  -4  -8 614.923 76.1792   2
  -4  -4  -8 697.033 80.8682  11
  -4  -4  -8 756.887 71.7692   5
  -4  -4  -8 717.115 61.8409   3
  -4  -4  -7 149.064 27.5936   3
  -4  -4  -7 80.0699 29.5444   2
  -4  -4  -7 213.343 32.4866   9
  -4  -4  -7 173.677 32.8914   4
  -4  -4  -7 160.672 38.5292   7
  -4  -4  -7 155.912 36.8409  11
  -4  -4  -7 177.177 23.4922  12
  -4  -4  -6 524.946 65.1461  10
  -4  -4  -6 756.957 54.8699  12
  -4  -4  -6 587.224 56.7665   3
  -4  -4  -6 550.504 67.8639   7
  -4  -4  -6 662.359 70.8228   2
  -4  -4  -6 795.791 67.6892   4
  -4  -4  -6 683.528 60.0786   9
  -4  -4  -5 3020.65 190.476   2
  -4  -4  -5 3483.22 181.220   9
  -4  -4  -5 2748.40 186.464   7
  -4  -4  -5 3111.55 180.124   4
  -4  -4  -5 3176.39 168.786  12
  -4  -4  -5 3218.24 176.720   3
  -4  -4  -5 2570.77 183.482  10
  -4  -4  -4 2468.77 168.332  10
  -4  -4  -4 2729.13 161.646   3
  -4  -4  -4 3046.71 166.555   9
  -4  -4  -4 2502.94 167.754   7
  -4  -4  -4 2771.30 164.801   5
  -4  -4  -4 2817.92 156.995  12
  -4  -4  -4 3136.92 168.879   4
  -4  -4  -3-3.03115 9.23738  12
  -4  -4  -3 10.8618 11.6305   5
  -4  -4  -3-3.48337 10.0084   9
  -4  -4  -3 3.38864 10.3268   3
  -4  -4  -3 4.34306 10.8067  10
  -4  -4  -3-4.05522 8.23882   7
  -4  -4  -3-3.23954 8.06083   6
  -4  -4  -2 122.460 26.4723   2
  -4  -4  -2 93.8258 22.7724  10
  -4  -4  -2 147.947 26.2549   9
  -4  -4  -2 89.8856 19.6310   8
  -4  -4  -2 160.423 25.7609   4
  -4  -4  -2 120.437 23.6288  12
  -4  -4  -2 150.652 25.9935   7
  -4  -4  -2 114.016 20.2461   6
  -4  -4  -2 126.891 25.1441   5
  -4  -4  -1 2840.55 159.114   3
  -4  -4  -1 2760.19 156.687   4
  -4  -4  -1 2802.22 148.424   6
  -4  -4  -1 2584.53 147.622   8
  -4  -4  -1 2684.06 154.571   7
  -4  -4  -1 2778.43 161.749  10
  -4  -4   0 1714.16 100.824   8
  -4  -4   0 1631.92 112.440  12
  -4  -4   0 1845.91 111.175   4
  -4  -4   0 1760.24 107.754   7
  -4  -4   0 1889.48 102.766   6
  -4  -4   0 1846.27 115.562   9
  -4  -4   0 1847.37 114.165   3
  -4  -4   0 1766.48 116.200  10
  -4  -4   1 1145.00 83.6226   3
  -4  -4   1 1283.71 75.1592   6
  -4  -4   1 1241.01 88.2534  12
  -4  -4   1 1249.20 82.4030   4
  -4  -4   1 1233.65 72.3239   8
  -4  -4   1 1103.97 77.4492   7
  -4  -4   1 1130.74 85.2014   9
  -4  -4   1 1239.71 89.3990   5
  -4  -4   2 2188.64 138.065   2
  -4  -4   2 2208.28 120.298   8
  -4  -4   2 2298.93 141.396   5
  -4  -4   2 2336.67 130.225   7
  -4  -4   2 2312.28 140.868  12
  -4  -4   2 2076.87 134.050  11
  -4  -4   2 2347.32 126.230   6
  -4  -4   2 2417.59 141.383   9
  -4  -4   2 2343.79 136.083   3
  -4  -4   3 1338.04 84.3269   6
  -4  -4   3 1398.01 90.4801   3
  -4  -4   3 1287.14 93.7628  12
  -4  -4   3 1230.66 95.1982   5
  -4  -4   3 1253.41 92.5817   9
  -4  -4   3 1395.20 87.2330   7
  -4  -4   3 1171.31 92.9919   2
  -4  -4   3 1234.02 91.1235  11
  -4  -4   3 1248.21 76.3764   8
  -4  -4   4 43.8839 13.1454   8
  -4  -4   4 48.3943 19.7627   2
  -4  -4   4 38.6169 14.9138   3
  -4  -4   4 67.4534 21.7950   9
  -4  -4   4 25.6826 15.1910  11
  -4  -4   4 31.9626 15.3561   6
  -4  -4   4 41.2530 15.5847   7
  -4  -4   4 44.2105 19.1555   5
  -4  -4   4 56.9599 21.1327  10
  -4  -4   4 71.5105 19.9639  12
  -4  -4   5 271.874 44.9655   2
  -4  -4   5 313.359 50.2439  10
  -4  -4   5 297.682 41.6622   9
  -4  -4   5 265.290 42.7778  11
  -4  -4   5 286.271 39.8025  12
  -4  -4   5 340.205 35.4421   8
  -4  -4   5 396.565 43.6862   7
  -4  -4   5 303.644 45.3588   5
  -4  -4   5 345.802 41.7535   6
  -4  -4   6 262.721 49.5811   2
  -4  -4   6 294.934 39.9496  12
  -4  -4   6 348.511 47.0707   6
  -4  -4   6 254.690 40.7487   9
  -4  -4   6 310.286 36.7930   8
  -4  -4   6 295.991 42.4509   7
  -4  -4   6 321.445 50.1432  11
  -4  -4   6 310.169 56.2328  10
  -4  -4   6 342.048 49.0435   7
  -4  -4   6 328.433 49.7598   5
  -4  -4   7 60.7887 23.6370   6
  -4  -4   7 92.8188 27.0277   6
  -4  -4   7 143.669 39.4589   2
  -4  -4   7 133.646 36.2374  11
  -4  -4   7 171.403 43.3484  10
  -4  -4   7 133.471 34.0940   5
  -4  -3 -10 382.411 61.1818  11
  -4  -3 -10 365.067 59.2826   2
  -4  -3  -9 418.979 47.0599   5
  -4  -3  -9 329.350 53.8990   2
  -4  -3  -9 353.379 59.0628   7
  -4  -3  -9 396.305 35.4329   9
  -4  -3  -9 386.054 44.4967   4
  -4  -3  -9 368.741 58.6961  10
  -4  -3  -9 398.129 60.2903  11
  -4  -3  -9 328.507 35.3200   3
  -4  -3  -8 462.196 41.7457   9
  -4  -3  -8 421.020 59.7129   2
  -4  -3  -8 454.973 63.6160   7
  -4  -3  -8 524.868 53.3111   5
  -4  -3  -8 486.713 34.4209  12
  -4  -3  -8 474.765 63.2667  10
  -4  -3  -8 519.910 51.2877   4
  -4  -3  -8 515.150 45.0000   3
  -4  -3  -8 394.144 58.5508  11
  -4  -3  -7 682.154 52.5519   9
  -4  -3  -7 638.121 69.4313   2
  -4  -3  -7 541.364 66.8538  10
  -4  -3  -7 697.188 54.0668   3
  -4  -3  -7 604.354 71.7185   7
  -4  -3  -7 604.465 45.3928  12
  -4  -3  -7 631.117 71.0348  11
  -4  -3  -7 640.463 58.7298   4
  -4  -3  -6 1350.83 85.2262   9
  -4  -3  -6 1217.95 89.6828   4
  -4  -3  -6 1406.74 86.6108   3
  -4  -3  -6 1331.06 89.8629   5
  -4  -3  -6 1221.71 100.709   2
  -4  -3  -6 1329.32 79.2052  12
  -4  -3  -6 995.123 95.7592  10
  -4  -3  -5 2946.21 152.719  12
  -4  -3  -5 2698.92 159.451   5
  -4  -3  -5 2713.00 156.665   3
  -4  -3  -5 3005.97 158.440   9
  -4  -3  -5 2870.42 175.196   2
  -4  -3  -5 2964.73 163.871   4
  -4  -3  -5 2538.35 168.544   6
  -4  -3  -4 2919.77 158.812   5
  -4  -3  -4 2844.00 158.598   4
  -4  -3  -4 2511.41 161.304   6
  -4  -3  -4 2840.72 169.219   2
  -4  -3  -4 2996.68 156.455   9
  -4  -3  -4 2772.97 155.077   3
  -4  -3  -4 2511.32 162.665   8
  -4  -3  -4 2784.68 150.183  12
  -4  -3  -4 2628.63 166.911   7
  -4  -3  -3 2138.61 143.459   7
  -4  -3  -3 2423.02 148.887   2
  -4  -3  -3 2065.07 138.972   6
  -4  -3  -3 2519.57 140.965   5
  -4  -3  -3 2491.68 141.468   4
  -4  -3  -3 2260.05 142.628   8
  -4  -3  -3 2623.96 140.384   9
  -4  -3  -3 2666.32 141.172   3
  -4  -3  -3 2468.40 136.105  12
  -4  -3  -2 3521.35 193.685   3
  -4  -3  -2 3477.01 195.607   8
  -4  -3  -2 4026.29 198.486   9
  -4  -3  -2 3357.89 197.337   7
  -4  -3  -2 3173.61 197.542  10
  -4  -3  -2 3391.35 193.622   6
  -4  -3  -2 3963.80 195.349  12
  -4  -3  -2 4328.21 201.343   5
  -4  -3  -1 770.528 58.6243   4
  -4  -3  -1 821.612 61.2262   5
  -4  -3  -1 773.974 57.4655   8
  -4  -3  -1 791.380 63.6633  10
  -4  -3  -1 771.440 56.9065   6
  -4  -3  -1 708.383 58.0150   7
  -4  -3  -1 629.370 56.1902   9
  -4  -3  -1 601.597 54.4043  12
  -4  -3   0 3471.78 192.419   7
  -4  -3   0 3854.72 195.913   3
  -4  -3   0 3521.47 188.542   8
  -4  -3   0 3528.51 188.723   6
  -4  -3   0 3808.73 194.886   4
  -4  -3   1 1941.28 120.274   9
  -4  -3   1 2106.52 120.912  12
  -4  -3   1 1887.79 117.642   3
  -4  -3   1 1960.54 116.946   7
  -4  -3   1 1893.53 120.955   5
  -4  -3   1 1993.74 112.072   8
  -4  -3   1 1873.04 112.996   6
  -4  -3   2 286.722 36.4369   2
  -4  -3   2 232.592 29.8124   6
  -4  -3   2 251.471 34.4373   9
  -4  -3   2 289.223 30.5014   8
  -4  -3   2 266.063 32.9086   3
  -4  -3   2 227.320 33.6080  11
  -4  -3   2 271.950 36.2732   5
  -4  -3   2 298.398 34.1870   7
  -4  -3   2 294.797 35.1252  12
  -4  -3   3 3271.37 186.075   9
  -4  -3   3 3222.34 187.331   5
  -4  -3   3 3335.63 174.926   8
  -4  -3   3 3164.40 179.975   7
  -4  -3   3 3311.91 178.229   3
  -4  -3   3 3082.76 184.295  11
  -4  -3   3 3220.38 180.213  12
  -4  -3   3 2892.22 184.104   2
  -4  -3   3 3265.05 179.697   6
  -4  -3   4 2159.81 125.726   8
  -4  -3   4 1905.42 138.635  10
  -4  -3   4 2109.34 133.471   9
  -4  -3   4 1918.77 136.826   2
  -4  -3   4 1906.31 128.505   7
  -4  -3   4 2109.27 129.071  12
  -4  -3   4 2048.49 130.808   6
  -4  -3   4 2103.77 137.767  11
  -4  -3   4 2126.18 138.402   5
  -4  -3   5 4.45367 15.0133   7
  -4  -3   5 7.32342 11.7733  12
  -4  -3   5 39.4184 19.3999   9
  -4  -3   5 33.0804 16.2829   8
  -4  -3   5 26.8749 18.9208  11
  -4  -3   5-6.09715 17.5255  10
  -4  -3   5 5.16527 12.8623   5
  -4  -3   5 18.5266 17.6115   6
  -4  -3   5 5.78833 16.6386   2
  -4  -3   6 63.7698 19.5613  12
  -4  -3   6 43.7932 24.7173  11
  -4  -3   6 52.3926 24.4869   5
  -4  -3   6 28.4056 20.5288  10
  -4  -3   6 59.7093 24.7631   6
  -4  -3   6 47.1393 26.5907   2
  -4  -3   6 51.9451 20.4775   9
  -4  -3   6 40.7019 20.7966   7
  -4  -3   6 64.0107 21.3569   8
  -4  -3   7 271.201 54.6170  10
  -4  -3   7 275.340 48.4045   5
  -4  -3   7 318.582 45.1033   8
  -4  -3   7 317.648 51.6974   7
  -4  -3   7 179.745 43.4267  11
  -4  -3   7 226.965 45.5859   7
  -4  -3   7 238.571 45.5838   6
  -4  -3   7 194.395 45.3841   2
  -4  -3   8 57.9579 25.6944   5
  -4  -3   8 97.2617 36.0315  11
  -4  -2 -10 258.038 48.0014   2
  -4  -2 -10 347.983 54.7505  11
  -4  -2  -9 501.205 67.0112  10
  -4  -2  -9 463.145 66.3222   7
  -4  -2  -9 391.837 58.2156  11
  -4  -2  -9 484.609 39.2209   3
  -4  -2  -9 422.325 40.6296   5
  -4  -2  -9 428.404 58.1793   2
  -4  -2  -9 504.847 45.0283   5
  -4  -2  -9 486.710 46.4832   4
  -4  -2  -8 847.754 61.1208   5
  -4  -2  -8 791.845 82.0278  11
  -4  -2  -8 896.907 88.0796  10
  -4  -2  -8 827.902 52.8107   9
  -4  -2  -8 723.443 78.7287   2
  -4  -2  -8 821.169 86.2683   7
  -4  -2  -8 931.943 68.1063   4
  -4  -2  -8 867.844 60.5117   3
  -4  -2  -8 989.807 67.7671   5
  -4  -2  -7 323.192 32.2717   3
  -4  -2  -7 283.625 44.4521  11
  -4  -2  -7 251.682 25.8314   9
  -4  -2  -7 289.684 47.6131   7
  -4  -2  -7 249.039 32.4846   4
  -4  -2  -7 270.849 29.9451   5
  -4  -2  -7 304.819 44.5373   2
  -4  -2  -7 277.830 45.7998  10
  -4  -2  -6 7404.81 354.808  12
  -4  -2  -6 7898.98 368.226   4
  -4  -2  -6 7224.81 388.585   7
  -4  -2  -6 7458.21 383.539   2
  -4  -2  -6 7331.05 360.394   3
  -4  -2  -6 7377.73 355.153   9
  -4  -2  -6 7344.95 359.930   5
  -4  -2  -6 6864.16 383.994  10
  -4  -2  -5 2093.02 117.273   4
  -4  -2  -5 2012.46 111.177   5
  -4  -2  -5 1893.83 106.861   9
  -4  -2  -5 1988.72 127.547   2
  -4  -2  -5 1778.88 106.102  12
  -4  -2  -5 1880.94 129.299   7
  -4  -2  -5 2063.39 112.966   3
  -4  -2  -5 1485.62 119.926   6
  -4  -2  -5 1856.84 127.973  10
  -4  -2  -4 710.398 52.8063   5
  -4  -2  -4 683.699 54.9908   4
  -4  -2  -4 751.002 51.9733   9
  -4  -2  -4 754.523 54.7583   3
  -4  -2  -4 659.039 49.9185  12
  -4  -2  -4 610.291 58.9109   2
  -4  -2  -4 572.536 57.9847   6
  -4  -2  -4 705.853 63.4330  10
  -4  -2  -3 230.408 32.3066  10
  -4  -2  -3 278.991 29.6706   5
  -4  -2  -3 309.281 29.8273  12
  -4  -2  -3 246.326 34.0594   8
  -4  -2  -3 297.750 32.4123   4
  -4  -2  -3 265.040 28.7515   9
  -4  -2  -3 200.797 31.0308   2
  -4  -2  -3 201.567 30.8749   6
  -4  -2  -3 274.717 30.6102   3
  -4  -2  -2 858.820 60.8146  12
  -4  -2  -2 923.077 64.0792   3
  -4  -2  -2 927.173 62.7386   5
  -4  -2  -2 794.068 64.3307   8
  -4  -2  -2 752.293 62.7681   6
  -4  -2  -2 771.863 64.5596   7
  -4  -2  -2 867.449 61.4358   9
  -4  -2  -1 6156.23 318.439   6
  -4  -2  -1 5793.31 319.541   7
  -4  -2  -1 6200.35 316.423  12
  -4  -2  -1 6950.08 320.941   9
  -4  -2  -1 6315.75 320.008   8
  -4  -2  -1 7095.39 322.327   5
  -4  -2   0 3345.18 183.399   6
  -4  -2   0 3854.03 190.443   5
  -4  -2   0 3332.82 185.647   7
  -4  -2   0 3433.32 184.468   3
  -4  -2   0 3236.94 181.929   8
  -4  -2   1 3096.75 169.362   8
  -4  -2   1 3073.42 174.080   9
  -4  -2   1 3033.06 172.378   7
  -4  -2   1 3259.29 171.926   3
  -4  -2   1 3152.12 170.899   6
  -4  -2   1 2963.47 169.125  12
  -4  -2   2 4215.15 214.907   1
  -4  -2   2 4267.57 233.325   9
  -4  -2   2 4633.16 230.032   8
  -4  -2   2 4339.51 232.715   7
  -4  -2   2 4088.86 233.284  11
  -4  -2   2 4364.38 236.393   5
  -4  -2   2 4372.32 229.427  12
  -4  -2   2 4496.85 232.366   6
  -4  -2   3 360.159 43.3105   7
  -4  -2   3 340.388 30.2124   1
  -4  -2   3 361.294 42.4741   9
  -4  -2   3 297.301 41.5956   2
  -4  -2   3 330.429 42.7047   5
  -4  -2   3 373.167 42.8024   6
  -4  -2   3 300.041 41.3506  11
  -4  -2   3 336.341 39.4345  12
  -4  -2   3 339.091 38.8913   8
  -4  -2   4 485.919 55.8001   5
  -4  -2   4 358.162 50.9547  10
  -4  -2   4 384.689 45.8110   8
  -4  -2   4 430.983 46.3575  12
  -4  -2   4 454.813 36.7604   1
  -4  -2   4 334.491 47.8329  11
  -4  -2   4 428.348 51.0250   7
  -4  -2   4 467.384 52.1843   9
  -4  -2   4 601.657 57.7598   6
  -4  -2   4 472.698 54.7718   2
  -4  -2   5 671.768 67.7560   7
  -4  -2   5 656.792 47.3521   1
  -4  -2   5 593.402 65.5131   6
  -4  -2   5 615.177 70.9398  10
  -4  -2   5 533.055 65.0640  11
  -4  -2   5 635.494 63.3551   8
  -4  -2   5 683.994 71.2532   5
  -4  -2   5 499.872 65.1915   2
  -4  -2   5 596.297 63.3220   9
  -4  -2   5 627.089 58.3323  12
  -4  -2   6 13.9607 17.3796   2
  -4  -2   6 42.1581 23.7024   6
  -4  -2   6-7.22071 19.4161  10
  -4  -2   6 12.6408 24.8737   5
  -4  -2   6 15.3777 15.6330   8
  -4  -2   6 5.79841 15.5958   7
  -4  -2   6 13.3581 17.9611  11
  -4  -2   6 19.9189 11.2576   1
  -4  -2   7 127.912 37.8293   7
  -4  -2   7 269.294 49.9818   6
  -4  -2   7 221.382 42.4680   8
  -4  -2   7 212.840 45.9681   5
  -4  -2   7 266.821 52.3629  10
  -4  -2   7 209.554 50.0056   2
  -4  -2   7 206.647 46.2879  11
  -4  -2   8 43.0854 30.4151  11
  -4  -2   8 59.4605 29.9846   7
  -4  -2   8 14.7605 28.1511   7
  -4  -2   8 102.315 36.7136   5
  -4  -2   8 78.3959 34.7934   6
  -4  -1 -10 334.566 55.5715  10
  -4  -1 -10 199.902 42.2121  11
  -4  -1 -10 355.016 57.2277   7
  -4  -1 -10 275.695 46.3282   2
  -4  -1  -9 525.760 45.7011   4
  -4  -1  -9 616.543 71.4912  10
  -4  -1  -9 557.696 70.2197   7
  -4  -1  -9 485.321 60.1036   2
  -4  -1  -9 522.656 62.9840  11
  -4  -1  -8 1014.65 93.1631   7
  -4  -1  -8 914.405 53.6106   5
  -4  -1  -8 1016.47 68.3382   4
  -4  -1  -8 1041.70 57.2071   5
  -4  -1  -8 827.177 79.3503   2
  -4  -1  -8 795.689 80.5508  11
  -4  -1  -8 839.182 84.6032  10
  -4  -1  -7 1073.57 61.1365   5
  -4  -1  -7 1024.72 58.6730   9
  -4  -1  -7 1140.43 65.5238   5
  -4  -1  -7 1172.89 74.7241   4
  -4  -1  -7 980.672 83.6746   2
  -4  -1  -7 1006.16 90.4862   7
  -4  -1  -7 907.439 86.3802  10
  -4  -1  -7 1022.40 91.4593   6
  -4  -1  -6 2935.67 174.246   2
  -4  -1  -6 3069.17 149.283   5
  -4  -1  -6 2951.49 149.126   9
  -4  -1  -6 2891.96 182.253   8
  -4  -1  -6 2972.84 182.343   7
  -4  -1  -6 2815.00 178.805  10
  -4  -1  -6 2838.42 156.893   3
  -4  -1  -6 2948.26 181.995   6
  -4  -1  -6 2967.32 161.209   4
  -4  -1  -5 1752.15 102.516   3
  -4  -1  -5 1573.35 117.442   8
  -4  -1  -5 1884.02 97.6739   9
  -4  -1  -5 1737.88 113.990   2
  -4  -1  -5 1640.86 117.609   7
  -4  -1  -5 1683.67 117.474  10
  -4  -1  -5 1842.90 95.5606   5
  -4  -1  -5 1831.63 105.899   4
  -4  -1  -5 1333.04 111.317   6
  -4  -1  -4 289.343 38.3643  10
  -4  -1  -4 307.668 36.8424   2
  -4  -1  -4 311.517 32.2750  12
  -4  -1  -4 324.312 41.0356   7
  -4  -1  -4 366.228 31.8413   9
  -4  -1  -4 323.419 32.7964   3
  -4  -1  -4 355.360 29.8637   5
  -4  -1  -4 318.573 33.8573   4
  -4  -1  -3 721.476 54.0351   3
  -4  -1  -3 654.797 55.3678   2
  -4  -1  -3 724.053 49.5235   5
  -4  -1  -3 681.360 50.6127   9
  -4  -1  -3 672.657 52.3487  12
  -4  -1  -3 649.901 58.3639   7
  -4  -1  -3 699.508 59.1954  10
  -4  -1  -2 141.221 23.7342  10
  -4  -1  -2 204.722 24.5011   5
  -4  -1  -2 203.635 24.9148   9
  -4  -1  -2 200.190 26.0209   3
  -4  -1  -2 156.812 23.0659  12
  -4  -1  -1 1806.49 106.946   9
  -4  -1  -1 1664.65 108.486   8
  -4  -1  -1 1792.44 111.039  10
  -4  -1  -1 1887.57 107.288  12
  -4  -1  -1 1622.32 106.956   6
  -4  -1  -1 1742.51 104.779   5
  -4  -1   0 5017.10 234.480   2
  -4  -1   0 4103.76 230.575   8
  -4  -1   0 4391.55 228.456   1
  -4  -1   0 4180.89 230.498   9
  -4  -1   0 4832.66 234.026   5
  -4  -1   0 4286.98 231.640   6
  -4  -1   0 4271.56 233.468   7
  -4  -1   1 5084.14 265.214   8
  -4  -1   1 4915.54 266.520   7
  -4  -1   1 4898.75 263.262  12
  -4  -1   1 5071.45 258.362   1
  -4  -1   1 5595.21 269.182   2
  -4  -1   1 5477.24 269.332   5
  -4  -1   1 4799.98 264.136   6
  -4  -1   2 1278.17 90.0536   8
  -4  -1   2 1266.34 82.5988   1
  -4  -1   2 1247.61 91.7837   9
  -4  -1   2 1141.83 91.2189  11
  -4  -1   2 1283.55 92.7104   7
  -4  -1   2 1338.94 94.1532   2
  -4  -1   2 1356.13 90.1689  12
  -4  -1   2 1227.44 90.3924   6
  -4  -1   3 333.420 42.5044   6
  -4  -1   3 310.155 42.4139   7
  -4  -1   3 341.673 43.3490   9
  -4  -1   3 321.910 40.8749   8
  -4  -1   3 266.594 41.4285  11
  -4  -1   3 367.371 46.7347   5
  -4  -1   3 307.466 43.3270   2
  -4  -1   3 372.855 41.2346  12
  -4  -1   3 275.528 32.6193   1
  -4  -1   4 2219.48 152.176   9
  -4  -1   4 2546.37 139.262   1
  -4  -1   4 2418.57 151.999   8
  -4  -1   4 2306.66 153.707   7
  -4  -1   4 2395.32 155.647   6
  -4  -1   4 2276.41 156.693   5
  -4  -1   4 2273.87 156.696  11
  -4  -1   5 66.8320 24.3338   8
  -4  -1   5 141.109 24.1228   1
  -4  -1   5 85.3017 29.3634   5
  -4  -1   5 130.956 32.5033   6
  -4  -1   5 70.5390 27.9861  10
  -4  -1   5 94.0104 29.5061  11
  -4  -1   6 102.832 35.3200   2
  -4  -1   6 104.814 23.2194   1
  -4  -1   6 64.6058 28.6409  11
  -4  -1   6 169.028 36.3285   8
  -4  -1   6 104.080 34.1078  10
  -4  -1   6 117.347 33.4534   6
  -4  -1   6 103.447 32.4552   5
  -4  -1   7 202.395 47.8484   2
  -4  -1   7 154.633 41.5726  11
  -4  -1   7 236.581 46.2371   8
  -4  -1   7 232.510 50.4201   7
  -4  -1   7 188.353 46.9653  10
  -4  -1   7 271.494 51.9199   5
  -4  -1   7 200.366 46.1918   6
  -4  -1   8 95.5480 34.4841   8
  -4   0 -10 64.0189 26.3381  10
  -4   0 -10 152.831 38.9947   7
  -4   0  -9 415.174 52.8662  11
  -4   0  -9 288.868 51.1471   7
  -4   0  -9 472.085 60.7777  10
  -4   0  -9 429.414 51.6712   2
  -4   0  -8 80.6855 26.6528  10
  -4   0  -8 147.698 30.4132  11
  -4   0  -8 117.600 30.4917   7
  -4   0  -8 98.5302 25.4908   2
  -4   0  -7-4.89624 14.0751  10
  -4   0  -7 15.3254 17.2169   7
  -4   0  -7 30.0247 15.7258   2
  -4   0  -7 5.28275 14.2052   6
  -4   0  -6 696.717 65.3486  10
  -4   0  -6 675.253 58.7517   2
  -4   0  -6 601.952 63.2542   7
  -4   0  -6 631.589 65.6768   8
  -4   0  -6 643.639 65.4804   6
  -4   0  -5 3054.78 169.655   2
  -4   0  -5 3144.85 182.901   6
  -4   0  -5 2966.95 155.397   9
  -4   0  -5 3048.43 177.489  10
  -4   0  -5 3014.48 179.478   7
  -4   0  -5 3178.06 183.982   8
  -4   0  -5 2998.67 146.982   5
  -4   0  -4 4319.04 231.455   6
  -4   0  -4 4005.07 217.920   2
  -4   0  -4 4093.72 228.018   7
  -4   0  -4 4305.45 227.429  10
  -4   0  -4 4438.39 233.476   8
  -4   0  -4 4244.91 204.035   5
  -4   0  -4 3994.33 211.081   9
  -4   0  -3 513.822 50.6736   8
  -4   0  -3 537.234 50.8674   6
  -4   0  -3 514.569 38.2357   5
  -4   0  -3 442.811 40.2935   9
  -4   0  -3 505.682 48.8651   7
  -4   0  -3 436.552 44.7150  10
  -4   0  -2 829.142 63.8366   7
  -4   0  -2 757.141 59.7734  10
  -4   0  -2 661.483 52.6392   5
  -4   0  -2 764.991 57.4493   9
  -4   0  -1 1878.31 117.351   9
  -4   0  -1 1918.87 114.177   5
  -4   0  -1 1895.86 119.837   1
  -4   0  -1 1989.58 113.544   2
  -4   0  -1 2013.46 121.314   7
  -4   0   0 1585.23 113.045   8
  -4   0   0 2026.06 117.445   5
  -4   0   0 1935.87 113.234   2
  -4   0   0 1772.35 114.069   1
  -4   0   0 1876.25 117.760   9
  -4   0   0 1915.17 118.780  11
  -4   0   1 9540.35 460.789   1
  -4   0   1 9062.35 463.916   8
  -4   0   1 10122.2 465.223   2
  -4   0   1 10371.2 472.364  11
  -4   0   1 9771.71 468.054   5
  -4   0   2 5224.41 273.286   5
  -4   0   2 4956.51 267.791   8
  -4   0   2 5503.61 272.931   2
  -4   0   2 4857.64 268.301   6
  -4   0   2 4979.69 261.038   1
  -4   0   2 4716.83 268.058   7
  -4   0   2 4728.00 268.692   9
  -4   0   3 1181.38 91.5711   2
  -4   0   3 854.538 79.6932   8
  -4   0   3 1128.17 90.7327  10
  -4   0   3 1008.13 85.1025   6
  -4   0   3 953.265 84.0380   7
  -4   0   3 1038.99 77.9315   1
  -4   0   4 2209.14 146.522  10
  -4   0   4 1981.02 139.276   7
  -4   0   4 2408.14 150.203   2
  -4   0   4 1664.98 136.637  11
  -4   0   4 1980.11 126.634   1
  -4   0   4 1912.85 138.030   6
  -4   0   4 1924.02 142.328   5
  -4   0   4 1869.46 134.778   8
  -4   0   5-5.73421 16.4761   8
  -4   0   5 13.3462 17.9354   2
  -4   0   5-6.66978 19.1641   5
  -4   0   5 6.13498 16.4892   6
  -4   0   5 24.8776 14.5912   1
  -4   0   5-6.67534 16.6106  10
  -4   0   5 47.5329 22.8781  11
  -4   0   6 45.1522 23.6482   8
  -4   0   6 7.54716 17.1751   5
  -4   0   6 15.4418 19.2401  11
  -4   0   6 36.0684 17.7688   1
  -4   0   6 20.9022 21.2588   6
  -4   0   7 42.1623 24.3967   5
  -4   0   7 77.9389 23.9033   1
  -4   0   7 50.5638 27.6042   8
  -4   0   7 70.8486 30.0575   6
  -4   0   7 86.9743 34.3377  11
  -4   1 -10 99.4097 31.2423   7
  -4   1  -9-5.43366 17.4548  10
  -4   1  -9 5.77837 15.5303   7
  -4   1  -8 211.371 30.7570   2
  -4   1  -8 168.266 30.8359  11
  -4   1  -8 196.078 38.2628   7
  -4   1  -8 183.648 35.2481  10
  -4   1  -7 144.125 29.6448  10
  -4   1  -7 92.5642 27.0203   8
  -4   1  -7 97.2536 27.4334   7
  -4   1  -7 91.6571 19.8265   2
  -4   1  -7 99.3773 27.9785   6
  -4   1  -7 96.3576 23.3452  11
  -4   1  -6 432.815 49.2475  10
  -4   1  -6 385.868 50.8480   8
  -4   1  -6 492.656 42.6520   2
  -4   1  -6 426.619 50.8144   7
  -4   1  -6 344.972 47.4965   6
  -4   1  -5 2261.86 148.188   6
  -4   1  -5 2408.06 131.637   2
  -4   1  -5 2167.32 143.611   7
  -4   1  -5 2463.03 144.214  10
  -4   1  -5 2342.85 149.588   8
  -4   1  -4 2344.13 127.011   2
  -4   1  -4 2354.07 140.774   7
  -4   1  -4 2130.67 140.060   6
  -4   1  -4 2220.42 142.199   8
  -4   1  -4 2262.82 135.943  10
  -4   1  -4 2254.85 118.159   5
  -4   1  -3 1191.53 89.0226   8
  -4   1  -3 1131.53 87.2604   6
  -4   1  -3 1273.82 88.4729   7
  -4   1  -3 1253.61 76.8573   2
  -4   1  -3 1250.08 83.6397  10
  -4   1  -3 1180.14 74.4688   5
  -4   1  -2 1314.15 87.7339  10
  -4   1  -2 1315.02 93.9087   8
  -4   1  -2 1341.96 94.1653   6
  -4   1  -2 1269.85 90.8526   7
  -4   1  -2 1438.33 81.8458   2
  -4   1  -2 1276.53 83.9387   5
  -4   1  -1 599.258 57.0640   1
  -4   1  -1 584.593 55.7298   8
  -4   1  -1 560.067 51.5944   5
  -4   1  -1 567.145 54.1823   7
  -4   1  -1 663.530 57.6644   6
  -4   1  -1 654.173 56.0263  11
  -4   1  -1 572.378 46.9616   2
  -4   1   0 3129.12 186.799   1
  -4   1   0 3133.43 185.681   5
  -4   1   0 3537.97 191.578  11
  -4   1   0 3342.53 189.034   7
  -4   1   0 3318.80 181.110   2
  -4   1   0 3472.47 190.628   6
  -4   1   1 4104.94 232.495   5
  -4   1   1 4116.72 231.632   7
  -4   1   1 4144.29 229.144   1
  -4   1   1 4093.29 226.410   2
  -4   1   1 4467.01 236.788  11
  -4   1   2 5567.50 278.318  10
  -4   1   2 5363.70 281.123  11
  -4   1   2 5365.36 274.495   2
  -4   1   2 5488.17 282.143   5
  -4   1   2 5044.94 268.919   1
  -4   1   2 4739.68 271.204   8
  -4   1   3 984.955 85.4548  10
  -4   1   3 1020.01 85.8171   2
  -4   1   3 897.537 81.7569   8
  -4   1   3 814.392 83.0735   5
  -4   1   3 1037.37 90.6906  11
  -4   1   3 839.901 75.2936   1
  -4   1   4 90.7018 29.6170  10
  -4   1   4 103.220 30.9908   2
  -4   1   4 50.6684 23.0797   8
  -4   1   4 70.1079 25.3647   7
  -4   1   4 64.8060 22.2671   1
  -4   1   4 52.0275 24.4050   6
  -4   1   5 170.130 41.0383   2
  -4   1   5 124.465 38.2037   5
  -4   1   5 226.467 44.6764   8
  -4   1   5 222.756 45.0065   6
  -4   1   5 239.960 40.2991   1
  -4   1   5 203.348 44.2033  10
  -4   1   6 124.703 37.5262  11
  -4   1   6 168.530 41.0046   8
  -4   1   6 147.628 41.4608   2
  -4   1   6 167.471 35.8871   1
  -4   1   6 154.971 43.0278   6
  -4   1   6 193.706 47.6594  10
  -4   1   6 197.440 47.0965   5
  -4   1   7 343.486 52.5139   1
  -4   2  -8 308.377 47.7463   6
  -4   2  -8 170.461 35.3200   7
  -4   2  -8 247.948 37.8683  10
  -4   2  -7 340.813 42.4880  10
  -4   2  -7 235.390 42.3561   6
  -4   2  -7 290.207 26.5450   2
  -4   2  -7 295.007 45.3140   8
  -4   2  -7 306.849 44.1217   7
  -4   2  -7 351.534 38.1761  11
  -4   2  -6 1137.70 86.2457  10
  -4   2  -6 1053.60 91.8970   8
  -4   2  -6 1277.51 68.1507   2
  -4   2  -6 1076.63 89.9562   7
  -4   2  -6 1265.40 98.2547   6
  -4   2  -5 528.290 57.5248   8
  -4   2  -5 516.392 34.5586   2
  -4   2  -5 506.880 49.4190  10
  -4   2  -5 477.800 53.9166   6
  -4   2  -5 470.222 51.6088   7
  -4   2  -4 353.311 28.4640   2
  -4   2  -4 328.954 44.3241   8
  -4   2  -4 341.200 45.0983   6
  -4   2  -4 336.709 41.9970   7
  -4   2  -4 410.048 27.0012   2
  -4   2  -4 367.005 39.4946  10
  -4   2  -3 1943.90 124.542   6
  -4   2  -3 1832.57 97.8358   2
  -4   2  -3 1736.27 123.543   1
  -4   2  -3 1873.60 101.498   2
  -4   2  -3 1893.08 113.290  10
  -4   2  -3 1878.41 123.712   8
  -4   2  -3 1772.92 118.135   7
  -4   2  -3 1931.02 113.573  11
  -4   2  -2 420.600 49.1896   1
  -4   2  -2 332.117 42.5603   6
  -4   2  -2 320.929 29.5978   2
  -4   2  -2 364.156 38.7180   5
  -4   2  -2 376.910 43.2790   7
  -4   2  -2 373.655 44.6242   8
  -4   2  -2 287.355 34.0921  10
  -4   2  -2 411.567 41.0402  11
  -4   2  -1 939.158 74.7722   5
  -4   2  -1 876.033 74.2852   7
  -4   2  -1 992.416 66.3738   2
  -4   2  -1 1018.26 80.0100   8
  -4   2  -1 1000.40 76.4170  11
  -4   2  -1 952.858 77.7836   6
  -4   2   0 20.6210 13.9320   5
  -4   2   0 16.4423 13.8862  11
  -4   2   0 23.8078 12.5058   2
  -4   2   0 16.3151 13.1417   7
  -4   2   0 30.0555 16.3512   8
  -4   2   0 30.7277 16.1097   1
  -4   2   0 25.1107 15.9395   6
  -4   2   1 1714.01 122.196   8
  -4   2   1 1882.47 127.495   5
  -4   2   1 1814.93 123.097   6
  -4   2   1 1835.54 119.688  10
  -4   2   1 1455.95 116.348   1
  -4   2   1 1796.34 124.317  11
  -4   2   1 1768.62 122.176   7
  -4   2   1 1877.00 117.382   2
  -4   2   2 2277.35 142.592  10
  -4   2   2 2230.53 140.634   2
  -4   2   2 2066.61 141.547   7
  -4   2   2 1889.24 136.784   1
  -4   2   2 1961.49 143.370   5
  -4   2   2 2155.87 142.774   6
  -4   2   2 2032.09 143.770  11
  -4   2   3 1188.83 102.596   5
  -4   2   3 1063.23 93.9906   6
  -4   2   3 1232.08 103.737  11
  -4   2   3 944.046 87.8804   1
  -4   2   3 1028.08 93.5781   7
  -4   2   3 1079.32 94.0303   2
  -4   2   3 1185.99 97.6255  10
  -4   2   4 480.153 61.3891   8
  -4   2   4 509.745 64.9695  10
  -4   2   4 443.407 55.5178   1
  -4   2   4 424.078 63.0489  11
  -4   2   4 456.521 59.9599   7
  -4   2   4 357.891 55.7334   2
  -4   2   4 332.098 58.8036   5
  -4   2   5 156.816 41.8604   2
  -4   2   5 133.459 34.2431   1
  -4   2   5 109.299 32.9458   8
  -4   2   5 88.0814 32.8994  10
  -4   2   5 96.1050 33.9295  11
  -4   2   6 25.7415 26.1755   2
  -4   2   6 50.4414 31.9753  10
  -4   2   6 18.7424 17.9889   1
  -4   2   7 80.4603 29.1237   1
  -4   3  -8 83.6539 28.5756   6
  -4   3  -7 411.496 54.2528   8
  -4   3  -7 462.375 53.1052   7
  -4   3  -7 485.159 59.0245   6
  -4   3  -6 775.913 74.3847   8
  -4   3  -6 803.084 76.1516   6
  -4   3  -6 754.234 70.1409   7
  -4   3  -6 799.927 61.9142  10
  -4   3  -6 839.976 54.7898  11
  -4   3  -5 297.465 29.7634  11
  -4   3  -5 357.883 43.0121   7
  -4   3  -5 281.145 42.8912   6
  -4   3  -5 296.558 33.5595  10
  -4   3  -5 290.966 42.5975   8
  -4   3  -4 240.652 27.9022  11
  -4   3  -4 186.403 33.6983   8
  -4   3  -4 228.057 34.0211   7
  -4   3  -4 234.221 28.9354  10
  -4   3  -4 196.052 35.5910   6
  -4   3  -3 334.344 44.3126   8
  -4   3  -3 391.176 49.7716   1
  -4   3  -3 349.082 42.2814   7
  -4   3  -3 355.070 44.8563   6
  -4   3  -3 328.098 34.7855  10
  -4   3  -3 309.451 35.4771  11
  -4   3  -2 264.820 39.9135   8
  -4   3  -2 248.624 23.4758   2
  -4   3  -2 276.123 34.5072  11
  -4   3  -2 242.414 35.7818   7
  -4   3  -2 276.733 41.1232   1
  -4   3  -2 272.391 30.9129  10
  -4   3  -2 232.848 37.1699   6
  -4   3  -1 1171.82 93.1979   8
  -4   3  -1 1179.03 90.1505   7
  -4   3  -1 1182.66 76.1918   2
  -4   3  -1 1143.81 80.8325  10
  -4   3  -1 1256.93 94.4654   6
  -4   3  -1 1214.55 96.6268   1
  -4   3  -1 1305.05 90.8758  11
  -4   3   0 148.257 24.8034   2
  -4   3   0 168.916 28.4376  10
  -4   3   0 180.439 34.4741   8
  -4   3   0 109.870 26.9452   7
  -4   3   0 168.634 31.6786  11
  -4   3   0 174.709 32.7656   6
  -4   3   1 1610.77 126.222   1
  -4   3   1 2048.55 135.381  11
  -4   3   1 2010.43 125.024  10
  -4   3   1 1777.76 127.572   7
  -4   3   1 1828.10 120.510   2
  -4   3   1 1769.98 128.306   6
  -4   3   1 1934.79 132.692   8
  -4   3   2 1356.64 103.561   7
  -4   3   2 1208.29 100.636   8
  -4   3   2 1057.92 96.0320   1
  -4   3   2 1190.63 99.6563   6
  -4   3   2 1165.00 102.097  11
  -4   3   2 1141.25 93.3471   2
  -4   3   2 1111.17 93.0044  10
  -4   3   3 459.260 64.5922  11
  -4   3   3 501.081 60.7611   2
  -4   3   3 418.079 58.6109   7
  -4   3   3 502.920 63.3638   8
  -4   3   3 476.418 59.5037  10
  -4   3   3 423.337 58.3388   1
  -4   3   3 547.347 64.3637   6
  -4   3   4 79.5325 28.4837  10
  -4   3   4 146.597 38.2246   2
  -4   3   4 283.064 53.0936  11
  -4   3   4 217.206 43.7990   6
  -4   3   4 199.331 43.1623   7
  -4   3   4 98.6949 31.3539   1
  -4   3   5 178.211 41.5461   1
  -4   3   5 160.498 42.5524  10
  -4   3   5 146.232 42.6480  11
  -4   3   5 232.565 49.1857   2
  -4   4  -7 191.341 38.3870   6
  -4   4  -6 35.5811 20.1408   6
  -4   4  -6 84.4180 26.7994   8
  -4   4  -5 137.085 31.4868   6
  -4   4  -5 236.132 38.6019   8
  -4   4  -5 230.208 34.8453   7
  -4   4  -4 170.877 22.3524  11
  -4   4  -4 151.083 31.6010   8
  -4   4  -4 170.361 34.1283   6
  -4   4  -4 163.945 30.0762   7
  -4   4  -3 54.0009 12.7650  10
  -4   4  -3 48.9058 11.4514  10
  -4   4  -3 50.7357 15.7675  11
  -4   4  -3 56.0141 20.8085   6
  -4   4  -3 58.8157 20.0607   7
  -4   4  -3 56.2701 20.9024   8
  -4   4  -3 64.9264 25.3015   1
  -4   4  -2 496.713 50.3397  11
  -4   4  -2 516.033 42.6338  10
  -4   4  -2 530.382 55.9910   7
  -4   4  -2 656.093 47.9598  10
  -4   4  -2 575.899 65.8027   1
  -4   4  -2 666.763 64.7582   6
  -4   4  -2 564.583 60.9134   8
  -4   4  -1 142.988 29.6126   7
  -4   4  -1 171.145 36.5151   1
  -4   4  -1 146.107 23.5284  10
  -4   4  -1 157.215 32.6349   8
  -4   4  -1 156.276 23.2565  10
  -4   4  -1 151.309 28.5095  11
  -4   4  -1 145.042 20.7704   2
  -4   4  -1 115.082 28.3387   6
  -4   4   0 812.317 73.0275  11
  -4   4   0 643.473 73.5334   1
  -4   4   0 703.187 71.6463   6
  -4   4   0 682.931 58.3473   2
  -4   4   0 719.432 70.7305   7
  -4   4   0 863.300 65.0093  10
  -4   4   0 803.574 77.3613   8
  -4   4   1 274.468 38.7114  10
  -4   4   1 332.022 48.4517   6
  -4   4   1 329.179 48.9135  11
  -4   4   1 330.083 49.8044   8
  -4   4   1 278.954 44.4656   7
  -4   4   2 68.4133 28.3517   1
  -4   4   2 42.2933 23.8864   8
  -4   4   2 77.3143 24.6553   2
  -4   4   2 18.9067 21.3626  11
  -4   4   2 43.6428 19.8434  10
  -4   4   2 68.5369 26.6908   7
  -4   4   2 75.2765 28.9121   6
  -4   4   3 18.9802 21.3173   6
  -4   4   3 32.7486 23.0498   1
  -4   4   3 34.5624 21.8964  10
  -4   4   3-6.56688 20.0145   8
  -4   4   3 12.6697 18.2034   7
  -4   4   3 11.5862 14.4175   2
  -4   4   3-7.20332 24.2705  11
  -4   4   4 616.277 75.7149   2
  -4   4   4 606.713 74.3899  10
  -4   4   4 668.090 85.4686  11
  -4   4   5 139.801 39.9480  10
  -4   5  -4 291.598 47.8713   8
  -4   5  -4 345.028 48.7074   6
  -4   5  -3 603.868 60.2944   7
  -4   5  -3 653.663 68.4149   8
  -4   5  -3 640.240 67.5013   6
  -4   5  -3 700.039 75.5979   1
  -4   5  -2 320.519 46.8039   8
  -4   5  -2 296.583 49.5569   1
  -4   5  -2 228.509 40.8231   6
  -4   5  -2 262.733 39.5779   7
  -4   5  -1 286.646 44.6746   6
  -4   5  -1 311.072 48.3646   8
  -4   5  -1 383.387 55.1627   1
  -4   5  -1 317.142 45.0905   7
  -4   5  -1 305.065 41.4903  11
  -4   5   0 43.8468 20.5359  11
  -4   5   0 44.8892 23.3332   7
  -4   5   0 68.1029 25.8858   8
  -4   5   0 54.4522 24.2216   6
  -4   5   0 51.0464 26.0302   1
  -4   5   1 5.77510 19.4571   6
  -4   5   1 6.07361 17.4508   8
  -4   5   1-5.47421 20.0501   7
  -4   5   1-5.71574 15.3620  11
  -4   5   2 1049.19 105.209  11
  -4   5   2 1325.74 109.940   7
  -4   5   2 1441.58 114.717   6
  -4   5   3 512.038 70.9756  11
  -4   6  -1 953.158 90.8740   8
  -4   6   0 805.514 82.8997   6
  -3  -9  -5 416.804 65.9450  11
  -3  -9  -4 213.255 45.3335  11
  -3  -9  -4 236.762 49.4905   2
  -3  -9  -3 606.388 75.3103   2
  -3  -9  -2 103.786 36.6924   4
  -3  -9  -2 142.027 35.7507   2
  -3  -9  -1 99.6452 37.1395   5
  -3  -9  -1 135.741 40.1485   4
  -3  -9   0-8.35113 22.4470   3
  -3  -9   0 15.7373 23.9818   5
  -3  -9   0 43.2015 35.1096   9
  -3  -9   0 6.96532 21.2291   4
  -3  -9   1-8.07949 23.2169   3
  -3  -9   1 7.25584 22.1152   5
  -3  -9   1-6.18779 21.7776   4
  -3  -9   1-16.3938 30.0244   9
  -3  -9   2 231.305 48.7190   5
  -3  -9   2 255.843 52.9891   9
  -3  -9   2 244.862 52.7125   3
  -3  -8  -7 308.724 55.3252  12
  -3  -8  -6 66.7454 29.8066  12
  -3  -8  -6 95.2356 32.6421  10
  -3  -8  -6 141.204 41.5165  11
  -3  -8  -6 66.6285 31.8917   2
  -3  -8  -5 191.229 44.8948   4
  -3  -8  -5 153.790 41.9356   3
  -3  -8  -5 113.397 35.8975  11
  -3  -8  -5 162.337 37.3241  10
  -3  -8  -5 191.242 48.3025   9
  -3  -8  -5 153.218 39.3917  12
  -3  -8  -5 163.971 41.8186   2
  -3  -8  -4 483.664 59.7642  10
  -3  -8  -4 620.542 77.3194  12
  -3  -8  -4 534.224 74.3912   3
  -3  -8  -4 535.616 74.1576   4
  -3  -8  -4 538.581 76.3416   9
  -3  -8  -4 597.531 76.2305   2
  -3  -8  -4 561.209 70.6622  11
  -3  -8  -3 305.063 52.8804   2
  -3  -8  -3 362.606 58.8692  12
  -3  -8  -3 320.628 55.6072   4
  -3  -8  -3 279.913 46.9158  11
  -3  -8  -3 286.056 42.1355  10
  -3  -8  -2 33.1396 15.4915  10
  -3  -8  -2 47.0941 27.6588   9
  -3  -8  -2 15.3545 15.6658  11
  -3  -8  -2 27.6240 22.2325   4
  -3  -8  -2 37.9098 22.2816   2
  -3  -8  -2 45.3594 26.6429  12
  -3  -8  -2 52.1707 26.2671   3
  -3  -8  -1 144.675 30.2812  11
  -3  -8  -1 162.096 38.5884   4
  -3  -8  -1 169.403 25.8843  10
  -3  -8  -1 176.693 42.5448   5
  -3  -8  -1 197.075 46.3312   3
  -3  -8  -1 221.729 41.3369   2
  -3  -8  -1 137.758 38.8338   9
  -3  -8   0 120.109 34.7787   5
  -3  -8   0 91.6563 27.1087   2
  -3  -8   0 102.963 35.2546   9
  -3  -8   0 77.4590 35.4010  12
  -3  -8   0 92.2477 33.2583   3
  -3  -8   0 99.7061 17.2326  10
  -3  -8   0 59.5217 25.9427   4
  -3  -8   0 66.4702 18.5881  11
  -3  -8   1 61.8363 30.9209   5
  -3  -8   1 63.5572 25.4158   4
  -3  -8   1 70.1010 31.7929  12
  -3  -8   1 88.8501 32.7044   3
  -3  -8   1 59.7215 22.2428   2
  -3  -8   1 69.2524 29.9988   9
  -3  -8   2 264.174 50.4101   3
  -3  -8   2 298.948 51.8530   9
  -3  -8   2 260.347 44.6448   5
  -3  -8   2 218.271 33.1862   2
  -3  -8   2 304.469 44.8190   2
  -3  -8   2 270.173 41.2406   4
  -3  -8   2 302.670 57.0059  12
  -3  -8   3 219.122 42.6998   3
  -3  -8   3 155.753 34.2174   5
  -3  -8   3 297.968 55.1143  12
  -3  -8   3 218.879 42.8031   9
  -3  -8   4 30.5905 22.0246   9
  -3  -8   4 37.0242 24.9931  12
  -3  -8   5 56.3684 28.7427  12
  -3  -7  -8 808.952 87.5574   3
  -3  -7  -7 546.466 72.4560   3
  -3  -7  -7 644.818 84.6390   5
  -3  -7  -7 715.912 85.3347   9
  -3  -7  -7 608.391 83.9760  11
  -3  -7  -7 667.881 84.8842   2
  -3  -7  -7 662.879 81.0144  10
  -3  -7  -7 677.862 71.1782  12
  -3  -7  -6 491.531 70.4840   2
  -3  -7  -6 510.481 67.7570   3
  -3  -7  -6 482.348 70.4540   9
  -3  -7  -6 491.897 61.1549  12
  -3  -7  -6 526.497 73.2633  11
  -3  -7  -6 587.124 73.0671   4
  -3  -7  -6 486.405 65.5156  10
  -3  -7  -5 683.607 74.7841  12
  -3  -7  -5 693.972 80.5494   9
  -3  -7  -5 836.024 84.5158   3
  -3  -7  -5 603.779 76.1978   2
  -3  -7  -5 593.490 70.2515  10
  -3  -7  -5 536.677 72.3428  11
  -3  -7  -4 1402.57 115.231   3
  -3  -7  -4 1182.10 100.506  10
  -3  -7  -4 1226.62 110.113   4
  -3  -7  -4 1109.18 104.853  11
  -3  -7  -4 1238.81 113.361   9
  -3  -7  -4 1377.80 112.216  12
  -3  -7  -4 1180.51 108.804   2
  -3  -7  -3 636.791 64.3777  10
  -3  -7  -3 465.728 61.2985  11
  -3  -7  -3 613.175 72.2702   2
  -3  -7  -3 555.757 68.0543   4
  -3  -7  -2 1393.21 116.595   9
  -3  -7  -2 1233.97 93.9695  10
  -3  -7  -2 1377.87 110.924   4
  -3  -7  -2 1280.19 111.025   3
  -3  -7  -2 1477.20 118.303  12
  -3  -7  -2 1368.53 103.835  11
  -3  -7  -2 1084.88 102.615   2
  -3  -7  -1 444.121 59.4375   5
  -3  -7  -1 377.739 53.4193   2
  -3  -7  -1 385.467 42.7504  10
  -3  -7  -1 458.738 59.2809   3
  -3  -7  -1 352.401 57.9344   9
  -3  -7  -1 542.632 61.5609   4
  -3  -7  -1 403.082 47.7177  11
  -3  -7   0 1356.59 113.837   9
  -3  -7   0 1336.77 92.7422  11
  -3  -7   0 1348.18 105.268   2
  -3  -7   0 1344.25 105.234   4
  -3  -7   0 1336.88 114.626  12
  -3  -7   0 1296.19 88.1102  10
  -3  -7   0 1378.91 111.961   5
  -3  -7   0 1338.48 111.293   3
  -3  -7   1 795.504 77.7566   5
  -3  -7   1 825.470 82.2467   9
  -3  -7   1 753.383 59.8359  11
  -3  -7   1 764.701 59.1777  10
  -3  -7   1 893.954 78.0960   2
  -3  -7   1 819.046 73.0098   4
  -3  -7   1 921.453 91.0164  12
  -3  -7   1 865.513 82.5429   3
  -3  -7   2 175.050 30.0883   4
  -3  -7   2 196.509 34.5922   2
  -3  -7   2 173.448 34.0042   5
  -3  -7   2 127.454 31.8557   9
  -3  -7   2 154.076 19.0750  11
  -3  -7   2 206.539 43.1266  12
  -3  -7   2 126.788 19.3640  11
  -3  -7   2 198.664 31.2173   2
  -3  -7   2 153.764 22.6045  10
  -3  -7   2 201.947 38.5029   3
  -3  -7   2 206.572 26.4045  10
  -3  -7   3 883.296 66.4271   4
  -3  -7   3 893.220 81.3135   9
  -3  -7   3 880.274 64.8570  10
  -3  -7   3 966.000 92.8261  12
  -3  -7   3 895.495 72.1811   2
  -3  -7   3 847.249 63.3746  10
  -3  -7   3 1001.30 82.2046   5
  -3  -7   3 991.683 84.8050   3
  -3  -7   4 42.4243 19.3167   3
  -3  -7   4 30.1695 18.6202   5
  -3  -7   4 17.4300 16.6132   9
  -3  -7   4 18.5066 22.6315  12
  -3  -7   4 36.4202 18.8825   2
  -3  -7   5 411.304 57.2345  12
  -3  -7   5 316.727 42.7809   5
  -3  -6  -9-24.6167 27.2725   9
  -3  -6  -8 284.258 54.6367   2
  -3  -6  -8 288.073 54.4903  10
  -3  -6  -8 278.461 52.7700   5
  -3  -6  -8 278.142 49.4052   9
  -3  -6  -8 272.099 47.0157   3
  -3  -6  -8 196.198 48.2899  11
  -3  -6  -8 364.370 56.8686   4
  -3  -6  -7 866.107 88.0370   9
  -3  -6  -7 777.306 87.6026  10
  -3  -6  -7 881.951 91.6969   5
  -3  -6  -7 737.277 87.5377   2
  -3  -6  -7 991.317 86.8217   3
  -3  -6  -7 875.148 88.0679   4
  -3  -6  -7 929.414 75.9732  12
  -3  -6  -7 736.232 89.8791  11
  -3  -6  -6 1062.96 96.7178   9
  -3  -6  -6 1034.30 95.9674   4
  -3  -6  -6 966.642 97.6620   2
  -3  -6  -6 1113.94 94.7365   3
  -3  -6  -6 1009.19 101.052  11
  -3  -6  -6 739.823 87.0145  10
  -3  -6  -6 1149.22 88.0770  12
  -3  -6  -5 1434.75 117.402  10
  -3  -6  -5 1299.66 118.670  11
  -3  -6  -5 1597.46 123.465   9
  -3  -6  -5 1761.36 123.709   3
  -3  -6  -5 1235.27 115.842   2
  -3  -6  -5 1585.58 114.015  12
  -3  -6  -5 1850.19 128.234   4
  -3  -6  -4 337.271 48.4906  10
  -3  -6  -4 489.005 58.2442   3
  -3  -6  -4 389.081 55.4000   2
  -3  -6  -4 446.245 58.6723   9
  -3  -6  -4 349.617 52.4492  11
  -3  -6  -4 422.661 52.0575  12
  -3  -6  -3 2228.36 147.532   9
  -3  -6  -3 1845.91 130.052  10
  -3  -6  -3 1863.87 135.507   4
  -3  -6  -3 2151.73 142.655   3
  -3  -6  -3 2046.24 139.185  12
  -3  -6  -3 1949.38 140.255   2
  -3  -6  -3 1749.81 132.792  11
  -3  -6  -2 1535.20 118.653  11
  -3  -6  -2 1826.05 127.109   4
  -3  -6  -2 1785.08 118.999  10
  -3  -6  -2 1915.54 131.684  12
  -3  -6  -2 1909.96 131.270   2
  -3  -6  -1 394.203 53.5475   9
  -3  -6  -1 412.392 51.6889   2
  -3  -6  -1 437.836 53.5506   3
  -3  -6  -1 415.267 50.2897   4
  -3  -6  -1 450.530 54.3788   5
  -3  -6  -1 416.328 44.7538  10
  -3  -6   0 1329.13 102.836   5
  -3  -6   0 1416.29 106.676   3
  -3  -6   0 1230.54 99.8066   2
  -3  -6   0 1518.43 102.455   4
  -3  -6   0 1370.83 92.2684  10
  -3  -6   0 1417.47 108.594   9
  -3  -6   0 1226.89 104.626  12
  -3  -6   1 3291.78 200.650   9
  -3  -6   1 3242.29 182.157  10
  -3  -6   1 3531.34 209.175  12
  -3  -6   1 3459.73 201.770   3
  -3  -6   1 3356.01 189.674   4
  -3  -6   1 3451.72 198.798   5
  -3  -6   2 590.965 66.5438  12
  -3  -6   2 646.079 63.8282   9
  -3  -6   2 587.320 51.2469  10
  -3  -6   2 643.073 53.3189   4
  -3  -6   2 675.781 63.7039   3
  -3  -6   2 650.838 61.5932   5
  -3  -6   2 548.321 44.9786  11
  -3  -6   3 1561.37 108.177   5
  -3  -6   3 1534.43 108.505   9
  -3  -6   3 1572.86 119.496  12
  -3  -6   3 1623.20 103.045  10
  -3  -6   3 1540.58 107.953   3
  -3  -6   3 1489.06 102.819   2
  -3  -6   3 1513.58 100.289  10
  -3  -6   3 1602.36 94.2234   4
  -3  -6   3 1567.03 91.0090  11
  -3  -6   4 450.182 49.3992   5
  -3  -6   4 415.006 44.1962   3
  -3  -6   4 383.649 45.3575   9
  -3  -6   4 350.171 50.9028  12
  -3  -6   4 377.527 45.3451  10
  -3  -6   4 370.089 34.2707  11
  -3  -6   4 387.414 46.6480   2
  -3  -6   5 127.972 27.3998   5
  -3  -6   5 153.189 27.5938   9
  -3  -6   5 140.444 24.5534   3
  -3  -6   5 121.969 29.3021  10
  -3  -6   5 174.888 34.7858  12
  -3  -6   5 147.246 31.1826   2
  -3  -6   6 25.0058 15.8841   5
  -3  -6   6 18.1230 15.3097  12
  -3  -6   6 44.0370 21.6886   2
  -3  -5  -9 419.939 48.5055   3
  -3  -5  -9 363.939 50.8327   9
  -3  -5  -9 460.124 60.1037   4
  -3  -5  -9 312.287 52.1204   5
  -3  -5  -8 781.168 80.4801   5
  -3  -5  -8 703.338 71.3487   9
  -3  -5  -8 543.807 74.2446  10
  -3  -5  -8 646.735 64.5395   3
  -3  -5  -8 722.148 74.8285   4
  -3  -5  -8 699.942 55.2446  12
  -3  -5  -7 929.974 89.7032   5
  -3  -5  -7 1068.08 74.8006  12
  -3  -5  -7 798.522 89.0617  10
  -3  -5  -7 907.166 84.7323   9
  -3  -5  -7 909.350 86.6890   4
  -3  -5  -7 1112.11 86.2240   3
  -3  -5  -6 273.967 42.4601   3
  -3  -5  -6 272.293 41.6436   9
  -3  -5  -6 202.626 37.7786   4
  -3  -5  -6 177.634 39.5490  11
  -3  -5  -6 150.452 37.2540   2
  -3  -5  -6 187.864 39.1187  10
  -3  -5  -6 226.242 31.9331  12
  -3  -5  -5 257.883 43.9530   7
  -3  -5  -5 399.760 50.4496   9
  -3  -5  -5 300.414 46.1731  10
  -3  -5  -5 429.792 44.4194  12
  -3  -5  -5 439.106 51.3286   4
  -3  -5  -5 337.318 50.2674   2
  -3  -5  -5 256.469 45.3725  11
  -3  -5  -5 281.478 42.1916   3
  -3  -5  -4 3758.69 214.393   9
  -3  -5  -4 4153.68 209.092  12
  -3  -5  -4 3427.31 210.075  10
  -3  -5  -4 3225.00 212.197   2
  -3  -5  -4 4009.94 212.763   3
  -3  -5  -4 3423.06 208.581   7
  -3  -5  -4 3198.85 211.552  11
  -3  -5  -3 2321.21 144.619   9
  -3  -5  -3 2287.28 137.919  12
  -3  -5  -3 1886.70 138.590   2
  -3  -5  -3 2131.79 138.284   3
  -3  -5  -3 2073.13 133.708   7
  -3  -5  -3 2046.39 136.120  10
  -3  -5  -2 6188.64 334.303   7
  -3  -5  -2 6741.22 351.472   2
  -3  -5  -2 6585.93 345.416   4
  -3  -5  -2 6459.91 341.325  10
  -3  -5  -1 3286.80 190.027   5
  -3  -5  -1 3301.97 192.871   9
  -3  -5  -1 3418.46 187.844   4
  -3  -5  -1 3188.91 190.445   2
  -3  -5  -1 3093.57 172.712   7
  -3  -5  -1 3344.70 183.513  10
  -3  -5  -1 3397.88 190.711   3
  -3  -5   0 598.895 57.5487   9
  -3  -5   0 517.160 47.7403  10
  -3  -5   0 561.313 51.2054   4
  -3  -5   0 448.483 50.5670   5
  -3  -5   0 574.806 41.0122   7
  -3  -5   0 428.338 51.6450  12
  -3  -5   0 590.360 56.0375   3
  -3  -5   1 716.793 62.0567   9
  -3  -5   1 666.169 54.7053  10
  -3  -5   1 691.824 55.0155   4
  -3  -5   1 579.961 60.8173  12
  -3  -5   1 585.132 39.5894   7
  -3  -5   1 720.991 61.6750   5
  -3  -5   1 748.774 62.4136   3
  -3  -5   2 68.6040 20.8601   3
  -3  -5   2 74.0954 19.8891   5
  -3  -5   2 59.4209 21.3618  12
  -3  -5   2 45.7744 15.2054   2
  -3  -5   2 76.3916 17.2725   4
  -3  -5   2 74.1730 8.31120   7
  -3  -5   2 97.0260 21.2116   9
  -3  -5   3 2593.21 149.101   5
  -3  -5   3 2900.67 159.870  12
  -3  -5   3 2422.72 135.771  11
  -3  -5   3 2446.19 145.715   9
  -3  -5   3 2637.46 148.118  10
  -3  -5   3 2769.69 146.451   3
  -3  -5   3 2162.01 115.462   7
  -3  -5   3 2713.34 132.533   4
  -3  -5   3 2551.69 146.270   2
  -3  -5   3 2453.87 117.003   7
  -3  -5   4 488.649 44.5043   3
  -3  -5   4 506.207 49.7003   9
  -3  -5   4 431.349 49.9643   2
  -3  -5   4 558.288 55.4900  12
  -3  -5   4 513.613 45.9415  11
  -3  -5   4 500.628 53.4766  10
  -3  -5   4 465.527 30.7575   7
  -3  -5   4 480.228 32.4411   7
  -3  -5   4 438.580 33.1264   6
  -3  -5   4 535.425 35.4346   6
  -3  -5   4 424.727 47.3077   5
  -3  -5   5 328.250 40.3072   9
  -3  -5   5 371.831 36.4684   3
  -3  -5   5 375.504 29.3280   7
  -3  -5   5 323.588 32.2373   6
  -3  -5   5 345.258 30.0723   7
  -3  -5   5 379.278 42.6775  11
  -3  -5   5 392.876 35.3363   6
  -3  -5   5 396.994 51.4045  10
  -3  -5   5 382.499 45.4459  12
  -3  -5   5 355.399 48.3126   2
  -3  -5   5 337.490 43.5180   5
  -3  -5   6 854.636 66.8581   6
  -3  -5   6 1019.77 75.1897   9
  -3  -5   6 999.414 81.8210   5
  -3  -5   6 929.553 77.9779  12
  -3  -5   6 1077.54 92.5872   2
  -3  -5   6 1030.21 73.6450   6
  -3  -5   6 960.947 78.3311  11
  -3  -5   6 981.406 92.1678  10
  -3  -5   7 269.306 50.2882  10
  -3  -5   7 264.965 49.0791   2
  -3  -4 -10 48.1401 23.3038   5
  -3  -4 -10 120.706 29.6251   4
  -3  -4  -9 152.423 27.6530   3
  -3  -4  -9 133.699 27.8234   9
  -3  -4  -9 181.958 43.3019  11
  -3  -4  -9 110.819 29.9731   5
  -3  -4  -9 203.498 43.7761   2
  -3  -4  -9 90.9500 26.8702   4
  -3  -4  -8 159.019 19.8120  12
  -3  -4  -8 96.1739 31.1366  10
  -3  -4  -8 158.633 33.9428   5
  -3  -4  -8 153.973 33.1676   4
  -3  -4  -8 169.037 30.6147   9
  -3  -4  -8 154.481 28.2969   3
  -3  -4  -8 104.999 33.3288   2
  -3  -4  -8 169.224 39.7912  11
  -3  -4  -7 867.292 87.3446  11
  -3  -4  -7 624.536 76.3461  10
  -3  -4  -7 926.491 77.5833   4
  -3  -4  -7 849.897 83.8297   2
  -3  -4  -7 710.092 72.9774   5
  -3  -4  -7 733.751 82.0179   7
  -3  -4  -7 859.768 58.7294  12
  -3  -4  -7 867.376 72.7388   9
  -3  -4  -7 882.605 69.5147   3
  -3  -4  -6 1177.17 88.6065   3
  -3  -4  -6 1162.97 102.552   7
  -3  -4  -6 1140.02 92.2715   4
  -3  -4  -6 1336.44 95.0523   9
  -3  -4  -6 1182.19 102.017  10
  -3  -4  -6 1388.38 82.9594  12
  -3  -4  -5 2877.91 164.268   3
  -3  -4  -5 2991.95 168.780   9
  -3  -4  -5 3092.33 158.221  12
  -3  -4  -5 3002.01 170.632   4
  -3  -4  -5 2315.31 169.641   7
  -3  -4  -5 2368.20 169.784  10
  -3  -4  -4 751.701 63.6598   4
  -3  -4  -4 603.507 62.0168   7
  -3  -4  -4 653.894 61.1974   9
  -3  -4  -4 697.571 60.7744   3
  -3  -4  -4 729.104 56.7288  12
  -3  -4  -4 641.680 63.3726  10
  -3  -4  -3 2665.14 153.729   9
  -3  -4  -3 2238.78 152.440   2
  -3  -4  -3 2330.09 148.632   7
  -3  -4  -3 2779.55 148.283  12
  -3  -4  -3 2683.58 151.302   3
  -3  -4  -3 2435.13 151.928  10
  -3  -4  -2 7949.33 424.073  10
  -3  -4  -2 9760.08 433.513   9
  -3  -4  -2 8149.73 429.985   2
  -3  -4  -2 8037.13 422.980   4
  -3  -4  -2 8283.01 421.919   7
  -3  -4  -2 9945.69 429.440  12
  -3  -4  -1 1259.67 73.5092   6
  -3  -4  -1 1355.20 87.6074   4
  -3  -4  -1 1311.42 87.0211  10
  -3  -4  -1 1360.52 82.9084   7
  -3  -4  -1 1140.92 86.2370  12
  -3  -4  -1 1266.40 87.8811   3
  -3  -4   0 389.597 40.1004   5
  -3  -4   0 328.914 30.5902   7
  -3  -4   0 389.645 40.8134   9
  -3  -4   0 321.168 35.5011  10
  -3  -4   0 385.189 36.8517   4
  -3  -4   0 383.319 39.1668   3
  -3  -4   0 321.403 24.6574   6
  -3  -4   1 184.122 27.2959   5
  -3  -4   1 141.335 24.7057   9
  -3  -4   1 166.404 22.7339   4
  -3  -4   1 182.550 19.8898   7
  -3  -4   1 203.269 29.0520  12
  -3  -4   1 180.338 15.5163   6
  -3  -4   1 202.772 27.2073   3
  -3  -4   2 1770.12 97.0350   4
  -3  -4   2 1809.23 108.461   5
  -3  -4   2 1781.11 103.573   3
  -3  -4   2 1514.39 78.7506   8
  -3  -4   2 1697.45 91.2387   7
  -3  -4   2 1799.32 109.967  12
  -3  -4   2 1624.62 102.772   2
  -3  -4   2 1708.83 87.4038   6
  -3  -4   2 1747.52 105.688   9
  -3  -4   2 1720.30 99.7979  11
  -3  -4   3 183.481 26.1587  11
  -3  -4   3 204.690 28.5562   9
  -3  -4   3 203.105 16.3513   8
  -3  -4   3 204.669 26.7610   3
  -3  -4   3 219.299 23.0391   6
  -3  -4   3 193.611 22.1327   7
  -3  -4   3 249.246 32.2588   5
  -3  -4   3 183.943 28.5750   2
  -3  -4   3 250.931 33.6201  12
  -3  -4   4 1855.80 113.840   9
  -3  -4   4 1700.06 107.275   7
  -3  -4   4 1788.39 116.346   5
  -3  -4   4 1805.69 95.4882   8
  -3  -4   4 1849.53 116.049  12
  -3  -4   4 1723.63 103.217   7
  -3  -4   4 1717.18 118.798   2
  -3  -4   4 1904.45 107.908   6
  -3  -4   4 1971.72 125.567  10
  -3  -4   4 1760.45 105.437   3
  -3  -4   4 1783.72 113.913  11
  -3  -4   5 1351.96 110.679  10
  -3  -4   5 1604.60 101.617  12
  -3  -4   5 1349.82 94.7515   6
  -3  -4   5 1617.59 100.709   7
  -3  -4   5 1380.27 85.2499   8
  -3  -4   5 1640.50 101.221   9
  -3  -4   5 1475.48 93.3388   7
  -3  -4   5 1435.86 85.7538   8
  -3  -4   5 1406.98 108.645   2
  -3  -4   5 1444.16 104.022   5
  -3  -4   5 1619.65 100.469   6
  -3  -4   5 1428.68 87.6696   3
  -3  -4   5 1440.74 103.074  11
  -3  -4   6 1810.40 107.236  12
  -3  -4   6 1755.91 100.409   8
  -3  -4   6 1788.00 107.890   7
  -3  -4   6 1495.19 112.041   5
  -3  -4   6 1557.28 122.419   2
  -3  -4   6 1524.86 108.348   7
  -3  -4   6 1596.86 116.669  11
  -3  -4   6 1523.83 125.189  10
  -3  -4   6 1594.83 111.231   6
  -3  -4   6 1434.32 106.620   6
  -3  -4   6 1472.56 95.7789   8
  -3  -4   6 1627.17 106.568   9
  -3  -4   7 310.989 54.3005  10
  -3  -4   7 253.495 40.9255   5
  -3  -4   7 215.384 33.4788   9
  -3  -4   7 285.032 43.8862   6
  -3  -4   7 234.680 43.1220  11
  -3  -4   7 214.475 37.5373   7
  -3  -4   7 197.259 36.7277   6
  -3  -4   7 262.837 37.9189   7
  -3  -4   7 299.476 51.9725   2
  -3  -4   8 79.2988 33.2935   2
  -3  -4   8 34.1325 26.1070  10
  -3  -3  -9 113.254 20.2406   3
  -3  -3  -9 119.174 35.2859  10
  -3  -3  -9 137.085 29.0230   5
  -3  -3  -9 148.058 37.9361   2
  -3  -3  -9 104.025 20.8043   9
  -3  -3  -9 116.157 26.0339   4
  -3  -3  -9 116.841 33.8995  11
  -3  -3  -8 426.197 39.1648   3
  -3  -3  -8 477.056 43.7607   9
  -3  -3  -8 479.821 49.2385   4
  -3  -3  -8 380.617 56.1832  11
  -3  -3  -8 334.165 52.5159   2
  -3  -3  -8 354.515 46.1286   5
  -3  -3  -8 435.991 61.4884   7
  -3  -3  -8 307.778 51.2234  10
  -3  -3  -7 3901.19 187.038  12
  -3  -3  -7 3987.75 204.995   9
  -3  -3  -7 3194.00 224.921   7
  -3  -3  -7 4064.06 213.001   4
  -3  -3  -7 3892.81 231.782  11
  -3  -3  -7 3627.98 225.032   2
  -3  -3  -7 3912.10 201.402   3
  -3  -3  -7 3445.78 211.813   5
  -3  -3  -6 2036.38 126.225   9
  -3  -3  -6 2098.86 144.130   2
  -3  -3  -6 2184.42 115.861  12
  -3  -3  -6 2192.44 133.222   4
  -3  -3  -6 2190.47 126.204   3
  -3  -3  -6 2239.74 148.556  11
  -3  -3  -5 2418.15 139.833   9
  -3  -3  -5 2481.38 143.702   4
  -3  -3  -5 2372.83 152.978   2
  -3  -3  -5 2354.03 129.503  12
  -3  -3  -5 2510.26 138.451   3
  -3  -3  -4 858.055 76.0593   2
  -3  -3  -4 1112.59 75.5510   4
  -3  -3  -4 973.008 65.4275  12
  -3  -3  -4 898.629 77.1677   7
  -3  -3  -4 1088.08 71.7567   3
  -3  -3  -4 904.663 77.0412  10
  -3  -3  -4 1109.14 73.3726   9
  -3  -3  -3 6855.50 322.450   9
  -3  -3  -3 7054.49 324.039   4
  -3  -3  -3 6041.70 324.936   7
  -3  -3  -3 6260.26 314.129  12
  -3  -3  -3 5907.87 318.930   6
  -3  -3  -3 6841.69 320.328   3
  -3  -3  -3 5989.99 325.363  10
  -3  -3  -2 8706.73 458.663  10
  -3  -3  -2 9587.29 456.852   3
  -3  -3  -2 8648.30 452.519   8
  -3  -3  -2 10667.4 460.892   9
  -3  -3  -2 10080.2 459.141   5
  -3  -3  -2 8685.11 456.751   7
  -3  -3  -2 10703.4 456.842  12
  -3  -3  -2 9027.86 452.092   6
  -3  -3  -1 1583.92 90.5239   6
  -3  -3  -1 1635.68 99.1032  10
  -3  -3  -1 1555.77 95.0385   4
  -3  -3  -1 1442.27 90.1819   8
  -3  -3  -1 1750.93 98.3129  12
  -3  -3  -1 1600.51 95.2876   7
  -3  -3   0 15199.3 702.018   7
  -3  -3   0 15508.8 697.109   6
  -3  -3   0 14897.6 697.020   8
  -3  -3   0 15218.9 705.127   4
  -3  -3   0 14744.8 709.440  10
  -3  -3   0 15707.8 707.879   3
  -3  -3   0 13997.8 706.921   9
  -3  -3   1 5112.85 258.693  12
  -3  -3   1 5016.91 258.544   9
  -3  -3   1 5138.31 244.622   8
  -3  -3   1 4841.64 254.451   3
  -3  -3   1 4880.86 249.919   7
  -3  -3   1 5107.23 246.434   6
  -3  -3   1 5419.39 253.774   4
  -3  -3   1 5178.30 260.589   5
  -3  -3   2 1373.16 87.3698   5
  -3  -3   2 1323.31 85.4784   9
  -3  -3   2 1260.32 73.0294   8
  -3  -3   2 1337.81 79.7033   7
  -3  -3   2 1196.70 83.9772   2
  -3  -3   2 1231.77 76.6245   6
  -3  -3   2 1265.75 81.0557   3
  -3  -3   2 1354.46 85.6111  12
  -3  -3   2 1285.40 83.2596  11
  -3  -3   3 6783.27 336.000   5
  -3  -3   3 6862.58 332.591   9
  -3  -3   3 6095.33 330.352  11
  -3  -3   3 6700.75 320.051   8
  -3  -3   3 6905.49 326.340   3
  -3  -3   3 6383.34 325.584   7
  -3  -3   3 6313.09 335.250   2
  -3  -3   3 6367.42 330.333  12
  -3  -3   3 7215.80 329.051   6
  -3  -3   4 460.378 45.2429   7
  -3  -3   4 450.847 45.7484   9
  -3  -3   4 542.961 52.4482  11
  -3  -3   4 492.981 42.4611   8
  -3  -3   4 486.441 44.5924  12
  -3  -3   4 538.558 54.4167   2
  -3  -3   4 480.655 47.0833   6
  -3  -3   4 457.435 40.7556   3
  -3  -3   4 524.975 50.9951   5
  -3  -3   4 471.937 53.4034  10
  -3  -3   5 241.228 31.7493   8
  -3  -3   5 246.853 41.8461  10
  -3  -3   5 206.201 32.4444   9
  -3  -3   5 293.526 41.1692  11
  -3  -3   5 236.270 37.5628   5
  -3  -3   5 235.834 37.0097   6
  -3  -3   5 235.311 38.9030   2
  -3  -3   5 243.706 31.0637  12
  -3  -3   6 6.39232 16.0218  10
  -3  -3   6 59.5279 24.2645   2
  -3  -3   6 39.8623 17.3733   9
  -3  -3   6 60.6338 18.4176  12
  -3  -3   6 76.1029 23.2519   5
  -3  -3   6 77.4365 22.2439   8
  -3  -3   6 35.4434 19.3411   7
  -3  -3   6 43.6795 22.1319   6
  -3  -3   6 59.3587 24.5901  11
  -3  -3   7 338.967 51.3926   7
  -3  -3   7 355.533 45.8033   8
  -3  -3   7 251.824 49.3049   2
  -3  -3   7 411.334 39.8187  12
  -3  -3   7 256.118 51.6583  10
  -3  -3   7 336.155 50.1468   5
  -3  -3   7 328.561 50.4060   6
  -3  -3   7 238.314 46.0087  11
  -3  -3   8 46.1320 26.0418   6
  -3  -3   8 78.7792 27.6370   5
  -3  -3   8 32.6448 23.5745   2
  -3  -3   8 67.1592 31.3577   6
  -3  -3   8 72.8163 28.6328   7
  -3  -3   8 69.8521 32.0725  10
  -3  -3   8 35.7936 23.1244  11
  -3  -2 -10 76.0680 28.9757   2
  -3  -2 -10 67.1081 26.5964  11
  -3  -2  -9 169.947 38.4820   2
  -3  -2  -9 236.711 44.9130  10
  -3  -2  -9 291.286 48.5591  11
  -3  -2  -9 223.572 20.3361   9
  -3  -2  -9 225.457 22.4297   9
  -3  -2  -9 224.566 31.1191   4
  -3  -2  -9 198.717 30.3333   5
  -3  -2  -9 219.540 21.9489   3
  -3  -2  -8 900.589 68.3918   5
  -3  -2  -8 880.700 54.6746   9
  -3  -2  -8 900.275 88.1776   7
  -3  -2  -8 694.605 78.5859  10
  -3  -2  -8 882.181 66.1105   4
  -3  -2  -8 925.488 83.3313   2
  -3  -2  -8 800.099 55.1450   3
  -3  -2  -8 870.200 83.5737  11
  -3  -2  -7 1630.32 104.470   5
  -3  -2  -7 1738.50 124.327  10
  -3  -2  -7 1692.88 121.957  11
  -3  -2  -7 1627.26 92.6811   9
  -3  -2  -7 1601.12 93.2803   3
  -3  -2  -7 1608.26 102.264   4
  -3  -2  -7 1625.40 118.762   2
  -3  -2  -7 1713.44 126.378   7
  -3  -2  -6 5861.39 322.759  11
  -3  -2  -6 6229.56 306.547   4
  -3  -2  -6 5941.37 321.520   2
  -3  -2  -6 6322.97 330.255   7
  -3  -2  -6 5866.71 296.644   3
  -3  -2  -6 6493.11 298.047   9
  -3  -2  -6 5858.64 325.237  10
  -3  -2  -6 6078.33 288.574  12
  -3  -2  -5 8332.28 420.731  10
  -3  -2  -5 8294.10 403.535   4
  -3  -2  -5 8419.88 390.174  12
  -3  -2  -5 7575.71 418.924   7
  -3  -2  -5 8649.74 419.778   2
  -3  -2  -5 8479.13 397.026   9
  -3  -2  -5 8119.55 396.380   3
  -3  -2  -4 2082.88 117.908   3
  -3  -2  -4 2325.55 123.501   4
  -3  -2  -4 1995.74 129.474   2
  -3  -2  -4 2385.69 119.040   9
  -3  -2  -4 2199.98 113.413  12
  -3  -2  -4 1987.27 128.829   6
  -3  -2  -4 1755.77 127.057  10
  -3  -2  -3 1351.75 80.2635   4
  -3  -2  -3 1337.84 78.2911   5
  -3  -2  -3 1214.96 72.9200  12
  -3  -2  -3 1102.82 80.8371   6
  -3  -2  -3 1086.40 81.4028   8
  -3  -2  -3 1240.72 75.7815   9
  -3  -2  -3 1255.41 76.3434   3
  -3  -2  -3 1295.87 86.1039   2
  -3  -2  -2 19357.5 832.460   5
  -3  -2  -2 18707.6 828.128  12
  -3  -2  -2 18353.9 830.572   3
  -3  -2  -2 19010.1 830.469   9
  -3  -2  -2 16894.3 833.683   8
  -3  -2  -2 16619.4 831.733   6
  -3  -2  -2 15898.6 833.441   7
  -3  -2  -1 5441.34 244.839   5
  -3  -2  -1 5280.62 242.907   9
  -3  -2  -1 4683.08 240.840   8
  -3  -2  -1 4905.15 240.272  12
  -3  -2  -1 4409.03 238.629   6
  -3  -2  -1 4488.05 241.792   7
  -3  -2   0 938.844 63.4048   3
  -3  -2   0 1032.89 65.4528   7
  -3  -2   0 1029.82 62.7864   8
  -3  -2   0 984.333 63.9606   4
  -3  -2   0 926.776 61.3232   6
  -3  -2   1 18316.0 844.900   8
  -3  -2   1 17630.6 848.466   7
  -3  -2   1 18154.0 847.686   3
  -3  -2   1 18640.6 846.539   6
  -3  -2   1 17603.3 848.378  12
  -3  -2   1 19411.9 852.664   9
  -3  -2   2 7582.42 369.789  12
  -3  -2   2 7823.48 374.920   9
  -3  -2   2 7435.61 354.104   1
  -3  -2   2 7966.70 377.458   5
  -3  -2   2 7643.53 367.797   8
  -3  -2   2 7761.57 372.947   7
  -3  -2   2 7230.90 374.437   2
  -3  -2   2 7769.00 371.548   6
  -3  -2   2 7611.80 368.735   3
  -3  -2   2 7679.59 375.167  11
  -3  -2   3 1263.75 67.3081   1
  -3  -2   3 1269.30 84.4052   9
  -3  -2   3 1312.49 82.4480   8
  -3  -2   3 1236.74 84.5454   7
  -3  -2   3 1216.78 79.9640  12
  -3  -2   3 1181.95 86.1522  11
  -3  -2   3 1206.47 88.0712   2
  -3  -2   3 1219.85 90.0534  10
  -3  -2   3 1113.67 82.6196   6
  -3  -2   3 1291.72 88.2315   5
  -3  -2   4 49.1193 16.0582   9
  -3  -2   4 47.1233 15.0804   8
  -3  -2   4 45.7524 18.6809  10
  -3  -2   4 43.6388 16.0882   2
  -3  -2   4 44.7747 15.0091  12
  -3  -2   4 37.0408 9.29707   1
  -3  -2   4 30.8505 16.7209   5
  -3  -2   4 37.4695 16.6922   6
  -3  -2   4 37.0340 16.2928  11
  -3  -2   5 2735.84 167.514   5
  -3  -2   5 2438.47 165.621  11
  -3  -2   5 2537.56 171.707  10
  -3  -2   5 2767.28 160.505   8
  -3  -2   5 2518.26 169.177   2
  -3  -2   5 2889.64 169.261   6
  -3  -2   5 2747.19 160.268   9
  -3  -2   5 2788.93 151.706  12
  -3  -2   5 2624.44 138.472   1
  -3  -2   6 421.397 58.6413   2
  -3  -2   6 510.633 59.8035   5
  -3  -2   6 512.694 40.0091   1
  -3  -2   6 478.282 45.0084  12
  -3  -2   6 472.038 59.8202   7
  -3  -2   6 421.235 57.6856  11
  -3  -2   6 503.069 64.8896  10
  -3  -2   6 472.989 53.8113   8
  -3  -2   7 357.059 58.5247   2
  -3  -2   7 424.045 38.1880   1
  -3  -2   7 407.195 63.3834  10
  -3  -2   7 347.205 57.5761  11
  -3  -2   7 356.251 54.0480   5
  -3  -2   7 347.200 55.7506   7
  -3  -2   7 405.178 53.0688   8
  -3  -2   8 33.3392 20.3253   5
  -3  -2   8 15.5338 20.8796  11
  -3  -2   8 6.04567 18.4299   8
  -3  -2   8-30.3396 23.1194   7
  -3  -2   8 26.6615 27.0874  10
  -3  -2   8 33.8870 24.3453   2
  -3  -2   9 174.232 45.8013  11
  -3  -1 -10 241.770 44.8494   2
  -3  -1 -10 304.242 52.9759  10
  -3  -1 -10 325.118 51.3203  11
  -3  -1  -9 52.8049 21.5309   2
  -3  -1  -9 40.2643 12.7016   5
  -3  -1  -9 61.2100 25.3427  11
  -3  -1  -9 29.1587 12.6076   4
  -3  -1  -9 44.8960 24.4434   7
  -3  -1  -9 37.0795 21.8203  10
  -3  -1  -8 872.589 59.3574   4
  -3  -1  -8 873.818 82.0395  10
  -3  -1  -8 775.000 74.9136   2
  -3  -1  -8 779.580 80.1265   7
  -3  -1  -8 781.426 54.4648   5
  -3  -1  -8 833.746 77.7807  11
  -3  -1  -7 54.9650 21.1079  10
  -3  -1  -7 81.3951 9.07593   9
  -3  -1  -7 49.5283 12.0868   5
  -3  -1  -7 62.0601 12.1349   3
  -3  -1  -7 51.1780 14.3805   4
  -3  -1  -7 96.0858 25.1801  11
  -3  -1  -7 82.4092 23.8853   2
  -3  -1  -7 15.6595 14.2953   7
  -3  -1  -6 4965.74 251.399   5
  -3  -1  -6 5479.51 280.676  10
  -3  -1  -6 4688.04 247.794   5
  -3  -1  -6 5251.83 241.745   9
  -3  -1  -6 5159.42 254.592   4
  -3  -1  -6 5275.83 273.468   2
  -3  -1  -6 5333.20 280.853   7
  -3  -1  -6 5159.18 248.702   3
  -3  -1  -6 4924.16 272.800  11
  -3  -1  -5 960.896 58.9160   5
  -3  -1  -5 855.356 74.9276   7
  -3  -1  -5 997.895 74.6311   2
  -3  -1  -5 940.451 76.7506  10
  -3  -1  -5 1025.74 64.8326   4
  -3  -1  -5 1046.79 80.3074   8
  -3  -1  -5 926.443 57.5379  12
  -3  -1  -5 970.320 55.6829   9
  -3  -1  -5 984.280 60.8070   3
  -3  -1  -5 866.017 75.2462   6
  -3  -1  -4 988.158 56.6335   9
  -3  -1  -4 886.721 70.6316  10
  -3  -1  -4 983.835 58.0505   5
  -3  -1  -4 903.258 72.1110   8
  -3  -1  -4 894.175 61.2840   4
  -3  -1  -4 938.968 59.7940   3
  -3  -1  -4 944.281 58.0557  12
  -3  -1  -4 970.104 73.5157   7
  -3  -1  -4 897.081 68.3903   2
  -3  -1  -3 3240.10 168.392   4
  -3  -1  -3 3355.97 163.384   5
  -3  -1  -3 3350.74 163.384   9
  -3  -1  -3 3180.12 164.169  12
  -3  -1  -3 3154.93 173.495   2
  -3  -1  -3 3016.02 175.219  10
  -3  -1  -3 3481.98 167.578   3
  -3  -1  -3 3007.00 175.738   7
  -3  -1  -2 1231.83 69.4461   5
  -3  -1  -2 1193.57 69.8427   9
  -3  -1  -2 1041.73 68.4773  12
  -3  -1  -2 1076.73 74.6861  10
  -3  -1  -2 1182.09 72.6676   4
  -3  -1  -2 1262.69 72.7652   3
  -3  -1  -1 4358.71 199.210   5
  -3  -1  -1 3426.45 198.338   6
  -3  -1  -1 4324.98 200.085   9
  -3  -1  -1 4009.26 197.972  12
  -3  -1  -1 3662.02 200.051   8
  -3  -1  -1 3784.98 202.317  10
  -3  -1   0 47.3011 12.1719   8
  -3  -1   0 46.0500 11.6690   5
  -3  -1   0 43.8001 11.9225   7
  -3  -1   0 50.8713 11.5968   1
  -3  -1   0 64.7824 13.5310   6
  -3  -1   1 18990.4 869.503   1
  -3  -1   1 17750.7 873.019  12
  -3  -1   1 18936.7 875.888   8
  -3  -1   1 18630.9 878.333   7
  -3  -1   1 20504.1 879.761   2
  -3  -1   1 18471.1 876.703   6
  -3  -1   2 896.158 66.9162   9
  -3  -1   2 933.392 68.8574   7
  -3  -1   2 1017.65 70.1779   6
  -3  -1   2 840.043 68.3771  11
  -3  -1   2 961.373 60.0811   1
  -3  -1   2 838.188 62.4467  12
  -3  -1   2 1019.83 68.5491   8
  -3  -1   3 484.907 50.4716  11
  -3  -1   3 454.605 48.3734   5
  -3  -1   3 434.497 42.3489  12
  -3  -1   3 519.236 48.5602   9
  -3  -1   3 528.730 50.3833   6
  -3  -1   3 524.834 40.4621   1
  -3  -1   3 493.977 47.0828   8
  -3  -1   4 1528.46 91.8838   1
  -3  -1   4 1703.13 107.101   8
  -3  -1   4 1480.68 96.0207  12
  -3  -1   4 1472.34 109.039   2
  -3  -1   4 1496.49 110.804  10
  -3  -1   4 1422.86 105.302   6
  -3  -1   4 1409.69 106.623   5
  -3  -1   4 1411.39 107.441  11
  -3  -1   4 1640.34 106.393   9
  -3  -1   5 4771.85 260.289   8
  -3  -1   5 4715.61 271.585  10
  -3  -1   5 4794.38 266.264   6
  -3  -1   5 4458.16 266.679   2
  -3  -1   5 4914.45 243.648   1
  -3  -1   5 4749.48 267.215   5
  -3  -1   5 4412.13 265.716  11
  -3  -1   6 188.857 41.6159  10
  -3  -1   6 213.189 40.8006   5
  -3  -1   6 186.125 36.4698   8
  -3  -1   6 176.988 38.6085  11
  -3  -1   6 303.851 34.5325   1
  -3  -1   6 162.483 37.9481   2
  -3  -1   7 99.2113 34.1021   2
  -3  -1   7 117.969 36.8969  10
  -3  -1   7 113.219 30.6119   8
  -3  -1   7 109.618 23.4534   1
  -3  -1   7 94.1563 32.3968   7
  -3  -1   7 85.4171 34.3415   5
  -3  -1   7 87.5590 30.9032  11
  -3  -1   8 290.138 59.0489  10
  -3  -1   8 235.605 49.4266   5
  -3  -1   8 193.526 49.0839   2
  -3  -1   8 280.209 55.7439   7
  -3  -1   8 187.090 45.8281   6
  -3  -1   8 124.348 40.6657  11
  -3  -1   8 285.194 51.1402   8
  -3  -1   9 68.7445 32.2124   8
  -3  -1   9 104.829 38.6048   5
  -3   0 -10 40.3190 20.5435   2
  -3   0 -10 18.9872 20.3964  10
  -3   0 -10 58.4250 22.9490  11
  -3   0  -9 144.193 34.6349  10
  -3   0  -9 101.017 27.3933   2
  -3   0  -9 136.559 34.5904   7
  -3   0  -9 137.439 31.6556  11
  -3   0  -8 370.215 51.1423  10
  -3   0  -8 368.290 45.8214   2
  -3   0  -8 388.307 52.9726   7
  -3   0  -8 457.208 51.7543  11
  -3   0  -7 261.477 37.2087  11
  -3   0  -7 278.956 42.4618   7
  -3   0  -7 237.866 34.4516   2
  -3   0  -7 250.767 39.1670  10
  -3   0  -6 2457.16 149.190  10
  -3   0  -6 2329.27 150.005   6
  -3   0  -6 2365.22 143.544  11
  -3   0  -6 2385.82 141.053   2
  -3   0  -6 2328.74 148.851   7
  -3   0  -5 3028.33 144.856   9
  -3   0  -5 3127.35 176.264   8
  -3   0  -5 3059.40 175.381   6
  -3   0  -5 2828.71 163.357   2
  -3   0  -5 2900.28 172.275   7
  -3   0  -5 2838.77 170.189  10
  -3   0  -4 11505.5 547.004   2
  -3   0  -4 11708.4 556.432   7
  -3   0  -4 11583.3 527.639   5
  -3   0  -4 11290.4 532.974   9
  -3   0  -4 11313.5 556.667   6
  -3   0  -4 11692.0 558.663   8
  -3   0  -4 11582.4 553.825  10
  -3   0  -3 349.658 36.5099  10
  -3   0  -3 432.161 31.9570   9
  -3   0  -3 393.359 34.7851   2
  -3   0  -3 439.846 41.4563   8
  -3   0  -3 388.217 39.6482   6
  -3   0  -3 366.393 26.9502   5
  -3   0  -3 371.640 38.0795   7
  -3   0  -2 11983.4 573.852  10
  -3   0  -2 11467.8 576.458   8
  -3   0  -2 11073.2 575.010   6
  -3   0  -2 12695.5 577.954   7
  -3   0  -2 12766.2 565.077   5
  -3   0  -2 12528.9 569.349   9
  -3   0  -1 1776.08 101.835   9
  -3   0  -1 1601.14 102.851   1
  -3   0  -1 1806.44 105.197   7
  -3   0  -1 1851.41 99.5355   5
  -3   0   0 5183.15 276.088   1
  -3   0   0 5562.36 278.468   9
  -3   0   0 5405.88 276.333   5
  -3   0   0 5990.01 276.367   2
  -3   0   0 5743.71 280.901  11
  -3   0   1 2362.61 142.777   8
  -3   0   1 2508.46 140.934   1
  -3   0   1 2728.40 144.593   2
  -3   0   1 2760.13 147.577   5
  -3   0   1 2471.70 145.427  11
  -3   0   2 1227.83 87.8893   9
  -3   0   2 1303.37 88.6206   8
  -3   0   2 1256.48 89.0018   7
  -3   0   2 1295.83 83.1690   1
  -3   0   2 1398.46 91.2560   2
  -3   0   2 1267.48 88.7512   6
  -3   0   3 5724.07 337.055   5
  -3   0   3 6366.88 327.602   1
  -3   0   3 7522.36 347.755   2
  -3   0   3 6752.95 339.028   8
  -3   0   3 7231.64 346.888  10
  -3   0   3 6371.52 339.182   6
  -3   0   4 3004.66 168.147   1
  -3   0   4 2738.57 180.102   2
  -3   0   4 3033.91 179.326   8
  -3   0   4 3146.16 183.421   6
  -3   0   4 3247.54 187.077   5
  -3   0   4 2763.78 181.667  11
  -3   0   5 2149.48 143.326   8
  -3   0   5 2191.43 150.037   5
  -3   0   5 2052.96 129.958   1
  -3   0   5 2109.26 146.510   6
  -3   0   5 2016.17 147.217  11
  -3   0   6 12.1427 13.0021   1
  -3   0   6-5.75086 17.5256   8
  -3   0   6 12.7919 20.5458   5
  -3   0   6-6.27329 15.6096   6
  -3   0   6-6.84726 15.5533  11
  -3   0   7 235.670 50.3245  10
  -3   0   7 270.578 40.6591   1
  -3   0   7 190.357 42.0568   8
  -3   0   7 187.944 45.1770  11
  -3   0   7 185.582 44.2758   2
  -3   0   7 193.205 47.2896   7
  -3   0   7 159.694 40.6941   5
  -3   0   7 165.876 40.4444   6
  -3   0   8 80.7694 34.2614   5
  -3   0   8 213.427 48.9240   6
  -3   0   8 118.722 38.0764   8
  -3   0   8 148.491 31.0617   1
  -3   0   8 183.961 49.0410   7
  -3   0   8 61.9390 31.6061  11
  -3   1 -10 23.3991 19.7367  10
  -3   1  -9 252.340 34.9020   2
  -3   1  -9 217.395 39.9959  10
  -3   1  -9 164.792 35.6967   7
  -3   1  -9 211.833 34.5664  11
  -3   1  -8 338.732 46.2783  10
  -3   1  -8 398.088 42.5454   2
  -3   1  -8 324.190 41.2761  11
  -3   1  -8 384.947 50.5771   7
  -3   1  -7 1490.43 108.674  10
  -3   1  -7 1609.25 99.8150   2
  -3   1  -7 1515.43 110.782   7
  -3   1  -7 1542.30 103.120  11
  -3   1  -6 1696.33 101.318   2
  -3   1  -6 1643.94 110.935  10
  -3   1  -6 1587.38 113.984   8
  -3   1  -6 1704.66 114.464   7
  -3   1  -6 1667.26 116.231   6
  -3   1  -6 1677.92 105.590  11
  -3   1  -5 1018.96 78.8662   8
  -3   1  -5 995.104 78.5666   6
  -3   1  -5 931.685 72.7175  10
  -3   1  -5 1000.46 65.8799   2
  -3   1  -5 979.892 76.0012   7
  -3   1  -4 5275.16 267.249  10
  -3   1  -4 5069.65 269.138   7
  -3   1  -4 5331.83 257.338   2
  -3   1  -4 4917.48 271.188   6
  -3   1  -4 5545.50 275.524   8
  -3   1  -3 7965.82 372.233   5
  -3   1  -3 7739.73 385.220  10
  -3   1  -3 8224.92 393.744   8
  -3   1  -3 7739.34 376.520   2
  -3   1  -3 8073.50 389.481   7
  -3   1  -3 8094.08 392.792   6
  -3   1  -2 2956.11 154.802   5
  -3   1  -2 3094.07 166.790   8
  -3   1  -2 3010.60 165.955   6
  -3   1  -2 3056.50 164.102   7
  -3   1  -2 2988.59 159.289  10
  -3   1  -1 675.384 51.7166   5
  -3   1  -1 670.214 53.2706  11
  -3   1  -1 756.102 56.9017   6
  -3   1  -1 641.147 54.3688   8
  -3   1  -1 744.765 55.7545   7
  -3   1  -1 740.013 48.6392   2
  -3   1   0 8165.28 414.949   1
  -3   1   0 7580.90 413.282   8
  -3   1   0 8861.03 416.866   7
  -3   1   0 8867.45 409.148   2
  -3   1   0 8313.74 413.895   5
  -3   1   0 8802.59 416.672  11
  -3   1   0 8955.88 417.523   6
  -3   1   1 6740.51 329.832   5
  -3   1   1 6754.71 328.584   7
  -3   1   1 6171.75 323.343   1
  -3   1   1 6677.17 323.317   2
  -3   1   1 5601.58 322.399   6
  -3   1   1 6958.36 330.623  11
  -3   1   2 3337.39 187.607  11
  -3   1   2 2986.55 183.716   5
  -3   1   2 3275.09 182.514   2
  -3   1   2 2998.18 176.881   1
  -3   1   2 3492.71 185.656  10
  -3   1   3 1565.11 106.748  10
  -3   1   3 1323.33 95.2771   1
  -3   1   3 1408.03 102.059   8
  -3   1   3 1296.80 100.462   2
  -3   1   3 1481.69 107.839  11
  -3   1   4 7415.21 405.159   5
  -3   1   4 8642.67 412.084  10
  -3   1   4 7685.49 400.822   8
  -3   1   4 7289.38 389.515   1
  -3   1   4 8712.04 411.703   2
  -3   1   4 7035.22 398.647   6
  -3   1   5 486.713 62.1202   2
  -3   1   5 560.333 64.8339  10
  -3   1   5 439.352 51.3270   1
  -3   1   5 414.796 55.2710   8
  -3   1   5 442.321 59.7282   5
  -3   1   5 522.664 62.0396   6
  -3   1   5 330.278 52.7617  11
  -3   1   6 85.1322 30.1533   5
  -3   1   6 151.168 37.1121   8
  -3   1   6 121.752 29.2993   1
  -3   1   6 124.185 36.7137  10
  -3   1   6 153.934 39.7341   2
  -3   1   6 139.859 35.5261   6
  -3   1   6 66.7513 28.6533  11
  -3   1   7 547.920 77.8726  10
  -3   1   7 421.946 68.9250   5
  -3   1   7 562.709 73.7142   8
  -3   1   7 596.309 65.0220   1
  -3   1   7 460.883 70.9795   7
  -3   1   7 569.395 74.9687   6
  -3   1   7 538.114 76.2710  11
  -3   1   8 516.393 64.8175   1
  -3   2  -9 98.9102 26.3370  10
  -3   2  -9 156.053 32.7985   7
  -3   2  -8 71.8015 21.4452  10
  -3   2  -8 108.694 18.9809   2
  -3   2  -8 115.490 28.0866   7
  -3   2  -8 88.0888 19.3385  11
  -3   2  -7 230.911 38.3980   6
  -3   2  -7 242.964 35.3958  10
  -3   2  -7 227.933 24.8070   2
  -3   2  -7 196.204 34.0653   7
  -3   2  -7 210.802 28.4241  11
  -3   2  -6 6.54405 9.98222  10
  -3   2  -6 2.46287 8.67906  11
  -3   2  -6 13.5805 7.36582   2
  -3   2  -6 12.4477 13.3367   8
  -3   2  -6 15.0681 15.3136   7
  -3   2  -6 21.4927 15.1333   6
  -3   2  -5 145.541 23.1826  10
  -3   2  -5 114.121 25.4055   8
  -3   2  -5 137.299 14.8639   2
  -3   2  -5 101.516 23.5183   7
  -3   2  -5 120.374 25.9061   6
  -3   2  -4 4116.87 228.933   6
  -3   2  -4 4239.63 229.475   8
  -3   2  -4 4425.07 220.435  10
  -3   2  -4 4224.61 201.649   2
  -3   2  -4 4313.49 225.593   7
  -3   2  -3 1339.12 80.8399  10
  -3   2  -3 1416.71 93.7830   1
  -3   2  -3 1310.78 89.3609   8
  -3   2  -3 1258.02 68.1487   2
  -3   2  -3 1170.84 83.3285   7
  -3   2  -3 1282.09 88.5976   6
  -3   2  -3 1290.75 66.0638   2
  -3   2  -2 3547.00 185.415   5
  -3   2  -2 3658.71 186.383  11
  -3   2  -2 3827.31 195.426   6
  -3   2  -2 3569.27 193.488   8
  -3   2  -2 3421.27 172.077   2
  -3   2  -2 3426.51 181.275  10
  -3   2  -2 3536.21 189.485   7
  -3   2  -2 3721.38 198.256   1
  -3   2  -1 6091.01 314.224   6
  -3   2  -1 5733.90 310.439   5
  -3   2  -1 6576.30 317.632   8
  -3   2  -1 6304.30 299.893   2
  -3   2  -1 6390.39 313.611   7
  -3   2  -1 6304.53 311.239  11
  -3   2   0 1584.04 110.091   5
  -3   2   0 1777.80 113.433   8
  -3   2   0 1803.11 112.173   7
  -3   2   0 1712.50 102.724   2
  -3   2   0 1965.98 114.306  11
  -3   2   0 1869.06 113.846   6
  -3   2   1 403.837 46.6643   5
  -3   2   1 394.255 44.6653   1
  -3   2   1 484.066 45.4939  10
  -3   2   1 451.891 47.1632   8
  -3   2   1 360.366 42.6185   6
  -3   2   1 419.708 45.0382   7
  -3   2   1 412.908 41.3686   2
  -3   2   1 424.561 45.8590  11
  -3   2   2 2604.59 167.410   5
  -3   2   2 2885.92 163.517  10
  -3   2   2 2787.25 164.539   7
  -3   2   2 2512.91 161.899   8
  -3   2   2 2677.03 160.462   2
  -3   2   2 2739.50 167.171  11
  -3   2   2 3042.09 167.992   6
  -3   2   2 2416.84 158.717   1
  -3   2   3 1229.96 100.891   5
  -3   2   3 1258.57 97.1489   2
  -3   2   3 1392.96 100.288  10
  -3   2   3 1288.36 98.2017   6
  -3   2   3 1128.37 91.4805   1
  -3   2   3 1090.43 96.9983  11
  -3   2   4 399.671 53.6228   2
  -3   2   4 345.023 50.2831  10
  -3   2   4 405.079 56.0001  11
  -3   2   4 384.281 51.7476   6
  -3   2   4 296.442 43.1142   1
  -3   2   5 597.253 75.2933   2
  -3   2   5 857.927 85.5694  10
  -3   2   5 731.141 82.5592   5
  -3   2   5 695.846 77.0101   8
  -3   2   5 784.357 75.1602   1
  -3   2   6 1576.85 133.550  10
  -3   2   6 1344.24 121.557   8
  -3   2   6 1325.78 113.241   1
  -3   2   7 34.9616 28.1816  10
  -3   2   7 84.1234 33.0485   8
  -3   2   7 35.8097 27.3899   2
  -3   2   7 43.8330 28.2654   7
  -3   2   7 80.4759 28.2271   1
  -3   2   7 63.6713 30.3479   6
  -3   2   7 45.0713 27.5776  11
  -3   2   8 67.1618 29.1030   1
  -3   3  -8 41.9239 17.6605   7
  -3   3  -7 239.098 36.1764   7
  -3   3  -7 263.955 33.0025  10
  -3   3  -7 243.083 39.3407   6
  -3   3  -6 538.072 57.9675   8
  -3   3  -6 612.701 56.3108   7
  -3   3  -6 557.245 59.4503   6
  -3   3  -6 652.047 42.7499  11
  -3   3  -6 632.880 50.6882  10
  -3   3  -5 1031.69 79.8901   8
  -3   3  -5 944.303 73.4492   7
  -3   3  -5 875.580 75.9449   6
  -3   3  -5 1088.83 59.3801  11
  -3   3  -5 882.681 63.6875  10
  -3   3  -4 3949.85 200.709  10
  -3   3  -4 3851.92 217.178   8
  -3   3  -4 4043.11 197.016  11
  -3   3  -4 3947.74 212.194   7
  -3   3  -4 4022.59 219.485   6
  -3   3  -3 492.776 49.1386   8
  -3   3  -3 457.844 37.5325  11
  -3   3  -3 504.748 49.7684   6
  -3   3  -3 457.573 36.8017  10
  -3   3  -3 496.083 52.3294   1
  -3   3  -3 420.787 42.5650   7
  -3   3  -2 7083.97 363.495   6
  -3   3  -2 8082.57 374.727   1
  -3   3  -2 7212.86 346.507  10
  -3   3  -2 7461.08 365.949   8
  -3   3  -2 7320.13 359.647   7
  -3   3  -2 6712.78 351.479  11
  -3   3  -1 1505.41 106.568   1
  -3   3  -1 1565.36 103.279   6
  -3   3  -1 1650.80 105.906   8
  -3   3  -1 1446.68 85.6679   2
  -3   3  -1 1642.63 101.985   7
  -3   3  -1 1523.95 97.6764  11
  -3   3  -1 1547.29 90.8679  10
  -3   3   0 1777.71 103.733  10
  -3   3   0 1829.71 115.748   8
  -3   3   0 1668.96 110.180   7
  -3   3   0 1545.21 99.0634   2
  -3   3   0 1666.72 111.509   6
  -3   3   0 1693.84 110.657  11
  -3   3   1 3053.43 167.372  10
  -3   3   1 2846.37 174.050  11
  -3   3   1 2760.25 173.226   8
  -3   3   1 3011.13 173.707   7
  -3   3   1 2686.96 163.163   2
  -3   3   1 3264.90 177.374   6
  -3   3   2 88.9993 23.7578   2
  -3   3   2 117.128 26.0869  10
  -3   3   2 117.745 27.2685   6
  -3   3   2 93.4391 26.0233   8
  -3   3   2 149.598 31.6084  11
  -3   3   2 139.930 30.1179   7
  -3   3   2 84.1338 24.7019   1
  -3   3   3 1390.07 111.967   8
  -3   3   3 1556.01 112.843  10
  -3   3   3 1598.87 114.808   2
  -3   3   3 1371.80 115.107  11
  -3   3   3 1582.37 115.667   6
  -3   3   3 1474.17 112.039   1
  -3   3   4 383.658 55.3650  10
  -3   3   4 503.394 61.5124   2
  -3   3   4 339.308 52.4117   8
  -3   3   4 408.223 53.9766   1
  -3   3   4 409.707 56.5462   6
  -3   3   4 475.983 63.3190  11
  -3   3   5 1849.77 144.074  10
  -3   3   5 1745.13 135.537   1
  -3   3   5 2197.66 153.714   2
  -3   3   5 1719.19 139.462   6
  -3   3   5 1954.85 153.787  11
  -3   3   6 687.297 83.5175  10
  -3   3   6 447.062 66.9950   8
  -3   3   6 482.745 65.2308   1
  -3   3   6 724.260 86.9818   2
  -3   3   6 663.753 79.9301   6
  -3   3   6 577.712 80.1123  11
  -3   3   7 90.7824 30.3730   1
  -3   4  -7 1344.76 102.483   6
  -3   4  -6 866.454 74.4937   8
  -3   4  -6 906.283 69.4893   7
  -3   4  -6 846.469 74.9853   6
  -3   4  -5 335.514 42.0436   8
  -3   4  -5 330.784 22.3936  10
  -3   4  -5 260.108 34.7973   7
  -3   4  -5 312.256 42.2951   6
  -3   4  -4 107.764 25.2223   8
  -3   4  -4 98.5428 21.5664   7
  -3   4  -4 103.446 12.8020  11
  -3   4  -3 10.7386 7.52715  11
  -3   4  -3 7.53715 11.5049   6
  -3   4  -3 30.1852 14.8603   8
  -3   4  -3 30.2826 14.4447   7
  -3   4  -3 13.5794 17.2180   1
  -3   4  -2 1845.72 93.9324  10
  -3   4  -2 1812.70 122.730   1
  -3   4  -2 1676.48 114.569   8
  -3   4  -2 1672.11 114.371   6
  -3   4  -2 1756.35 110.906   7
  -3   4  -2 1669.71 102.671  11
  -3   4  -2 1713.08 91.1632  10
  -3   4  -1 868.272 57.0360  10
  -3   4  -1 972.401 80.5383   1
  -3   4  -1 885.936 54.6769   2
  -3   4  -1 817.797 71.9655   8
  -3   4  -1 812.887 65.7546  11
  -3   4  -1 886.829 69.9206   7
  -3   4  -1 864.472 57.1883  10
  -3   4  -1 926.548 74.0604   6
  -3   4   0 1658.01 100.074  10
  -3   4   0 1522.77 112.808   8
  -3   4   0 1735.20 120.853   1
  -3   4   0 1722.31 112.487   7
  -3   4   0 1695.64 101.032   2
  -3   4   0 1525.76 109.050  11
  -3   4   0 1746.46 115.388   6
  -3   4   1 1329.50 99.6607   7
  -3   4   1 1421.27 104.630   8
  -3   4   1 1348.95 92.3054  10
  -3   4   1 1372.69 93.7066   2
  -3   4   1 1357.61 101.519   6
  -3   4   1 1278.66 100.612  11
  -3   4   2 160.732 32.2523   7
  -3   4   2 142.567 31.3722   6
  -3   4   2 113.483 29.7943   8
  -3   4   2 165.484 31.1864  10
  -3   4   2 97.2780 28.1067  11
  -3   4   2 137.350 28.2304   2
  -3   4   3 213.633 42.9965  11
  -3   4   3 257.472 43.1513   6
  -3   4   3 192.537 39.9475   7
  -3   4   3 185.919 35.2604  10
  -3   4   3 198.208 37.6352   2
  -3   4   3 224.631 41.3021   1
  -3   4   3 302.420 48.1075   8
  -3   4   4 551.516 68.5291   8
  -3   4   4 556.598 67.9893   1
  -3   4   4 533.718 66.7171   2
  -3   4   4 688.598 72.8217  10
  -3   4   4 612.549 71.6185   6
  -3   4   4 654.749 79.1896  11
  -3   4   5 89.2612 30.6380   6
  -3   4   5 70.0215 29.5711  10
  -3   4   5 70.3543 27.9373   8
  -3   4   5 86.7132 30.5381   1
  -3   4   5 87.5070 30.7765   2
  -3   4   5 114.377 37.3075  11
  -3   4   6 577.065 80.4379  10
  -3   5  -5 256.429 38.5491   8
  -3   5  -5 277.920 39.8747   6
  -3   5  -4 769.771 70.1630   8
  -3   5  -4 732.968 61.7857   7
  -3   5  -4 860.026 78.4988   1
  -3   5  -4 907.155 74.3781   6
  -3   5  -3 319.297 47.3428   1
  -3   5  -3 306.639 25.9885  11
  -3   5  -3 329.889 37.9872   7
  -3   5  -3 356.912 43.7582   6
  -3   5  -3 279.686 40.1790   8
  -3   5  -2 5.15024 14.7995   1
  -3   5  -2 21.0317 15.4080   8
  -3   5  -2-4.10982 13.2042   6
  -3   5  -2 3.37001 12.8112   7
  -3   5  -2 7.26383 9.84121  11
  -3   5  -1 747.938 74.4301   1
  -3   5  -1 702.281 66.7284   8
  -3   5  -1 703.201 43.2459  10
  -3   5  -1 677.530 62.3899   7
  -3   5  -1 678.569 65.6812   6
  -3   5  -1 692.613 42.7322  10
  -3   5  -1 783.659 62.0386  11
  -3   5   0 148.201 22.4658  10
  -3   5   0 181.174 25.9210   2
  -3   5   0 171.293 36.2713   1
  -3   5   0 135.696 29.2912   7
  -3   5   0 166.479 33.2560   8
  -3   5   0 219.782 35.7801   6
  -3   5   0 162.988 30.4819  11
  -3   5   1 1369.27 106.167  11
  -3   5   1 1426.06 110.569   8
  -3   5   1 1393.95 97.1740   2
  -3   5   1 1441.65 106.342   7
  -3   5   1 1356.64 92.7125  10
  -3   5   1 1537.92 110.117   6
  -3   5   1 1362.14 112.621   1
  -3   5   2 417.402 47.0094  10
  -3   5   2 285.610 48.3681   6
  -3   5   2 343.096 49.6391   7
  -3   5   2 332.882 50.6011   8
  -3   5   2 333.578 50.4778  11
  -3   5   2 439.123 51.2151   2
  -3   5   3 150.240 32.7384  10
  -3   5   3 166.446 40.4665  11
  -3   5   3 116.784 31.9648   7
  -3   5   3 214.029 43.6243   1
  -3   5   3 98.9568 30.7319   8
  -3   5   3 128.463 33.5753   6
  -3   5   3 119.323 30.7777   2
  -3   5   4 715.872 78.5579  10
  -3   5   4 792.518 92.4377  11
  -3   5   4 900.225 88.5397   2
  -3   5   4 817.660 86.0409   7
  -3   5   4 892.692 90.1848   6
  -3   5   5 60.3184 31.6606   2
  -3   5   5 42.4940 27.9559  10
  -3   6  -4-5.55735 17.8538   1
  -3   6  -3 653.087 65.5073   8
  -3   6  -3 691.641 73.8495   1
  -3   6  -2 28.9532 20.4341   1
  -3   6  -2 35.3897 19.6473   6
  -3   6  -2 36.7931 18.7501   8
  -3   6  -1 87.8051 25.6086   6
  -3   6  -1 72.6904 24.9506   8
  -3   6  -1 101.077 23.7180   7
  -3   6  -1 107.547 33.4936   1
  -3   6   0 301.751 45.8716   8
  -3   6   0 292.623 49.9698   1
  -3   6   0 330.327 43.0518   7
  -3   6   0 257.893 42.3027   6
  -3   6   1 157.587 36.9610   8
  -3   6   1 151.414 33.0547   7
  -3   6   1 213.948 38.9846   6
  -3   6   1 167.004 34.5699  11
  -3   6   2 799.837 83.2482   8
  -3   6   2 952.868 85.3171   7
  -3   6   2 722.870 78.3383  11
  -3   6   2 728.467 77.3374   6
  -3   6   3 679.584 75.2763   7
  -3   6   3 653.204 75.4326   6
  -3   6   3 629.893 77.2187  11
  -2  -9  -1 219.134 51.9890   4
  -2  -9  -1 131.891 36.1724   1
  -2  -9   0 293.300 59.9043   5
  -2  -9   0 273.917 47.6093   1
  -2  -9   0 289.933 54.6546   4
  -2  -9   1 119.382 38.9823   5
  -2  -9   1 106.558 39.6475   9
  -2  -9   2 152.424 46.8146   3
  -2  -9   2 148.007 44.7131   9
  -2  -8  -6 522.269 72.0287  12
  -2  -8  -5 256.250 44.3591  10
  -2  -8  -5 208.451 48.1220   2
  -2  -8  -5 283.159 55.1669  12
  -2  -8  -5 343.602 58.0230  11
  -2  -8  -4 173.006 45.5396   5
  -2  -8  -4 150.812 37.1247   2
  -2  -8  -4 165.273 39.4187  11
  -2  -8  -4 90.6746 34.8207   3
  -2  -8  -4 79.6565 24.6890  10
  -2  -8  -4 125.666 43.2028  12
  -2  -8  -4 51.8374 29.4575   9
  -2  -8  -4 73.8049 31.4962   4
  -2  -8  -3 332.561 42.1012  10
  -2  -8  -3 340.987 61.7731   9
  -2  -8  -3 372.626 54.7946   2
  -2  -8  -3 212.236 50.7501   4
  -2  -8  -3 403.266 65.6587  12
  -2  -8  -3 338.639 50.2801  11
  -2  -8  -2 104.794 20.1220  10
  -2  -8  -2 125.699 36.3568   9
  -2  -8  -2 72.5168 29.8057   3
  -2  -8  -2 92.1456 30.8553   1
  -2  -8  -2 105.202 34.3923   4
  -2  -8  -2 106.528 38.3744  12
  -2  -8  -2 78.0907 26.9034   2
  -2  -8  -2 77.4209 22.3761  11
  -2  -8  -1 348.322 59.6482   3
  -2  -8  -1 285.690 56.1382   9
  -2  -8  -1 346.273 43.1293  11
  -2  -8  -1 284.471 47.2509   1
  -2  -8  -1 297.928 52.8326   4
  -2  -8  -1 296.336 44.2393   2
  -2  -8   0 25.8001 17.0038   2
  -2  -8   0 31.6901 25.5072   9
  -2  -8   0 62.1323 28.9653   5
  -2  -8   0 41.7499 19.9094   1
  -2  -8   0 46.0002 25.9105   4
  -2  -8   0 23.2561 20.9047   3
  -2  -8   0 45.0325 15.3179  11
  -2  -8   0 42.2706 28.5343  12
  -2  -8   1 69.6425 21.2221   2
  -2  -8   1 90.2658 35.9342   3
  -2  -8   1 38.1032 24.2767   5
  -2  -8   1 47.6255 24.3285   4
  -2  -8   1 37.4451 26.4808   9
  -2  -8   1 70.6436 23.0901   1
  -2  -8   1 59.6174 30.0820  12
  -2  -8   2 514.991 64.7504   5
  -2  -8   2 571.618 75.5908   3
  -2  -8   2 645.530 76.9832   9
  -2  -8   2 543.855 57.1525   1
  -2  -8   2 581.666 63.3596   4
  -2  -8   2 604.278 84.1704  12
  -2  -8   3 854.673 80.1942   5
  -2  -8   3 792.831 88.3192   3
  -2  -8   3 901.632 89.7832   9
  -2  -8   3 978.251 106.536  12
  -2  -8   4 113.250 38.0007  12
  -2  -8   5-22.9491 28.0369  12
  -2  -7  -7 856.383 93.4039   3
  -2  -7  -7 788.103 82.0187  12
  -2  -7  -7 705.235 84.7041  10
  -2  -7  -6 92.7623 33.8565   9
  -2  -7  -6 143.114 36.0929  10
  -2  -7  -6 184.740 44.3164   3
  -2  -7  -6 201.066 45.5283   4
  -2  -7  -6 165.830 37.3998  12
  -2  -7  -6 99.0090 35.0790   5
  -2  -7  -6 149.852 39.2750   2
  -2  -7  -6 93.9957 34.2925  11
  -2  -7  -5 612.364 77.5100   2
  -2  -7  -5 667.731 73.1211  10
  -2  -7  -5 771.695 88.6708   9
  -2  -7  -5 878.177 87.3231  12
  -2  -7  -5 680.598 82.2682   3
  -2  -7  -5 683.951 80.6886  11
  -2  -7  -4 38.3705 23.4493   2
  -2  -7  -4 29.3912 17.2736  10
  -2  -7  -4 12.6992 15.8388  11
  -2  -7  -4 21.3543 21.7209   4
  -2  -7  -4 29.6555 26.1127   9
  -2  -7  -4 28.0073 24.6642   3
  -2  -7  -4 26.4612 25.1687  12
  -2  -7  -3 325.492 42.1723  10
  -2  -7  -3 293.597 46.3305   1
  -2  -7  -3 249.179 42.6387  11
  -2  -7  -3 271.128 49.9587   4
  -2  -7  -3 310.968 54.3608  12
  -2  -7  -3 304.523 48.6511   2
  -2  -7  -2 83.8193 19.6219  10
  -2  -7  -2 88.7780 31.1792   3
  -2  -7  -2 56.6518 28.0333   9
  -2  -7  -2 73.0958 24.5027   1
  -2  -7  -2 58.3790 21.7875   2
  -2  -7  -2 89.5923 31.3309   4
  -2  -7  -2 56.7068 20.6019  11
  -2  -7  -2 55.1377 26.3801  12
  -2  -7  -1 2502.15 138.424  10
  -2  -7  -1 2428.46 177.849   9
  -2  -7  -1 2613.51 153.945  11
  -2  -7  -1 2385.70 158.966   1
  -2  -7  -1 2833.58 176.506   4
  -2  -7  -1 2573.53 162.403   2
  -2  -7  -1 2364.95 174.060   3
  -2  -7   0 2249.13 163.702  12
  -2  -7   0 2423.17 163.375   9
  -2  -7   0 2110.73 136.814   1
  -2  -7   0 2193.40 137.998   2
  -2  -7   0 2147.73 147.961   4
  -2  -7   0 1993.82 107.696  10
  -2  -7   0 2097.02 125.028  11
  -2  -7   0 2053.61 153.675   3
  -2  -7   1 211.265 38.7849   5
  -2  -7   1 178.465 35.0930   4
  -2  -7   1 169.700 30.6581   2
  -2  -7   1 189.317 21.1266  11
  -2  -7   1 161.900 29.1030   1
  -2  -7   1 180.378 41.2527   9
  -2  -7   1 135.596 37.8346  12
  -2  -7   1 200.609 40.5784   3
  -2  -7   2 578.029 61.6715   5
  -2  -7   2 513.856 65.3123   3
  -2  -7   2 614.878 77.0643  12
  -2  -7   2 605.882 69.1131   9
  -2  -7   2 667.652 61.4350   4
  -2  -7   2 481.036 50.2639   1
  -2  -7   2 554.114 53.1326   2
  -2  -7   2 540.073 46.1143   2
  -2  -7   3 10.7787 18.9730   3
  -2  -7   3 6.45345 11.3685   2
  -2  -7   3 25.4900 12.1581   2
  -2  -7   3 8.42444 14.2026   5
  -2  -7   3 10.1002 17.0237   9
  -2  -7   3 7.93806 10.7663   1
  -2  -7   3 22.1113 14.7151   4
  -2  -7   3 13.8491 19.9035  12
  -2  -7   4 37.6955 19.7557   3
  -2  -7   4 15.2138 14.9907   5
  -2  -7   4 17.3346 17.0734   9
  -2  -7   4 13.3509 20.3630  12
  -2  -7   5 270.748 48.9786  12
  -2  -6  -9 27.3173 25.9865   9
  -2  -6  -8 1710.63 131.414   3
  -2  -6  -8 1700.10 141.745   5
  -2  -6  -8 1699.91 142.325  10
  -2  -6  -8 1568.60 133.516   9
  -2  -6  -8 1666.84 137.040   4
  -2  -6  -7 506.758 56.5541  12
  -2  -6  -7 409.139 62.4590  10
  -2  -6  -7 452.014 66.9605   2
  -2  -6  -7 497.461 63.3048   3
  -2  -6  -7 561.682 69.9290   9
  -2  -6  -7 470.918 68.0540   5
  -2  -6  -7 406.297 61.9462   4
  -2  -6  -7 533.090 73.6588  11
  -2  -6  -6 219.911 44.7507   3
  -2  -6  -6 345.746 54.3509   9
  -2  -6  -6 275.918 51.2126   5
  -2  -6  -6 378.684 57.3249   4
  -2  -6  -6 233.214 45.0484  10
  -2  -6  -6 296.114 51.3734   2
  -2  -6  -6 253.516 42.4373  12
  -2  -6  -6 204.542 46.1078  11
  -2  -6  -5 6.34531 19.3405   2
  -2  -6  -5 5.57609 17.9157  10
  -2  -6  -5 29.5817 25.5006   3
  -2  -6  -5 44.6199 25.0806   9
  -2  -6  -5-6.36813 19.4100   4
  -2  -6  -5 5.21377 16.7521  12
  -2  -6  -5 6.58832 16.3973  11
  -2  -6  -4 2348.36 156.344   3
  -2  -6  -4 1900.36 145.059   2
  -2  -6  -4 2276.21 150.548  12
  -2  -6  -4 1997.83 139.959  10
  -2  -6  -4 2437.71 160.454   9
  -2  -6  -4 1948.54 146.725  11
  -2  -6  -3 3298.85 199.559  10
  -2  -6  -3 3410.32 214.844   4
  -2  -6  -3 3517.31 212.816   2
  -2  -6  -3 3325.70 209.340  11
  -2  -6  -3 3901.18 221.151  12
  -2  -6  -3 3956.72 223.891   3
  -2  -6  -2 1180.02 93.1150   1
  -2  -6  -2 1311.73 103.454   4
  -2  -6  -2 1212.45 97.0644   2
  -2  -6  -2 1418.94 108.957  12
  -2  -6  -2 1165.99 92.6929  11
  -2  -6  -2 1164.00 85.3152  10
  -2  -6  -1 2171.03 137.959   2
  -2  -6  -1 2179.58 150.646   9
  -2  -6  -1 2234.42 148.825   3
  -2  -6  -1 2077.95 121.460  10
  -2  -6  -1 1999.80 139.868   4
  -2  -6  -1 2069.56 132.329   1
  -2  -6  -1 1954.94 128.329  11
  -2  -6   0 1439.64 87.4160  10
  -2  -6   0 1555.12 110.130   4
  -2  -6   0 1540.77 116.061   3
  -2  -6   0 1622.12 102.517   1
  -2  -6   0 1399.67 102.035   2
  -2  -6   0 1402.29 93.8071  11
  -2  -6   0 1505.65 116.612   9
  -2  -6   0 1550.05 119.486  12
  -2  -6   1 691.878 47.1921  10
  -2  -6   1 680.640 69.7219   3
  -2  -6   1 695.988 71.0035   9
  -2  -6   1 838.808 61.9598   1
  -2  -6   1 707.344 61.8752   2
  -2  -6   1 642.683 61.8457   4
  -2  -6   1 783.607 77.9276  12
  -2  -6   1 741.367 68.0858   5
  -2  -6   1 697.894 50.5429  11
  -2  -6   2 296.508 25.5000  10
  -2  -6   2 260.520 19.9037  11
  -2  -6   2 270.744 19.0431  11
  -2  -6   2 249.523 40.3596   3
  -2  -6   2 202.354 33.3323   5
  -2  -6   2 280.377 41.1101   9
  -2  -6   2 269.629 47.4106  12
  -2  -6   2 266.302 30.3032   2
  -2  -6   2 271.035 23.6273  10
  -2  -6   2 279.162 30.8217   1
  -2  -6   2 252.438 33.6050   4
  -2  -6   2 231.507 32.9710   2
  -2  -6   3 1879.20 124.673   5
  -2  -6   3 2195.51 146.850  12
  -2  -6   3 1863.53 108.363  10
  -2  -6   3 2050.05 133.859   3
  -2  -6   3 2043.83 115.664   4
  -2  -6   3 1926.63 107.611  10
  -2  -6   3 2089.55 110.594   1
  -2  -6   3 2093.66 118.511   2
  -2  -6   3 2047.98 131.918   9
  -2  -6   4 522.770 44.1978  10
  -2  -6   4 495.521 48.6674   5
  -2  -6   4 523.895 42.0482  10
  -2  -6   4 494.416 50.9228   9
  -2  -6   4 495.325 35.2782   4
  -2  -6   4 468.087 46.5643   2
  -2  -6   4 518.077 52.7165   3
  -2  -6   4 468.268 59.8945  12
  -2  -6   5 76.0922 25.7443  12
  -2  -6   5 152.076 27.6351   2
  -2  -6   5 78.8404 21.4418  10
  -2  -6   5 124.546 23.1564   3
  -2  -6   5 119.905 24.5143   9
  -2  -6   5 136.351 25.1892   5
  -2  -6   6 37.2004 18.3712  12
  -2  -5  -9 28.2928 20.7991   9
  -2  -5  -9 32.6665 25.7635   5
  -2  -5  -9 61.7561 25.9250   4
  -2  -5  -8 180.615 41.2500   2
  -2  -5  -8 169.385 42.0342  10
  -2  -5  -8 174.651 38.3805   9
  -2  -5  -8 108.299 32.8303   4
  -2  -5  -8 119.555 24.3768  12
  -2  -5  -8 95.6549 30.9047   5
  -2  -5  -8 98.4602 28.7376   3
  -2  -5  -7 357.541 56.7152   2
  -2  -5  -7 432.024 57.2777   9
  -2  -5  -7 353.602 55.7393  10
  -2  -5  -7 398.630 51.1258   3
  -2  -5  -7 421.447 57.2267   4
  -2  -5  -7 352.506 56.0942   5
  -2  -5  -7 400.321 61.2296  11
  -2  -5  -6 1212.16 105.538   5
  -2  -5  -6 1239.84 97.6539   3
  -2  -5  -6 1340.30 105.299   9
  -2  -5  -6 1399.83 106.791   4
  -2  -5  -6 1012.49 98.5290   2
  -2  -5  -6 1246.06 90.4519  12
  -2  -5  -6 1101.27 100.339  10
  -2  -5  -6 983.670 100.082  11
  -2  -5  -5 1360.10 109.371  10
  -2  -5  -5 1150.62 106.370   2
  -2  -5  -5 1649.08 117.351   4
  -2  -5  -5 1617.23 116.986   9
  -2  -5  -5 1335.68 113.650  11
  -2  -5  -5 1516.50 105.731  12
  -2  -5  -5 1542.58 111.615   3
  -2  -5  -4 1965.28 125.279  12
  -2  -5  -4 1863.92 129.941   9
  -2  -5  -4 1684.78 121.498  10
  -2  -5  -4 1472.16 120.553   4
  -2  -5  -4 1822.11 128.858   2
  -2  -5  -4 1944.20 128.358   3
  -2  -5  -4 1812.81 129.643  11
  -2  -5  -3 3879.52 228.698   2
  -2  -5  -3 3640.46 225.311  11
  -2  -5  -3 3917.98 221.396  10
  -2  -5  -3 4479.00 233.549  12
  -2  -5  -3 4276.38 233.838   3
  -2  -5  -2 1665.32 110.051   1
  -2  -5  -2 1718.01 108.828  10
  -2  -5  -2 1536.26 114.126   4
  -2  -5  -2 1654.58 115.561   2
  -2  -5  -2 1931.96 124.264  12
  -2  -5  -2 1719.65 114.401  11
  -2  -5  -1 366.908 45.9206   3
  -2  -5  -1 391.925 44.2251   2
  -2  -5  -1 394.677 48.5010   9
  -2  -5  -1 343.934 39.6318  11
  -2  -5  -1 443.062 42.2173   1
  -2  -5  -1 399.189 45.5340   4
  -2  -5  -1 402.508 38.6487  10
  -2  -5  -1 315.731 45.1649  12
  -2  -5   0 1816.41 119.111   9
  -2  -5   0 1677.62 102.830   1
  -2  -5   0 1690.97 109.814   2
  -2  -5   0 1706.57 111.327   4
  -2  -5   0 1603.21 97.6731  10
  -2  -5   0 1713.22 116.317   3
  -2  -5   1 49.9963 11.9461  10
  -2  -5   1 74.6244 20.0823   3
  -2  -5   1 39.4581 17.1620   9
  -2  -5   1 48.3816 15.4757   5
  -2  -5   1 47.3637 11.8010   1
  -2  -5   1 50.1984 19.2528  12
  -2  -5   1 61.3910 16.6608   4
  -2  -5   2 157.016 20.5916  10
  -2  -5   2 137.780 26.2027   3
  -2  -5   2 168.908 28.9016   9
  -2  -5   2 144.691 22.6814   4
  -2  -5   2 142.038 18.1532   1
  -2  -5   2 193.686 28.2495   5
  -2  -5   2 135.062 29.7591  12
  -2  -5   2 167.005 16.9274  11
  -2  -5   3 1079.72 79.2532   5
  -2  -5   3 1142.99 91.8058  12
  -2  -5   3 1167.40 69.8292   4
  -2  -5   3 1260.53 63.4105   1
  -2  -5   3 1036.48 80.4716   9
  -2  -5   3 1159.65 77.6637   2
  -2  -5   3 1191.16 76.9188  10
  -2  -5   3 1100.73 64.4537  11
  -2  -5   3 1176.47 83.1747   3
  -2  -5   4 470.707 45.2855   5
  -2  -5   4 462.613 45.0784   9
  -2  -5   4 492.310 47.0727  10
  -2  -5   4 428.104 42.6867   3
  -2  -5   4 404.521 43.7087   2
  -2  -5   4 441.242 28.0311   6
  -2  -5   4 501.496 29.3187   6
  -2  -5   4 470.895 33.8425  11
  -2  -5   4 524.783 55.0127  12
  -2  -5   5 1164.88 79.0673   5
  -2  -5   5 952.325 63.2551   6
  -2  -5   5 1061.81 69.4666   3
  -2  -5   5 1192.92 87.4832  10
  -2  -5   5 1113.21 75.2265   9
  -2  -5   5 1103.28 84.2772   2
  -2  -5   5 1046.23 64.8425  11
  -2  -5   5 1155.93 86.7441  12
  -2  -5   5 1075.15 67.2513   6
  -2  -5   6 61.2779 11.9029   3
  -2  -5   6 67.1565 23.9659   2
  -2  -5   6 55.9068 23.7542  10
  -2  -5   6 59.1939 18.4198   5
  -2  -5   6 59.2346 16.5770   9
  -2  -5   6 51.3659 19.8356  12
  -2  -5   6 46.9618 6.68782   7
  -2  -5   6 42.6741 6.46481   7
  -2  -5   6 28.1073 12.5442   6
  -2  -5   7 103.581 31.0039   2
  -2  -5   7 195.129 39.6662  10
  -2  -4 -10 202.859 39.3218   4
  -2  -4 -10 160.071 38.5091   5
  -2  -4  -9 56.8855 28.0042   2
  -2  -4  -9 22.6714 20.3504  10
  -2  -4  -9 16.8655 17.1794   5
  -2  -4  -9 40.8145 17.9977   3
  -2  -4  -9 25.8171 16.6350   4
  -2  -4  -9 44.9523 20.4608   9
  -2  -4  -9 7.69135 19.1801  11
  -2  -4  -8 103.369 34.3171  10
  -2  -4  -8 223.783 32.9499   3
  -2  -4  -8 190.798 36.7599   4
  -2  -4  -8 144.615 36.0419   2
  -2  -4  -8 103.246 30.0619   5
  -2  -4  -8 158.767 21.1652  12
  -2  -4  -8 208.002 44.2904  11
  -2  -4  -8 162.719 32.2708   9
  -2  -4  -7 609.345 64.4859   5
  -2  -4  -7 423.016 61.1115  10
  -2  -4  -7 585.651 47.6554  12
  -2  -4  -7 609.384 61.8410   9
  -2  -4  -7 543.845 61.2352   4
  -2  -4  -7 630.763 57.4864   3
  -2  -4  -6 3712.49 218.138   9
  -2  -4  -6 3470.34 220.791   5
  -2  -4  -6 3568.56 225.460  10
  -2  -4  -6 4144.00 224.357   4
  -2  -4  -6 4006.87 204.736  12
  -2  -4  -6 3931.07 214.683   3
  -2  -4  -5 741.828 69.9933   9
  -2  -4  -5 861.607 77.0214  10
  -2  -4  -5 860.027 69.9874   3
  -2  -4  -5 772.586 70.9287   4
  -2  -4  -5 745.840 75.2788  11
  -2  -4  -5 885.760 65.6503  12
  -2  -4  -5 782.154 75.1112   2
  -2  -4  -4 2911.82 187.305  10
  -2  -4  -4 3565.31 193.645   4
  -2  -4  -4 2903.36 189.635   2
  -2  -4  -4 3389.26 191.710   9
  -2  -4  -4 3492.92 184.493  12
  -2  -4  -4 3105.09 193.534  11
  -2  -4  -4 3656.42 192.261   3
  -2  -4  -3 7478.94 361.591   9
  -2  -4  -3 6696.02 353.169  10
  -2  -4  -3 6676.06 357.493   2
  -2  -4  -3 6728.30 353.815   7
  -2  -4  -3 7571.88 355.375  12
  -2  -4  -3 7447.10 358.210   3
  -2  -4  -3 6400.36 356.038  11
  -2  -4  -2 3441.64 188.706  10
  -2  -4  -2 3395.97 194.211   2
  -2  -4  -2 3305.62 185.623   7
  -2  -4  -2 3262.99 191.316   4
  -2  -4  -1 12245.1 608.075   2
  -2  -4  -1 12618.0 607.514   4
  -2  -4  -1 12738.5 596.125   7
  -2  -4  -1 12956.9 600.665  10
  -2  -4  -1 12813.9 612.821  12
  -2  -4   0 2569.43 149.918   5
  -2  -4   0 2672.34 134.308   7
  -2  -4   0 2734.99 155.435   9
  -2  -4   0 2517.14 139.201   1
  -2  -4   0 2693.50 149.620   4
  -2  -4   0 2611.25 141.398  10
  -2  -4   0 2944.69 156.457   3
  -2  -4   1 912.313 65.7342   5
  -2  -4   1 946.573 68.5588   9
  -2  -4   1 888.891 53.2504   1
  -2  -4   1 834.901 68.4016  12
  -2  -4   1 878.322 60.9219   4
  -2  -4   1 852.483 45.0605   7
  -2  -4   1 866.252 57.8524  10
  -2  -4   1 894.126 66.4942   3
  -2  -4   2 1173.76 79.0756   5
  -2  -4   2 1417.45 84.8700   9
  -2  -4   2 1117.93 70.9244   4
  -2  -4   2 1209.03 85.9464  12
  -2  -4   2 1305.00 81.5997   3
  -2  -4   2 1182.90 75.8870   2
  -2  -4   2 1137.81 68.5919  11
  -2  -4   3 2557.30 139.234  10
  -2  -4   3 2664.79 138.057   9
  -2  -4   3 2571.97 136.061   3
  -2  -4   3 2692.43 146.389  12
  -2  -4   3 2486.18 122.691   4
  -2  -4   3 2300.28 114.872   7
  -2  -4   3 2343.87 116.016   7
  -2  -4   3 2194.64 119.332   6
  -2  -4   3 2426.77 136.359   2
  -2  -4   3 2473.85 120.926   6
  -2  -4   3 2386.13 136.046   5
  -2  -4   3 2500.83 128.654  11
  -2  -4   4 2560.34 129.256   8
  -2  -4   4 2787.68 153.595   5
  -2  -4   4 2501.32 141.527   6
  -2  -4   4 2934.52 159.946  12
  -2  -4   4 2965.30 151.747   9
  -2  -4   4 3034.05 150.973  11
  -2  -4   4 2812.26 130.107   8
  -2  -4   4 2912.06 162.180  10
  -2  -4   4 2776.97 137.009   7
  -2  -4   4 2539.06 137.897   7
  -2  -4   4 2731.47 157.600   2
  -2  -4   4 2875.85 145.676   3
  -2  -4   5 863.713 75.2208  10
  -2  -4   5 872.529 66.2606   5
  -2  -4   5 810.798 52.4502   3
  -2  -4   5 869.949 61.6157   9
  -2  -4   5 959.248 54.1735   8
  -2  -4   5 748.077 49.7318   8
  -2  -4   5 808.790 57.2356   7
  -2  -4   5 812.182 55.6602   7
  -2  -4   5 954.767 68.0136  12
  -2  -4   5 737.878 58.8603   6
  -2  -4   5 913.555 66.5341  11
  -2  -4   5 707.660 68.1719   2
  -2  -4   6 1029.48 68.0964   9
  -2  -4   6 1078.06 67.2528   8
  -2  -4   6 986.131 76.5988  11
  -2  -4   6 969.630 74.9561   5
  -2  -4   6 934.069 83.8400   2
  -2  -4   6 907.339 68.5017   7
  -2  -4   6 1070.05 92.1803  10
  -2  -4   6 885.892 61.5899   8
  -2  -4   6 821.656 70.2756   6
  -2  -4   6 1079.22 72.8556  12
  -2  -4   7 372.705 36.5974   9
  -2  -4   7 393.684 55.9252   2
  -2  -4   7 453.728 49.0320   5
  -2  -4   7 371.648 40.2156   8
  -2  -4   7 412.067 38.8792  12
  -2  -4   7 436.870 60.6591  10
  -2  -4   7 320.956 35.0623   8
  -2  -4   7 374.729 42.7237   7
  -2  -4   7 431.863 50.2105  11
  -2  -4   7 311.212 42.3553   6
  -2  -4   8 109.016 37.3531  10
  -2  -4   8 85.6431 33.5038   2
  -2  -3 -10 104.702 29.3881   5
  -2  -3  -9 26.1204 23.0292   2
  -2  -3  -9 44.1148 14.9943   3
  -2  -3  -9 69.4062 19.0529   9
  -2  -3  -9 84.1012 24.7090   5
  -2  -3  -9 19.4954 11.9975   9
  -2  -3  -9 12.4413 14.6724   4
  -2  -3  -9 27.9273 21.3313  11
  -2  -3  -8 460.867 62.2350   2
  -2  -3  -8 596.965 61.5762   5
  -2  -3  -8 596.626 58.2822   4
  -2  -3  -8 615.625 50.2364   3
  -2  -3  -8 587.832 54.9297   9
  -2  -3  -8 642.930 73.6799  11
  -2  -3  -7 32.8852 18.6074   2
  -2  -3  -7 70.5922 18.8459   3
  -2  -3  -7 64.2372 21.4347   5
  -2  -3  -7 70.4973 21.1767   4
  -2  -3  -7 60.8679 18.9537   9
  -2  -3  -7 41.6748 9.44384  12
  -2  -3  -7 52.8610 22.4416  11
  -2  -3  -6 3459.26 205.779   5
  -2  -3  -6 3531.35 199.200   9
  -2  -3  -6 3170.21 210.500  10
  -2  -3  -6 3985.99 206.504   4
  -2  -3  -6 3795.23 216.922   2
  -2  -3  -6 3598.82 194.806   3
  -2  -3  -6 3713.46 182.990  12
  -2  -3  -6 3691.59 217.724  11
  -2  -3  -5 900.839 81.9541  10
  -2  -3  -5 1038.00 76.9161   9
  -2  -3  -5 1044.00 79.2516   4
  -2  -3  -5 1143.23 68.8537  12
  -2  -3  -5 1152.57 76.9316   3
  -2  -3  -4 3380.29 184.788   9
  -2  -3  -4 3695.16 188.509   4
  -2  -3  -4 2989.27 187.705  10
  -2  -3  -4 3422.94 182.141   3
  -2  -3  -4 3584.05 176.561  12
  -2  -3  -4 2959.41 188.755   7
  -2  -3  -3 4878.49 275.664  10
  -2  -3  -3 5640.37 277.003   9
  -2  -3  -3 5107.58 277.402   7
  -2  -3  -3 5429.96 273.144   3
  -2  -3  -3 5660.46 277.074   4
  -2  -3  -3 5592.83 269.674  12
  -2  -3  -2 21944.2 914.169  12
  -2  -3  -2 20289.4 917.052   9
  -2  -3  -2 18328.0 911.938  10
  -2  -3  -2 17895.9 915.091   2
  -2  -3  -2 18420.8 910.895   7
  -2  -3  -2 21052.7 915.577   3
  -2  -3  -1 6354.40 312.053   4
  -2  -3  -1 6006.41 308.690  10
  -2  -3  -1 6084.98 313.653   2
  -2  -3  -1 6169.76 306.453   7
  -2  -3   0 6502.11 318.470  10
  -2  -3   0 6557.70 323.168   5
  -2  -3   0 6994.58 326.933   9
  -2  -3   0 6337.67 305.152   6
  -2  -3   0 6786.70 321.069   4
  -2  -3   0 7173.13 325.647   3
  -2  -3   0 6651.36 312.875   7
  -2  -3   1 4607.16 227.028   9
  -2  -3   1 4669.52 225.418   3
  -2  -3   1 4482.62 219.099   4
  -2  -3   1 4282.20 211.177   7
  -2  -3   1 4435.04 206.717   6
  -2  -3   1 4596.50 226.363   5
  -2  -3   1 4358.30 228.695  12
  -2  -3   2 1912.07 106.134   5
  -2  -3   2 1755.89 103.370   9
  -2  -3   2 1832.22 108.513  12
  -2  -3   2 1742.35 98.8243  11
  -2  -3   2 1778.01 95.3695   4
  -2  -3   2 1760.28 86.7277   8
  -2  -3   2 1859.99 93.6493   7
  -2  -3   2 1729.29 103.036   2
  -2  -3   2 1832.17 93.2777   6
  -2  -3   2 1907.65 102.378   3
  -2  -3   3 2029.07 118.864  10
  -2  -3   3 1954.83 113.949   5
  -2  -3   3 2173.36 116.655  12
  -2  -3   3 2025.00 111.757   9
  -2  -3   3 1939.94 110.973  11
  -2  -3   3 1923.23 100.174   8
  -2  -3   3 1964.89 105.042   7
  -2  -3   3 1818.92 114.264   2
  -2  -3   3 1857.00 105.452   3
  -2  -3   4 5230.65 275.662  10
  -2  -3   4 5487.34 263.199  12
  -2  -3   4 5148.11 260.728   9
  -2  -3   4 5256.79 254.797   8
  -2  -3   4 5305.37 263.246   7
  -2  -3   4 4933.43 270.225   2
  -2  -3   4 5241.67 251.611   3
  -2  -3   4 4920.84 263.674   5
  -2  -3   4 5087.17 266.408  11
  -2  -3   5 5588.83 286.366   5
  -2  -3   5 5714.55 278.480   9
  -2  -3   5 5061.73 275.333   8
  -2  -3   5 5345.18 295.094   2
  -2  -3   5 5815.34 280.628   8
  -2  -3   5 5658.74 287.181   7
  -2  -3   5 5504.23 300.514  10
  -2  -3   5 5164.06 284.416   6
  -2  -3   5 5902.15 279.217  12
  -2  -3   5 5816.56 292.065  11
  -2  -3   6 98.5210 28.3756  10
  -2  -3   6 58.0562 9.50875   1
  -2  -3   6 59.8284 19.5751   5
  -2  -3   6 69.0221 17.2633   9
  -2  -3   6 70.6631 21.3020   6
  -2  -3   6 54.1856 21.7009  11
  -2  -3   6 69.7288 19.8712   8
  -2  -3   6 57.8385 22.2046   2
  -2  -3   6 37.4406 15.1343   8
  -2  -3   6 62.1997 9.07109   1
  -2  -3   6 77.5609 22.1252   7
  -2  -3   6 90.5940 17.4728  12
  -2  -3   7 340.548 25.2951   1
  -2  -3   7 338.355 56.4822  10
  -2  -3   7 310.982 42.5477   8
  -2  -3   7 333.245 45.1171   5
  -2  -3   7 355.582 43.3253   8
  -2  -3   7 336.329 50.0258  11
  -2  -3   7 353.734 54.7418   2
  -2  -3   7 372.815 33.2888  12
  -2  -3   7 343.862 27.1476   1
  -2  -3   7 373.470 49.2225   7
  -2  -3   7 290.568 44.1291   6
  -2  -3   8 81.0238 31.9927  10
  -2  -3   8 34.4568 18.9058   5
  -2  -3   8 47.0793 22.5323   6
  -2  -3   8 68.0087 24.3270   8
  -2  -3   8 53.3169 19.8603   8
  -2  -3   8 59.6407 27.4401   2
  -2  -3   8 79.8558 28.0380  11
  -2  -3   8 123.036 32.2515   7
  -2  -3   9 103.153 39.6405  10
  -2  -3   9 95.0259 29.7398   6
  -2  -2 -10 202.188 42.5802   2
  -2  -2 -10 251.169 48.8222  11
  -2  -2  -9 291.766 50.6057  10
  -2  -2  -9 334.558 41.0967   5
  -2  -2  -9 342.485 31.7860   9
  -2  -2  -9 257.525 48.1506  11
  -2  -2  -9 330.798 25.4715   3
  -2  -2  -9 274.450 35.7738   4
  -2  -2  -9 329.079 30.9816   9
  -2  -2  -9 262.445 47.1241   2
  -2  -2  -8 591.348 53.6778   5
  -2  -2  -8 430.532 58.6701  10
  -2  -2  -8 458.854 40.7926   9
  -2  -2  -8 501.087 41.9236   9
  -2  -2  -8 451.094 45.6990   4
  -2  -2  -8 479.304 58.8207   2
  -2  -2  -8 511.355 37.1933   3
  -2  -2  -8 513.002 62.3269  11
  -2  -2  -7 1393.89 108.458  10
  -2  -2  -7 1318.73 84.2331   9
  -2  -2  -7 1215.05 102.543  11
  -2  -2  -7 1385.72 90.8079   4
  -2  -2  -7 1475.32 107.377   2
  -2  -2  -7 1439.00 95.0444   5
  -2  -2  -7 1303.56 79.1395   3
  -2  -2  -6 1141.15 74.2344   9
  -2  -2  -6 1129.73 77.9697   4
  -2  -2  -6 1030.27 86.5057   2
  -2  -2  -6 1075.42 79.4499   5
  -2  -2  -6 1220.51 95.2102   7
  -2  -2  -6 995.582 88.0588  10
  -2  -2  -6 1120.10 58.4768  12
  -2  -2  -6 1153.40 70.4979   3
  -2  -2  -6 1284.19 94.8379  11
  -2  -2  -5 105.433 23.3226  11
  -2  -2  -5 82.9349 14.5681   3
  -2  -2  -5 97.4497 17.1394   9
  -2  -2  -5 110.468 19.3611   4
  -2  -2  -5 93.3127 11.7627  12
  -2  -2  -5 89.7386 24.1501   7
  -2  -2  -5 88.8255 21.9008   2
  -2  -2  -4 2745.78 143.054   9
  -2  -2  -4 2676.05 145.468   4
  -2  -2  -4 2745.23 155.107   2
  -2  -2  -4 2585.50 132.789  12
  -2  -2  -4 2622.85 154.638  11
  -2  -2  -4 2590.95 139.356   3
  -2  -2  -3 7431.90 350.069   9
  -2  -2  -3 7859.87 353.765   4
  -2  -2  -3 7418.87 343.518  12
  -2  -2  -3 7277.66 348.152   3
  -2  -2  -2 47833.3 1932.69   9
  -2  -2  -2 37664.2 1932.13   7
  -2  -2  -2 39586.1 1929.66   6
  -2  -2  -2 37201.9 1928.47   4
  -2  -2  -2 46094.8 1927.69  12
  -2  -2  -2 46107.1 1931.07   3
  -2  -2  -1 3122.54 172.538   5
  -2  -2  -1 3258.79 172.792   9
  -2  -2  -1 3251.15 173.365  10
  -2  -2  -1 3560.19 171.678   8
  -2  -2  -1 3441.92 169.538   6
  -2  -2  -1 3459.01 173.202   7
  -2  -2  -1 3897.69 174.880  12
  -2  -2   0 32287.1 1457.16   4
  -2  -2   0 32250.0 1452.45   8
  -2  -2   0 32505.3 1455.53   7
  -2  -2   0 31648.5 1451.84   6
  -2  -2   0 31042.9 1458.24   3
  -2  -2   1 11851.3 557.482   5
  -2  -2   1 12132.2 556.789   9
  -2  -2   1 11948.4 553.810   3
  -2  -2   1 11661.1 547.233   8
  -2  -2   1 11763.6 551.101   7
  -2  -2   1 12290.1 552.221   4
  -2  -2   1 12062.9 557.030  12
  -2  -2   1 11746.6 549.060   6
  -2  -2   2 2681.01 142.017   5
  -2  -2   2 2590.00 138.907   9
  -2  -2   2 2718.43 139.591  12
  -2  -2   2 2705.83 137.575   7
  -2  -2   2 2613.43 142.366   2
  -2  -2   2 2624.17 137.228   6
  -2  -2   2 2715.28 133.878   8
  -2  -2   2 2710.09 135.791   3
  -2  -2   2 2375.35 138.996  11
  -2  -2   3 2438.50 146.746  10
  -2  -2   3 2596.05 122.157   1
  -2  -2   3 2626.37 136.667   8
  -2  -2   3 2512.39 145.539   2
  -2  -2   3 2704.90 139.570   9
  -2  -2   3 2635.69 132.728   3
  -2  -2   3 2609.96 137.088  12
  -2  -2   3 2412.37 142.035  11
  -2  -2   3 2472.86 141.644   5
  -2  -2   4 3179.81 172.472   5
  -2  -2   4 3006.88 179.723  10
  -2  -2   4 3235.32 168.830   8
  -2  -2   4 3144.30 152.591   1
  -2  -2   4 3168.79 166.886   9
  -2  -2   4 3113.54 161.779  12
  -2  -2   4 2999.07 174.271  11
  -2  -2   4 2961.96 176.561   2
  -2  -2   5 6493.90 331.489   5
  -2  -2   5 6308.96 321.692   9
  -2  -2   5 6632.29 329.136   8
  -2  -2   5 6680.00 346.457  10
  -2  -2   5 6319.44 336.201   7
  -2  -2   5 6576.72 310.477   1
  -2  -2   5 6217.39 339.526   2
  -2  -2   5 6552.88 315.396  12
  -2  -2   5 6401.40 337.649  11
  -2  -2   6 1514.06 105.962   5
  -2  -2   6 1450.40 85.9992  12
  -2  -2   6 1325.06 110.770   2
  -2  -2   6 1398.68 108.614   7
  -2  -2   6 1541.67 88.2604   1
  -2  -2   6 1522.08 105.031   8
  -2  -2   6 1417.80 110.324  11
  -2  -2   6 1307.41 113.031  10
  -2  -2   7 238.038 29.4735   1
  -2  -2   7 228.488 38.3468   5
  -2  -2   7 298.252 49.1586   2
  -2  -2   7 234.604 46.2465  10
  -2  -2   7 224.563 40.6705   8
  -2  -2   7 246.586 43.9742  11
  -2  -2   7 157.381 36.0115   7
  -2  -2   8 60.2630 25.5633   6
  -2  -2   8 58.1127 30.5010  10
  -2  -2   8 55.4246 24.6586   5
  -2  -2   8 61.9653 25.0585   8
  -2  -2   8 100.457 33.4149   7
  -2  -2   8 34.2979 19.4080   8
  -2  -2   8 62.0416 30.6054   2
  -2  -2   8 34.6800 23.4912  11
  -2  -2   9 47.0885 27.6396  11
  -2  -2   9 12.8446 21.6666   8
  -2  -2   9 30.3908 23.1811   7
  -2  -2   9 44.9061 27.3931   2
  -2  -2   9 7.71509 20.7657   6
  -2  -1 -10 682.320 74.5217   2
  -2  -1 -10 539.014 73.1208  10
  -2  -1 -10 704.720 75.5380  11
  -2  -1  -9 460.881 40.8092   5
  -2  -1  -9 306.965 48.1216   2
  -2  -1  -9 414.389 58.2194  10
  -2  -1  -9 374.315 35.2549   4
  -2  -1  -9 393.515 54.3328  11
  -2  -1  -8 713.086 73.4184  10
  -2  -1  -8 675.231 38.0499   9
  -2  -1  -8 679.429 37.8597   9
  -2  -1  -8 587.636 48.8093   4
  -2  -1  -8 861.652 74.7326   2
  -2  -1  -8 706.808 53.2235   5
  -2  -1  -8 737.099 71.9966  11
  -2  -1  -7 73.9962 23.0204   2
  -2  -1  -7 4.96599 12.4402  10
  -2  -1  -7 27.6998 12.0428   5
  -2  -1  -7 30.7533 7.94160   9
  -2  -1  -7 37.0862 7.86079   3
  -2  -1  -7 27.8744 7.50160   9
  -2  -1  -7 40.5608 12.7265   4
  -2  -1  -7 41.1908 18.9131   7
  -2  -1  -7 55.0453 20.3621  11
  -2  -1  -6 3822.13 194.647   5
  -2  -1  -6 3805.18 215.370  10
  -2  -1  -6 3757.76 182.871   9
  -2  -1  -6 3875.40 183.030   3
  -2  -1  -6 3732.39 210.429   2
  -2  -1  -6 3630.21 192.004   4
  -2  -1  -6 3807.75 217.261   7
  -2  -1  -6 3570.15 210.567  11
  -2  -1  -5 2271.16 112.081   9
  -2  -1  -5 2020.04 133.127  10
  -2  -1  -5 2304.95 119.834   4
  -2  -1  -5 2153.72 131.923   2
  -2  -1  -5 2347.09 139.052   7
  -2  -1  -5 2149.93 111.440   3
  -2  -1  -5 2174.15 133.096  11
  -2  -1  -5 2040.98 118.646   5
  -2  -1  -4 1833.15 116.871  10
  -2  -1  -4 1903.95 98.4920   9
  -2  -1  -4 1934.24 105.009   4
  -2  -1  -4 1876.01 114.799   2
  -2  -1  -4 2018.72 119.564   7
  -2  -1  -4 1894.72 99.3375   3
  -2  -1  -4 1909.19 95.0262  12
  -2  -1  -3 12847.8 563.077   9
  -2  -1  -3 12339.9 579.058  10
  -2  -1  -3 12504.9 564.122   3
  -2  -1  -3 12497.1 568.060   4
  -2  -1  -3 12147.9 576.405   2
  -2  -1  -3 11380.3 577.374   7
  -2  -1  -3 11582.2 559.797  12
  -2  -1  -2 23023.3 1249.09  10
  -2  -1  -2 28467.1 1244.02   5
  -2  -1  -2 28104.1 1242.72   9
  -2  -1  -2 28598.7 1246.55   4
  -2  -1  -2 26439.9 1250.64   2
  -2  -1  -2 27443.6 1241.42  12
  -2  -1  -2 27599.3 1243.70   3
  -2  -1  -1 6531.27 280.896   9
  -2  -1  -1 7015.60 282.153   5
  -2  -1  -1 6422.32 279.913  12
  -2  -1  -1 5279.90 280.303   6
  -2  -1  -1 5341.63 281.630   8
  -2  -1  -1 5023.73 277.785   3
  -2  -1   0 3268.09 165.094   8
  -2  -1   0 3345.57 166.594   7
  -2  -1   0 3406.29 165.295   6
  -2  -1   1 1468.27 85.2979  11
  -2  -1   1 1457.40 83.5986   9
  -2  -1   1 1548.01 84.6935   7
  -2  -1   1 1371.50 81.1570   8
  -2  -1   1 1522.70 83.5293   6
  -2  -1   1 1461.77 81.4511   3
  -2  -1   1 1512.56 77.1073   1
  -2  -1   1 1474.00 81.7598  12
  -2  -1   2 18978.6 851.705   9
  -2  -1   2 18199.7 855.070  11
  -2  -1   2 18168.7 846.771  12
  -2  -1   2 18204.7 850.259   8
  -2  -1   2 18847.1 841.809   1
  -2  -1   2 18150.1 853.073   6
  -2  -1   2 17831.0 853.241   5
  -2  -1   3 903.264 65.9065   5
  -2  -1   3 791.383 66.7736  10
  -2  -1   3 970.988 64.1392   9
  -2  -1   3 995.182 59.6893  12
  -2  -1   3 925.988 64.4226   8
  -2  -1   3 861.174 67.7562   2
  -2  -1   3 919.389 55.8526   1
  -2  -1   3 873.678 67.4865  11
  -2  -1   4 1823.79 112.950   5
  -2  -1   4 1802.59 118.871  10
  -2  -1   4 1752.28 106.657   9
  -2  -1   4 1750.01 110.111   8
  -2  -1   4 1753.91 115.635  11
  -2  -1   4 1610.40 114.061   2
  -2  -1   4 1851.30 100.156   1
  -2  -1   4 1684.76 98.5339  12
  -2  -1   5 706.524 69.2311  11
  -2  -1   5 630.335 68.7369  10
  -2  -1   5 768.060 67.5538   5
  -2  -1   5 794.632 67.2857   8
  -2  -1   5 836.532 74.6118   2
  -2  -1   5 812.531 57.5829   1
  -2  -1   6 157.612 35.3851   2
  -2  -1   6 166.332 38.2934  10
  -2  -1   6 180.333 26.5685   1
  -2  -1   6 168.215 33.0598   8
  -2  -1   6 189.297 35.4725   5
  -2  -1   6 145.321 34.8866   7
  -2  -1   6 151.273 34.5004  11
  -2  -1   7 153.131 27.4064   1
  -2  -1   7 116.600 34.6703  10
  -2  -1   7 186.272 36.7701   5
  -2  -1   7 139.239 38.1001   2
  -2  -1   7 154.274 35.2362   8
  -2  -1   7 228.941 43.6529   7
  -2  -1   7 164.027 38.9499  11
  -2  -1   8 314.598 59.7343  10
  -2  -1   8 342.114 53.3501   5
  -2  -1   8 331.841 53.0715   8
  -2  -1   8 381.749 60.6641   7
  -2  -1   8 348.978 61.1997   2
  -2  -1   8 218.804 48.8324  11
  -2  -1   8 345.428 42.4891   1
  -2  -1   9 267.046 53.8798   6
  -2  -1   9 290.767 53.8380   8
  -2  -1   9 264.486 55.0139  11
  -2  -1   9 362.874 63.7733   7
  -2   0 -10 971.517 92.5241  10
  -2   0 -10 784.821 79.3268   2
  -2   0 -10 911.708 84.6894  11
  -2   0  -9 95.8346 26.9117   2
  -2   0  -9 162.132 35.8147  10
  -2   0  -9 134.428 16.4996   5
  -2   0  -9 182.593 35.2619  11
  -2   0  -8 701.979 43.6840   5
  -2   0  -8 685.373 44.4832   4
  -2   0  -8 630.661 68.3167  10
  -2   0  -8 660.418 64.4341   2
  -2   0  -8 670.974 66.1217  11
  -2   0  -7 525.410 34.6295   5
  -2   0  -7 548.164 53.5198   2
  -2   0  -7 539.414 57.3591  10
  -2   0  -7 501.347 57.1839   7
  -2   0  -7 500.808 36.6730   4
  -2   0  -7 540.871 54.4704  11
  -2   0  -6 2790.59 139.327   5
  -2   0  -6 2810.47 168.755  10
  -2   0  -6 2919.01 144.252   4
  -2   0  -6 2887.34 162.802   2
  -2   0  -6 2947.69 171.565   7
  -2   0  -6 2734.44 163.125  11
  -2   0  -5 7204.88 337.731   5
  -2   0  -5 7297.31 365.722  10
  -2   0  -5 7314.95 343.881   4
  -2   0  -5 7673.19 369.734   6
  -2   0  -5 7018.03 360.010  11
  -2   0  -5 7206.40 358.985   2
  -2   0  -5 7509.62 367.781   7
  -2   0  -4 3769.21 209.383  10
  -2   0  -4 4061.19 195.123   4
  -2   0  -4 4071.21 212.649   8
  -2   0  -4 3908.76 204.981   2
  -2   0  -4 4155.35 213.477   6
  -2   0  -4 3966.00 210.946   7
  -2   0  -3 2323.74 132.105  10
  -2   0  -3 2364.66 117.444   9
  -2   0  -3 2437.38 123.647   4
  -2   0  -3 2585.74 136.475   8
  -2   0  -3 2425.24 129.216   2
  -2   0  -3 2394.00 133.536   7
  -2   0  -3 2544.83 136.389   6
  -2   0  -2 456.873 37.1159  10
  -2   0  -2 499.150 30.2857   5
  -2   0  -2 520.142 32.7537   9
  -2   0  -2 537.341 40.9334   8
  -2   0  -2 542.094 36.5501   2
  -2   0  -2 477.197 38.5095   7
  -2   0  -2 493.800 39.5087   6
  -2   0  -1 19116.8 865.364   9
  -2   0  -1 19175.5 869.621   7
  -2   0  -1 17815.3 866.900  10
  -2   0  -1 19818.3 863.270   5
  -2   0  -1 18192.0 866.671  12
  -2   0   0 9899.68 491.359   1
  -2   0   0 9147.01 490.615   9
  -2   0   0 11730.3 492.038   2
  -2   0   0 11540.6 493.114   5
  -2   0   1 8874.28 439.178  12
  -2   0   1 8669.08 441.374   8
  -2   0   1 9311.83 439.257   1
  -2   0   2 11519.3 537.145   8
  -2   0   2 10722.9 538.061  10
  -2   0   2 12228.5 540.673   2
  -2   0   2 10966.4 535.330   9
  -2   0   2 11236.2 538.331   6
  -2   0   2 11207.5 530.225   1
  -2   0   3 2951.57 167.044   5
  -2   0   3 2781.16 167.572  11
  -2   0   3 2918.89 164.537   8
  -2   0   3 3107.42 158.697   1
  -2   0   4 5549.90 287.017   5
  -2   0   4 5093.31 287.768  11
  -2   0   4 5508.91 274.066   1
  -2   0   4 5435.26 284.084   8
  -2   0   5 306.136 35.8935   1
  -2   0   5 216.169 38.4401   2
  -2   0   5 312.021 42.8773   5
  -2   0   5 312.713 42.9770   8
  -2   0   5 290.070 44.3301  11
  -2   0   6 1500.19 116.815   5
  -2   0   6 1486.36 122.012  10
  -2   0   6 1446.31 113.367   8
  -2   0   6 1344.51 116.776   2
  -2   0   6 1498.74 120.510   7
  -2   0   6 1614.33 105.945   1
  -2   0   6 1691.93 125.719  11
  -2   0   7 300.752 54.1346  10
  -2   0   7 264.033 50.1721   2
  -2   0   7 199.865 40.5523   8
  -2   0   7 261.860 49.0368   7
  -2   0   7 278.635 39.6426   1
  -2   0   7 228.234 44.4504   5
  -2   0   7 269.510 50.6955  11
  -2   0   8 103.898 33.1434   5
  -2   0   8 164.329 32.7298   1
  -2   0   8 270.960 49.4947   8
  -2   0   8 235.529 51.4790  10
  -2   0   8 169.437 44.0426   7
  -2   0   8 226.920 49.9870  11
  -2   0   8 136.272 41.2988   2
  -2   0   9 409.028 66.4660   8
  -2   0   9 345.186 64.6880   7
  -2   0   9 337.519 64.9434  11
  -2   1 -10 160.295 36.9737  10
  -2   1 -10 175.494 33.8266   2
  -2   1  -9-4.09261 13.7887   2
  -2   1  -9 10.6602 15.3147  10
  -2   1  -9-4.17061 12.7101  11
  -2   1  -8 653.474 60.3315   2
  -2   1  -8 654.270 67.8733   7
  -2   1  -8 764.737 64.6823  11
  -2   1  -8 707.537 68.8923  10
  -2   1  -7 1083.16 86.4617  10
  -2   1  -7 1079.35 78.9815   2
  -2   1  -7 1112.83 81.3677  11
  -2   1  -7 1245.58 91.7113   7
  -2   1  -6 1767.00 116.633  10
  -2   1  -6 1860.57 111.898  11
  -2   1  -6 1789.23 108.362   2
  -2   1  -6 1890.11 120.020   7
  -2   1  -5 1877.92 113.335  10
  -2   1  -5 1849.12 104.969   2
  -2   1  -5 1815.40 114.048   7
  -2   1  -5 1861.26 117.125   6
  -2   1  -5 1737.75 106.135  11
  -2   1  -5 1815.33 114.987   8
  -2   1  -4 860.171 61.9743  10
  -2   1  -4 890.469 65.8116   6
  -2   1  -4 871.968 63.7424   7
  -2   1  -4 833.073 64.3284   8
  -2   1  -4 883.176 55.9410   2
  -2   1  -3 1848.53 101.691  10
  -2   1  -3 1805.30 105.846   8
  -2   1  -3 1770.82 94.1074   2
  -2   1  -3 1752.65 102.610   7
  -2   1  -3 1725.39 104.746   6
  -2   1  -2 8871.54 429.480   5
  -2   1  -2 9251.98 435.954  10
  -2   1  -2 10276.7 447.249   1
  -2   1  -2 9543.68 442.978   8
  -2   1  -2 9033.26 429.416   2
  -2   1  -2 9264.65 439.422   7
  -2   1  -2 9748.21 443.262   6
  -2   1  -1 8265.79 393.043   8
  -2   1  -1 8295.63 391.164   7
  -2   1  -1 8360.88 382.007   2
  -2   1  -1 8115.77 392.068   6
  -2   1  -1 8011.61 387.199   5
  -2   1   0 17892.0 873.364   8
  -2   1   0 19001.7 873.032  11
  -2   1   0 19272.1 874.227   7
  -2   1   0 18782.4 872.793   5
  -2   1   0 19038.1 867.271   2
  -2   1   0 19154.6 874.143   6
  -2   1   1 5527.06 279.722   5
  -2   1   1 6164.68 282.220  11
  -2   1   1 5913.54 276.616   2
  -2   1   1 5154.80 275.122   1
  -2   1   1 5243.06 277.125   6
  -2   1   2 543.286 47.9346   1
  -2   1   2 591.237 53.1616  11
  -2   1   2 657.894 52.7347   2
  -2   1   2 705.848 54.7817  10
  -2   1   3 3180.71 186.392   8
  -2   1   3 3565.83 191.906   2
  -2   1   3 3629.71 192.870  10
  -2   1   3 3170.98 181.353   1
  -2   1   4 774.330 75.3899   5
  -2   1   4 948.619 78.0016   8
  -2   1   4 941.778 80.0887  10
  -2   1   4 953.762 72.8371   1
  -2   1   5 430.484 53.9063  10
  -2   1   5 293.942 44.9020   5
  -2   1   5 293.617 39.4558   1
  -2   1   5 318.475 44.4997   8
  -2   1   5 250.221 42.7060   2
  -2   1   5 336.594 48.4364  11
  -2   1   6 823.825 87.0805   5
  -2   1   6 1052.44 97.2394   7
  -2   1   6 877.912 86.2109   8
  -2   1   6 1016.46 96.6165  11
  -2   1   6 1031.62 83.1125   1
  -2   1   6 983.810 95.9512  10
  -2   1   7 1161.27 104.680   8
  -2   1   7 1233.82 113.752   7
  -2   1   7 1134.28 94.4431   1
  -2   1   7 1055.11 108.167  11
  -2   1   8 309.422 48.7004   1
  -2   1   8 306.079 54.7855   8
  -2   1   8 257.685 54.0769   7
  -2   1   8 320.553 59.9284  11
  -2   1   8 314.221 60.6358   2
  -2   2  -9 33.6186 18.9253  10
  -2   2  -9 19.3528 12.7350   2
  -2   2  -8 109.897 25.9573  10
  -2   2  -8 53.0744 15.8635   2
  -2   2  -8 74.7671 18.5172  11
  -2   2  -7 88.1589 21.7374  10
  -2   2  -7 69.6310 15.7009   2
  -2   2  -7 81.2177 17.6682  11
  -2   2  -7 92.6484 23.1491   7
  -2   2  -6 380.653 40.5292  10
  -2   2  -6 383.812 42.5093   7
  -2   2  -6 355.547 31.9763   2
  -2   2  -6 393.269 35.4519  11
  -2   2  -5 1811.65 108.745  10
  -2   2  -5 1639.59 112.340   8
  -2   2  -5 1836.65 112.192   7
  -2   2  -5 1844.07 97.4430   2
  -2   2  -5 1895.55 117.382   6
  -2   2  -5 1934.33 103.257  11
  -2   2  -4 1812.33 100.538  10
  -2   2  -4 1955.69 110.023   8
  -2   2  -4 1661.74 102.865   7
  -2   2  -4 1706.00 86.9082   2
  -2   2  -4 1584.46 105.468   6
  -2   2  -3 3727.99 188.876   7
  -2   2  -3 3763.66 193.439   8
  -2   2  -3 3687.62 183.688  10
  -2   2  -3 3408.94 191.290   6
  -2   2  -3 3724.42 196.269   1
  -2   2  -2 495.762 35.7952  10
  -2   2  -2 603.158 48.0247   1
  -2   2  -2 457.147 41.5588   8
  -2   2  -2 527.595 40.9790   7
  -2   2  -2 546.752 44.2258   6
  -2   2  -2 548.037 37.4616  11
  -2   2  -1 7599.91 348.763   1
  -2   2  -1 7298.67 337.869  11
  -2   2  -1 6939.72 342.688   8
  -2   2  -1 6961.92 339.462   7
  -2   2  -1 6856.67 327.687   2
  -2   2  -1 6802.65 341.270   6
  -2   2   0 9363.79 432.520  11
  -2   2   0 8135.14 433.218   5
  -2   2   0 9115.14 434.335   8
  -2   2   0 9009.01 431.910   7
  -2   2   0 8949.78 424.000   2
  -2   2   0 9365.77 433.799   6
  -2   2   1 1258.99 85.6183   5
  -2   2   1 1207.70 78.1893  10
  -2   2   1 1197.73 82.1632   8
  -2   2   1 1139.15 76.8904   2
  -2   2   1 1286.93 82.9840   6
  -2   2   1 1222.87 82.8365  11
  -2   2   2 3329.84 179.698   5
  -2   2   2 3125.00 170.709  10
  -2   2   2 2914.28 168.775   2
  -2   2   2 3178.77 173.522   6
  -2   2   2 2663.78 167.042   1
  -2   2   2 3007.46 174.786  11
  -2   2   2 3116.60 173.231   8
  -2   2   3 396.462 45.1593  10
  -2   2   3 347.467 40.9813   1
  -2   2   3 330.007 41.7393   2
  -2   2   3 363.223 43.9529   6
  -2   2   3 408.161 47.8027  11
  -2   2   4 2951.79 207.293   5
  -2   2   4 3831.15 216.456   2
  -2   2   4 3821.17 213.282   6
  -2   2   4 3621.39 205.809   1
  -2   2   4 3662.77 218.114  11
  -2   2   4 3908.77 216.571  10
  -2   2   5 23.5464 18.9446  10
  -2   2   5 43.0342 21.8878   8
  -2   2   5 13.8851 14.9122   1
  -2   2   5 35.7023 21.8243   2
  -2   2   6 1527.73 125.491  10
  -2   2   6 1334.44 114.818   8
  -2   2   6 1559.74 127.776   2
  -2   2   6 1433.44 123.789   7
  -2   2   6 1395.06 110.061   1
  -2   2   7 226.277 49.4041  10
  -2   2   7 183.031 43.2654   8
  -2   2   7 219.617 40.4115   1
  -2   2   7 218.153 48.7082   7
  -2   2   7 147.914 41.8859  11
  -2   2   7 229.649 50.1159   2
  -2   2   8 57.5010 26.7842   1
  -2   2   8 18.4883 23.0307  11
  -2   2   8 27.3106 26.1815   7
  -2   2   8 7.95638 22.8892   8
  -2   2   9 502.618 69.9128   1
  -2   3  -8 67.9057 19.7891  10
  -2   3  -7 477.285 45.3826  10
  -2   3  -7 415.157 32.1935   2
  -2   3  -7 423.222 45.6927   7
  -2   3  -7 456.713 32.2859  11
  -2   3  -6 90.7054 22.6392   6
  -2   3  -6 62.0746 16.4994  10
  -2   3  -6 84.7564 19.9763   7
  -2   3  -6 74.0448 11.0280  11
  -2   3  -5 2040.28 111.946  10
  -2   3  -5 2046.98 125.551   6
  -2   3  -5 1799.65 120.514   8
  -2   3  -5 2005.43 118.349   7
  -2   3  -5 2060.14 100.348  11
  -2   3  -4 1706.67 93.7204  10
  -2   3  -4 1767.41 108.025   8
  -2   3  -4 1652.92 87.2544  11
  -2   3  -4 1640.59 101.771   7
  -2   3  -4 1708.37 108.008   6
  -2   3  -4 1840.42 86.8899  11
  -2   3  -3 2529.59 143.989   1
  -2   3  -3 2417.66 137.704   8
  -2   3  -3 2366.26 137.659   6
  -2   3  -3 2382.71 132.384   7
  -2   3  -3 2458.27 121.111  11
  -2   3  -3 2411.12 121.540  10
  -2   3  -2 1560.42 93.8477   1
  -2   3  -2 1360.12 85.5536   8
  -2   3  -2 1182.96 79.3039   7
  -2   3  -2 1275.59 70.1588  10
  -2   3  -2 1356.63 85.1471   6
  -2   3  -2 1320.86 75.0088  11
  -2   3  -1 1180.02 66.0468  10
  -2   3  -1 1227.75 79.9997   8
  -2   3  -1 1108.91 63.7717   2
  -2   3  -1 1161.72 75.1423   7
  -2   3  -1 1223.31 66.8997  10
  -2   3  -1 1254.50 79.4148   6
  -2   3  -1 1265.84 85.2234   1
  -2   3  -1 1101.55 72.5947  11
  -2   3   0 6715.59 349.626   8
  -2   3   0 7128.47 338.821  10
  -2   3   0 7008.54 338.910   2
  -2   3   0 6953.84 347.189   7
  -2   3   0 6995.46 347.868  11
  -2   3   0 7076.63 355.449   1
  -2   3   0 7396.20 350.244   6
  -2   3   1 1428.49 97.0873  11
  -2   3   1 1373.16 95.9906   8
  -2   3   1 1389.32 90.7066   2
  -2   3   1 1469.69 96.1078   7
  -2   3   1 1555.93 97.9353   6
  -2   3   1 1420.96 89.9990  10
  -2   3   2 4136.36 219.870  10
  -2   3   2 4232.08 228.803  11
  -2   3   2 4212.34 226.258   8
  -2   3   2 3724.48 217.961   2
  -2   3   2 4108.85 223.532   6
  -2   3   3 4222.43 231.959  10
  -2   3   3 4160.25 234.087   8
  -2   3   3 4344.35 234.779   2
  -2   3   3 4368.25 234.733   6
  -2   3   3 3803.96 228.640   1
  -2   3   3 3923.37 236.562  11
  -2   3   4 4906.15 279.804   8
  -2   3   4 5057.89 281.471  10
  -2   3   4 5226.87 285.169   2
  -2   3   4 4954.12 279.705   6
  -2   3   4 4526.63 273.076   1
  -2   3   4 5799.79 296.157  11
  -2   3   5 37.3605 21.7848   1
  -2   3   5 42.9838 24.2466  10
  -2   3   5 40.8462 20.6370   6
  -2   3   5 69.6295 27.3587   2
  -2   3   5 47.5449 25.8984  11
  -2   3   6 57.7990 27.5014  10
  -2   3   6 44.6282 26.2165   2
  -2   3   6 29.5170 19.9452   1
  -2   3   6 22.9277 22.0093   7
  -2   3   6 33.4880 24.5761   6
  -2   3   6 23.3462 22.4091  11
  -2   3   7 327.432 60.8651  10
  -2   3   7 332.107 52.8670   1
  -2   3   7 353.005 58.9323   8
  -2   3   7 293.175 59.2652   2
  -2   3   7 313.232 56.7860   6
  -2   3   8 456.686 65.2616   1
  -2   4  -6 185.633 30.8706   6
  -2   4  -6 141.134 26.5510   8
  -2   4  -6 179.403 25.4923   7
  -2   4  -5 1874.08 119.839   6
  -2   4  -5 1944.22 119.259   8
  -2   4  -5 1900.75 111.035   7
  -2   4  -4 2749.03 154.564   8
  -2   4  -4 2649.19 145.918   7
  -2   4  -4 2705.02 154.743   6
  -2   4  -3 3818.54 200.942   1
  -2   4  -3 3456.73 190.539   6
  -2   4  -3 3612.53 191.815   8
  -2   4  -3 3374.86 182.816   7
  -2   4  -2 4187.78 222.251   1
  -2   4  -2 4072.20 213.672   8
  -2   4  -2 3797.88 205.262   7
  -2   4  -2 4314.25 214.410   6
  -2   4  -2 3918.70 198.478  11
  -2   4  -1 4197.69 228.822   1
  -2   4  -1 4025.70 198.359  10
  -2   4  -1 3972.10 220.064   8
  -2   4  -1 4353.64 198.859   2
  -2   4  -1 4242.37 216.575   7
  -2   4  -1 4162.40 198.574  10
  -2   4  -1 4248.29 220.120   6
  -2   4  -1 4049.94 212.765  11
  -2   4   0 203.666 22.1529  10
  -2   4   0 186.252 31.0522   1
  -2   4   0 165.119 28.2894   8
  -2   4   0 165.788 27.1834   6
  -2   4   0 188.377 27.3926   7
  -2   4   0 170.679 22.2499   2
  -2   4   0 192.197 27.8986  11
  -2   4   1 896.197 63.5275  10
  -2   4   1 883.270 66.2931   2
  -2   4   1 815.298 68.5757   7
  -2   4   1 720.337 69.6494   1
  -2   4   1 845.239 69.6798   6
  -2   4   1 800.354 69.7401  11
  -2   4   2 736.625 63.4991  10
  -2   4   2 803.027 71.2969   8
  -2   4   2 803.195 67.4003   2
  -2   4   2 710.507 67.0721   6
  -2   4   2 792.619 71.9714  11
  -2   4   3 3662.61 217.187   8
  -2   4   3 3211.67 211.951   1
  -2   4   3 3798.10 215.919   2
  -2   4   3 3912.59 224.519  11
  -2   4   3 3899.46 214.073  10
  -2   4   3 3714.49 215.899   6
  -2   4   4 1306.69 104.352  10
  -2   4   4 1375.00 112.970  11
  -2   4   4 1336.88 106.907   8
  -2   4   4 1224.95 103.898   2
  -2   4   4 1241.92 103.245   6
  -2   4   4 1126.08 100.099   1
  -2   4   5 146.259 36.8822  10
  -2   4   5 96.6239 30.5332   1
  -2   4   5 214.600 43.3074   8
  -2   4   5 313.756 53.5597   7
  -2   4   5 227.996 43.6839   6
  -2   4   5 207.556 43.2524   2
  -2   4   5 227.075 49.4723  11
  -2   4   6 1133.87 108.720  10
  -2   4   6 1193.65 107.786   8
  -2   4   6 1128.11 110.280   2
  -2   4   6 962.112 106.521   7
  -2   4   6 1275.84 111.064   6
  -2   4   6 852.719 93.0479   1
  -2   4   6 1107.42 113.411  11
  -2   4   7 285.383 59.0237  10
  -2   5  -5 341.020 40.7344   8
  -2   5  -5 358.643 33.5578   7
  -2   5  -5 379.108 43.0138   6
  -2   5  -4 456.689 46.0298   8
  -2   5  -4 460.712 38.6036   7
  -2   5  -4 388.354 47.5502   1
  -2   5  -4 430.376 44.8680   6
  -2   5  -3 92.7230 24.9632   1
  -2   5  -3 99.5748 22.7741   8
  -2   5  -3 85.4197 16.8579   7
  -2   5  -3 110.697 23.5589   6
  -2   5  -2 676.374 65.6543   1
  -2   5  -2 749.160 47.5055  11
  -2   5  -2 734.752 60.4499   6
  -2   5  -2 685.237 59.8808   8
  -2   5  -2 718.011 54.9064   7
  -2   5  -1 1854.63 124.618   1
  -2   5  -1 1750.39 115.070   8
  -2   5  -1 1815.73 114.211   6
  -2   5  -1 1872.02 110.283   7
  -2   5  -1 1708.10 105.245  11
  -2   5   0 1019.23 62.2595  10
  -2   5   0 1014.99 80.6467   8
  -2   5   0 1110.33 69.1189   2
  -2   5   0 931.089 74.5177   7
  -2   5   0 1125.99 78.8897  11
  -2   5   0 1103.62 80.4507   6
  -2   5   0 939.740 84.0214   1
  -2   5   1 1175.48 78.0920  10
  -2   5   1 1103.96 89.1682  11
  -2   5   1 1281.49 99.0228   1
  -2   5   1 994.396 86.9268   8
  -2   5   1 1362.17 86.8765   2
  -2   5   1 1299.29 90.7253   7
  -2   5   1 1117.01 88.0654   6
  -2   5   2 90.9570 21.2857  10
  -2   5   2 115.825 28.1563   8
  -2   5   2 164.031 31.8977   7
  -2   5   2 101.748 27.6319   1
  -2   5   2 119.633 27.5909   2
  -2   5   2 89.8999 26.8083  11
  -2   5   2 102.937 26.1748   6
  -2   5   3 368.966 46.2849  10
  -2   5   3 337.596 47.2038   2
  -2   5   3 302.815 46.6486   8
  -2   5   3 311.570 49.6690  11
  -2   5   3 222.140 39.7327   6
  -2   5   4 97.7161 28.4456  10
  -2   5   4 105.940 30.6622   1
  -2   5   4 91.3817 28.7458   6
  -2   5   4 90.0877 28.9368   2
  -2   5   4 114.936 32.7991   8
  -2   5   4 74.9152 31.2366  11
  -2   5   5 447.279 62.0901  10
  -2   5   5 399.197 60.7710   8
  -2   5   5 499.997 65.1867   1
  -2   5   5 400.869 65.8713   7
  -2   5   5 445.777 62.2494   6
  -2   5   5 415.542 63.0035   2
  -2   5   5 451.999 70.4358  11
  -2   5   6-7.59639 23.1535  10
  -2   5   6 32.5965 27.4584   2
  -2   6  -4 233.750 38.5572   1
  -2   6  -3 311.057 45.4233   1
  -2   6  -3 257.922 35.5440   8
  -2   6  -3 319.418 38.8505   6
  -2   6  -2 349.803 48.5766   1
  -2   6  -2 310.959 33.5262   7
  -2   6  -2 284.732 38.8830   8
  -2   6  -2 344.255 39.8432   6
  -2   6  -1 105.883 24.9251   8
  -2   6  -1 107.999 29.3987   1
  -2   6  -1 74.8588 19.9388   7
  -2   6  -1 105.656 24.9177   6
  -2   6   0 384.201 51.9745   1
  -2   6   0 337.754 41.3519   7
  -2   6   0 384.274 47.2786   8
  -2   6   0 357.591 43.5323   6
  -2   6   0 326.986 40.1855  11
  -2   6   1 207.202 35.5257   6
  -2   6   1 171.689 33.2054   8
  -2   6   1 225.230 35.5519   7
  -2   6   1 175.271 33.1686  11
  -2   6   1 148.739 34.9015   1
  -2   6   1 181.125 29.6568   2
  -2   6   1 190.719 24.6559  10
  -2   6   2 796.190 80.8037   1
  -2   6   2 766.364 69.5917   2
  -2   6   2 606.699 69.9160   8
  -2   6   2 907.439 77.4281   7
  -2   6   2 777.036 73.3514   6
  -2   6   2 723.662 62.2096  10
  -2   6   2 765.097 75.0765  11
  -2   6   3 103.966 25.4255  10
  -2   6   3 78.4812 25.0776   2
  -2   6   3 52.5998 24.6298   8
  -2   6   3 32.3709 19.1798   7
  -2   6   3 52.5825 25.1307   7
  -2   6   3 58.3412 24.7890   1
  -2   6   3 75.2075 27.9585   6
  -2   6   3 55.7898 23.7183  11
  -2   6   4 412.158 53.8152  10
  -2   6   4 382.453 59.0691   8
  -2   6   4 434.221 60.4917   2
  -2   6   4 513.782 70.0068   7
  -2   6   4 401.639 58.0050   6
  -2   6   4 300.893 55.4788  11
  -2   6   5 584.127 75.0323   2
  -2   7  -3 118.333 30.3984   1
  -2   7  -2 167.201 37.4566   1
  -2   7  -1 151.300 37.0720   1
  -2   7   0 37.6059 18.5714   8
  -2   7   1 82.9063 27.6046   8
  -2   7   2 50.8350 26.8798   6
  -2   7   2 11.3914 19.2553   8
  -2   7   2 66.0336 26.6285   7
  -2   7   3 22.4709 23.5629   6
  -2   7   3 33.7437 22.8867   7
  -2   7   3 27.5398 23.2305   7
  -1  -9  -1 37.5572 28.6001   1
  -1  -9   0 132.836 42.4107   5
  -1  -9   0 70.7815 30.8038   1
  -1  -9   0 100.738 35.4198   4
  -1  -8  -5 352.905 59.0706  11
  -1  -8  -5 406.918 63.8438   2
  -1  -8  -4 288.578 50.2784   2
  -1  -8  -4 258.702 48.7479  11
  -1  -8  -3 837.276 102.054   9
  -1  -8  -3 837.526 102.489   5
  -1  -8  -3 704.655 85.7805   1
  -1  -8  -3 762.078 94.8307   4
  -1  -8  -3 1038.93 108.440  12
  -1  -8  -3 701.842 77.4110   2
  -1  -8  -3 855.163 81.8418  11
  -1  -8  -2 63.2949 24.4201   2
  -1  -8  -2 34.7332 28.0590   3
  -1  -8  -2 79.8883 33.8752   9
  -1  -8  -2 69.5250 27.5217   1
  -1  -8  -2 56.8002 30.9911   4
  -1  -8  -2 60.7592 31.9363   5
  -1  -8  -2 106.752 39.5078  12
  -1  -8  -2 85.2950 25.1965  11
  -1  -8  -1 124.658 40.9622   5
  -1  -8  -1 146.109 43.2218   3
  -1  -8  -1 131.281 43.0895   9
  -1  -8  -1 139.637 29.0442   2
  -1  -8  -1 118.569 32.6889   1
  -1  -8  -1 138.884 41.9386   4
  -1  -8  -1 157.718 29.0502  11
  -1  -8   0 228.850 50.7352   3
  -1  -8   0 211.183 41.5400   1
  -1  -8   0 101.504 38.2020  12
  -1  -8   0 131.341 37.7763   4
  -1  -8   0 188.087 50.4234   9
  -1  -8   1 98.4942 36.4255   9
  -1  -8   1 46.4843 27.0933   5
  -1  -8   1 63.9416 24.4688   1
  -1  -8   1 41.6184 31.7315   3
  -1  -8   1 33.9576 24.0235   4
  -1  -8   1 65.6156 35.7118  12
  -1  -8   2 226.238 50.5412   3
  -1  -8   2 217.615 54.7068  12
  -1  -8   2 187.103 41.0047   5
  -1  -8   2 266.962 52.6374   9
  -1  -8   2 328.921 48.7788   1
  -1  -8   2 311.900 50.0515   4
  -1  -8   3 750.627 87.0103   3
  -1  -8   3 694.760 82.2646   9
  -1  -8   3 572.364 89.5153  12
  -1  -8   4 27.3450 26.2181  12
  -1  -7  -7 204.061 45.9613  10
  -1  -7  -6 1302.78 112.617  10
  -1  -7  -6 1219.25 120.655  11
  -1  -7  -6 1457.09 121.554  12
  -1  -7  -6 1148.97 114.018   2
  -1  -7  -6 1395.55 126.036   3
  -1  -7  -5 71.9777 27.7019  11
  -1  -7  -5 121.648 34.6007   2
  -1  -7  -5 161.928 41.6756   3
  -1  -7  -5 77.5180 26.1402  10
  -1  -7  -5 99.5485 34.9133  12
  -1  -7  -5 96.4722 32.9550   9
  -1  -7  -4 588.510 76.8849   3
  -1  -7  -4 490.896 55.4576  10
  -1  -7  -4 525.684 73.7637   9
  -1  -7  -4 530.369 67.6684   1
  -1  -7  -4 576.285 74.0479  12
  -1  -7  -4 462.650 68.6994   4
  -1  -7  -4 452.294 70.6839   5
  -1  -7  -4 374.294 57.3017   2
  -1  -7  -4 496.531 63.2356  11
  -1  -7  -3 151.205 28.8709  10
  -1  -7  -3 117.273 38.5260   5
  -1  -7  -3 135.409 39.3937   3
  -1  -7  -3 139.243 35.6884   1
  -1  -7  -3 180.089 36.8103   2
  -1  -7  -3 66.5276 28.6867   4
  -1  -7  -3 163.201 42.3545  12
  -1  -7  -3 115.939 30.7519  11
  -1  -7  -2 87.6318 18.8105  10
  -1  -7  -2 91.0386 25.2006   2
  -1  -7  -2 118.491 34.7501   3
  -1  -7  -2 98.2090 35.4377   9
  -1  -7  -2 101.578 30.0550   1
  -1  -7  -2 83.9591 31.2869   4
  -1  -7  -2 150.835 40.0476  12
  -1  -7  -2 92.4578 26.0901  11
  -1  -7  -1 306.602 53.6550   3
  -1  -7  -1 266.091 49.9712   9
  -1  -7  -1 242.257 42.8076   1
  -1  -7  -1 318.620 52.5970   4
  -1  -7  -1 215.225 36.1035   2
  -1  -7  -1 238.772 34.2587  11
  -1  -7   0 112.228 23.6416   2
  -1  -7   0 71.5579 32.9739   3
  -1  -7   0 115.073 35.4705   9
  -1  -7   0 126.547 32.1656   1
  -1  -7   0 130.714 35.0699   4
  -1  -7   0 109.031 35.8082  12
  -1  -7   0 162.434 23.8520  11
  -1  -7   1 398.063 60.3394   3
  -1  -7   1 335.018 55.7934   9
  -1  -7   1 318.480 33.8374   2
  -1  -7   1 302.266 48.3029   4
  -1  -7   1 309.603 45.4185   1
  -1  -7   1 362.987 60.7325  12
  -1  -7   2 752.896 73.7710   5
  -1  -7   2 619.500 77.9221   3
  -1  -7   2 700.154 78.3105   9
  -1  -7   2 929.481 79.6069   4
  -1  -7   2 885.589 74.9091   1
  -1  -7   2 845.434 51.1641   2
  -1  -7   2 731.495 46.4006   2
  -1  -7   2 656.020 84.8582  12
  -1  -7   3 1646.16 118.630   5
  -1  -7   3 1808.58 133.937   9
  -1  -7   3 1806.20 150.822  12
  -1  -7   3 2030.13 123.983   4
  -1  -7   3 1758.16 120.468   1
  -1  -7   3 1786.48 138.099   3
  -1  -7   4 22.2536 19.5951   3
  -1  -7   4 10.2159 13.4235   5
  -1  -7   4 13.9558 15.6953   9
  -1  -7   4 51.4215 19.4054   1
  -1  -7   4 7.54613 21.6976  12
  -1  -7   5 269.615 51.3911  12
  -1  -6  -8 281.392 50.6597   3
  -1  -6  -7 325.955 57.9259   2
  -1  -6  -7 340.245 56.9910  10
  -1  -6  -7 431.185 66.5827   5
  -1  -6  -7 384.917 58.3355   3
  -1  -6  -7 292.728 56.3431  11
  -1  -6  -7 345.045 59.0938   4
  -1  -6  -7 324.140 50.1341  12
  -1  -6  -6 280.217 50.4677   2
  -1  -6  -6 338.993 52.8704  10
  -1  -6  -6 433.861 64.3376   5
  -1  -6  -6 367.253 56.2356   3
  -1  -6  -6 370.856 59.2214   4
  -1  -6  -6 400.942 55.0490  12
  -1  -6  -6 244.870 50.6244  11
  -1  -6  -5 212.410 41.8643   2
  -1  -6  -5 256.843 42.3822  10
  -1  -6  -5 214.986 45.0375   3
  -1  -6  -5 202.020 44.7691   4
  -1  -6  -5 188.337 40.9160  12
  -1  -6  -5 281.045 49.1084  11
  -1  -6  -4 1857.50 138.046   1
  -1  -6  -4 1976.04 147.952   3
  -1  -6  -4 2231.78 149.785  12
  -1  -6  -4 1812.00 136.295   2
  -1  -6  -4 2014.11 132.638  10
  -1  -6  -4 1736.87 136.872  11
  -1  -6  -3 688.630 75.8440  12
  -1  -6  -3 649.804 73.7637   3
  -1  -6  -3 551.499 64.2775   1
  -1  -6  -3 631.607 58.1929  10
  -1  -6  -3 611.992 65.3445   2
  -1  -6  -3 560.539 68.7716   4
  -1  -6  -3 608.371 65.1349  11
  -1  -6  -2 3205.88 181.521  10
  -1  -6  -2 3239.11 195.430  11
  -1  -6  -2 3345.65 202.981   1
  -1  -6  -2 3218.00 212.606   9
  -1  -6  -2 3384.70 211.486   4
  -1  -6  -2 3468.54 199.206   2
  -1  -6  -1 1403.51 114.405   9
  -1  -6  -1 1348.02 108.291   4
  -1  -6  -1 1411.38 103.644   1
  -1  -6  -1 1234.48 93.5452   2
  -1  -6  -1 1356.33 79.6791  10
  -1  -6  -1 1352.85 114.405  12
  -1  -6  -1 1288.23 92.2087  11
  -1  -6  -1 1289.54 110.034   3
  -1  -6   0 3001.14 199.591   9
  -1  -6   0 2899.62 201.530  12
  -1  -6   0 3273.29 194.722   4
  -1  -6   0 3526.47 190.891   1
  -1  -6   0 3135.73 175.620   2
  -1  -6   0 3028.22 167.687  11
  -1  -6   0 3112.34 200.834   3
  -1  -6   1 427.787 57.9165   3
  -1  -6   1 454.958 59.0175   9
  -1  -6   1 461.038 32.4173  11
  -1  -6   1 529.713 44.5383   2
  -1  -6   1 408.593 51.3417   4
  -1  -6   1 445.981 48.9594   1
  -1  -6   1 479.158 63.0974  12
  -1  -6   2 676.729 63.2974   5
  -1  -6   2 659.856 70.0688   9
  -1  -6   2 717.796 79.5343  12
  -1  -6   2 730.064 65.0132   4
  -1  -6   2 635.287 50.0510   2
  -1  -6   2 758.112 63.5877   1
  -1  -6   2 712.486 46.5587   2
  -1  -6   2 683.642 72.0932   3
  -1  -6   3 1088.33 86.9948   9
  -1  -6   3 1106.20 90.9110   3
  -1  -6   3 1045.92 64.8530   2
  -1  -6   3 1039.25 74.4875   4
  -1  -6   3 912.384 72.5841   1
  -1  -6   3 996.492 60.6278   2
  -1  -6   3 895.287 73.6031   5
  -1  -6   3 979.302 95.7578  12
  -1  -6   4 677.482 57.0658   5
  -1  -6   4 654.889 61.7669   9
  -1  -6   4 826.447 83.1093  12
  -1  -6   4 755.613 49.6856   2
  -1  -6   4 657.439 56.3891   1
  -1  -6   4 725.319 50.0350   4
  -1  -6   4 725.063 67.8124   3
  -1  -6   4 728.839 50.1211   2
  -1  -6   5 375.980 25.4637  10
  -1  -6   5 471.869 45.1615   9
  -1  -6   5 601.726 52.6101   3
  -1  -6   5 510.801 43.3573   5
  -1  -6   5 575.777 41.9192   2
  -1  -6   5 551.975 44.1103   1
  -1  -6   5 383.922 25.1212  10
  -1  -6   5 549.427 64.1467  12
  -1  -6   6 122.617 32.0488  12
  -1  -5  -9 1061.23 92.2745   9
  -1  -5  -9 739.615 85.1521   9
  -1  -5  -8 220.603 46.7576   2
  -1  -5  -8 299.570 53.8507  10
  -1  -5  -8 221.941 45.1157   5
  -1  -5  -8 230.775 41.3689   3
  -1  -5  -8 377.089 56.5048   4
  -1  -5  -8 185.953 45.5832  11
  -1  -5  -7 20.3537 16.8991   2
  -1  -5  -7 6.52213 17.5457   5
  -1  -5  -7 32.1855 20.4032   3
  -1  -5  -7 22.4112 22.7788  11
  -1  -5  -7 13.5003 20.5851  10
  -1  -5  -7 19.3034 21.6919   4
  -1  -5  -7 12.4447 14.6174  12
  -1  -5  -6 966.224 93.7060   5
  -1  -5  -6 925.313 90.9865   4
  -1  -5  -6 907.460 91.2952   2
  -1  -5  -6 1018.67 84.5670  12
  -1  -5  -6 1030.11 93.6309  10
  -1  -5  -6 964.947 96.1614  11
  -1  -5  -6 1051.30 91.5151   3
  -1  -5  -5 3148.37 201.105  10
  -1  -5  -5 3626.84 203.407  12
  -1  -5  -5 3602.79 212.450   4
  -1  -5  -5 3125.86 203.951   2
  -1  -5  -5 3386.74 212.719   5
  -1  -5  -5 3109.36 207.132  11
  -1  -5  -5 3387.54 206.480   3
  -1  -5  -4 25.5305 17.2347   2
  -1  -5  -4 22.3646 17.0331  10
  -1  -5  -4 21.0113 17.7282   3
  -1  -5  -4 33.9196 17.7785   1
  -1  -5  -4 27.8302 18.7817   4
  -1  -5  -4 19.2884 15.5254  12
  -1  -5  -4 16.2082 15.5582  11
  -1  -5  -3 505.520 57.1688  11
  -1  -5  -3 560.592 58.1247   1
  -1  -5  -3 650.269 61.4648   2
  -1  -5  -3 490.452 50.9222  10
  -1  -5  -3 512.104 58.9728  12
  -1  -5  -3 587.172 63.4224   3
  -1  -5  -2 6398.61 333.391  10
  -1  -5  -2 6710.22 347.168   1
  -1  -5  -2 6664.95 354.592   4
  -1  -5  -2 6564.64 344.561   2
  -1  -5  -2 6492.01 344.256  11
  -1  -5  -1 26.7971 9.90443  10
  -1  -5  -1 71.0418 23.0881  12
  -1  -5  -1 24.3567 14.0546   3
  -1  -5  -1 29.2655 16.4828   9
  -1  -5  -1 22.4632 13.7719   1
  -1  -5  -1 40.7361 15.0856   2
  -1  -5  -1 22.5274 14.5295   4
  -1  -5  -1 22.0399 12.4532  11
  -1  -5   0 894.773 52.8845  10
  -1  -5   0 906.877 79.3381   9
  -1  -5   0 948.287 76.7002   4
  -1  -5   0 883.172 66.5282   2
  -1  -5   0 935.910 71.2805   1
  -1  -5   0 901.899 62.9227  11
  -1  -5   0 939.715 81.2112   3
  -1  -5   1 199.618 33.2692   9
  -1  -5   1 176.775 17.7629  11
  -1  -5   1 152.695 22.5420   2
  -1  -5   1 194.875 34.6021  12
  -1  -5   1 156.101 27.6523   4
  -1  -5   1 161.865 25.0072   1
  -1  -5   1 148.544 30.2447   3
  -1  -5   2 205.958 33.6569   3
  -1  -5   2 247.921 32.3800   5
  -1  -5   2 265.638 36.2094   9
  -1  -5   2 282.648 28.6257   2
  -1  -5   2 240.393 31.4215   4
  -1  -5   2 254.126 23.7781   2
  -1  -5   2 264.939 31.2552   1
  -1  -5   2 249.919 41.0735  12
  -1  -5   3 918.895 51.4534  10
  -1  -5   3 954.538 73.4251   9
  -1  -5   3 956.938 53.0058  10
  -1  -5   3 928.272 84.2118  12
  -1  -5   3 887.001 66.5155   5
  -1  -5   3 955.362 63.4791   4
  -1  -5   3 882.688 64.1618   1
  -1  -5   3 1000.77 61.0178   2
  -1  -5   3 1010.86 78.1105   3
  -1  -5   4 16.1037 9.20715  10
  -1  -5   4 28.6751 13.3875   3
  -1  -5   4 38.5338 13.4426   5
  -1  -5   4 13.8880 10.9802   9
  -1  -5   4 16.2485 9.78081   2
  -1  -5   4 27.9272 7.38417   4
  -1  -5   4 28.9600 7.32309   6
  -1  -5   4 4.73374 15.2439  12
  -1  -5   4 30.7792 12.0743   1
  -1  -5   5 590.604 52.3211  10
  -1  -5   5 542.497 46.4824   9
  -1  -5   5 576.021 60.0409  12
  -1  -5   5 597.690 42.7780   6
  -1  -5   5 654.709 53.6345   2
  -1  -5   5 654.301 46.2849   1
  -1  -5   5 596.425 47.6922   5
  -1  -5   5 606.573 49.5163   3
  -1  -5   6 379.579 35.4561   5
  -1  -5   6 371.261 22.2365   8
  -1  -5   6 338.062 21.3185   8
  -1  -5   6 303.203 32.9513   6
  -1  -5   6 382.323 31.5885   1
  -1  -5   6 356.825 31.8655   9
  -1  -5   6 357.544 28.2063   3
  -1  -5   6 351.200 44.1997  12
  -1  -5   6 350.976 44.0636  10
  -1  -5   6 398.823 45.0355   2
  -1  -5   7 323.841 47.1726  10
  -1  -4  -9 313.452 44.4844   9
  -1  -4  -9 287.491 47.3798   9
  -1  -4  -9 317.471 49.4150   4
  -1  -4  -9 292.558 51.1319   5
  -1  -4  -8 98.7345 32.0438  10
  -1  -4  -8 144.516 35.4756   5
  -1  -4  -8 156.303 30.6925   3
  -1  -4  -8 176.131 42.7796  11
  -1  -4  -8 155.772 34.6613   4
  -1  -4  -8 205.798 26.3219  12
  -1  -4  -7 228.777 43.5621   2
  -1  -4  -7 347.666 52.5134  10
  -1  -4  -7 260.508 45.1660   5
  -1  -4  -7 296.808 41.5033   3
  -1  -4  -7 353.591 49.2199   4
  -1  -4  -7 403.021 40.3327  12
  -1  -4  -6 1211.07 97.1358   5
  -1  -4  -6 1170.47 89.0076   3
  -1  -4  -6 1155.17 94.4442   4
  -1  -4  -6 1005.28 93.1590  10
  -1  -4  -6 983.131 91.2381   2
  -1  -4  -6 1121.02 80.8929  12
  -1  -4  -6 901.995 92.2125  11
  -1  -4  -5 646.947 64.3249  10
  -1  -4  -5 466.022 57.7706   5
  -1  -4  -5 625.658 62.8003   4
  -1  -4  -5 540.575 60.8103   2
  -1  -4  -5 454.498 58.8081  11
  -1  -4  -5 605.073 55.3057  12
  -1  -4  -5 623.228 59.7769   3
  -1  -4  -4 945.515 78.3278  10
  -1  -4  -4 1042.73 78.4926  12
  -1  -4  -4 1077.87 84.6621   4
  -1  -4  -4 922.846 80.2067   2
  -1  -4  -4 889.739 80.8675   5
  -1  -4  -4 885.607 80.5480  11
  -1  -4  -4 971.048 80.0357   3
  -1  -4  -3 4146.76 234.089  10
  -1  -4  -3 4313.60 237.335   1
  -1  -4  -3 4372.15 240.651   2
  -1  -4  -3 4821.80 243.962  12
  -1  -4  -3 4196.94 241.121  11
  -1  -4  -3 4787.21 246.650   3
  -1  -4  -2 4324.99 231.532  10
  -1  -4  -2 5238.33 250.487  12
  -1  -4  -2 4310.89 236.946   1
  -1  -4  -2 4364.46 243.082   4
  -1  -4  -2 4440.70 239.005   2
  -1  -4  -2 4681.43 241.484  11
  -1  -4  -2 4375.38 244.229   3
  -1  -4  -1 585.599 43.6109  10
  -1  -4  -1 567.950 53.0834   4
  -1  -4  -1 575.067 49.4444   1
  -1  -4  -1 675.908 59.6296  12
  -1  -4  -1 594.349 49.2347  11
  -1  -4  -1 627.111 51.2417   2
  -1  -4   0 371.386 28.6285  10
  -1  -4   0 363.140 42.1633   9
  -1  -4   0 406.387 36.4307   2
  -1  -4   0 333.169 37.5174   4
  -1  -4   0 329.924 34.7341   1
  -1  -4   0 386.966 33.1845  11
  -1  -4   0 399.411 43.6385   3
  -1  -4   1 7544.56 351.645  10
  -1  -4   1 7638.88 378.294   9
  -1  -4   1 7348.38 363.827   2
  -1  -4   1 7840.64 371.785   4
  -1  -4   1 7830.31 366.298   1
  -1  -4   1 7822.53 385.727  12
  -1  -4   1 7316.16 354.408  11
  -1  -4   1 7634.36 379.068   3
  -1  -4   2 1616.07 85.6833  10
  -1  -4   2 1611.94 86.2903  10
  -1  -4   2 1597.40 97.8053   5
  -1  -4   2 1682.60 103.366   9
  -1  -4   2 1686.24 95.6395   4
  -1  -4   2 1710.11 94.3410   1
  -1  -4   2 1577.98 89.1950   2
  -1  -4   2 1693.71 112.223  12
  -1  -4   2 1671.18 104.931   3
  -1  -4   3 750.902 51.2742  10
  -1  -4   3 744.944 53.4669   5
  -1  -4   3 739.156 56.5918   9
  -1  -4   3 708.377 45.8495   4
  -1  -4   3 724.384 50.9149   2
  -1  -4   3 828.793 51.0138   1
  -1  -4   3 826.385 66.6125  12
  -1  -4   3 717.821 43.0779   6
  -1  -4   3 672.609 56.3124   3
  -1  -4   4 1250.85 75.4997   5
  -1  -4   4 1099.35 69.4618   6
  -1  -4   4 1129.81 72.9515   9
  -1  -4   4 1173.67 61.4201   8
  -1  -4   4 1127.77 77.1649   2
  -1  -4   4 1369.65 89.9914  12
  -1  -4   4 1153.57 74.5334   3
  -1  -4   4 1181.48 69.1621   1
  -1  -4   4 1238.75 80.9900  10
  -1  -4   5 1979.96 109.874   9
  -1  -4   5 2019.86 114.859   5
  -1  -4   5 1843.00 103.799   8
  -1  -4   5 2217.82 130.735  10
  -1  -4   5 2286.53 127.976   2
  -1  -4   5 1816.49 102.625   7
  -1  -4   5 2126.78 106.935   3
  -1  -4   5 2139.24 107.920   1
  -1  -4   5 1939.26 114.719   6
  -1  -4   5 2132.94 125.452  12
  -1  -4   6 253.409 40.9909  10
  -1  -4   6 214.438 21.9681   9
  -1  -4   6 257.917 38.1250   2
  -1  -4   6 236.586 24.1863   1
  -1  -4   6 201.272 23.2494   8
  -1  -4   6 221.879 29.8911   6
  -1  -4   6 206.154 24.0789   7
  -1  -4   6 233.256 23.2504   1
  -1  -4   6 197.844 28.8677  12
  -1  -4   6 239.806 28.7891   5
  -1  -4   7 140.254 34.2677  10
  -1  -4   7 88.0863 19.8608   5
  -1  -4   7 90.1083 18.4946   8
  -1  -4   7 65.1305 13.9125   1
  -1  -4   7 88.2745 14.7870   1
  -1  -4   7 48.7466 14.8957   7
  -1  -4   7 73.5761 17.4900  12
  -1  -4   7 79.2352 22.9235   6
  -1  -4   7 58.1796 22.4065   2
  -1  -4   8 1072.77 100.016  10
  -1  -4   8 832.388 76.0454   6
  -1  -4   8 877.665 88.6669   2
  -1  -3 -10 163.305 35.4523   5
  -1  -3  -9 100.640 32.3805   2
  -1  -3  -9 153.128 33.9959   5
  -1  -3  -9 130.398 26.1809   9
  -1  -3  -9 102.492 25.8510   9
  -1  -3  -9 133.160 28.8368   4
  -1  -3  -9 71.8432 29.6436  11
  -1  -3  -8 880.272 78.3896   5
  -1  -3  -8 891.959 75.3462   4
  -1  -3  -8 669.381 78.6858  10
  -1  -3  -8 647.939 76.2668   2
  -1  -3  -8 823.596 46.7670  12
  -1  -3  -8 796.365 46.4498  12
  -1  -3  -8 576.205 75.1606  11
  -1  -3  -8 864.311 70.5293   9
  -1  -3  -8 761.537 61.9158   3
  -1  -3  -7 117.433 30.3560   2
  -1  -3  -7 76.3978 26.3646  10
  -1  -3  -7 69.5459 21.4851   5
  -1  -3  -7 106.861 22.7474   3
  -1  -3  -7 100.145 26.1365   4
  -1  -3  -7 87.9917 15.3390  12
  -1  -3  -7 151.348 34.5016  11
  -1  -3  -6 354.217 52.3312  11
  -1  -3  -6 555.806 59.8873  10
  -1  -3  -6 449.066 52.1109   5
  -1  -3  -6 489.972 40.8608  12
  -1  -3  -6 497.009 53.1968   4
  -1  -3  -6 455.860 46.1643   3
  -1  -3  -5 1407.91 99.8429   5
  -1  -3  -5 1194.09 97.0509  10
  -1  -3  -5 1398.02 97.2886   4
  -1  -3  -5 1335.72 85.1394  12
  -1  -3  -5 1341.01 91.6515   3
  -1  -3  -4 6001.04 299.373   5
  -1  -3  -4 5146.55 293.238  10
  -1  -3  -4 6287.31 298.117   4
  -1  -3  -4 5147.05 294.264   2
  -1  -3  -4 6340.13 287.831  12
  -1  -3  -4 4845.87 293.923  11
  -1  -3  -4 5765.75 291.254   3
  -1  -3  -3 3227.59 168.246   4
  -1  -3  -3 2500.06 158.971  10
  -1  -3  -3 3208.69 161.923  12
  -1  -3  -3 2685.74 163.037   2
  -1  -3  -3 2887.24 166.787  11
  -1  -3  -3 2916.19 162.708   3
  -1  -3  -2 12656.7 601.335   1
  -1  -3  -2 12199.3 603.452   2
  -1  -3  -2 12163.6 599.716  10
  -1  -3  -2 12113.6 605.137  11
  -1  -3  -2 13998.9 609.503   3
  -1  -3  -2 13470.9 606.917  12
  -1  -3  -1 850.425 57.1514  10
  -1  -3  -1 881.493 62.0961   2
  -1  -3  -1 915.050 60.7940   1
  -1  -3  -1 944.674 65.5355   4
  -1  -3  -1 1073.98 70.1032  12
  -1  -3  -1 828.957 60.3129  11
  -1  -3   0 573.781 47.1571   9
  -1  -3   0 548.565 41.7346   2
  -1  -3   0 556.154 44.2612   4
  -1  -3   0 579.338 41.5554   1
  -1  -3   0 613.118 48.3438   3
  -1  -3   0 539.400 36.5193  10
  -1  -3   1 3226.34 168.093   5
  -1  -3   1 3327.51 172.035   9
  -1  -3   1 3422.22 177.729  12
  -1  -3   1 3102.50 157.726  10
  -1  -3   1 3227.58 165.869   4
  -1  -3   1 3292.72 161.949   1
  -1  -3   1 3421.59 172.914   3
  -1  -3   2 45.3008 8.04870   1
  -1  -3   2 35.0680 8.60565  10
  -1  -3   2 30.2110 9.34211   3
  -1  -3   2 43.5889 9.17389   2
  -1  -3   2 83.8905 13.1819   5
  -1  -3   2 92.7378 15.1175   9
  -1  -3   2 50.9456 13.7489  12
  -1  -3   2 27.6892 7.06541   4
  -1  -3   2 36.9699 6.26992  11
  -1  -3   2 44.8568 6.47223   6
  -1  -3   3 1499.32 88.8732  10
  -1  -3   3 1436.66 84.0949   5
  -1  -3   3 1501.54 84.1007   9
  -1  -3   3 1484.51 72.0945   4
  -1  -3   3 1362.92 74.1007   8
  -1  -3   3 1489.44 76.9356   1
  -1  -3   3 1408.47 75.5250   7
  -1  -3   3 1493.46 86.9788   2
  -1  -3   3 1432.23 91.2471  12
  -1  -3   3 1367.25 80.4993   6
  -1  -3   3 1581.64 84.2922   3
  -1  -3   3 1496.37 79.8270  11
  -1  -3   4 2825.19 154.373  10
  -1  -3   4 2700.40 140.776   5
  -1  -3   4 2800.83 133.316   3
  -1  -3   4 2709.04 136.946   9
  -1  -3   4 2360.90 133.843   8
  -1  -3   4 2790.47 146.983  12
  -1  -3   4 2581.95 137.847   7
  -1  -3   4 2647.52 149.009   2
  -1  -3   4 2481.98 141.701   6
  -1  -3   4 2739.25 141.477  11
  -1  -3   4 2603.04 131.564   1
  -1  -3   5 3654.25 202.646  10
  -1  -3   5 3451.20 183.331   5
  -1  -3   5 3542.35 175.166   9
  -1  -3   5 3786.07 189.506  11
  -1  -3   5 3840.68 184.497  12
  -1  -3   5 3201.86 179.309   8
  -1  -3   5 3610.61 197.047   2
  -1  -3   5 3559.89 185.528   7
  -1  -3   5 3488.74 163.973   3
  -1  -3   5 3259.94 187.701   6
  -1  -3   5 3360.26 172.163   1
  -1  -3   6 161.612 34.9159  10
  -1  -3   6 195.071 34.3840   2
  -1  -3   6 164.885 19.0699   9
  -1  -3   6 169.272 21.6865   1
  -1  -3   6 195.335 27.0768   8
  -1  -3   6 203.660 21.2457   1
  -1  -3   6 199.376 28.8077   7
  -1  -3   6 224.856 28.2599   5
  -1  -3   6 182.846 22.9691  12
  -1  -3   6 172.894 29.6416  11
  -1  -3   6 180.379 30.4798   6
  -1  -3   7 337.611 31.4361   1
  -1  -3   7 304.055 51.1113  10
  -1  -3   7 323.750 39.2342   5
  -1  -3   7 403.503 29.9805  12
  -1  -3   7 400.664 36.6249   1
  -1  -3   7 311.378 38.9492   8
  -1  -3   7 278.539 47.4645   2
  -1  -3   7 384.523 45.5339   7
  -1  -3   7 337.366 45.5553   6
  -1  -3   8 1088.47 82.8279   5
  -1  -3   8 1110.30 107.364  10
  -1  -3   8 900.114 87.1824   6
  -1  -3   8 1016.92 82.3612   8
  -1  -3   8 1143.87 103.881   2
  -1  -3   8 1099.95 89.8667   7
  -1  -3   9 139.097 42.1742  10
  -1  -3   9 190.345 45.5528   2
  -1  -3   9 199.805 41.3804   6
  -1  -2  -9 513.532 63.8405   2
  -1  -2  -9 496.524 66.7197  10
  -1  -2  -9 509.300 53.8993   5
  -1  -2  -9 362.517 41.4764   9
  -1  -2  -9 441.531 48.0447   4
  -1  -2  -9 507.360 44.5561   9
  -1  -2  -9 601.272 70.5015  11
  -1  -2  -8 89.6572 27.3795   2
  -1  -2  -8 55.1521 24.2003  10
  -1  -2  -8 37.9718 12.0871   3
  -1  -2  -8 41.9504 16.0193   4
  -1  -2  -8 39.7107 16.2714   5
  -1  -2  -8 71.1363 17.7026   9
  -1  -2  -8 38.9036 15.0396   9
  -1  -2  -8 41.4133 20.0423  11
  -1  -2  -7 715.946 62.5032   5
  -1  -2  -7 659.149 53.9870   9
  -1  -2  -7 645.081 49.1510   3
  -1  -2  -7 614.231 56.9578   4
  -1  -2  -7 673.508 67.7883   2
  -1  -2  -7 728.669 72.6475  11
  -1  -2  -6 197.199 34.2595   2
  -1  -2  -6 194.177 31.1199   5
  -1  -2  -6 182.838 24.1095   3
  -1  -2  -6 178.932 27.7576   4
  -1  -2  -6 206.473 17.2699  12
  -1  -2  -6 162.947 31.9877  11
  -1  -2  -5 2485.89 147.243   5
  -1  -2  -5 2478.55 144.543   4
  -1  -2  -5 2509.19 153.950   2
  -1  -2  -5 2619.30 129.339  12
  -1  -2  -5 2328.36 152.797  11
  -1  -2  -5 2585.93 138.362   3
  -1  -2  -4 51.2764 14.5489   5
  -1  -2  -4 80.4056 15.3974   3
  -1  -2  -4 85.6051 16.6298   4
  -1  -2  -4 75.8339 12.4272  12
  -1  -2  -3 1931.73 109.728   4
  -1  -2  -3 1968.91 102.168  12
  -1  -2  -3 1957.69 106.683   3
  -1  -2  -2 10858.1 542.595  10
  -1  -2  -2 10932.0 543.695   7
  -1  -2  -2 12194.6 543.480   3
  -1  -2  -2 10977.0 542.780   4
  -1  -2  -2 12672.0 541.470  12
  -1  -2  -1 7518.95 361.776  10
  -1  -2  -1 7151.81 360.583   1
  -1  -2  -1 7264.75 364.473   2
  -1  -2  -1 7983.51 362.647   7
  -1  -2   0 754.549 46.8703   4
  -1  -2   0 743.439 43.1075  10
  -1  -2   0 754.500 43.0149   1
  -1  -2   0 720.091 40.8626   7
  -1  -2   0 733.966 48.3251   3
  -1  -2   1 10192.7 497.433   5
  -1  -2   1 11103.4 499.420   9
  -1  -2   1 11002.2 502.546  12
  -1  -2   1 10702.5 493.663   4
  -1  -2   1 10648.3 488.529   1
  -1  -2   1 10810.3 498.634   3
  -1  -2   2 6418.97 295.827   9
  -1  -2   2 6299.12 299.367  10
  -1  -2   2 6345.25 296.822   5
  -1  -2   2 6226.58 285.112   1
  -1  -2   2 6152.06 287.083   4
  -1  -2   2 5956.95 288.284   8
  -1  -2   2 6211.46 293.362  11
  -1  -2   2 6248.64 292.304   7
  -1  -2   2 6134.43 297.409   2
  -1  -2   2 6383.77 299.775  12
  -1  -2   2 6344.79 293.840   3
  -1  -2   3 83.6157 16.7452  10
  -1  -2   3 110.784 17.5557   2
  -1  -2   3 109.315 10.7161   1
  -1  -2   3 135.810 16.7766   5
  -1  -2   3 118.217 14.4406   9
  -1  -2   3 104.219 14.5901  12
  -1  -2   3 86.3868 14.5496   7
  -1  -2   3 111.716 11.6197   3
  -1  -2   3 139.076 17.8613  11
  -1  -2   4 3546.97 184.232   5
  -1  -2   4 3557.77 197.742  10
  -1  -2   4 3684.06 190.970  11
  -1  -2   4 3699.93 176.788   1
  -1  -2   4 3446.83 192.947   2
  -1  -2   4 3605.24 190.405   7
  -1  -2   4 3659.63 178.227   9
  -1  -2   4 3608.83 179.275  12
  -1  -2   4 3286.08 188.340   6
  -1  -2   5 2217.67 128.189   5
  -1  -2   5 2278.19 143.918  10
  -1  -2   5 2152.08 117.014   9
  -1  -2   5 2030.10 126.932   8
  -1  -2   5 2274.71 120.259   1
  -1  -2   5 2220.78 138.646   2
  -1  -2   5 2253.10 134.847   7
  -1  -2   5 2103.45 133.173   6
  -1  -2   5 2280.61 115.672  12
  -1  -2   5 2285.24 135.887  11
  -1  -2   6 632.847 67.3708  10
  -1  -2   6 482.707 55.4273   6
  -1  -2   6 572.539 54.8006   8
  -1  -2   6 710.227 51.4092   1
  -1  -2   6 570.518 53.0705   5
  -1  -2   6 657.832 65.6898   2
  -1  -2   6 562.812 58.0761   7
  -1  -2   6 593.553 38.8839  12
  -1  -2   6 647.687 61.8923  11
  -1  -2   7 105.625 31.8550  10
  -1  -2   7 114.349 24.0849   5
  -1  -2   7 96.3738 29.1380   2
  -1  -2   7 103.769 26.4680   8
  -1  -2   7 132.106 23.5710   1
  -1  -2   7 116.914 28.7278   7
  -1  -2   7 93.9732 28.5113  11
  -1  -2   7 120.543 29.5924   6
  -1  -2   8 219.477 48.4207  10
  -1  -2   8 135.901 30.8954   5
  -1  -2   8 182.793 35.8594   8
  -1  -2   8 171.782 38.3951   7
  -1  -2   8 192.366 30.7527   1
  -1  -2   8 221.767 47.1940   2
  -1  -2   8 147.922 36.2834   6
  -1  -2   9 90.8831 37.2410  10
  -1  -2   9 125.078 38.1857   2
  -1  -2   9 110.858 31.1714   8
  -1  -2   9 101.558 31.8829   7
  -1  -2   9 106.875 33.5151   6
  -1  -1 -10 74.0180 28.3030   2
  -1  -1 -10 107.150 32.2602  11
  -1  -1  -9 292.418 47.0816   2
  -1  -1  -9 203.720 42.9296  10
  -1  -1  -9 265.319 35.4470   5
  -1  -1  -9 249.125 29.5086   4
  -1  -1  -9 248.915 43.8899  11
  -1  -1  -8 1389.95 93.2605   5
  -1  -1  -8 1391.11 112.733  10
  -1  -1  -8 1487.81 80.9180   9
  -1  -1  -8 1336.74 81.6512   9
  -1  -1  -8 1435.92 88.3292   4
  -1  -1  -8 1364.01 107.242   2
  -1  -1  -8 1397.48 109.268  11
  -1  -1  -7 2034.17 118.752   5
  -1  -1  -7 2053.64 138.146  10
  -1  -1  -7 2009.08 107.105   9
  -1  -1  -7 1932.89 98.1386   3
  -1  -1  -7 1811.56 107.497   9
  -1  -1  -7 1971.81 113.527   4
  -1  -1  -7 2071.41 134.100   2
  -1  -1  -7 2072.94 135.121  11
  -1  -1  -6 985.858 81.8747  10
  -1  -1  -6 1089.67 62.9714   9
  -1  -1  -6 1000.07 67.0784   4
  -1  -1  -6 810.226 73.9750   2
  -1  -1  -6 1032.98 70.5620   5
  -1  -1  -6 989.102 56.5761   3
  -1  -1  -6 976.739 79.9598  11
  -1  -1  -5 3250.30 168.525   5
  -1  -1  -5 3115.60 181.186  10
  -1  -1  -5 3030.54 164.387   4
  -1  -1  -5 3087.02 177.164   2
  -1  -1  -5 3639.46 188.079   7
  -1  -1  -5 3150.54 155.464   3
  -1  -1  -5 2995.42 178.076  11
  -1  -1  -4 666.324 50.4701   5
  -1  -1  -4 663.159 57.4164  10
  -1  -1  -4 746.179 49.9507   4
  -1  -1  -4 808.058 59.2686   2
  -1  -1  -4 848.446 62.8278   7
  -1  -1  -4 703.529 44.0613   3
  -1  -1  -4 671.513 56.6471  11
  -1  -1  -3 18074.7 809.997   4
  -1  -1  -3 18257.4 818.815   2
  -1  -1  -3 15464.1 816.886   7
  -1  -1  -3 17594.5 804.317   3
  -1  -1  -3 18345.4 820.072  11
  -1  -1  -2 5664.68 254.919   9
  -1  -1  -2 5539.97 256.763   4
  -1  -1  -2 5743.69 254.109   3
  -1  -1  -1-0.88030 2.19055   3
  -1  -1  -1-0.92731 1.63177   9
  -1  -1  -1-0.75631 1.08681  12
  -1  -1   0 616.943 30.8069   8
  -1  -1   0 502.476 29.5647   6
  -1  -1   1 995.869 76.2458   5
  -1  -1   1 2510.10 84.6369   9
  -1  -1   1 325.759 71.6151   2
  -1  -1   1 2734.00 85.3542  12
  -1  -1   1 2218.79 83.8292  11
  -1  -1   2 17070.1 774.570   5
  -1  -1   2 16837.8 779.982  10
  -1  -1   2 17276.6 771.999   9
  -1  -1   2 17003.1 766.345   1
  -1  -1   2 16043.8 778.027   2
  -1  -1   2 17438.6 767.448   3
  -1  -1   2 16298.3 769.399  12
  -1  -1   2 15994.2 776.573  11
  -1  -1   3 5162.25 245.627   5
  -1  -1   3 4773.99 252.453  10
  -1  -1   3 4813.13 239.678   9
  -1  -1   3 5253.02 238.435   1
  -1  -1   3 4939.77 251.223   2
  -1  -1   3 4867.43 235.473  12
  -1  -1   3 4947.12 249.943  11
  -1  -1   4 3302.38 175.335   5
  -1  -1   4 3289.99 186.697  10
  -1  -1   4 3341.66 168.261   9
  -1  -1   4 3275.80 168.432   1
  -1  -1   4 3226.64 182.961   2
  -1  -1   4 3549.88 185.583   7
  -1  -1   4 3294.96 161.251  12
  -1  -1   4 3175.36 181.688  11
  -1  -1   5 1796.64 114.426   5
  -1  -1   5 1803.14 126.287  10
  -1  -1   5 1971.26 109.608   1
  -1  -1   5 1770.38 122.651   2
  -1  -1   5 1948.47 124.339   7
  -1  -1   5 1800.87 95.7540  12
  -1  -1   5 1974.54 124.443  11
  -1  -1   6 924.949 76.2479   5
  -1  -1   6 936.174 88.3225  10
  -1  -1   6 1050.17 73.6151   1
  -1  -1   6 1060.04 89.5499   2
  -1  -1   6 1048.92 87.4872   7
  -1  -1   6 970.590 85.3471  11
  -1  -1   7 54.7005 26.2537  10
  -1  -1   7 71.2009 21.9965   5
  -1  -1   7 132.376 33.2818   6
  -1  -1   7 76.2584 25.5537   7
  -1  -1   7 89.6195 22.4608   1
  -1  -1   7 111.818 30.7097  11
  -1  -1   7 69.9203 28.3902   2
  -1  -1   8 189.515 42.1760   6
  -1  -1   8 209.677 47.1652  10
  -1  -1   8 179.746 39.0092   8
  -1  -1   8 190.521 41.2479   7
  -1  -1   8 187.447 32.3090   1
  -1  -1   8 212.177 45.9055  11
  -1  -1   8 210.329 44.7044   2
  -1  -1   9 84.1031 36.9290  10
  -1  -1   9 82.3605 28.9557   8
  -1  -1   9 85.3662 31.7246   7
  -1  -1   9 65.7377 23.6246   1
  -1  -1   9 70.3869 29.9283   6
  -1  -1   9 87.7120 34.6830   2
  -1  -1  10 178.233 46.6149   8
  -1  -1  10 182.686 47.4623   7
  -1   0 -10 1005.86 95.7566  10
  -1   0 -10 892.066 84.9511  11
  -1   0 -10 789.547 81.3524   2
  -1   0  -9 261.426 46.0475  10
  -1   0  -9 232.526 39.9176   2
  -1   0  -9 240.794 28.9487   5
  -1   0  -9 229.402 40.2316  11
  -1   0  -8 2459.97 135.507   5
  -1   0  -8 2563.67 128.017   4
  -1   0  -8 2428.86 157.170   2
  -1   0  -8 2404.98 157.268  11
  -1   0  -8 2619.13 166.142  10
  -1   0  -7 1762.04 128.465  10
  -1   0  -7 1863.74 107.736   5
  -1   0  -7 1965.48 102.435   4
  -1   0  -7 2090.40 128.586   2
  -1   0  -7 2023.02 128.853  11
  -1   0  -6 2259.73 117.627   5
  -1   0  -6 2200.10 138.523  10
  -1   0  -6 2120.28 112.973   4
  -1   0  -6 2265.97 134.676   2
  -1   0  -6 2177.07 134.880  11
  -1   0  -5 2842.49 141.416   5
  -1   0  -5 2988.86 162.770  10
  -1   0  -5 2718.68 139.046   4
  -1   0  -5 2827.65 156.271   2
  -1   0  -5 2908.52 162.836   7
  -1   0  -5 2577.32 155.101  11
  -1   0  -4 19686.1 950.760  10
  -1   0  -4 20038.1 931.489   4
  -1   0  -4 21196.5 946.681   2
  -1   0  -4 21047.4 953.192   7
  -1   0  -4 20512.4 932.369   5
  -1   0  -4 20363.0 947.931  11
  -1   0  -3 36415.4 1677.30  10
  -1   0  -3 36266.3 1662.87   4
  -1   0  -3 36417.0 1673.68   2
  -1   0  -3 37255.9 1678.19   7
  -1   0  -3 36634.7 1674.39  11
  -1   0  -3 37890.0 1679.01   6
  -1   0  -2 62043.9 2871.46  10
  -1   0  -2 62841.1 2872.39   6
  -1   0  -2 63066.0 2862.86   4
  -1   0  -2 66135.9 2873.13   8
  -1   0  -2 62740.0 2868.58   2
  -1   0  -2 63988.6 2872.26   7
  -1   0  -1 23799.1 1075.77  10
  -1   0  -1 23495.3 1076.39   7
  -1   0   1 8788.41 94.4445   1
  -1   0   1-0.89025 2.02709  12
  -1   0   2 448.651 35.0888   5
  -1   0   2 415.927 32.5918   9
  -1   0   2 445.663 31.8135   1
  -1   0   3 14530.6 697.761   5
  -1   0   3 15089.1 692.561   1
  -1   0   3 15037.0 703.742  11
  -1   0   4 4106.61 223.485   5
  -1   0   4 3910.42 229.503  10
  -1   0   4 4533.94 218.842   1
  -1   0   4 4334.12 231.103   2
  -1   0   4 4273.33 231.616  11
  -1   0   5 4170.61 229.973   5
  -1   0   5 4086.95 239.783  10
  -1   0   5 4163.27 238.435   2
  -1   0   5 4255.02 222.869   1
  -1   0   5 4409.47 240.624   7
  -1   0   5 4290.89 238.889  11
  -1   0   6 837.991 80.8169  10
  -1   0   6 660.902 65.9242   5
  -1   0   6 792.759 77.8873   2
  -1   0   6 779.483 64.6041   1
  -1   0   6 802.114 77.2797   7
  -1   0   6 674.934 72.4028  11
  -1   0   7 500.813 66.8872  10
  -1   0   7 498.914 59.8167   5
  -1   0   7 557.488 56.2814   1
  -1   0   7 420.465 61.3105   7
  -1   0   7 496.989 64.9427  11
  -1   0   7 565.371 69.7708   2
  -1   0   8 389.349 63.1309  10
  -1   0   8 276.710 54.8253   2
  -1   0   8 320.577 57.2026  11
  -1   0   8 335.729 56.7370   7
  -1   0   8 370.908 48.6143   1
  -1   0   9 239.283 54.7546  10
  -1   0   9 133.007 42.1781   6
  -1   0   9 229.073 54.0982   2
  -1   0   9 195.052 37.8249   1
  -1   0   9 152.574 43.8301   7
  -1   1 -10 1199.43 102.461  10
  -1   1 -10 931.408 86.2131   2
  -1   1  -9 275.871 45.1650  10
  -1   1  -9 246.982 38.9871   2
  -1   1  -9 312.962 42.7994  11
  -1   1  -8 199.112 19.2706   5
  -1   1  -8 175.355 33.4688  10
  -1   1  -8 164.646 29.8662   2
  -1   1  -8 159.128 29.8532  11
  -1   1  -7 325.515 24.8918   5
  -1   1  -7 360.011 44.9155  10
  -1   1  -7 313.056 38.4239   2
  -1   1  -7 344.296 39.7092  11
  -1   1  -6 1115.14 59.8900   5
  -1   1  -6 1038.66 81.4315  10
  -1   1  -6 1187.82 78.7859   2
  -1   1  -6 1203.18 85.0749   7
  -1   1  -6 1067.28 76.7890  11
  -1   1  -5 1869.92 92.2857   5
  -1   1  -5 2028.79 117.341  10
  -1   1  -5 1876.33 109.559   2
  -1   1  -5 1819.51 114.575   7
  -1   1  -5 1974.71 111.403  11
  -1   1  -4 13773.2 655.256  10
  -1   1  -4 14194.4 648.723   2
  -1   1  -4 14281.0 656.338   7
  -1   1  -4 13544.3 648.922  11
  -1   1  -3 21908.1 1033.55  10
  -1   1  -3 22433.2 1029.09  11
  -1   1  -3 23443.2 1037.45   8
  -1   1  -3 21924.1 1027.33   2
  -1   1  -3 22689.8 1035.02   7
  -1   1  -3 23142.5 1038.22   6
  -1   1  -2 15569.6 740.597  10
  -1   1  -2 16682.4 745.423   8
  -1   1  -2 16238.6 742.800   7
  -1   1  -2 16330.1 745.726   6
  -1   1  -1 8558.65 380.786   1
  -1   1  -1 8171.66 377.499   8
  -1   1  -1 7850.61 375.231   7
  -1   1  -1 7875.15 376.910   6
  -1   1   0 5545.91 249.839   8
  -1   1   0 5266.09 248.176   7
  -1   1   0 4994.70 243.543   2
  -1   1   0 5271.49 248.509   6
  -1   1   0 5170.18 247.372  11
  -1   1   0 5093.58 248.829   5
  -1   1   1 5023.50 226.872  10
  -1   1   1 4949.43 229.035  11
  -1   1   1 4941.72 226.227   2
  -1   1   1 4803.90 227.487   6
  -1   1   2 15260.8 688.252  10
  -1   1   2 15544.4 688.324   2
  -1   1   2 13520.1 681.578   1
  -1   1   3 1031.72 75.8532   5
  -1   1   3 1272.78 82.4047  10
  -1   1   3 1119.74 78.8847   2
  -1   1   3 1034.58 72.2005   1
  -1   1   4 3001.17 168.560  10
  -1   1   4 2688.34 160.624   5
  -1   1   4 2909.55 156.308   1
  -1   1   4 2376.41 160.228  11
  -1   1   5 124.349 24.5278   1
  -1   1   5 91.8002 24.0964   5
  -1   1   5 121.731 28.7215   7
  -1   1   5 151.710 31.7002  11
  -1   1   6 794.864 80.6964   2
  -1   1   6 829.859 71.1324   1
  -1   1   6 807.919 81.0097   7
  -1   1   6 726.787 77.9487  11
  -1   1   7 1058.04 106.094   2
  -1   1   7 1237.03 96.2951   1
  -1   1   7 1199.66 109.823   7
  -1   1   7 1203.42 109.597  11
  -1   1   8 408.909 66.6376  10
  -1   1   8 368.654 63.5078   7
  -1   1   8 382.935 52.5486   1
  -1   1   8 383.259 63.6130   2
  -1   1   8 464.836 68.0436  11
  -1   1   9 1086.29 118.938   2
  -1   1   9 1029.48 112.722   6
  -1   1   9 1263.31 123.287   7
  -1   1   9 1100.76 100.571   1
  -1   2  -9 156.679 33.2873  10
  -1   2  -9 163.886 29.0005   2
  -1   2  -9 165.542 28.5416  11
  -1   2  -8 391.693 42.4712   2
  -1   2  -8 401.359 49.0634  10
  -1   2  -8 398.417 41.6199  11
  -1   2  -7 893.084 71.9720  10
  -1   2  -7 804.974 62.0616   2
  -1   2  -7 824.597 61.6672  11
  -1   2  -6 91.8834 20.8890  10
  -1   2  -6 67.7753 15.6002   2
  -1   2  -6 81.8433 19.2224   7
  -1   2  -6 71.2995 14.7907  11
  -1   2  -5 955.221 67.9292  10
  -1   2  -5 941.614 68.2460   7
  -1   2  -5 1087.14 63.2261   2
  -1   2  -5 949.728 60.8707  11
  -1   2  -4 2131.35 116.757  10
  -1   2  -4 1973.26 119.089   8
  -1   2  -4 2242.79 118.977   7
  -1   2  -4 2248.61 109.570   2
  -1   2  -4 1969.08 120.715   6
  -1   2  -4 2086.81 108.802  11
  -1   2  -3 3380.35 171.559  10
  -1   2  -3 3588.90 178.894   8
  -1   2  -3 3450.43 174.794   7
  -1   2  -3 3557.77 179.838   6
  -1   2  -2 3877.76 180.424   1
  -1   2  -2 3549.01 174.990   8
  -1   2  -2 3272.06 170.144   7
  -1   2  -2 3404.68 174.567   6
  -1   2  -1 7165.01 331.234  11
  -1   2  -1 7522.97 343.256   1
  -1   2  -1 7041.70 337.365   8
  -1   2  -1 6911.03 333.838   7
  -1   2  -1 7021.48 336.507   6
  -1   2   0 8623.38 401.200  10
  -1   2   0 8803.28 407.164  11
  -1   2   0 8600.96 409.031   8
  -1   2   0 8418.51 401.957   2
  -1   2   0 8649.39 406.962   7
  -1   2   0 8506.23 407.141   6
  -1   2   0 9005.69 413.159   1
  -1   2   1 3050.37 160.470  10
  -1   2   1 3046.63 161.709   2
  -1   2   1 3321.07 166.663   8
  -1   2   1 3168.80 164.295   6
  -1   2   1 3153.10 166.071  11
  -1   2   2 3702.13 194.039  10
  -1   2   2 3683.85 195.816   8
  -1   2   2 3771.65 195.862   2
  -1   2   2 3584.96 197.870  11
  -1   2   3 777.857 64.7864  10
  -1   2   3 869.984 67.9258   2
  -1   2   3 772.711 62.7960   1
  -1   2   3 844.682 69.5301  11
  -1   2   4 2785.27 164.065  10
  -1   2   4 2850.79 165.590   2
  -1   2   4 2365.95 152.481   1
  -1   2   5 1633.72 118.799   1
  -1   2   5 1801.64 131.144  10
  -1   2   6 4792.81 279.341   2
  -1   2   6 4478.91 277.282   7
  -1   2   6 4550.27 263.010   1
  -1   2   6 4486.48 277.882  11
  -1   2   7 3523.93 240.614   7
  -1   2   7 3822.82 227.746   1
  -1   2   7 3526.51 241.447  11
  -1   2   8 79.1173 36.9391  10
  -1   2   8 50.9770 30.0450   7
  -1   2   8 42.8977 26.3147  11
  -1   2   8 104.289 30.6739   1
  -1   2   9 81.6395 31.1249   1
  -1   3  -8 233.825 28.9407   2
  -1   3  -7 68.6825 20.8759  10
  -1   3  -7 94.1621 16.8205   2
  -1   3  -7 96.9950 15.1996  11
  -1   3  -6 154.214 23.8876  10
  -1   3  -6 183.524 20.3422   2
  -1   3  -6 172.210 16.9538  11
  -1   3  -5 165.175 21.5907  10
  -1   3  -5 203.425 24.2228   7
  -1   3  -4 1438.85 88.1420   8
  -1   3  -4 1494.68 80.2356  10
  -1   3  -4 1462.09 83.4629   7
  -1   3  -4 1306.50 87.6281   6
  -1   3  -3 5481.99 251.670  10
  -1   3  -3 5655.89 272.280   1
  -1   3  -3 5345.41 265.527   8
  -1   3  -3 5184.68 259.234   7
  -1   3  -3 5293.44 266.610   6
  -1   3  -2 1406.16 84.8585   1
  -1   3  -2 1279.34 77.9849   8
  -1   3  -2 1332.16 73.8566   7
  -1   3  -2 1300.87 78.1008   6
  -1   3  -1 2722.29 132.266   6
  -1   3  -1 2441.44 131.782   8
  -1   3  -1 2485.39 137.573   1
  -1   3  -1 2311.97 126.718   7
  -1   3  -1 2460.32 125.484  11
  -1   3   0 6046.88 301.498   8
  -1   3   0 6138.35 306.939   1
  -1   3   0 6267.80 294.649   2
  -1   3   0 6157.76 298.613   7
  -1   3   0 6083.81 290.096  10
  -1   3   0 6161.38 299.583   6
  -1   3   0 6168.18 299.744  11
  -1   3   1 1484.91 96.5401   8
  -1   3   1 1519.36 94.1151   2
  -1   3   1 1666.48 92.4146  10
  -1   3   1 1633.67 101.035   1
  -1   3   1 1615.38 96.5578   6
  -1   3   1 1570.28 98.5913  11
  -1   3   2 1396.05 91.8633  10
  -1   3   2 1489.91 96.6357   8
  -1   3   2 1432.30 94.4502   2
  -1   3   2 1423.20 94.0309   6
  -1   3   2 1496.99 99.0547  11
  -1   3   3 175.050 28.5492  10
  -1   3   3 136.167 25.5303   1
  -1   3   3 144.983 26.5979   8
  -1   3   3 144.081 27.1110   2
  -1   3   3 163.580 29.7974  11
  -1   3   4 3232.39 188.202  10
  -1   3   4 3302.45 188.710   8
  -1   3   4 3083.73 188.214   2
  -1   3   4 2780.24 179.526   1
  -1   3   4 3198.69 192.913  11
  -1   3   5 203.413 37.1289   1
  -1   3   5 218.328 41.3843  10
  -1   3   5 302.826 47.4684   7
  -1   3   5 202.810 38.9395   2
  -1   3   5 189.095 38.9399  11
  -1   3   6 4813.45 282.060  10
  -1   3   6 4940.79 285.081   2
  -1   3   6 4760.58 285.018   7
  -1   3   6 4428.85 266.094   1
  -1   3   7 1937.30 150.228  10
  -1   3   7 1518.99 134.290   8
  -1   3   7 1896.63 150.538   2
  -1   3   7 1639.55 130.558   1
  -1   3   8 666.575 79.2329   1
  -1   3   8 788.256 95.9496  10
  -1   3   8 704.368 94.6719   2
  -1   3   8 722.651 88.1866   8
  -1   3   8 809.125 97.4573   7
  -1   3   8 713.183 92.6256  11
  -1   4  -5 274.216 26.1011   7
  -1   4  -4 573.317 47.3520   8
  -1   4  -4 600.291 48.8059   6
  -1   4  -4 617.190 41.2351   7
  -1   4  -3 2609.57 144.796   1
  -1   4  -3 2385.22 135.962   6
  -1   4  -3 2489.47 136.404   8
  -1   4  -3 2561.34 128.887   7
  -1   4  -2 3940.95 196.689   1
  -1   4  -2 3551.11 185.388   8
  -1   4  -2 3428.93 177.878   7
  -1   4  -2 3701.71 185.575   6
  -1   4  -1 1818.65 106.102   8
  -1   4  -1 1820.84 101.029   7
  -1   4  -1 1862.83 104.686   6
  -1   4  -1 1810.40 99.0861  11
  -1   4  -1 1847.84 113.935   1
  -1   4   0 3030.00 163.873   8
  -1   4   0 3265.19 156.874   2
  -1   4   0 2870.02 159.028   7
  -1   4   0 2941.92 148.220  10
  -1   4   0 2909.30 160.152   6
  -1   4   0 2962.42 170.021   1
  -1   4   0 3086.14 161.681  11
  -1   4   1 3667.30 189.233  10
  -1   4   1 3811.99 201.118   8
  -1   4   1 3808.56 196.728   2
  -1   4   1 3766.25 197.540   6
  -1   4   1 3559.16 203.520   1
  -1   4   1 3538.57 198.899  11
  -1   4   2 6748.84 330.245   8
  -1   4   2 6217.06 325.428   2
  -1   4   2 6558.63 326.553   6
  -1   4   2 6544.27 332.695   1
  -1   4   2 6079.89 319.409  10
  -1   4   2 6287.68 330.675  11
  -1   4   3 2775.93 161.346  10
  -1   4   3 2684.48 163.619   8
  -1   4   3 2673.66 164.116   2
  -1   4   3 2532.04 165.902  11
  -1   4   3 2680.44 161.863   6
  -1   4   4 2287.95 147.788  10
  -1   4   4 2307.27 149.460   8
  -1   4   4 2293.43 151.134   2
  -1   4   4 2426.33 157.895   7
  -1   4   4 2197.45 145.826   6
  -1   4   4 2651.50 161.253  11
  -1   4   5 232.883 42.1362  10
  -1   4   5 214.980 40.0196   1
  -1   4   5 198.704 41.0858   2
  -1   4   5 222.179 41.6837   8
  -1   4   5 184.937 41.9776  11
  -1   4   5 269.754 48.7303   7
  -1   4   6 538.868 69.3043  10
  -1   4   6 464.966 67.4440   2
  -1   4   6 385.879 57.1567   1
  -1   4   6 508.582 66.1729   8
  -1   4   6 625.754 76.9046   7
  -1   4   6 630.292 78.1784  11
  -1   4   7 508.305 71.6308  10
  -1   4   7 264.658 50.7481   1
  -1   4   7 426.176 68.6842   7
  -1   4   7 379.820 65.3004   2
  -1   4   7 448.997 70.6213  11
  -1   5  -4 252.776 28.6130   8
  -1   5  -4 227.443 18.3913   7
  -1   5  -4 304.119 31.0810   6
  -1   5  -3 240.992 27.2842   8
  -1   5  -3 197.849 18.8216   7
  -1   5  -3 159.383 28.0034   1
  -1   5  -3 155.279 23.4278   6
  -1   5  -2 1183.51 84.4691   1
  -1   5  -2 1127.57 74.8431   8
  -1   5  -2 1133.01 67.0342   7
  -1   5  -2 1127.19 73.9713   6
  -1   5  -1 1671.16 109.711   1
  -1   5  -1 1635.02 98.0557   6
  -1   5  -1 1665.26 100.907   8
  -1   5  -1 1566.01 93.4151   7
  -1   5   0 3114.67 166.956   8
  -1   5   0 2920.97 154.136   2
  -1   5   0 2952.05 159.799   7
  -1   5   0 2871.95 160.475  11
  -1   5   0 2871.58 161.087   6
  -1   5   0 2981.02 174.215   1
  -1   5   1 650.037 48.4331  10
  -1   5   1 684.638 60.0727   8
  -1   5   1 628.512 54.1806   2
  -1   5   1 744.399 58.9216   6
  -1   5   1 660.173 63.9064   1
  -1   5   1 637.395 57.7715  11
  -1   5   2 1808.92 108.748  10
  -1   5   2 1706.59 113.980   2
  -1   5   2 1681.51 117.557  11
  -1   5   2 1769.42 118.032   8
  -1   5   2 1693.81 112.687   6
  -1   5   2 1581.40 118.107   1
  -1   5   3 222.779 36.2302  10
  -1   5   3 215.397 38.7896   1
  -1   5   3 268.229 40.0720   8
  -1   5   3 281.858 43.9305   7
  -1   5   3 247.652 38.2692   6
  -1   5   3 253.155 39.6476   2
  -1   5   3 228.945 40.7070  11
  -1   5   4 247.531 40.4928  10
  -1   5   4 279.229 44.0144   8
  -1   5   4 240.992 45.3091   7
  -1   5   4 216.751 38.8828   6
  -1   5   4 206.966 39.6884   2
  -1   5   4 311.928 48.9872  11
  -1   5   5 376.381 54.7166  10
  -1   5   5 272.334 48.2082   1
  -1   5   5 329.928 52.2850   8
  -1   5   5 383.533 54.3284   6
  -1   5   5 375.998 59.5005   7
  -1   5   5 381.699 57.1205   2
  -1   5   5 516.689 67.1375  11
  -1   5   6 1058.87 102.433   8
  -1   5   6 987.473 105.910  11
  -1   5   6 1008.81 103.485   2
  -1   5   6 1046.84 107.977   7
  -1   5   6 938.150 95.6477   1
  -1   5   6 1098.01 101.791   6
  -1   5   6 981.778 99.8338  10
  -1   5   7 690.145 87.4874  10
  -1   6  -4 22.9069 14.5763   1
  -1   6  -4 30.6705 12.7563   8
  -1   6  -4 36.8607 13.3100   6
  -1   6  -3 368.721 38.1782   8
  -1   6  -3 401.137 46.9680   1
  -1   6  -3 457.490 39.7818   6
  -1   6  -2 641.273 62.4084   1
  -1   6  -2 671.490 52.3316   6
  -1   6  -2 664.390 54.1871   8
  -1   6  -2 651.976 44.3283   7
  -1   6  -1 196.165 33.7064   1
  -1   6  -1 136.235 24.9881   8
  -1   6  -1 105.602 18.6124   7
  -1   6  -1 166.817 25.6525   6
  -1   6   0 730.228 63.2872   8
  -1   6   0 699.573 59.3457   6
  -1   6   0 768.932 58.8067   7
  -1   6   0 768.818 71.4031   1
  -1   6   1 418.395 34.4852  10
  -1   6   1 451.976 43.8902   2
  -1   6   1 369.450 45.1795   8
  -1   6   1 404.966 52.0676   1
  -1   6   1 415.089 45.4739   7
  -1   6   1 457.695 50.5213   7
  -1   6   1 453.517 46.5779   6
  -1   6   2 49.9469 15.7383  10
  -1   6   2 63.3824 22.2183   8
  -1   6   2 53.8331 21.3485   1
  -1   6   2 63.5768 22.9233   7
  -1   6   2 81.5871 22.4762   2
  -1   6   2 56.3214 20.6083   6
  -1   6   3 15.8236 13.9321  10
  -1   6   3 9.98884 13.4352   2
  -1   6   3 10.2555 16.4818   8
  -1   6   3 23.2910 18.7132   1
  -1   6   3 4.62322 14.1006   6
  -1   6   3 17.2099 16.4923   7
  -1   6   4 109.004 28.1679  10
  -1   6   4 133.176 33.7719   8
  -1   6   4 195.617 40.4466   1
  -1   6   4 139.351 36.1347   7
  -1   6   4 106.159 31.6632   2
  -1   6   4 121.883 31.9171   6
  -1   6   5 209.613 42.3966  10
  -1   6   5 233.907 47.3692   2
  -1   6   5 254.094 47.3419   8
  -1   6   5 257.230 51.9014   7
  -1   6   5 163.424 38.6482   6
  -1   6   6 396.267 61.8019  10
  -1   6   6 379.550 63.6245   2
  -1   7  -3 99.2245 26.3002   1
  -1   7  -2 37.8778 20.4769   1
  -1   7  -1 693.045 70.9265   1
  -1   7  -1 768.805 63.6776   8
  -1   7   0 53.4925 22.4820   1
  -1   7   0 23.0579 16.2033   8
  -1   7   0 65.4704 16.7151   7
  -1   7   0 30.7093 15.6127   7
  -1   7   0 42.3797 17.3080   6
  -1   7   1 1156.51 91.2175   8
  -1   7   1 1194.94 101.739   1
  -1   7   1 1094.72 83.2843   7
  -1   7   1 1191.77 91.0718   7
  -1   7   1 1156.94 86.5198   6
  -1   7   2 24.5873 15.8573   8
  -1   7   2 25.5487 17.8884   7
  -1   7   2 30.9818 18.2234   7
  -1   7   2 18.2503 19.5911   1
  -1   7   2 63.9431 21.2596   6
  -1   7   3 137.873 35.0615   8
  -1   7   3 145.217 35.8245   7
  -1   7   3 169.320 35.8653   2
  -1   7   3 102.445 29.1045   6
  -1   7   4 240.702 45.8644   8
  -1   7   4 181.272 41.8827   7
  -1   7   4 264.685 45.2138   6
  -1   7   4 206.666 41.2332   2
  -1   8  -2 69.7285 25.1656   1
   0  -8  -2 395.063 68.9202   5
   0  -8  -2 370.932 63.4351   1
   0  -8  -1 535.403 79.9554   5
   0  -8  -1 527.284 81.2654   9
   0  -8  -1 604.940 76.6818   1
   0  -8  -1 665.886 84.4945   4
   0  -8   0 47.2201 29.0253   5
   0  -8   0 128.465 40.7731   3
   0  -8   0 73.1492 33.6624   9
   0  -8   0 65.0601 29.5700   1
   0  -8   0 96.4397 35.7479   4
   0  -8   1 513.897 73.4265   5
   0  -8   1 508.696 79.8068   3
   0  -8   1 580.504 84.1658   9
   0  -8   1 592.570 74.9153   1
   0  -8   1 685.192 83.6903   4
   0  -8   2 107.439 38.6322   3
   0  -8   2 50.9724 28.6835   9
   0  -8   2 30.6574 21.6578   5
   0  -8   2 35.0896 21.4692   4
   0  -8   2 32.5285 22.9699   1
   0  -8   3 303.106 60.5735   3
   0  -7  -6 7.67321 20.6256  12
   0  -7  -5 180.900 40.4182   2
   0  -7  -5 149.618 43.7531  12
   0  -7  -5 177.616 43.8607  11
   0  -7  -4 756.177 91.4400   5
   0  -7  -4 883.041 95.9498  12
   0  -7  -4 778.036 93.9217   3
   0  -7  -4 661.739 82.7962   1
   0  -7  -4 827.521 81.7878   2
   0  -7  -4 556.146 80.7186   4
   0  -7  -4 741.811 82.1048  11
   0  -7  -3 1307.58 106.390  11
   0  -7  -3 1081.04 114.335   5
   0  -7  -3 1102.66 109.402   1
   0  -7  -3 1139.56 115.439   4
   0  -7  -3 1256.14 101.089   2
   0  -7  -3 1420.36 126.477  12
   0  -7  -3 1379.46 126.301   3
   0  -7  -2 38.4666 28.2421   5
   0  -7  -2 47.9607 27.9050   1
   0  -7  -2 82.2923 33.4922  12
   0  -7  -2 7.70338 19.2626   4
   0  -7  -2 38.9491 18.2259   2
   0  -7  -2 85.9581 25.7399  11
   0  -7  -1 229.258 35.5543  11
   0  -7  -1 172.462 28.8641   2
   0  -7  -1 167.438 43.9862  12
   0  -7  -1 191.139 48.4265   3
   0  -7  -1 104.710 32.7236   1
   0  -7  -1 168.781 41.4897   4
   0  -7  -1 131.861 36.4417   5
   0  -7   0 753.459 84.7564   5
   0  -7   0 686.001 86.8028   3
   0  -7   0 806.791 91.9063   9
   0  -7   0 727.924 78.1779   1
   0  -7   0 714.028 53.9611   2
   0  -7   0 764.197 83.9381   4
   0  -7   0 824.755 95.4005  12
   0  -7   0 748.654 57.5190  11
   0  -7   1 102.950 34.2400   5
   0  -7   1 209.498 46.6249   3
   0  -7   1 247.998 46.1227   4
   0  -7   1 158.819 35.7148   1
   0  -7   1 165.794 42.6585   9
   0  -7   1 260.133 54.8626  12
   0  -7   2 271.636 46.9518   5
   0  -7   2 205.406 47.3679   3
   0  -7   2 263.966 50.6892   9
   0  -7   2 322.725 50.4889   4
   0  -7   2 305.336 47.4599   1
   0  -7   2 290.648 57.9251  12
   0  -7   3 237.092 41.9296   5
   0  -7   3 299.385 55.3880   3
   0  -7   3 170.198 33.5864   5
   0  -7   3 261.522 47.7480   9
   0  -7   3 190.941 37.6267   4
   0  -7   3 220.712 50.8919  12
   0  -7   3 230.489 41.0169   1
   0  -7   4 289.586 50.8396   3
   0  -7   4 261.349 41.3530   1
   0  -7   4 207.879 39.9927   9
   0  -7   4 156.434 46.1586  12
   0  -7   5 853.687 99.5746  12
   0  -6  -7 79.6848 32.1176   3
   0  -6  -7 18.3666 20.6912  12
   0  -6  -6 179.790 41.5410   2
   0  -6  -6 207.012 49.0145   5
   0  -6  -6 240.429 49.5246   3
   0  -6  -6 233.318 47.5798   1
   0  -6  -6 278.447 53.9047   4
   0  -6  -6 191.644 45.1418  11
   0  -6  -6 232.137 46.4419  12
   0  -6  -5 947.313 94.4596  12
   0  -6  -5 945.204 98.5226   4
   0  -6  -5 840.750 86.6754   2
   0  -6  -5 804.046 87.9680  11
   0  -6  -5 845.739 95.0572   3
   0  -6  -4 167.379 36.2701   2
   0  -6  -4 243.689 48.1798   5
   0  -6  -4 270.577 51.0507   3
   0  -6  -4 197.976 41.1604   1
   0  -6  -4 255.989 47.9151  12
   0  -6  -4 215.041 41.6044  11
   0  -6  -3 1166.42 110.090   5
   0  -6  -3 1235.25 106.678   1
   0  -6  -3 1174.78 109.588   4
   0  -6  -3 1113.21 94.9188   2
   0  -6  -3 1369.52 116.718  12
   0  -6  -3 1275.81 102.009  11
   0  -6  -3 1392.20 118.292   3
   0  -6  -2 649.469 74.1351   5
   0  -6  -2 640.773 74.5864  12
   0  -6  -2 469.503 52.8138   2
   0  -6  -2 459.890 60.0734   1
   0  -6  -2 527.944 67.2398   4
   0  -6  -2 533.082 57.2640  11
   0  -6  -1 1476.03 119.650   5
   0  -6  -1 1440.25 117.205   4
   0  -6  -1 1377.49 110.804   1
   0  -6  -1 1362.68 94.5247   2
   0  -6  -1 1756.70 133.674  12
   0  -6  -1 1393.05 97.2269  11
   0  -6  -1 1288.35 116.794   3
   0  -6   0 805.619 80.8826   5
   0  -6   0 730.955 76.2831   4
   0  -6   0 752.248 74.3086   1
   0  -6   0 727.497 55.7531   2
   0  -6   0 773.598 57.4876  11
   0  -6   0 779.180 83.1899   3
   0  -6   1 710.477 77.7582   9
   0  -6   1 640.056 75.2792   3
   0  -6   1 679.526 71.2907   4
   0  -6   1 755.197 70.7628   1
   0  -6   1 678.298 43.8450   2
   0  -6   1 716.710 83.8018  12
   0  -6   2 4121.49 248.519   9
   0  -6   2 4297.00 240.856   4
   0  -6   2 4044.08 236.151   1
   0  -6   2 4458.93 269.061  12
   0  -6   2 4165.25 254.606   3
   0  -6   3 1199.85 88.5425   5
   0  -6   3 1175.49 101.153   9
   0  -6   3 1469.19 125.216  12
   0  -6   3 1394.38 98.9361   4
   0  -6   3 1375.22 99.4349   1
   0  -6   3 1319.31 111.541   3
   0  -6   4 20.3460 11.5870   5
   0  -6   4 4.18936 15.3691   9
   0  -6   4 24.6641 16.1963   1
   0  -6   4 32.8265 14.2458   4
   0  -6   4 35.5553 23.9740  12
   0  -6   5 52.4793 17.3534   5
   0  -6   5 45.1791 22.0761   3
   0  -6   5 35.0872 17.3466   1
   0  -6   5 29.9468 12.1453   5
   0  -6   5 36.9829 16.0543   9
   0  -6   5 40.1463 25.4890  12
   0  -6   6 48.0256 24.4886  12
   0  -5  -8 47.4387 24.1346   3
   0  -5  -8 31.0534 20.9703   9
   0  -5  -8 14.5982 23.4880   4
   0  -5  -7 392.070 61.7444   2
   0  -5  -7 435.875 63.9961  10
   0  -5  -7 526.516 59.4094  12
   0  -5  -7 516.108 68.3715   5
   0  -5  -7 479.329 62.8994   3
   0  -5  -7 434.375 63.5125   4
   0  -5  -7 410.674 65.3045  11
   0  -5  -6 324.026 52.7686   2
   0  -5  -6 341.550 52.0662  10
   0  -5  -6 417.122 59.9256   5
   0  -5  -6 329.591 51.2544   3
   0  -5  -6 336.849 49.4442  12
   0  -5  -6 356.385 56.5710   4
   0  -5  -6 339.434 56.8906  11
   0  -5  -5 143.358 33.5690   2
   0  -5  -5 156.131 33.8784  10
   0  -5  -5 266.592 46.4908   5
   0  -5  -5 114.698 31.3238   3
   0  -5  -5 97.9050 29.9450   1
   0  -5  -5 144.693 36.5447   4
   0  -5  -5 140.943 34.9810  12
   0  -5  -5 152.860 37.1563  11
   0  -5  -4 159.399 32.0336  10
   0  -5  -4 157.171 32.8040   2
   0  -5  -4 124.596 33.5103   4
   0  -5  -4 137.129 33.1243  12
   0  -5  -4 172.380 37.2913   3
   0  -5  -4 117.949 30.3406  11
   0  -5  -3 628.586 72.3993   5
   0  -5  -3 736.717 72.7345   1
   0  -5  -3 647.178 65.8878   2
   0  -5  -3 912.822 82.5293  12
   0  -5  -3 674.767 68.9699  11
   0  -5  -3 879.387 68.8200  10
   0  -5  -3 929.654 84.5249   3
   0  -5  -2 4291.47 267.517   5
   0  -5  -2 4667.46 244.041  10
   0  -5  -2 5344.14 279.758  12
   0  -5  -2 4633.53 269.800   4
   0  -5  -2 4785.97 264.736   1
   0  -5  -2 4709.93 253.621   2
   0  -5  -2 4898.61 258.474  11
   0  -5  -1 2404.32 159.226   4
   0  -5  -1 2704.61 158.604   1
   0  -5  -1 2417.28 141.527   2
   0  -5  -1 2212.64 156.914   5
   0  -5  -1 2891.81 173.516  12
   0  -5  -1 2403.30 142.954  11
   0  -5  -1 2298.01 160.995   3
   0  -5   0 524.555 63.0539   3
   0  -5   0 561.610 60.8151   4
   0  -5   0 670.903 48.7928   2
   0  -5   0 610.201 59.7093   1
   0  -5   0 615.285 47.8803  11
   0  -5   1 1630.57 112.773   4
   0  -5   1 1553.52 86.4339   2
   0  -5   1 1641.66 109.668   1
   0  -5   1 1506.15 121.422  12
   0  -5   1 1562.10 83.8723  11
   0  -5   1 1799.78 124.362   3
   0  -5   2 798.438 76.2542   9
   0  -5   2 988.293 90.4636  12
   0  -5   2 990.882 76.6734   4
   0  -5   2 941.541 74.2633   1
   0  -5   2 904.190 82.5767   3
   0  -5   3 52.0108 16.5729   1
   0  -5   3 11.6657 18.7828  12
   0  -5   3 42.0791 20.1929   3
   0  -5   3 33.1129 12.4781   5
   0  -5   3 23.4057 14.8849   9
   0  -5   3 42.1783 10.9183   8
   0  -5   3 25.2939 13.6894   4
   0  -5   3 17.7479 8.61682   6
   0  -5   4 168.967 27.8217   1
   0  -5   4 219.149 34.4906   3
   0  -5   4 150.091 21.4221   5
   0  -5   4 220.804 30.4753   9
   0  -5   4 171.761 19.4921   8
   0  -5   4 199.355 23.4230   4
   0  -5   4 143.192 19.3844   6
   0  -5   4 179.714 36.4661  12
   0  -5   5 788.560 47.5507  10
   0  -5   5 834.029 52.8850   5
   0  -5   5 797.764 57.5444   9
   0  -5   5 779.765 51.6034   8
   0  -5   5 820.305 44.5805   2
   0  -5   5 848.632 65.6657   1
   0  -5   5 770.671 56.3106   6
   0  -5   5 885.260 81.6844  12
   0  -5   5 829.413 66.3460   3
   0  -5   6 189.914 26.5257  10
   0  -5   6 152.848 21.8585   3
   0  -5   6 160.722 16.8143   5
   0  -5   6 147.530 17.4362   9
   0  -5   6 215.325 30.3938   1
   0  -5   6 161.179 20.1421   8
   0  -5   6 217.905 23.8366   2
   0  -5   6 178.677 35.0595  12
   0  -5   6 198.690 27.3995   6
   0  -5   7 755.729 66.8086  12
   0  -4  -9 20.9676 23.2546   9
   0  -4  -9 43.9956 24.7686   4
   0  -4  -8 386.147 59.4071   2
   0  -4  -8 473.248 67.5013  10
   0  -4  -8 383.912 58.4024   5
   0  -4  -8 418.158 52.6421   3
   0  -4  -8 329.637 49.7168   9
   0  -4  -8 457.695 60.3378   4
   0  -4  -7 51.0983 24.4121   2
   0  -4  -7 46.3082 25.2747  10
   0  -4  -7 47.3473 24.1844   5
   0  -4  -7 93.1842 27.4078   3
   0  -4  -7 36.0661 21.3069   4
   0  -4  -7 76.4632 22.1182  12
   0  -4  -6 1805.43 132.015   5
   0  -4  -6 1744.43 130.565  10
   0  -4  -6 1899.96 122.217  12
   0  -4  -6 1851.06 133.266   4
   0  -4  -6 1613.24 127.407   2
   0  -4  -6 1525.43 129.132  11
   0  -4  -6 1709.22 125.070   3
   0  -4  -5 2663.00 163.870   5
   0  -4  -5 2220.46 153.296  10
   0  -4  -5 2457.99 150.571  12
   0  -4  -5 2462.17 155.831   1
   0  -4  -5 2532.98 162.513   4
   0  -4  -5 2144.58 152.525   2
   0  -4  -5 2047.11 154.644  11
   0  -4  -5 2472.01 157.811   3
   0  -4  -4 1458.23 118.459   5
   0  -4  -4 1669.41 116.404  10
   0  -4  -4 1792.19 126.027   4
   0  -4  -4 1684.85 118.355   2
   0  -4  -4 1769.48 119.129  12
   0  -4  -4 1625.99 121.030  11
   0  -4  -4 1925.22 125.884   3
   0  -4  -3 13.9258 11.7624  10
   0  -4  -3 13.8947 15.6291   3
   0  -4  -3 23.5178 13.8210   2
   0  -4  -3 30.3551 15.9071  11
   0  -4  -2 2359.22 153.335   5
   0  -4  -2 2573.45 139.220  10
   0  -4  -2 2520.67 157.130   3
   0  -4  -2 2201.72 150.099   4
   0  -4  -2 2415.09 149.186   1
   0  -4  -2 2489.85 144.117   2
   0  -4  -2 2463.83 146.656  11
   0  -4  -1 3111.15 158.457  10
   0  -4  -1 3092.27 180.737   4
   0  -4  -1 3042.72 175.464   1
   0  -4  -1 3005.91 165.824   2
   0  -4  -1 3089.80 169.265  11
   0  -4   0 1412.61 104.097   3
   0  -4   0 1504.83 101.886   4
   0  -4   0 1503.98 86.6210   2
   0  -4   0 1415.46 96.5873   1
   0  -4   0 1503.94 87.1700  11
   0  -4   1 354.174 42.5624   3
   0  -4   1 312.480 25.0619   2
   0  -4   1 314.218 42.1185  12
   0  -4   1 268.644 34.3694   4
   0  -4   1 324.575 22.8515  11
   0  -4   1 268.076 32.7513   1
   0  -4   2 326.202 38.7954   9
   0  -4   2 310.787 27.7989   8
   0  -4   2 334.700 22.7070   2
   0  -4   2 361.661 37.7400   4
   0  -4   2 341.108 21.0811   2
   0  -4   2 328.595 35.5003   1
   0  -4   2 345.313 27.6979   6
   0  -4   2 416.138 48.6659  12
   0  -4   2 410.514 44.1419   3
   0  -4   3 3429.95 181.484   5
   0  -4   3 3680.71 209.808  12
   0  -4   3 3561.76 193.027   9
   0  -4   3 3493.22 171.456   2
   0  -4   3 3683.48 186.068   4
   0  -4   3 3506.37 177.662   8
   0  -4   3 3621.67 171.423   2
   0  -4   3 3615.82 190.753   1
   0  -4   3 3691.39 179.707   6
   0  -4   3 3870.41 201.303   3
   0  -4   4 744.326 48.0330  10
   0  -4   4 632.694 44.0752   5
   0  -4   4 680.473 49.8935   9
   0  -4   4 601.470 43.8191   8
   0  -4   4 663.578 40.4096   4
   0  -4   4 656.856 44.7929   2
   0  -4   4 615.026 51.5065   1
   0  -4   4 676.773 48.6569   6
   0  -4   4 788.905 67.6783  12
   0  -4   4 660.198 55.4951   3
   0  -4   5 1118.53 73.3288  10
   0  -4   5 889.453 56.8418   5
   0  -4   5 983.867 58.8422   9
   0  -4   5 980.220 64.5592   3
   0  -4   5 875.727 60.7779   8
   0  -4   5 1114.24 69.7575   2
   0  -4   5 953.394 55.2897   7
   0  -4   5 1058.34 80.4199  12
   0  -4   5 1051.26 69.7117   1
   0  -4   5 985.214 68.4519   6
   0  -4   6 41.2733 7.62732   3
   0  -4   6 27.6488 8.50616   5
   0  -4   6 28.0940 5.27614   9
   0  -4   6 37.1807 12.6578   8
   0  -4   6 58.2270 19.3764  10
   0  -4   6 37.5904 10.6077   7
   0  -4   6 37.0484 14.3041   1
   0  -4   6 35.9254 15.2777  12
   0  -4   6 23.1948 13.1231   2
   0  -4   6 47.3875 16.1164   6
   0  -4   7 88.3485 26.0854  10
   0  -4   7 59.2869 16.2151   8
   0  -4   7 82.4700 19.1217  12
   0  -4   7 51.9089 14.0536   7
   0  -4   7 76.7944 18.3099   1
   0  -4   7 93.4943 24.9849   2
   0  -4   7 56.3771 19.7038   6
   0  -4   8 278.226 46.6337  10
   0  -4   8 157.642 32.0492   6
   0  -3  -9 22.2874 21.1897   5
   0  -3  -9 8.51664 12.9965   9
   0  -3  -9 25.9180 18.9988   4
   0  -3  -8 1075.45 95.5811   5
   0  -3  -8 1103.64 89.1300   9
   0  -3  -8 1168.55 107.467  10
   0  -3  -8 1068.38 71.1649  12
   0  -3  -8 1138.57 95.0001   4
   0  -3  -8 1247.04 70.8409  12
   0  -3  -8 1237.99 110.015  11
   0  -3  -8 1056.45 83.3813   3
   0  -3  -7 13.2942 10.3158  12
   0  -3  -7 6.16209 13.9980  10
   0  -3  -7-5.04238 15.3676   5
   0  -3  -7-4.18506 14.7280   9
   0  -3  -7 3.79127 14.4112   3
   0  -3  -7 4.96436 15.9481   4
   0  -3  -7 2.65904 12.6706  12
   0  -3  -7 6.33392 14.3883  11
   0  -3  -6 765.821 74.1688  10
   0  -3  -6 706.355 58.7767  12
   0  -3  -6 711.943 69.0046   4
   0  -3  -6 693.992 70.4083   2
   0  -3  -6 718.348 69.4678   5
   0  -3  -6 636.667 61.1818   3
   0  -3  -5 92.3502 23.3685   2
   0  -3  -5 70.4740 21.7625  10
   0  -3  -5 110.710 25.7994   5
   0  -3  -5 148.640 26.8802   3
   0  -3  -5 118.554 25.6150   1
   0  -3  -5 102.867 25.6500   4
   0  -3  -5 65.6385 17.6184  12
   0  -3  -4 16.0701 11.6420   2
   0  -3  -4 27.6830 14.5636  10
   0  -3  -4 61.6491 18.2613   5
   0  -3  -4 25.8855 14.6273   3
   0  -3  -4 36.9761 14.1355   1
   0  -3  -4 66.5901 19.4331   4
   0  -3  -4 35.4805 16.3144  11
   0  -3  -3 2408.18 143.656   3
   0  -3  -3 2456.79 146.431   4
   0  -3  -3 2312.57 140.524   2
   0  -3  -3 2341.36 139.009  10
   0  -3  -3 2304.44 143.145  11
   0  -3  -2 3255.71 174.308   3
   0  -3  -2 3129.65 163.136  10
   0  -3  -2 2828.57 163.992   2
   0  -3  -2 2923.43 168.224  11
   0  -3  -1 13474.8 609.230  10
   0  -3  -1 12733.0 624.620   4
   0  -3  -1 12902.5 614.392   2
   0  -3  -1 12965.4 620.971   1
   0  -3  -1 13155.8 616.783  11
   0  -3   0 19233.2 915.282   3
   0  -3   0 19743.1 888.379  10
   0  -3   0 18677.2 910.562   4
   0  -3   0 19711.0 897.535   2
   0  -3   0 19389.1 907.072   1
   0  -3   0 19620.2 897.670  11
   0  -3   1 2362.42 141.220   3
   0  -3   1 2468.42 127.339   8
   0  -3   1 2600.84 123.807   2
   0  -3   1 2495.14 137.584   4
   0  -3   1 2454.53 134.885   1
   0  -3   1 2532.07 125.385   6
   0  -3   1 2547.88 147.513  12
   0  -3   1 2465.57 119.196  11
   0  -3   2 614.656 44.0461   5
   0  -3   2 686.471 50.9141   9
   0  -3   2 670.094 41.6316   8
   0  -3   2 678.953 47.2273   4
   0  -3   2 709.026 58.9338  12
   0  -3   2 652.666 36.9807   2
   0  -3   2 642.258 41.2821   6
   0  -3   2 687.612 48.2717   1
   0  -3   2 683.975 53.6503   3
   0  -3   3 346.870 28.6243  10
   0  -3   3 335.013 26.0960   5
   0  -3   3 346.634 30.0152   9
   0  -3   3 327.389 26.4202   8
   0  -3   3 348.733 25.9236   4
   0  -3   3 324.935 22.2824   7
   0  -3   3 324.920 26.0610   2
   0  -3   3 304.366 36.2862  12
   0  -3   3 335.081 28.9203   6
   0  -3   3 278.666 28.7425   1
   0  -3   3 333.025 32.2540   3
   0  -3   4 388.542 37.0223  10
   0  -3   4 356.780 27.1547   5
   0  -3   4 382.170 35.1286   6
   0  -3   4 345.239 27.6434   9
   0  -3   4 356.976 30.7540   8
   0  -3   4 393.584 34.3224   2
   0  -3   4 391.881 29.5436   7
   0  -3   4 415.755 40.7968  12
   0  -3   4 389.791 32.0785   3
   0  -3   4 328.672 31.6669   1
   0  -3   5 2442.55 139.577   1
   0  -3   5 2890.03 158.051  10
   0  -3   5 2688.91 133.475   5
   0  -3   5 2643.14 127.317   9
   0  -3   5 2425.01 140.317   8
   0  -3   5 2855.03 151.801   2
   0  -3   5 2339.62 138.024   7
   0  -3   5 2749.52 128.132   3
   0  -3   5 2431.12 147.059   6
   0  -3   5 2683.42 146.974  12
   0  -3   6 273.716 41.6419  10
   0  -3   6 273.719 31.9858   8
   0  -3   6 276.176 25.7582   5
   0  -3   6 266.935 29.5926   1
   0  -3   6 268.660 31.6625   7
   0  -3   6 293.358 29.4856  12
   0  -3   6 320.640 40.1556   2
   0  -3   6 265.878 35.7722   6
   0  -3   7 846.034 80.9813  10
   0  -3   7 712.439 57.2580   1
   0  -3   7 778.159 70.9272   6
   0  -3   7 729.329 62.5666   8
   0  -3   7 771.248 74.5388   2
   0  -3   7 761.093 64.0248   7
   0  -3   7 876.290 50.7401  12
   0  -3   8 293.339 52.2482  10
   0  -3   8 399.828 43.5712   1
   0  -3   8 266.826 34.0221   1
   0  -3   8 314.977 40.0082   8
   0  -3   8 287.334 40.4739   7
   0  -3   8 325.941 50.8997   2
   0  -3   8 256.103 42.5329   6
   0  -3   9 103.218 37.1490  10
   0  -3   9 99.4114 35.5343   2
   0  -3   9 64.8309 25.6740   6
   0  -2 -10 1188.05 97.6790   5
   0  -2  -9 6.76977 16.8479  11
   0  -2  -9 7.17955 19.2985  10
   0  -2  -9 19.3415 19.6502   2
   0  -2  -9 18.8281 17.2429   5
   0  -2  -9-3.25715 11.4660   9
   0  -2  -9 8.15866 12.4357   4
   0  -2  -8 558.470 60.5724   5
   0  -2  -8 476.512 63.1978   2
   0  -2  -8 632.538 59.6691   4
   0  -2  -8 617.027 70.9450  11
   0  -2  -8 715.537 58.3373   9
   0  -2  -8 608.741 49.4041   3
   0  -2  -7 856.283 75.8511   5
   0  -2  -7 905.769 56.1666  12
   0  -2  -7 905.439 70.7961   9
   0  -2  -7 878.894 74.5934   4
   0  -2  -7 960.335 54.1655  12
   0  -2  -7 836.540 81.4542   2
   0  -2  -7 906.417 85.6906  11
   0  -2  -7 996.089 68.1014   3
   0  -2  -6 818.369 70.0024   5
   0  -2  -6 800.567 64.0661   9
   0  -2  -6 802.263 54.9728  12
   0  -2  -6 871.462 70.0560   4
   0  -2  -6 803.072 51.5382  12
   0  -2  -6 797.512 75.2546  11
   0  -2  -6 732.965 60.4764   3
   0  -2  -5 2825.03 177.633  10
   0  -2  -5 3004.24 159.385  12
   0  -2  -5 3231.33 175.256   4
   0  -2  -5 3153.86 175.908   5
   0  -2  -5 2983.32 180.639  11
   0  -2  -5 2963.11 166.025   3
   0  -2  -4 1041.78 76.9718  10
   0  -2  -4 938.049 70.3761   1
   0  -2  -4 1029.59 74.8898   5
   0  -2  -4 966.391 72.7497   4
   0  -2  -4 941.097 69.1895   3
   0  -2  -3 5682.08 271.953   3
   0  -2  -3 5165.18 272.845  10
   0  -2  -3 5498.10 275.374   5
   0  -2  -3 5920.57 273.262   1
   0  -2  -3 5187.63 272.872   4
   0  -2  -3 4790.54 270.960   2
   0  -2  -2 12886.8 618.763  10
   0  -2  -2 12481.6 619.807   2
   0  -2  -2 13951.9 625.569   4
   0  -2  -2 14435.7 624.683   3
   0  -2  -2 12541.0 622.820  11
   0  -2  -1 40409.2 1816.55  10
   0  -2  -1 38950.5 1819.22   2
   0  -2  -1 40496.7 1821.42  11
   0  -2   0 8745.29 396.706  10
   0  -2   0 8589.35 402.000   2
   0  -2   0 8473.84 410.957   4
   0  -2   0 8574.61 407.850   1
   0  -2   0 8750.58 402.471  11
   0  -2   1 2228.94 108.905   3
   0  -2   1 1986.39 96.5688   8
   0  -2   1 1997.72 102.694   4
   0  -2   1 1867.39 108.662  12
   0  -2   1 1872.30 95.5111   6
   0  -2   1 1802.46 100.818   1
   0  -2   2 2881.20 139.740   5
   0  -2   2 2930.88 143.733   9
   0  -2   2 2900.75 152.109  12
   0  -2   2 2810.73 139.752   8
   0  -2   2 2942.10 139.746   4
   0  -2   2 2851.72 136.840   7
   0  -2   2 2876.57 139.072   2
   0  -2   2 2877.08 142.606   6
   0  -2   2 2917.36 141.704  10
   0  -2   2 2703.33 142.936   1
   0  -2   2 2876.71 146.521   3
   0  -2   3 5868.01 279.254  10
   0  -2   3 5894.92 266.830   5
   0  -2   3 5543.26 271.904   1
   0  -2   3 5618.46 266.308   9
   0  -2   3 5413.27 272.191   8
   0  -2   3 6013.41 279.079  12
   0  -2   3 5730.63 277.083   6
   0  -2   3 5711.32 274.445   2
   0  -2   3 5389.96 270.926   7
   0  -2   3 5714.85 269.404   3
   0  -2   4 924.847 66.8628  10
   0  -2   4 835.589 50.9541   5
   0  -2   4 931.404 46.6588   9
   0  -2   4 769.208 53.7266   1
   0  -2   4 805.252 57.4877   8
   0  -2   4 807.261 60.4397   2
   0  -2   4 800.272 57.9758   7
   0  -2   4 925.557 56.7249  12
   0  -2   4 831.162 62.1713   6
   0  -2   4 884.185 44.5807   3
   0  -2   5 4182.65 203.779   5
   0  -2   5 3756.83 204.693   1
   0  -2   5 4134.67 220.453   6
   0  -2   5 3779.93 212.250   8
   0  -2   5 4237.21 222.373   2
   0  -2   5 4170.22 217.377   7
   0  -2   5 4195.09 227.768  10
   0  -2   5 4313.00 200.719  12
   0  -2   6 1579.00 93.5886   5
   0  -2   6 1756.59 121.273  10
   0  -2   6 1420.62 92.9836   1
   0  -2   6 1493.21 102.533   8
   0  -2   6 1719.58 115.201   2
   0  -2   6 1692.34 108.496   7
   0  -2   6 1632.14 81.4868  12
   0  -2   6 1492.16 108.655   6
   0  -2   7 586.882 70.1097  10
   0  -2   7 554.752 62.0873   6
   0  -2   7 578.674 49.5048   1
   0  -2   7 631.106 56.1280   1
   0  -2   7 573.775 57.7538   8
   0  -2   7 682.796 70.4206   2
   0  -2   7 658.651 63.3571   7
   0  -2   8 36.7280 25.8715  10
   0  -2   8 18.3854 13.2511   1
   0  -2   8 35.6454 18.0256   1
   0  -2   8 18.9586 16.0056   8
   0  -2   8 63.0395 25.6158   7
   0  -2   8 26.3495 18.9582   2
   0  -2   8 5.82101 16.7603   6
   0  -2   9 196.275 49.2049  10
   0  -2   9 157.802 34.9579   8
   0  -2   9 244.888 39.4446   1
   0  -2   9 240.873 43.8759   7
   0  -2   9 255.603 53.0611   2
   0  -2   9 215.131 43.7088   6
   0  -2  10 39.0082 28.0896  10
   0  -2  10 62.4224 33.9522   2
   0  -2  10 38.2137 24.6309   6
   0  -1  -9 221.875 43.9047  10
   0  -1  -9 159.781 36.4219   2
   0  -1  -9 166.987 30.5484   5
   0  -1  -9 170.075 26.3003   4
   0  -1  -9 176.468 39.8764  11
   0  -1  -8 876.324 69.9164   5
   0  -1  -8 779.886 80.9473  10
   0  -1  -8 797.811 58.5152   9
   0  -1  -8 731.465 61.3280   4
   0  -1  -8 831.834 79.2420   2
   0  -1  -8 804.037 46.0574   3
   0  -1  -8 809.362 46.4816   3
   0  -1  -8 855.714 81.8566  11
   0  -1  -7 1653.82 104.126   5
   0  -1  -7 1505.25 115.288  10
   0  -1  -7 1684.52 94.7242   9
   0  -1  -7 1331.70 94.7010   4
   0  -1  -7 1456.16 110.741   2
   0  -1  -7 1475.93 83.6731   3
   0  -1  -7 1681.07 117.139  11
   0  -1  -6 4230.62 233.731  10
   0  -1  -6 4338.49 210.859   9
   0  -1  -6 4032.29 218.325   5
   0  -1  -6 3958.66 213.694   4
   0  -1  -6 4009.05 227.726   2
   0  -1  -6 4029.11 203.081   3
   0  -1  -6 4064.65 230.345  11
   0  -1  -5 2430.18 131.057   9
   0  -1  -5 2313.63 119.139  12
   0  -1  -5 2315.67 134.425   4
   0  -1  -5 2514.08 145.730   2
   0  -1  -5 2448.57 137.719   5
   0  -1  -5 2424.93 116.434  12
   0  -1  -5 2383.28 145.506  11
   0  -1  -5 2373.52 126.700   3
   0  -1  -4 561.377 44.0789   4
   0  -1  -4 467.535 45.4514   2
   0  -1  -4 541.648 32.9255  12
   0  -1  -4 570.817 50.4064  11
   0  -1  -4 452.779 42.3018   5
   0  -1  -4 505.709 38.4591   3
   0  -1  -3 1655.47 88.9391   3
   0  -1  -3 1593.59 93.2917   5
   0  -1  -3 1603.06 92.5219   4
   0  -1  -3 1497.96 96.3445  11
   0  -1  -2 38856.9 1791.00   3
   0  -1  -2 39731.1 1795.07   5
   0  -1  -2 39398.7 1792.75   1
   0  -1  -2 39724.1 1794.44   4
   0  -1  -1 6340.45 84.2319  10
   0  -1  -1 1.14870 2.33933   3
   0  -1   1 0.49600 0.71256   8
   0  -1   1 0.52502 0.75426  10
   0  -1   1-0.98864 1.00430  12
   0  -1   1 0.41107 0.41760   2
   0  -1   1-0.47887 0.48647   5
   0  -1   1-0.73954 1.06242   3
   0  -1   1-0.63882 0.00465   9
   0  -1   1 0.63520 0.64527   1
   0  -1   1-0.46565 0.66897   4
   0  -1   1-0.60334 0.61291   6
   0  -1   2 25903.8 1180.37  10
   0  -1   2 26937.9 1170.94   5
   0  -1   2 25404.6 1168.63   9
   0  -1   2 24156.5 1176.20   8
   0  -1   2 25438.6 1176.82   2
   0  -1   2 25266.0 1176.84   7
   0  -1   2 27575.9 1175.08  12
   0  -1   2 24455.3 1178.81   6
   0  -1   2 26681.2 1169.23   3
   0  -1   2 24859.5 1174.99  11
   0  -1   3 14089.7 640.557  10
   0  -1   3 13184.8 624.903   5
   0  -1   3 13547.5 618.998   9
   0  -1   3 13238.4 633.228   8
   0  -1   3 13220.2 635.281   2
   0  -1   3 13643.6 637.019   6
   0  -1   3 13806.8 635.619   7
   0  -1   3 13510.4 633.778  11
   0  -1   3 14151.3 622.567  12
   0  -1   4 3103.00 174.518  10
   0  -1   4 2937.60 165.786   8
   0  -1   4 3045.22 169.661   2
   0  -1   4 3030.51 168.927   7
   0  -1   4 3069.78 157.494   5
   0  -1   4 3184.51 146.887  12
   0  -1   4 3015.51 170.349   6
   0  -1   4 3201.90 168.839  11
   0  -1   5 10244.5 489.549   5
   0  -1   5 10290.0 512.880  10
   0  -1   5 9844.20 499.669   8
   0  -1   5 10571.4 508.498   2
   0  -1   5 10223.6 504.729   7
   0  -1   5 10247.9 505.766   6
   0  -1   5 10859.4 505.437  11
   0  -1   6 261.085 44.5967  10
   0  -1   6 324.477 35.4472   5
   0  -1   6 338.399 37.7165   1
   0  -1   6 358.965 42.8933   8
   0  -1   6 356.178 45.2942   7
   0  -1   6 349.076 46.5398   2
   0  -1   6 386.658 46.6284   6
   0  -1   7 1478.02 123.380  10
   0  -1   7 1341.13 108.520   8
   0  -1   7 1620.63 106.323   1
   0  -1   7 1719.55 125.090   2
   0  -1   7 1636.29 119.334   7
   0  -1   7 1457.29 115.801   6
   0  -1   8 161.271 43.6102  10
   0  -1   8 178.856 38.2401   8
   0  -1   8 193.867 34.3211   1
   0  -1   8 186.761 40.9365   7
   0  -1   8 225.027 46.0135   2
   0  -1   8 224.091 43.0440   6
   0  -1   9 890.152 101.562  10
   0  -1   9 1016.41 84.4532   1
   0  -1   9 654.013 78.9856   8
   0  -1   9 777.318 87.4492   7
   0  -1   9 915.377 99.4674   2
   0  -1   9 805.525 91.6002   6
   0  -1  10 36.2893 24.5709   8
   0  -1  10 95.9965 35.5036   7
   0  -1  10 123.417 43.1958   2
   0  -1  10 25.2647 25.7774   6
   0   0 -10 123.746 32.7138  11
   0   0  -9 56.6630 25.7444  10
   0   0  -9 64.3441 24.5295   2
   0   0  -9 77.2671 20.5505   5
   0   0  -9 53.8873 22.0854  11
   0   0  -8 617.000 52.9096   5
   0   0  -8 592.629 67.7861  10
   0   0  -8 627.486 41.2307   9
   0   0  -8 597.526 44.4185   4
   0   0  -8 682.135 67.3228   2
   0   0  -8 668.622 65.7691  11
   0   0  -7 7208.89 346.418   5
   0   0  -7 7276.41 371.456  10
   0   0  -7 7093.36 331.822   9
   0   0  -7 6648.10 335.521   4
   0   0  -7 6875.03 362.151   2
   0   0  -7 7232.18 364.749  11
   0   0  -6 215.266 35.2723  10
   0   0  -6 185.378 30.9091   2
   0   0  -6 247.652 22.6399   9
   0   0  -6 214.176 26.2339   5
   0   0  -6 234.952 23.8094   4
   0   0  -6 237.756 34.0949  11
   0   0  -5 5892.98 283.075   5
   0   0  -5 5890.38 299.586  10
   0   0  -5 5639.91 273.536   9
   0   0  -5 5667.52 277.803   4
   0   0  -5 5814.53 294.866   2
   0   0  -5 5960.26 296.658  11
   0   0  -4 65.8766 15.3090   2
   0   0  -4 77.6059 16.7910  10
   0   0  -4 71.3793 12.4811   5
   0   0  -4 72.6184 9.88181   9
   0   0  -4 57.0028 10.2991   4
   0   0  -4 62.6642 14.5994  11
   0   0  -3 5653.50 273.111   5
   0   0  -3 5850.64 284.193  10
   0   0  -3 5625.48 270.841   4
   0   0  -3 5797.93 280.886   2
   0   0  -3 5757.46 268.348   9
   0   0  -3 5889.45 282.002  11
   0   0  -2 15890.4 718.384   5
   0   0  -2 15527.0 725.272  10
   0   0  -2 15141.1 722.927   2
   0   0  -2 16230.4 724.261  11
   0   0   2 13250.2 571.736   5
   0   0   2 14060.2 570.114   4
   0   0   2 11191.0 574.332   2
   0   0   2 10909.6 575.092   7
   0   0   2 11681.9 575.362  11
   0   0   3 5277.33 266.728   5
   0   0   3 5789.02 278.328  10
   0   0   3 5590.45 267.363   1
   0   0   3 5773.77 264.125   4
   0   0   3 5364.79 275.120   2
   0   0   3 5550.48 276.594   7
   0   0   3 5285.73 274.326  11
   0   0   4 59.0106 17.1707  10
   0   0   4 55.3086 13.0567   5
   0   0   4 83.1172 15.3608   1
   0   0   4 45.5269 16.1196   7
   0   0   4 75.4025 12.7441   4
   0   0   4 91.4696 19.7153  11
   0   0   4 57.4865 17.1183   2
   0   0   5 5910.87 314.442  10
   0   0   5 6113.39 298.148   1
   0   0   5 6196.55 313.352   2
   0   0   5 6064.20 312.180   7
   0   0   5 5419.74 295.733   5
   0   0   5 5853.37 309.631  11
   0   0   6 200.425 35.7756   6
   0   0   6 237.533 39.4642   2
   0   0   6 133.612 32.1103  10
   0   0   6 230.955 32.1237   1
   0   0   6 191.456 34.9881   7
   0   0   6 153.611 32.1625  11
   0   0   7 7301.16 407.832  10
   0   0   7 8023.60 387.951   1
   0   0   7 7208.36 403.360   2
   0   0   7 7340.90 401.864   7
   0   0   7 7455.64 401.172   6
   0   0   8 768.253 87.9396  10
   0   0   8 685.884 68.9622   1
   0   0   8 632.010 73.9644   8
   0   0   8 730.366 81.7216   7
   0   0   8 683.460 81.7841   2
   0   0   8 612.078 75.6288   6
   0   0   9 55.0081 29.6029  10
   0   0   9 94.1618 33.0417   8
   0   0   9 39.1965 22.2331   1
   0   0   9 71.3646 34.3053   7
   0   0   9 95.4300 35.3783   2
   0   0   9 87.3315 35.2816   6
   0   0  10 57.2966 31.2609   8
   0   0  10 80.4622 34.1180   7
   0   1 -10 48.0630 23.2024   2
   0   1 -10 87.0810 26.1827  11
   0   1  -9 769.124 72.1995   2
   0   1  -9 639.318 66.3548  11
   0   1  -8 191.901 37.5852  10
   0   1  -8 158.583 30.7155   2
   0   1  -8 150.863 22.1058   5
   0   1  -8 162.948 30.5806  11
   0   1  -7 1438.80 105.751  10
   0   1  -7 1370.43 83.5397   5
   0   1  -7 1523.27 101.456   2
   0   1  -7 1403.00 98.6692  11
   0   1  -6 307.690 28.8757   5
   0   1  -6 376.181 43.2417  10
   0   1  -6 328.817 38.1408   2
   0   1  -6 363.881 22.0638   9
   0   1  -6 329.847 37.8731  11
   0   1  -5 10872.6 500.741  10
   0   1  -5 10138.5 478.973   5
   0   1  -5 9892.03 492.184   2
   0   1  -5 10403.8 492.848  11
   0   1  -4 2970.34 166.767  10
   0   1  -4 3042.11 152.289   5
   0   1  -4 3225.34 163.972   2
   0   1  -4 3238.20 163.143  11
   0   1  -3 13898.4 658.623  10
   0   1  -3 14328.4 647.049   5
   0   1  -3 14082.1 655.133   2
   0   1  -3 14076.9 654.030  11
   0   1  -2 28304.3 1314.49  10
   0   1  -2 29482.7 1313.46   7
   0   1  -2 28795.9 1311.79   2
   0   1   1 1.06923 2.43002  10
   0   1   1 3.46655 2.87634   2
   0   1   1 1.23861 2.51771  11
   0   1   2 32559.3 1617.64   1
   0   1   2 35396.0 1621.07   4
   0   1   3 1386.84 85.9108   1
   0   1   3 1513.36 88.4766   4
   0   1   4 451.684 41.8118   1
   0   1   4 492.222 43.0157   4
   0   1   4 506.806 49.9825   7
   0   1   4 406.258 45.9054  11
   0   1   5 2585.65 148.593   1
   0   1   5 2587.52 159.804   2
   0   1   5 2526.31 146.196   4
   0   1   5 2357.02 156.114   7
   0   1   5 2504.16 158.502  11
   0   1   6 3800.92 237.615  10
   0   1   6 4344.71 227.715   1
   0   1   6 4066.18 239.138   2
   0   1   6 4060.54 239.073   7
   0   1   6 3860.13 236.739  11
   0   1   7 1365.10 123.601  10
   0   1   7 1638.12 129.706   2
   0   1   7 1569.47 113.885   1
   0   1   7 1677.44 129.580   7
   0   1   8 871.830 96.5193  10
   0   1   8 853.244 91.3441   6
   0   1   8 888.508 96.0259   2
   0   1   8 827.319 80.5093   1
   0   1   8 782.946 90.0268   7
   0   1   9 197.356 51.2464  10
   0   1   9 181.933 44.8477   8
   0   1   9 222.712 52.1951   7
   0   1   9 208.706 41.3205   1
   0   1   9 118.116 41.1446   2
   0   1   9 258.297 52.2015   6
   0   1  10 857.999 90.7817   1
   0   2  -9 192.554 32.0488  11
   0   2  -9 160.711 31.1027   2
   0   2  -8 30.6663 15.5210  11
   0   2  -8 37.6062 16.2473   2
   0   2  -8 19.2845 9.30440   5
   0   2  -7 607.394 42.0585   5
   0   2  -7 569.624 53.7018   2
   0   2  -7 642.658 53.4302  11
   0   2  -7 655.308 61.4827  10
   0   2  -6 1573.72 103.045  10
   0   2  -6 1479.56 82.5419   5
   0   2  -6 1557.88 96.2256   2
   0   2  -6 1491.16 92.9111  11
   0   2  -5 4105.11 213.393  10
   0   2  -5 3930.35 195.208   5
   0   2  -5 4114.56 204.053  11
   0   2  -5 4109.35 207.069   2
   0   2  -4 941.237 62.0044  10
   0   2  -4 862.267 50.7542   5
   0   2  -4 910.595 57.2026   2
   0   2  -4 875.018 54.0131  11
   0   2  -3 6054.20 283.067  10
   0   2  -3 5837.48 280.111   7
   0   2  -3 5999.54 278.818   2
   0   2  -3 5746.52 274.131  11
   0   2  -2 3074.32 150.705   1
   0   2  -2 3099.57 148.079   8
   0   2  -2 2928.54 149.201   6
   0   2  -1 1979.81 94.7241   8
   0   2  -1 1848.00 99.8725   4
   0   2  -1 1894.96 99.2164   1
   0   2   0 9397.20 428.933   8
   0   2   0 9439.46 436.727   4
   0   2   0 9275.31 426.759   6
   0   2   0 9371.93 433.178   1
   0   2   0 8916.24 428.218  11
   0   2   1 41933.1 1932.48  10
   0   2   1 44591.8 1937.28   2
   0   2   1 40777.9 1936.48   1
   0   2   1 43153.3 1937.66  11
   0   2   2 13887.5 663.992  10
   0   2   2 14416.9 666.873   2
   0   2   2 14307.7 668.665  11
   0   2   3 5621.32 277.373  10
   0   2   3 5907.26 279.829   2
   0   2   3 5342.64 275.714   4
   0   2   3 4624.27 268.858   1
   0   2   3 6177.44 283.867   7
   0   2   3 5003.12 276.349  11
   0   2   4 1042.84 79.9505  10
   0   2   4 987.603 79.2987   2
   0   2   4 937.631 74.1039   4
   0   2   4 936.093 72.3150   1
   0   2   5 3515.21 198.052  10
   0   2   5 2948.85 182.554   4
   0   2   5 3203.37 184.036   1
   0   2   6 989.436 88.9520  10
   0   2   6 833.932 74.6442   4
   0   2   6 855.695 75.2910   1
   0   2   6 717.939 79.1185   7
   0   2   6 810.789 82.3067  11
   0   2   7 887.679 92.5668   2
   0   2   7 908.705 83.1235   1
   0   2   7 952.458 94.8028   7
   0   2   8 555.346 77.4412   2
   0   2   8 580.371 68.3347   1
   0   2   8 601.212 79.4749   7
   0   2   9 8.63130 23.2099   6
   0   2   9 9.08456 20.6489   7
   0   2   9 20.1248 21.5623   1
   0   2   9 38.3386 29.2187   2
   0   2  10 1245.02 115.780   1
   0   3  -8 241.677 30.1233  11
   0   3  -8 274.069 34.6596   2
   0   3  -7 715.262 51.3437  11
   0   3  -7 673.343 55.3641   2
   0   3  -6 250.123 28.3548   2
   0   3  -6 276.183 25.5288  11
   0   3  -5 2753.44 136.706  11
   0   3  -3 315.343 25.9643   8
   0   3  -2 705.392 46.6846   1
   0   3  -2 668.803 41.1334   8
   0   3  -2 647.121 41.4255   6
   0   3  -1 2394.15 122.935   8
   0   3  -1 2574.38 133.931   4
   0   3  -1 2493.92 122.247   6
   0   3  -1 2470.24 130.710   1
   0   3   0 19700.5 911.017   8
   0   3   0 19449.1 909.352   2
   0   3   0 20370.4 918.360   1
   0   3   0 20076.4 923.180   4
   0   3   0 19913.6 908.395   6
   0   3   1 13042.4 615.353  10
   0   3   1 13280.7 620.776   8
   0   3   1 13852.9 622.505   2
   0   3   1 13104.5 630.495   4
   0   3   1 12462.0 623.665   1
   0   3   1 13698.1 618.435   6
   0   3   1 13253.9 622.750  11
   0   3   2 2968.42 165.068  10
   0   3   2 3352.41 172.842   2
   0   3   2 3083.07 169.850   1
   0   3   2 3052.44 171.285  11
   0   3   3 2704.52 150.362  10
   0   3   3 2571.92 151.803   2
   0   3   3 2216.22 149.344   4
   0   3   3 2579.34 153.508   7
   0   3   3 2686.79 155.232  11
   0   3   4 71.5990 21.8490  10
   0   3   4 53.4974 18.7114   2
   0   3   4 11.5371 10.4065   1
   0   3   4 27.7790 14.9217   7
   0   3   4 17.5789 13.4474   4
   0   3   4 32.4791 16.3722  11
   0   3   5 129.928 30.6592  10
   0   3   5 86.4380 24.9511   2
   0   3   5 75.6971 22.6110   1
   0   3   5 118.364 27.3512   4
   0   3   5 110.989 29.6355  11
   0   3   6 689.269 77.8296  10
   0   3   6 892.432 86.7951   2
   0   3   6 713.309 74.0460   4
   0   3   6 807.794 75.6763   1
   0   3   7-7.40095 23.7749  10
   0   3   7-5.81713 16.7146   1
   0   3   7 7.54252 17.1334   2
   0   3   8 1178.26 117.656  10
   0   3   8 1003.92 110.032   7
   0   3   8 1180.24 105.819   1
   0   3   9-7.30796 16.6030   1
   0   4  -3 3275.22 175.361   1
   0   4  -3 3359.24 167.563   8
   0   4  -3 3488.67 169.858   6
   0   4  -2 342.131 31.9178   1
   0   4  -2 281.207 23.9019   6
   0   4  -2 305.602 24.8563   8
   0   4  -1 315.548 24.4646   6
   0   4  -1 323.967 26.3534   8
   0   4  -1 277.744 21.2800   7
   0   4  -1 282.414 32.5027   4
   0   4  -1 284.763 30.6525   1
   0   4   0 1428.24 83.1814   8
   0   4   0 1365.43 93.4165   4
   0   4   0 1403.59 79.4759   6
   0   4   0 1397.81 89.5927   1
   0   4   1 3077.31 155.898  10
   0   4   1 3114.73 163.542   8
   0   4   1 2907.98 162.130   2
   0   4   1 3034.41 174.914   4
   0   4   1 2920.05 167.349   1
   0   4   1 3064.18 159.801   6
   0   4   2 2502.23 146.497   8
   0   4   2 2510.40 142.420  10
   0   4   2 2684.37 150.114   2
   0   4   2 2606.06 157.969   4
   0   4   2 2647.08 151.049   7
   0   4   2 2533.76 150.447   1
   0   4   2 2540.74 143.865   6
   0   4   2 2453.43 148.961  11
   0   4   3 23.6458 14.4624   1
   0   4   3 31.4702 14.2368  10
   0   4   3 11.0976 11.9173   8
   0   4   3 25.2859 15.4618   7
   0   4   3 32.3233 14.8260   2
   0   4   3 8.48971 11.4442  11
   0   4   4 1773.86 120.762  10
   0   4   4 1680.58 122.962   2
   0   4   4 1563.08 122.323   4
   0   4   4 2080.06 132.183   7
   0   4   4 1642.47 123.207  11
   0   4   5 2585.96 161.525  10
   0   4   5 2431.72 162.015   2
   0   4   5 1990.91 152.493   4
   0   4   5 2558.17 165.758   7
   0   4   5 2074.59 148.526   1
   0   4   5 2378.12 161.921  11
   0   4   6 1904.71 144.897  10
   0   4   6 2031.58 149.846   2
   0   4   6 1945.68 149.100   7
   0   4   6 1827.74 137.088   1
   0   4   7 68.5032 30.0550  10
   0   4   7 71.3452 31.2930   7
   0   4   7 63.7339 29.2913   2
   0   4   7 38.5176 22.7349   1
   0   4   8 440.227 71.3325  10
   0   4   8 475.806 74.8668   7
   0   4   8 485.650 76.2928   2
   0   4   8 479.994 66.8865   1
   0   5  -3 33.9731 9.24432   6
   0   5  -3 10.4254 10.2873   1
   0   5  -3 12.7033 7.21647   8
   0   5  -2 871.070 63.0908   1
   0   5  -2 809.182 52.0810   8
   0   5  -2 804.366 50.5725   6
   0   5  -1 1411.29 85.1384   8
   0   5  -1 1480.99 78.9657   7
   0   5  -1 1551.80 82.2576   7
   0   5  -1 1465.77 82.8376   6
   0   5  -1 1534.80 97.3750   1
   0   5   0 607.862 47.5816   8
   0   5   0 606.559 44.0465   7
   0   5   0 632.507 59.6220   4
   0   5   0 660.201 48.4230   7
   0   5   0 588.726 44.1759   6
   0   5   0 587.396 53.9254   1
   0   5   1 2471.68 128.133  10
   0   5   1 2268.41 136.748   8
   0   5   1 2329.00 136.742   2
   0   5   1 2327.45 151.406   4
   0   5   1 2406.07 139.506   7
   0   5   1 2500.54 134.580   6
   0   5   1 2476.63 146.791   1
   0   5   2 4509.08 238.498  10
   0   5   2 4263.08 244.334   8
   0   5   2 4728.39 249.489   2
   0   5   2 4713.68 262.315   4
   0   5   2 4749.47 251.383   7
   0   5   2 4864.72 255.050   1
   0   5   2 4781.84 243.162   6
   0   5   3 692.714 63.3502  10
   0   5   3 832.115 70.3775   8
   0   5   3 801.579 72.0559   2
   0   5   3 828.677 79.0802   4
   0   5   3 762.466 72.0446   7
   0   5   3 793.468 72.0642   1
   0   5   3 805.293 67.3758   6
   0   5   4 155.831 31.0837  10
   0   5   4 102.197 28.5564   1
   0   5   4 95.3581 29.0689   2
   0   5   4 163.396 33.6212   8
   0   5   4 149.269 33.2630   7
   0   5   5 133.829 33.0865  10
   0   5   5 136.867 35.1288   2
   0   5   5 94.8698 30.5891   8
   0   5   5 193.643 40.3314   7
   0   5   6 391.247 58.8365  10
   0   5   6 325.540 56.5820   2
   0   5   6 404.565 58.2387   8
   0   5   6 348.558 54.2012   1
   0   5   6 421.505 64.2063   7
   0   5   7 415.424 63.0850   1
   0   5   7 543.269 74.3267  10
   0   5   7 659.256 78.7380   8
   0   5   7 453.461 72.6768   7
   0   5   7 624.366 82.3036   2
   0   6  -3 1102.35 77.7990   1
   0   6  -3 1038.05 62.4873   8
   0   6  -2 3799.09 201.634   1
   0   6  -2 3558.39 184.117   8
   0   6  -2 3667.24 180.183   6
   0   6  -1 626.805 48.6222   8
   0   6  -1 659.771 41.2760   7
   0   6  -1 631.344 45.2048   6
   0   6  -1 651.363 43.3255   7
   0   6  -1 675.330 59.4300   1
   0   6   0 748.427 56.4318   8
   0   6   0 672.532 50.0143   7
   0   6   0 726.352 54.1721   7
   0   6   0 704.578 51.2447   6
   0   6   0 679.341 63.2953   1
   0   6   1 1272.81 75.5647  10
   0   6   1 1314.52 99.8004   1
   0   6   1 1364.30 92.3562   8
   0   6   1 1466.00 94.1238   7
   0   6   1 1409.44 87.9919   6
   0   6   2 513.300 45.9763  10
   0   6   2 601.288 57.2326   8
   0   6   2 505.859 53.5350   2
   0   6   2 495.927 57.2347   1
   0   6   2 527.821 55.2716   7
   0   6   2 566.475 51.6768   6
   0   6   3 1001.69 88.3257   8
   0   6   3 1145.03 94.1542   2
   0   6   3 1235.84 98.0675   7
   0   6   3 1207.64 90.1227   6
   0   6   3 1246.52 99.4704   1
   0   6   3 1298.96 89.5391  10
   0   6   4 209.460 36.0042  10
   0   6   4 138.302 33.0858   1
   0   6   4 217.584 38.4590   8
   0   6   4 255.055 43.3813   7
   0   6   4 187.467 37.3994   2
   0   6   4 136.037 30.4883   6
   0   6   5 684.080 79.9939   1
   0   6   5 830.775 83.3919   8
   0   6   5 937.582 90.9334   2
   0   6   5 808.673 80.1364   6
   0   6   5 814.041 80.8848  10
   0   6   6 207.887 43.6321  10
   0   6   6 236.479 47.5486   8
   0   6   6 212.286 48.4553   2
   0   6   6 242.271 50.5169   7
   0   6   6 189.334 41.6891   6
   0   6   7 31.2793 26.3835  10
   0   7  -3 234.066 34.8629   1
   0   7  -2 239.182 26.3507   8
   0   7  -2 227.810 35.9245   1
   0   7  -1 162.348 32.5262   1
   0   7  -1 139.377 18.6934   6
   0   7  -1 118.516 20.5225   8
   0   7  -1 141.019 15.0400   7
   0   7  -1 154.260 16.4492   7
   0   7   0 775.162 53.9012   6
   0   7   0 630.597 56.1752   8
   0   7   0 674.076 50.0877   7
   0   7   0 647.016 52.3893   7
   0   7   0 768.008 70.0049   1
   0   7   1 165.621 29.4714   8
   0   7   1 179.703 27.8712   7
   0   7   1 180.180 28.8805   7
   0   7   1 165.460 34.7474   1
   0   7   1 203.547 28.2015   6
   0   7   2 29.9458 12.2952  10
   0   7   2 59.0461 21.0681   8
   0   7   2 27.2218 18.4333   1
   0   7   2 65.6617 22.3085   7
   0   7   2 45.6161 16.8182   6
   0   7   3 1229.83 87.5799  10
   0   7   3 1147.15 95.2732   8
   0   7   3 1135.59 95.2109   2
   0   7   3 1180.33 103.124   1
   0   7   3 1164.15 98.1097   7
   0   7   3 1213.66 91.3555   6
   0   7   4 671.730 66.5709  10
   0   7   4 660.007 76.3881   1
   0   7   4 670.649 73.0559   8
   0   7   4 691.680 76.4913   7
   0   7   4 747.429 71.9280   6
   0   7   4 689.367 74.7725   2
   0   7   5 144.272 37.2394   8
   0   7   5 162.033 35.1971  10
   0   7   5 150.951 39.9138   7
   0   7   5 171.722 39.4486   2
   0   7   5 135.202 34.0636   6
   0   7   6-7.83802 21.0664   2
   0   7   6 12.9014 18.5349   6
   0   8  -2 36.2285 20.6375   1
   0   8  -1 519.755 59.3773   1
   0   8   0 52.9606 22.9493   1
   0   8   1 483.166 61.7104   1
   0   8   2 353.096 47.1592   8
   0   8   2 360.278 55.3739   1
   0   8   3 697.851 72.1632   8
   0   8   4 573.438 69.0366   8
   1  -8   0 23.3534 25.0284   5
   1  -8   1 501.883 75.5187   4
   1  -8   1 495.444 73.1768   1
   1  -8   2 213.861 53.5930   9
   1  -8   2 60.0519 27.8058   1
   1  -7  -5 333.768 56.2941   2
   1  -7  -4 200.768 43.4207  11
   1  -7  -4 257.261 45.9960   2
   1  -7  -3 74.0278 31.7802   5
   1  -7  -3 149.293 32.4775   2
   1  -7  -3 122.727 43.9970  12
   1  -7  -3 175.060 38.2293  11
   1  -7  -2 54.9152 30.8973   5
   1  -7  -2 23.9558 15.7725   2
   1  -7  -2 15.5652 22.4062   1
   1  -7  -2 50.2902 29.5289   4
   1  -7  -2 35.8503 18.8119  11
   1  -7  -2 44.2851 28.4872  12
   1  -7  -1 1359.00 122.058   5
   1  -7  -1 1308.95 98.7044  11
   1  -7  -1 1335.99 124.267   4
   1  -7  -1 1498.21 126.803   1
   1  -7  -1 1202.54 127.421  12
   1  -7  -1 1426.94 132.002   3
   1  -7   0 41.5002 23.3448   5
   1  -7   0 8.56815 27.5590   3
   1  -7   0 22.9558 23.3607   4
   1  -7   0 42.9713 26.2683   1
   1  -7   0 36.7270 28.0159  12
   1  -7   1 957.693 92.8734   5
   1  -7   1 857.622 106.658  12
   1  -7   1 926.058 103.588   3
   1  -7   1 880.992 91.1429   1
   1  -7   1 786.401 89.5823   4
   1  -7   2 73.5953 25.2443   5
   1  -7   2 42.2000 27.2760   3
   1  -7   2 63.3748 28.0359   9
   1  -7   2 96.3101 33.6469   4
   1  -7   2 52.1981 24.9790   1
   1  -7   2 96.7638 38.1865  12
   1  -7   3 108.230 40.7561   3
   1  -7   3 58.6447 30.0543   9
   1  -7   3 125.914 34.0770   4
   1  -7   3 81.1105 27.9154   1
   1  -7   3 88.9559 39.0919  12
   1  -7   4 151.611 43.6180   3
   1  -7   4 158.479 47.8543  12
   1  -7   4 209.222 40.6002   1
   1  -7   5 664.046 92.9339  12
   1  -6  -6 334.195 55.8587   2
   1  -6  -6 371.427 59.9116  12
   1  -6  -5 293.126 54.6288  11
   1  -6  -5 197.074 41.5832   2
   1  -6  -5 194.298 45.7960   5
   1  -6  -5 297.224 56.2656   3
   1  -6  -5 177.012 44.8471  12
   1  -6  -5 254.051 53.9887   4
   1  -6  -4 78.4178 28.5789  11
   1  -6  -4 111.152 35.6389  12
   1  -6  -4 90.0505 28.4261   2
   1  -6  -4 163.979 42.4352   5
   1  -6  -4 157.438 44.7863   3
   1  -6  -3 5.69500 14.1724  11
   1  -6  -3 24.1378 16.2662   2
   1  -6  -3 14.2899 17.7799   5
   1  -6  -3 7.68977 20.6684   3
   1  -6  -3-6.95435 17.3056   1
   1  -6  -3-7.68534 22.0826   4
   1  -6  -3 29.7252 23.8728  12
   1  -6  -2 81.4513 30.9631   5
   1  -6  -2 86.8285 29.7073   1
   1  -6  -2 36.5169 22.4333   4
   1  -6  -2 82.2989 24.7484  11
   1  -6  -2 47.7547 19.1679   2
   1  -6  -2 74.6928 33.1921  12
   1  -6  -1 448.458 48.7919  11
   1  -6  -1 550.030 66.4885   5
   1  -6  -1 363.134 40.4049   2
   1  -6  -1 308.740 55.6852   3
   1  -6  -1 504.783 64.9394   4
   1  -6  -1 516.201 64.3458   1
   1  -6  -1 453.648 67.0660  12
   1  -6   0 637.095 75.9816   5
   1  -6   0 760.078 84.9698   3
   1  -6   0 771.754 80.1394   1
   1  -6   0 837.085 53.4204   2
   1  -6   0 641.784 76.5166   4
   1  -6   1 168.577 35.1040   5
   1  -6   1 193.580 43.5745   3
   1  -6   1 98.9015 30.1600   4
   1  -6   1 181.852 43.7374  12
   1  -6   1 127.513 33.9341   1
   1  -6   2 755.070 73.7674   5
   1  -6   2 821.629 85.9222   9
   1  -6   2 700.482 84.6929   3
   1  -6   2 864.555 83.3453   4
   1  -6   2 803.768 79.1306   1
   1  -6   2 853.746 96.2569  12
   1  -6   3 467.067 51.4663   5
   1  -6   3 438.133 64.6120   3
   1  -6   3 434.066 47.9539   5
   1  -6   3 456.738 62.7286   9
   1  -6   3 450.068 57.4086   4
   1  -6   3 432.794 69.7387  12
   1  -6   3 557.565 60.9885   1
   1  -6   4 46.0251 20.8617   1
   1  -6   4 27.3061 13.9922   6
   1  -6   4 66.3263 26.1602   3
   1  -6   4 40.9797 14.1881   5
   1  -6   4 65.8649 26.8071   9
   1  -6   4 22.9312 14.0866   8
   1  -6   4 48.9980 20.3203   4
   1  -6   4 74.3079 33.5994  12
   1  -6   4 52.6859 18.7169   5
   1  -6   5 141.824 35.1130   3
   1  -6   5 153.416 33.6235   1
   1  -6   5 143.822 41.9124  12
   1  -6   6 183.942 45.6041  12
   1  -5  -7 697.477 78.2135  12
   1  -5  -7 742.817 70.6895  12
   1  -5  -7 606.417 77.3012   3
   1  -5  -7 720.809 83.1071   9
   1  -5  -6 959.178 98.8626   5
   1  -5  -6 997.168 97.3512   9
   1  -5  -6 968.646 95.2201   1
   1  -5  -6 1035.08 103.340   4
   1  -5  -6 795.545 89.2206   2
   1  -5  -6 1164.20 100.010  12
   1  -5  -6 1056.78 102.220   3
   1  -5  -6 815.431 94.1855  11
   1  -5  -5 285.937 49.3100   2
   1  -5  -5 387.481 58.4660   3
   1  -5  -5 465.447 60.9172   1
   1  -5  -5 454.134 65.2470   4
   1  -5  -5 355.683 55.0117  12
   1  -5  -5 318.177 53.5912  11
   1  -5  -4 255.991 42.1392   2
   1  -5  -4 224.816 45.3660   5
   1  -5  -4 232.436 45.8162   3
   1  -5  -4 276.828 46.8789  11
   1  -5  -4 376.864 56.6395   4
   1  -5  -3 270.440 39.9372   2
   1  -5  -3 261.438 46.8092   5
   1  -5  -3 347.812 54.3327   3
   1  -5  -3 298.647 44.8408  11
   1  -5  -2 1516.97 123.443   5
   1  -5  -2 1519.16 125.848   4
   1  -5  -2 1654.14 124.578   1
   1  -5  -2 1811.22 113.199   2
   1  -5  -2 1705.18 117.313  11
   1  -5  -1 631.939 72.3385   3
   1  -5  -1 772.686 76.2032   4
   1  -5  -1 629.563 68.2829   1
   1  -5  -1 713.924 56.5475   2
   1  -5  -1 664.448 70.4671   5
   1  -5  -1 712.435 61.5192  11
   1  -5   0 3078.85 197.037   3
   1  -5   0 2941.85 189.740   4
   1  -5   0 2929.13 186.095   1
   1  -5   0 3175.88 158.744   2
   1  -5   0 3264.62 190.895   5
   1  -5   0 2871.78 165.150  11
   1  -5   1 1588.45 125.911   3
   1  -5   1 1584.17 115.634   5
   1  -5   1 1632.75 120.911   4
   1  -5   1 1811.45 122.077   1
   1  -5   2 1357.46 110.465   3
   1  -5   2 1256.25 95.1422   5
   1  -5   2 1434.84 118.312  12
   1  -5   2 1300.35 89.1783   8
   1  -5   2 1257.76 100.056   4
   1  -5   2 1300.86 100.022   1
   1  -5   2 1369.17 87.7196   6
   1  -5   3 216.491 30.8818   5
   1  -5   3 228.997 37.7062   1
   1  -5   3 257.900 45.1076   3
   1  -5   3 269.588 42.4973   9
   1  -5   3 270.336 32.1589   8
   1  -5   3 280.316 39.1876   4
   1  -5   3 217.819 28.8516   6
   1  -5   3 255.993 49.6235  12
   1  -5   4 298.532 31.8386   5
   1  -5   4 297.278 46.5838   3
   1  -5   4 201.575 24.6073   5
   1  -5   4 243.321 37.5918   1
   1  -5   4 217.441 35.8574   9
   1  -5   4 266.810 31.3276   8
   1  -5   4 286.209 37.0311   4
   1  -5   4 307.779 33.6441   6
   1  -5   4 288.532 50.9599  12
   1  -5   5 1158.85 63.8267   5
   1  -5   5 1292.12 66.2235   5
   1  -5   5 1259.60 70.9570   4
   1  -5   5 1204.39 81.1280   8
   1  -5   5 1224.56 82.6576   9
   1  -5   5 1319.77 78.2380   4
   1  -5   5 1173.35 82.9399   6
   1  -5   5 1399.76 115.705  12
   1  -5   6 491.793 45.2781   8
   1  -5   6 474.242 52.9283   1
   1  -5   6 544.407 50.3889   6
   1  -5   6 645.540 71.8772  12
   1  -5   6 579.479 54.1608   3
   1  -4  -8 1104.45 98.2635   9
   1  -4  -8 1126.69 105.428   4
   1  -4  -8 973.354 92.8665   3
   1  -4  -7 301.757 52.2444   2
   1  -4  -7 305.949 53.1747   5
   1  -4  -7 413.645 57.0273   9
   1  -4  -7 354.368 53.2186   3
   1  -4  -7 455.344 63.8996   4
   1  -4  -7 458.466 47.8269  12
   1  -4  -7 338.840 47.0406  12
   1  -4  -7 306.992 55.7227  11
   1  -4  -6 400.489 57.0643   2
   1  -4  -6 443.736 60.7097   5
   1  -4  -6 459.713 58.9687   9
   1  -4  -6 389.482 56.1138   3
   1  -4  -6 512.425 61.0311   1
   1  -4  -6 549.840 67.5480   4
   1  -4  -6 416.382 61.4187  11
   1  -4  -5 162.749 35.4436   2
   1  -4  -5 219.287 41.0723   5
   1  -4  -5 168.771 36.6814   3
   1  -4  -5 227.678 40.6041   1
   1  -4  -5 181.113 39.5097   4
   1  -4  -5 183.852 38.3021  11
   1  -4  -4 2041.27 149.694   3
   1  -4  -4 2502.16 154.966   1
   1  -4  -4 2343.53 157.869   4
   1  -4  -4 2084.31 143.389   2
   1  -4  -4 2162.34 150.018  11
   1  -4  -3 2907.13 175.050   3
   1  -4  -3 2458.11 164.813   5
   1  -4  -3 2531.73 162.366  11
   1  -4  -3 2532.46 157.082   2
   1  -4  -2 5385.14 329.006   4
   1  -4  -2 6264.16 317.788   2
   1  -4  -2 6644.85 339.367   3
   1  -4  -2 6229.06 333.248   5
   1  -4  -2 6627.99 326.393  11
   1  -4  -1 3574.11 210.888   5
   1  -4  -1 3623.27 214.115   4
   1  -4  -1 3767.43 211.225   1
   1  -4  -1 3747.61 194.044   2
   1  -4  -1 3625.19 199.091  11
   1  -4   0 2974.92 180.318   5
   1  -4   0 3207.03 189.503   3
   1  -4   0 2982.10 183.161   4
   1  -4   0 3102.50 158.895   2
   1  -4   0 3251.28 183.504   1
   1  -4   0 3124.65 166.158  11
   1  -4   1 1899.31 128.703   3
   1  -4   1 1789.95 118.654   5
   1  -4   1 1868.65 113.718   8
   1  -4   1 1848.42 123.037   4
   1  -4   1 1871.02 90.9348   2
   1  -4   1 1881.44 121.713   1
   1  -4   1 1941.96 112.746   6
   1  -4   2 3720.37 204.966   5
   1  -4   2 3848.64 220.621   3
   1  -4   2 3808.91 201.336   8
   1  -4   2 3890.16 212.009   4
   1  -4   2 3733.01 210.665   1
   1  -4   2 3942.50 200.132   6
   1  -4   3 2944.03 172.535   3
   1  -4   3 2724.35 151.772   5
   1  -4   3 2735.92 152.674   8
   1  -4   3 2975.81 162.405   4
   1  -4   3 2711.75 152.459   6
   1  -4   3 2788.95 162.746   1
   1  -4   3 2893.36 180.637  12
   1  -4   4 718.908 46.8174   5
   1  -4   4 668.278 41.8400   5
   1  -4   4 618.341 53.9961   9
   1  -4   4 708.498 53.1394   8
   1  -4   4 804.851 56.6658   4
   1  -4   4 650.929 70.2271  12
   1  -4   4 600.634 51.9243   6
   1  -4   4 706.827 59.9589   1
   1  -4   4 600.432 60.9261   3
   1  -4   5 310.015 28.2684  10
   1  -4   5 328.653 29.6162   9
   1  -4   5 294.753 27.9207   9
   1  -4   5 289.807 21.7270   4
   1  -4   5 336.114 25.7921   4
   1  -4   5 293.311 32.4320   8
   1  -4   5 298.091 27.3603   7
   1  -4   5 319.886 38.3297   1
   1  -4   5 352.329 48.4401  12
   1  -4   5 295.403 35.4821   6
   1  -4   5 411.866 42.2418   3
   1  -4   6 184.030 21.4221   3
   1  -4   6 179.115 24.0975   3
   1  -4   6 142.686 24.1028   8
   1  -4   6 135.731 19.7392   7
   1  -4   6 172.558 17.1319   2
   1  -4   6 205.670 28.0939  10
   1  -4   6 126.907 25.6638   1
   1  -4   6 179.488 33.0520  12
   1  -4   6 195.426 29.9651   6
   1  -4   7 433.914 44.3572   8
   1  -4   7 505.387 42.2278   2
   1  -4   7 406.877 38.4207   7
   1  -4   7 501.301 51.8369  10
   1  -4   7 497.834 49.5523  12
   1  -4   7 475.603 51.5822   6
   1  -4   7 467.318 48.8424   1
   1  -4   8 104.214 26.8545   6
   1  -3  -9 814.756 82.0778   4
   1  -3  -8 718.361 78.5700   5
   1  -3  -8 698.353 70.4268   9
   1  -3  -8 629.335 77.1326   2
   1  -3  -8 735.754 77.5130   4
   1  -3  -8 858.556 90.8916  11
   1  -3  -8 778.137 70.8967   3
   1  -3  -7 1883.20 132.707   5
   1  -3  -7 1537.58 124.032   4
   1  -3  -7 1550.67 127.136   2
   1  -3  -7 1876.33 124.377   9
   1  -3  -7 1594.63 110.647  12
   1  -3  -7 1871.07 107.924  12
   1  -3  -7 1525.38 116.529   3
   1  -3  -6 4798.94 261.110   9
   1  -3  -6 4480.73 259.389   1
   1  -3  -6 4956.26 269.736   4
   1  -3  -6 4021.62 259.514   2
   1  -3  -6 4954.50 245.749  12
   1  -3  -6 4638.86 264.759   5
   1  -3  -6 4557.59 259.192   3
   1  -3  -5 123.369 30.0209   2
   1  -3  -5 143.591 33.2150  10
   1  -3  -5 237.773 37.3155   9
   1  -3  -5 157.632 33.1303   3
   1  -3  -5 182.076 33.1403   1
   1  -3  -5 269.810 42.3606   4
   1  -3  -5 301.911 43.3900   5
   1  -3  -5 202.869 38.7170  11
   1  -3  -4 3085.58 181.982   3
   1  -3  -4 3027.22 181.753   5
   1  -3  -4 2962.51 178.274  10
   1  -3  -4 3327.83 182.223   1
   1  -3  -4 3119.22 185.022   4
   1  -3  -4 2760.27 175.689   2
   1  -3  -4 2659.43 178.534  11
   1  -3  -3 180.394 28.6730   2
   1  -3  -3 153.581 28.9619   3
   1  -3  -3 142.270 27.3770   1
   1  -3  -3 171.917 31.7324   4
   1  -3  -3 194.223 31.4715  11
   1  -3  -2 1138.03 90.5886   5
   1  -3  -2 1450.63 89.6598   2
   1  -3  -2 1347.14 91.7800  11
   1  -3  -1 1597.70 102.203   5
   1  -3  -1 1445.73 102.001   4
   1  -3  -1 1482.07 89.8790   2
   1  -3  -1 1497.42 95.0195  11
   1  -3   0 5735.34 303.798   5
   1  -3   0 5744.02 298.771   8
   1  -3   0 6124.45 292.433  11
   1  -3   0 5870.21 306.509   4
   1  -3   0 6178.83 286.210   2
   1  -3   0 5964.69 304.032   1
   1  -3   1 2581.82 137.866   8
   1  -3   1 2573.26 145.613   4
   1  -3   1 2491.58 117.447   2
   1  -3   1 2518.06 143.298   1
   1  -3   1 2528.85 135.537   6
   1  -3   1 2329.81 138.415   5
   1  -3   2 1294.25 82.9985   5
   1  -3   2 1419.52 84.6323   8
   1  -3   2 1385.78 90.2744   1
   1  -3   2 1425.38 89.6506   4
   1  -3   2 1439.77 84.0854   6
   1  -3   3 5511.31 258.324   5
   1  -3   3 5523.19 277.040   3
   1  -3   3 4966.27 252.821   5
   1  -3   3 5512.98 250.707  10
   1  -3   3 5452.39 265.137   8
   1  -3   3 5590.03 267.135   4
   1  -3   3 5094.75 256.944   7
   1  -3   3 5277.31 265.382   6
   1  -3   3 5288.90 271.162   1
   1  -3   4 1642.19 96.6420   3
   1  -3   4 1452.24 73.1462   5
   1  -3   4 1416.56 84.8707  10
   1  -3   4 1411.01 71.0825   5
   1  -3   4 1378.34 82.5048   9
   1  -3   4 1513.93 77.8528   4
   1  -3   4 1316.47 87.6770   8
   1  -3   4 1483.89 74.6935   2
   1  -3   4 1624.64 105.115  12
   1  -3   4 1442.00 92.0472   6
   1  -3   4 1561.59 84.5402   4
   1  -3   4 1373.39 82.6364   7
   1  -3   4 1570.35 95.2872   1
   1  -3   5 173.054 13.8964   9
   1  -3   5 195.039 13.7311   9
   1  -3   5 186.154 23.7728   3
   1  -3   5 184.257 26.3412   1
   1  -3   5 158.235 23.5624   8
   1  -3   5 175.599 22.5220   7
   1  -3   5 165.763 26.2870  10
   1  -3   5 196.767 23.1502   2
   1  -3   5 180.439 29.1534  12
   1  -3   5 187.501 28.6715   6
   1  -3   6 203.496 32.4859  10
   1  -3   6 172.232 26.8993   1
   1  -3   6 178.541 26.8629   8
   1  -3   6 152.775 28.9362   6
   1  -3   6 163.410 24.2014   7
   1  -3   6 186.807 14.7086   3
   1  -3   6 211.246 29.3087   2
   1  -3   6 162.968 26.0179  12
   1  -3   6 201.761 16.0955   3
   1  -3   7 150.627 33.8836  10
   1  -3   7 100.606 22.9407   8
   1  -3   7 92.0337 21.8048   1
   1  -3   7 91.5334 21.7154   7
   1  -3   7 160.357 29.5856   2
   1  -3   7 148.015 20.3800  12
   1  -3   7 142.216 30.0984   6
   1  -3   8 248.494 43.9949  10
   1  -3   8 181.313 32.0008   8
   1  -3   8 162.946 28.7953   1
   1  -3   8 202.876 31.9197   7
   1  -3   8 259.342 41.1729   2
   1  -3   8 178.692 36.2694   6
   1  -3   9 185.484 40.5850   6
   1  -3   9 241.490 50.8502  10
   1  -2  -9 47.7898 23.1041   5
   1  -2  -9 99.6945 26.1633   4
   1  -2  -8 86.6691 29.6140   2
   1  -2  -8 60.0249 22.8766   5
   1  -2  -8 54.7628 18.8233   9
   1  -2  -8 57.6611 18.3090   3
   1  -2  -8 52.4938 21.8394   4
   1  -2  -8 53.3320 24.5589  11
   1  -2  -7 3755.38 215.724   5
   1  -2  -7 3337.23 204.159   9
   1  -2  -7 3534.07 211.996   4
   1  -2  -7 3898.53 188.178  12
   1  -2  -7 3677.42 226.993  11
   1  -2  -7 3603.67 202.560   3
   1  -2  -6 4950.75 264.365   3
   1  -2  -6 5230.40 274.710   5
   1  -2  -6 4602.00 278.666  10
   1  -2  -6 5153.25 266.958   9
   1  -2  -6 4845.90 270.933   4
   1  -2  -6 4869.02 248.759  12
   1  -2  -6 5364.71 285.812  11
   1  -2  -5 1674.56 116.399   3
   1  -2  -5 2062.83 127.038   5
   1  -2  -5 1964.11 130.131  10
   1  -2  -5 1953.23 121.073   9
   1  -2  -5 2012.05 123.406   1
   1  -2  -5 1967.74 126.183   4
   1  -2  -5 1618.19 121.519   2
   1  -2  -5 1797.72 107.944  12
   1  -2  -4 2779.91 156.929   5
   1  -2  -4 2663.05 157.875  10
   1  -2  -4 2595.26 151.606   9
   1  -2  -4 2754.69 153.563   1
   1  -2  -4 2653.50 156.694   4
   1  -2  -4 2126.53 148.983   2
   1  -2  -3 774.793 63.5974   5
   1  -2  -3 825.584 63.8171  10
   1  -2  -3 747.756 60.7287   1
   1  -2  -3 770.116 64.5862   4
   1  -2  -3 743.709 61.1241   2
   1  -2  -3 744.979 63.6549  11
   1  -2  -2 3861.63 194.615   4
   1  -2  -2 3784.53 188.633   1
   1  -2  -2 3149.14 181.541   2
   1  -2  -2 3296.70 186.533  11
   1  -2  -1 2764.45 153.311   5
   1  -2  -1 2796.36 145.836   2
   1  -2  -1 2824.92 150.966  11
   1  -2   0 8158.33 383.014   5
   1  -2   0 7811.68 381.040   8
   1  -2   0 7890.76 387.044   4
   1  -2   0 8025.60 371.409   2
   1  -2   0 7779.53 379.385   6
   1  -2   0 8035.53 376.592  11
   1  -2   1 6691.92 320.655   5
   1  -2   1 6752.46 321.737   8
   1  -2   1 6681.55 326.293   4
   1  -2   1 6614.98 320.378   6
   1  -2   1 6763.19 326.340   1
   1  -2   2 3444.56 164.591  10
   1  -2   2 3415.05 168.070   5
   1  -2   2 3592.15 175.556   8
   1  -2   2 3366.81 174.642   4
   1  -2   2 3457.95 170.526   7
   1  -2   2 3436.24 174.729   6
   1  -2   2 3435.88 178.671   1
   1  -2   3 3476.78 165.333   5
   1  -2   3 3815.61 179.499  10
   1  -2   3 3596.85 183.788   1
   1  -2   3 3484.61 163.879   5
   1  -2   3 3460.92 181.008   8
   1  -2   3 3669.78 170.295   2
   1  -2   3 3578.46 176.069   4
   1  -2   3 3481.24 177.307   7
   1  -2   3 3565.62 184.138   6
   1  -2   4 2099.02 122.532   1
   1  -2   4 2247.66 104.741   9
   1  -2   4 2394.80 128.109  10
   1  -2   4 2179.30 104.464   9
   1  -2   4 2080.41 106.335   4
   1  -2   4 2278.85 117.886   3
   1  -2   4 2197.28 123.733   8
   1  -2   4 2420.58 121.038   2
   1  -2   4 2106.65 109.535   4
   1  -2   4 2131.27 120.510   7
   1  -2   4 2135.41 127.612   6
   1  -2   4 2216.32 125.495  12
   1  -2   5 1013.57 78.4237  10
   1  -2   5 985.209 69.8955   1
   1  -2   5 1043.19 67.6892  12
   1  -2   5 1010.93 77.3492   6
   1  -2   5 1042.46 73.6697   8
   1  -2   5 1132.86 75.2039   2
   1  -2   5 1063.81 73.1703   7
   1  -2   5 1034.56 54.0781   3
   1  -2   5 1023.99 56.5812   3
   1  -2   6 65.0456 22.4230  10
   1  -2   6 68.1653 16.7068   1
   1  -2   6 92.4699 22.7652   2
   1  -2   6 116.636 22.8641   8
   1  -2   6 88.2578 20.7101   7
   1  -2   6 74.5547 12.5293  12
   1  -2   6 70.3757 22.1408   6
   1  -2   7 766.685 79.4821  10
   1  -2   7 693.562 61.4510   1
   1  -2   7 911.764 73.6943   8
   1  -2   7 1015.29 82.5776   2
   1  -2   7 823.370 71.1082   7
   1  -2   7 884.398 78.5171   6
   1  -2   8 471.186 64.5127  10
   1  -2   8 468.662 59.6345   2
   1  -2   8 392.519 43.6906   1
   1  -2   8 351.844 47.5649   8
   1  -2   8 454.963 54.0042   7
   1  -2   8 464.662 58.6682   6
   1  -2   9 167.291 41.4236  10
   1  -2   9 212.723 33.6996   1
   1  -2   9 203.800 37.8165   1
   1  -2   9 194.851 38.4846   8
   1  -2   9 185.560 37.8308   7
   1  -2   9 237.357 47.8702   2
   1  -2   9 181.670 39.9896   6
   1  -2  10 209.247 53.3319  10
   1  -2  10 256.723 51.0835   6
   1  -1  -9 1060.66 87.6935   5
   1  -1  -9 1155.03 101.707   2
   1  -1  -9 926.612 95.9077  11
   1  -1  -8 361.176 33.3790   3
   1  -1  -8 335.371 51.4776   2
   1  -1  -8 318.913 44.0821   5
   1  -1  -8 373.083 41.0555   9
   1  -1  -8 407.372 45.0991   4
   1  -1  -8 410.973 32.9255   3
   1  -1  -8 363.526 53.7094  11
   1  -1  -7 1270.19 92.9384   5
   1  -1  -7 1256.71 85.0202   9
   1  -1  -7 1326.59 68.9881  12
   1  -1  -7 1168.56 87.8549   4
   1  -1  -7 1188.84 98.4807   2
   1  -1  -7 1215.21 100.920  11
   1  -1  -7 1099.50 77.3317   3
   1  -1  -6 722.465 56.7580   3
   1  -1  -6 710.054 63.5221   5
   1  -1  -6 782.617 59.8523   9
   1  -1  -6 699.261 61.4880   4
   1  -1  -6 847.442 72.8578   2
   1  -1  -6 740.122 47.2021  12
   1  -1  -6 699.216 69.1253  11
   1  -1  -5 126.208 16.3093  12
   1  -1  -5 113.827 21.8146   5
   1  -1  -5 136.421 22.2160   9
   1  -1  -5 123.105 20.7057   3
   1  -1  -5 103.263 21.6553   4
   1  -1  -5 96.6834 23.6047  11
   1  -1  -4 2931.31 165.430   5
   1  -1  -4 2821.64 160.605   9
   1  -1  -4 2885.76 161.943   1
   1  -1  -4 3003.96 152.197  12
   1  -1  -4 3016.39 166.175   4
   1  -1  -4 3319.37 175.239  11
   1  -1  -3 1136.82 76.2999   5
   1  -1  -3 1075.73 77.5843  10
   1  -1  -3 1134.74 73.9535   9
   1  -1  -3 1302.40 77.2441   1
   1  -1  -3 1091.41 76.2993   4
   1  -1  -3 1118.88 67.9710  12
   1  -1  -2 14920.9 677.496   9
   1  -1  -2 14661.1 680.699   4
   1  -1  -2 15374.8 677.593   1
   1  -1  -2 13181.2 675.329   2
   1  -1  -1 4105.85 208.552   2
   1  -1  -1 4010.13 210.815  11
   1  -1   0 4735.25 221.889   5
   1  -1   0 4191.06 221.023   8
   1  -1   0 4742.09 216.111   2
   1  -1   0 4446.68 221.402   6
   1  -1   0 4735.08 220.461  11
   1  -1   1 7317.08 335.264   5
   1  -1   1 7244.60 340.557   8
   1  -1   1 7445.26 338.785   7
   1  -1   1 7249.35 340.277   6
   1  -1   1 6818.20 341.512   1
   1  -1   2 15099.6 687.865  10
   1  -1   2 15045.3 691.298   1
   1  -1   2 14487.3 681.660   9
   1  -1   2 15240.4 692.583   6
   1  -1   2 14984.5 682.029   2
   1  -1   2 15345.4 691.288   8
   1  -1   2 14832.9 688.783   7
   1  -1   3 22857.8 1020.39  10
   1  -1   3 19834.7 1014.18   1
   1  -1   3 22167.2 1003.98   4
   1  -1   3 22211.7 1018.69   8
   1  -1   3 22437.9 1014.28   2
   1  -1   3 21984.8 1016.96   7
   1  -1   3 22408.9 1004.82   3
   1  -1   3 22762.3 1022.19   6
   1  -1   4 14342.0 657.460  10
   1  -1   4 13411.1 650.703   8
   1  -1   4 13868.0 631.008   4
   1  -1   4 14775.3 651.512   2
   1  -1   4 14059.3 651.433   7
   1  -1   4 13824.5 655.497   6
   1  -1   4 13461.1 627.248   3
   1  -1   4 13763.6 636.356  12
   1  -1   5 2036.29 127.861  10
   1  -1   5 1851.26 118.588   8
   1  -1   5 1998.35 122.340   2
   1  -1   5 1972.49 97.3548   4
   1  -1   5 1919.11 120.259   7
   1  -1   5 1955.57 94.7684  12
   1  -1   5 1867.13 93.6033  12
   1  -1   5 2014.20 124.548   6
   1  -1   6 1145.60 95.0021  10
   1  -1   6 1245.33 89.3150   8
   1  -1   6 1152.49 90.4564   2
   1  -1   6 1029.21 85.5927   7
   1  -1   6 1206.09 92.6431   6
   1  -1   7 399.340 56.6079  10
   1  -1   7 448.964 52.0548   8
   1  -1   7 319.833 47.1274   7
   1  -1   7 442.430 56.4389   2
   1  -1   7 409.844 53.8038   6
   1  -1   8 233.512 46.4635  10
   1  -1   8 226.809 37.6756   1
   1  -1   8 161.144 35.5209   8
   1  -1   8 201.367 39.2372   7
   1  -1   8 196.848 41.9413   2
   1  -1   8 136.684 33.8564   6
   1  -1   9 483.665 72.6790  10
   1  -1   9 348.820 49.6593   1
   1  -1   9 373.834 55.2803   8
   1  -1   9 380.847 58.4697   7
   1  -1   9 345.895 59.9711   2
   1  -1   9 456.842 65.1741   6
   1  -1  10 950.372 114.166  10
   1  -1  10 1041.54 101.077   8
   1  -1  10 1098.39 105.532   7
   1  -1  10 996.353 106.964   6
   1  -1  10 1065.13 113.488   2
   1   0  -9 215.555 42.5929  11
   1   0  -9 174.043 30.7058   5
   1   0  -9 151.032 36.2841   2
   1   0  -8 311.945 47.1002  11
   1   0  -8 351.583 33.9315   9
   1   0  -8 324.110 48.4044   2
   1   0  -8 350.963 41.5155   5
   1   0  -8 324.014 34.5184   4
   1   0  -7 492.290 48.1668   5
   1   0  -7 475.201 40.5224   9
   1   0  -7 446.465 53.3254   2
   1   0  -7 489.689 29.7456   3
   1   0  -7 399.895 40.0035   4
   1   0  -7 478.601 31.3181   3
   1   0  -7 525.247 58.0242  11
   1   0  -6 760.792 60.2829   5
   1   0  -6 737.863 53.1136   9
   1   0  -6 733.417 55.6943   4
   1   0  -6 719.033 65.7863   2
   1   0  -6 746.482 44.5446   3
   1   0  -6 772.399 43.3611  12
   1   0  -6 742.457 67.0840  11
   1   0  -6 681.256 46.4917   3
   1   0  -5 4035.38 208.059   3
   1   0  -5 4206.95 220.612   5
   1   0  -5 4235.09 233.644  10
   1   0  -5 4231.59 213.713   9
   1   0  -5 4251.03 216.983   4
   1   0  -5 4262.75 229.308   2
   1   0  -5 4361.85 204.597   3
   1   0  -5 4235.04 202.884  12
   1   0  -5 4378.17 230.812  11
   1   0  -4 4662.84 234.482   5
   1   0  -4 4841.44 245.998  10
   1   0  -4 4707.41 228.838   9
   1   0  -4 4501.16 231.727   4
   1   0  -4 4538.91 220.343  12
   1   0  -4 4645.00 241.375   2
   1   0  -4 4749.18 242.711  11
   1   0  -3 16058.2 742.125   5
   1   0  -3 16107.3 737.924   9
   1   0  -3 16171.2 738.623   1
   1   0  -3 15591.1 740.465   4
   1   0  -3 15408.8 746.379   2
   1   0  -3 15827.7 731.100  12
   1   0  -3 16918.5 749.842  11
   1   0  -2 484.880 35.5501   5
   1   0  -2 483.072 33.8216   9
   1   0  -2 492.338 31.0067  12
   1   0  -2 459.603 33.2783   1
   1   0  -2 518.010 38.9471  11
   1   0  -1 10269.5 105.800   9
   1   0  -1 10435.1 96.3728  12
   1   0   1 2427.86 32.5439   5
   1   0   1 9029.98 70.9329   9
   1   0   1 18427.1 118.051   4
   1   0   1 18756.3 114.892   3
   1   0   1 16420.8 105.913  12
   1   0   2 61309.4 2606.63   9
   1   0   2 60266.8 2611.49   4
   1   0   2 55165.8 2618.82   8
   1   0   2 56964.0 2619.74  10
   1   0   2 56466.0 2617.14   2
   1   0   2 56555.6 2619.32   7
   1   0   2 55691.2 2608.46   3
   1   0   2 55833.6 2607.44  12
   1   0   3 35011.2 1597.04  10
   1   0   3 34191.0 1572.93  12
   1   0   3 35657.4 1576.96   3
   1   0   3 34546.6 1594.89   8
   1   0   3 35217.7 1582.45   4
   1   0   3 34579.9 1593.81   2
   1   0   3 34779.2 1596.05   7
   1   0   3 35893.0 1596.89   6
   1   0   4 20830.3 951.442  10
   1   0   4 20088.0 945.561   8
   1   0   4 20412.8 929.622   4
   1   0   4 20490.7 946.653   2
   1   0   4 19675.3 946.721   7
   1   0   4 20341.0 947.864   6
   1   0   4 20127.0 920.163   3
   1   0   5 2960.89 175.977  10
   1   0   5 2684.65 169.355   6
   1   0   5 2903.08 169.766   8
   1   0   5 3024.94 172.916   2
   1   0   5 3039.33 153.135   4
   1   0   5 2900.14 172.155   7
   1   0   6 2296.12 154.602  10
   1   0   6 2186.56 145.591   8
   1   0   6 2359.19 151.907   2
   1   0   6 2359.00 128.043   4
   1   0   6 2267.30 149.615   7
   1   0   6 2384.05 151.656   6
   1   0   7 2201.12 160.926  10
   1   0   7 2376.01 145.825   1
   1   0   7 2045.83 147.764   8
   1   0   7 2212.35 156.376   2
   1   0   7 2289.45 127.762   4
   1   0   7 2290.45 155.443   7
   1   0   7 2345.05 157.206   6
   1   0   8 2945.45 198.188  10
   1   0   8 2912.56 175.195   1
   1   0   8 2532.93 178.055   8
   1   0   8 2913.46 193.264   2
   1   0   8 2538.37 181.540   7
   1   0   8 2579.81 183.651   6
   1   0   9 256.068 55.0836  10
   1   0   9 228.702 46.0467   8
   1   0   9 257.610 45.4466   1
   1   0   9 321.125 55.9503   7
   1   0   9 311.556 58.2923   2
   1   0   9 221.962 49.3450   6
   1   0  10 1199.79 127.690  10
   1   0  10 1088.14 110.343   8
   1   0  10 1126.11 103.388   1
   1   0  10 1199.09 117.205   7
   1   0  10 1138.20 122.024   2
   1   0  10 1018.78 113.883   6
   1   1 -10 212.578 40.5193  11
   1   1  -9 77.1020 20.9123   5
   1   1  -9 63.3674 25.9449   2
   1   1  -9 81.7642 25.1222  11
   1   1  -8 139.472 26.4201   5
   1   1  -8 127.793 29.5130   2
   1   1  -8 180.275 19.9178   9
   1   1  -8 180.598 15.6815   4
   1   1  -8 186.446 16.5688   4
   1   1  -8 184.233 34.0067  11
   1   1  -7 74.0321 21.5211  11
   1   1  -7 54.4786 19.7452   2
   1   1  -7 61.9717 17.7894   5
   1   1  -7 83.4231 14.2783   9
   1   1  -7 63.0687 11.0724   4
   1   1  -6 927.579 64.9851   5
   1   1  -6 939.108 57.0699   9
   1   1  -6 905.229 50.6845  12
   1   1  -6 894.889 55.1049   4
   1   1  -6 1004.59 75.6750   2
   1   1  -6 973.704 74.3436  11
   1   1  -5 1768.52 102.207   5
   1   1  -5 1756.16 94.4725   9
   1   1  -5 1771.61 93.7875   4
   1   1  -5 1951.29 113.596   2
   1   1  -5 1696.34 91.2322  12
   1   1  -5 1755.66 110.059  11
   1   1  -4 3466.68 168.020   5
   1   1  -4 3195.38 160.379   9
   1   1  -4 3148.33 158.812  12
   1   1  -4 3313.56 160.474   4
   1   1  -4 3320.87 175.112   2
   1   1  -4 3159.27 173.176  11
   1   1  -3 5088.44 242.059   5
   1   1  -3 4888.53 237.078   9
   1   1  -3 4861.73 231.726   3
   1   1  -3 4922.84 236.050   4
   1   1  -3 5193.56 248.363   2
   1   1  -3 4887.35 236.298  12
   1   1  -3 5565.54 248.706  11
   1   1  -2 17876.1 824.486   5
   1   1  -2 18228.5 821.249   9
   1   1  -2 18477.0 828.193   2
   1   1  -2 17652.1 820.922  12
   1   1  -2 17560.6 817.432   3
   1   1  -2 18730.7 827.002  11
   1   1  -1 24569.1 1149.49   9
   1   1  -1 25066.1 1149.99  12
   1   1  -1 26903.5 1151.64   5
   1   1  -1 24989.3 1147.72   3
   1   1   1-1.03894 1.82804   8
   1   1   1-1.08955 1.91709   7
   1   1   1-0.95716 1.37513   6
   1   1   2 5133.12 233.038  12
   1   1   2 4385.31 240.095   6
   1   1   2 5060.69 239.559   4
   1   1   2 5049.82 236.437   3
   1   1   3 15895.4 766.666   2
   1   1   3 16528.3 759.539   4
   1   1   3 16530.2 754.244   3
   1   1   4 657.310 46.1677   3
   1   1   4 737.050 61.0087   2
   1   1   4 773.592 53.9832   4
   1   1   4 742.820 61.5869   7
   1   1   5 3355.12 194.840  10
   1   1   5 3228.13 181.500   1
   1   1   5 3334.45 192.352   2
   1   1   5 3246.58 176.660   4
   1   1   5 3243.60 191.621   7
   1   1   6 905.851 87.2647  10
   1   1   6 1074.89 82.0835   1
   1   1   6 1090.80 89.0128   8
   1   1   6 1005.24 89.1207   2
   1   1   6 1049.07 76.8276   4
   1   1   6 1121.99 92.3189   7
   1   1   6 1035.90 88.3724   6
   1   1   7 1989.64 152.077  10
   1   1   7 2035.23 146.196   8
   1   1   7 1976.00 136.842   1
   1   1   7 2178.09 154.142   2
   1   1   7 2137.76 130.970   4
   1   1   7 2164.28 152.004   7
   1   1   7 2129.09 150.317   6
   1   1   8 1421.10 128.425  10
   1   1   8 1524.47 124.137   8
   1   1   8 1531.67 126.926   6
   1   1   8 1313.44 110.251   1
   1   1   8 1618.44 132.702   2
   1   1   8 1454.78 125.026   7
   1   1   9 272.752 58.3437  10
   1   1   9 349.900 60.7067   8
   1   1   9 279.953 48.1597   1
   1   1   9 195.708 48.5640   7
   1   1   9 364.350 64.2122   2
   1   1   9 298.822 57.6728   6
   1   1  10 94.5076 38.1551   8
   1   1  10 41.8683 25.7252   1
   1   1  10 64.1763 31.0267   7
   1   1  10 89.0633 39.0433   2
   1   2  -9 96.1220 25.8052  11
   1   2  -9 81.3007 24.6145   2
   1   2  -8 152.318 23.6288   5
   1   2  -8 153.589 31.0473   2
   1   2  -8 136.520 13.3885   9
   1   2  -8 199.458 31.7236  11
   1   2  -7 82.3253 21.0828  11
   1   2  -7 87.2349 17.6970   5
   1   2  -7 109.056 24.2620   2
   1   2  -7 107.401 13.8141   9
   1   2  -6 538.870 43.0151   5
   1   2  -6 540.546 36.9665   9
   1   2  -6 480.659 48.3875   2
   1   2  -6 565.367 49.2975  11
   1   2  -5 1894.47 112.969   5
   1   2  -5 2075.89 108.204   9
   1   2  -5 2082.92 122.195   2
   1   2  -5 2148.76 111.429  12
   1   2  -5 2197.64 120.215  11
   1   2  -4 3665.53 179.898   5
   1   2  -4 3541.32 174.993   9
   1   2  -4 3762.85 186.269   2
   1   2  -4 3255.53 177.800  12
   1   2  -4 3646.97 182.422  11
   1   2  -3 95.0716 11.4297   3
   1   2  -3 109.896 14.7068   5
   1   2  -3 130.714 15.0803   9
   1   2  -3 130.533 17.2134   2
   1   2  -3 114.489 14.9324  11
   1   2  -3 116.396 16.0267  12
   1   2  -2 6650.59 307.635   5
   1   2  -2 6468.66 306.693   9
   1   2  -2 6418.73 310.501  12
   1   2  -2 6344.58 304.719   3
   1   2  -1 11232.5 524.234   9
   1   2  -1 10994.5 518.651   4
   1   2  -1 11481.3 527.081  12
   1   2  -1 11501.9 523.271   3
   1   2   0 782.193 52.7537   9
   1   2   0 885.603 52.1014   4
   1   2   0 824.307 47.0635   1
   1   2   0 894.444 54.0720   3
   1   2   1 8163.79 377.057  10
   1   2   1 8268.81 380.325   2
   1   2   1 8680.60 378.185   1
   1   2   1 8558.89 378.067   7
   1   2   1 8250.38 374.342   6
   1   2   2 12780.5 531.825  10
   1   2   2 12265.7 533.050   2
   1   2   2 9450.04 522.725   1
   1   2   2 12613.6 532.691   7
   1   2   2 10684.2 523.837  12
   1   2   2 10700.9 526.828   3
   1   2   3 1711.36 103.965   3
   1   2   3 1599.96 105.600   4
   1   2   3 1951.97 113.783   7
   1   2   4 71.7024 19.5448  10
   1   2   4 100.327 17.8146   3
   1   2   4 84.2441 17.9683   1
   1   2   4 80.5579 17.9358   4
   1   2   5 2607.09 152.988   1
   1   2   5 2502.29 151.176   4
   1   2   6 204.905 38.6594   2
   1   2   6 188.240 32.8520   1
   1   2   6 215.994 40.7114   7
   1   2   6 239.454 35.3739   4
   1   2   7 819.215 84.9731   2
   1   2   7 808.410 75.2350   1
   1   2   7 674.613 68.3062   4
   1   2   7 700.008 79.6687   7
   1   2   8 64.4967 30.7339  10
   1   2   8 43.0473 24.2871   8
   1   2   8 47.6551 22.7643   1
   1   2   8 30.6521 22.1437   7
   1   2   8 66.1475 23.2360   4
   1   2   8 86.8329 32.1622   2
   1   2   8 51.2588 26.9240   6
   1   2   9 381.527 67.6860  10
   1   2   9 530.885 75.3791   8
   1   2   9 482.187 75.3472   2
   1   2   9 484.052 65.9246   1
   1   2   9 435.742 70.7502   7
   1   2   9 336.365 61.7352   6
   1   2  10 89.8396 33.3962   1
   1   3  -8 902.237 62.3729   5
   1   3  -7 360.545 33.5997   5
   1   3  -6 173.949 22.2003   5
   1   3  -5 3067.62 162.257   5
   1   3  -5 3175.39 158.729   9
   1   3  -4 2498.87 132.356   5
   1   3  -4 2478.81 130.689   9
   1   3  -3 1385.52 80.2072   3
   1   3  -3 1437.93 82.2545   9
   1   3  -3 1351.93 87.3698  12
   1   3  -2 50.9382 11.4926   3
   1   3  -2 37.9494 7.99004   4
   1   3  -2 41.9098 12.6617  12
   1   3  -2 41.1415 7.39647   1
   1   3  -1 3372.53 173.512   3
   1   3  -1 3299.60 162.181   1
   1   3  -1 3275.33 168.115   4
   1   3  -1 3392.71 178.020  12
   1   3   0 577.508 45.7746   3
   1   3   0 540.175 33.5754   8
   1   3   0 555.857 43.1395   4
   1   3   0 572.620 39.3736   1
   1   3   1 1043.31 61.9094  10
   1   3   1 951.349 65.0403   2
   1   3   1 1072.38 70.7556   4
   1   3   1 928.960 63.7435   1
   1   3   1 1125.95 64.5389   7
   1   3   2 13137.4 621.301  10
   1   3   2 13940.8 627.693   2
   1   3   2 14038.6 624.393   1
   1   3   2 13969.4 625.571   7
   1   3   3 2504.17 156.446   3
   1   3   3 2990.38 160.631  10
   1   3   3 3078.36 164.975   2
   1   3   3 2406.11 157.089   4
   1   3   3 3210.71 165.915   7
   1   3   4 6207.13 320.555  10
   1   3   4 6508.84 325.122   2
   1   3   4 5496.85 315.582   4
   1   3   4 6473.86 324.983   7
   1   3   5 1663.92 111.534  10
   1   3   5 1454.25 107.792   2
   1   3   5 1092.70 92.8448   1
   1   3   5 1219.21 97.3416   4
   1   3   5 1450.93 107.632   7
   1   3   6 556.143 65.3511  10
   1   3   6 451.422 54.9189   1
   1   3   6 511.478 57.7500   4
   1   3   7 149.980 37.6734   6
   1   3   7 134.692 35.4932  10
   1   3   7 73.4716 23.9898   1
   1   3   7 55.5487 22.9051   4
   1   3   8 712.590 84.7053   6
   1   3   8 900.081 97.7129  10
   1   3   8 813.211 94.0624   2
   1   3   8 759.746 80.4199   4
   1   3   8 894.098 87.9464   1
   1   3   8 666.268 86.2803   7
   1   3   9 95.2202 36.5483   8
   1   3   9 110.215 39.8514   7
   1   3   9 101.139 33.9442   1
   1   3   9 104.625 38.9220   2
   1   4  -3 690.780 44.2226   4
   1   4  -2 1516.02 84.3711   1
   1   4  -2 1551.65 89.1243   4
   1   4  -1 7341.22 365.265   3
   1   4  -1 7319.58 359.101   4
   1   4  -1 7424.95 352.121   1
   1   4   0 328.653 38.0470   3
   1   4   0 364.185 27.9298   8
   1   4   0 454.664 40.7033   4
   1   4   0 395.715 28.1698   7
   1   4   0 369.158 33.9935   1
   1   4   0 361.385 24.0276   6
   1   4   1 492.953 50.2948   3
   1   4   1 530.027 39.3962  10
   1   4   1 522.207 49.3217   4
   1   4   1 586.160 44.0187   7
   1   4   1 630.812 48.5258   1
   1   4   2 5065.76 240.286  10
   1   4   2 4730.67 245.501   2
   1   4   2 4542.49 249.993   4
   1   4   2 4455.65 241.400   7
   1   4   2 4534.70 242.859   1
   1   4   3 4563.49 245.097  10
   1   4   3 4592.26 250.794   2
   1   4   3 4747.71 248.598   1
   1   4   3 4717.85 250.408   7
   1   4   4 987.565 80.6036  10
   1   4   4 978.846 83.6539   2
   1   4   4 868.017 80.3577   4
   1   4   4 1173.26 88.6129   7
   1   4   5 654.703 67.6912  10
   1   4   5 611.719 67.1452   2
   1   4   5 714.044 70.7884   7
   1   4   5 486.829 60.5525   4
   1   4   6 1149.32 101.259  10
   1   4   6 1157.22 103.207   2
   1   4   6 968.519 93.1756   4
   1   4   6 1033.89 93.2196   1
   1   4   6 1323.92 108.992   7
   1   4   7 385.844 59.2700  10
   1   4   7 394.674 60.6570   2
   1   4   7 345.158 57.5386   7
   1   4   7 394.957 56.3306   4
   1   4   7 240.085 45.4915   1
   1   4   8 140.896 40.4037   6
   1   4   8 135.081 39.9548  10
   1   4   8 274.050 55.4900   7
   1   4   8 154.551 39.0982   4
   1   4   8 159.603 38.6370   1
   1   4   8 148.161 43.9653   2
   1   4   9 286.710 53.7885   1
   1   5  -3 886.339 57.9356   1
   1   5  -2 257.927 26.6537   1
   1   5  -2 227.564 27.9812   4
   1   5  -1 144.770 14.1651   8
   1   5  -1 185.269 26.5860   4
   1   5  -1 155.655 21.5715   1
   1   5   0 864.375 63.7510   1
   1   5   0 839.260 54.3725   8
   1   5   0 885.872 70.1938   4
   1   5   0 911.438 54.2532   7
   1   5   0 844.945 49.0803   6
   1   5   1 32.3371 9.54208  10
   1   5   1 19.0125 10.7403   1
   1   5   1 20.3464 10.3372   8
   1   5   1 18.9990 9.72105   7
   1   5   1 16.2509 14.3446   4
   1   5   1 45.0883 10.6347   6
   1   5   2 6378.54 322.189  10
   1   5   2 6532.41 326.391   8
   1   5   2 6337.03 331.507   2
   1   5   2 6780.92 344.319   4
   1   5   2 6501.20 329.053   7
   1   5   2 6569.27 333.538   1
   1   5   3 594.737 54.1662  10
   1   5   3 599.131 59.3752   2
   1   5   3 590.768 58.2566   7
   1   5   3 527.523 55.2347   1
   1   5   3 514.779 59.5382   4
   1   5   4 4.37504 12.5837  10
   1   5   4 9.99781 14.3745   7
   1   5   4 25.6050 17.2629   2
   1   5   4 23.3800 15.7646   1
   1   5   5 3482.98 212.887  10
   1   5   5 3869.54 224.068   2
   1   5   5 3141.78 215.890   4
   1   5   5 3711.62 221.059   7
   1   5   6 969.757 93.2025  10
   1   5   6 819.210 90.3948   2
   1   5   6 960.633 94.8143   4
   1   5   6 1047.20 98.9378   7
   1   5   7 7.42389 19.9596  10
   1   5   7 13.4046 19.2642   1
   1   5   7 7.99192 19.8930   2
   1   5   7 15.8281 21.2765   7
   1   5   7 14.7951 21.2612   4
   1   5   8 234.824 51.9454   6
   1   5   8 233.408 53.5874   7
   1   5   8 239.113 51.1697   4
   1   5   8 227.839 55.1480   2
   1   5   8 209.597 45.7516   1
   1   6  -3 855.993 60.4140   1
   1   6  -2 617.039 50.3269   1
   1   6  -1 428.536 30.6611   8
   1   6  -1 402.741 45.6054   4
   1   6  -1 434.926 42.4442   1
   1   6   0 2907.16 166.026   1
   1   6   0 3050.52 152.821   8
   1   6   0 2901.71 174.557   4
   1   6   0 2898.65 145.801   7
   1   6   0 2886.30 148.444   7
   1   6   0 2831.70 143.506   6
   1   6   1 1297.06 73.7764  10
   1   6   1 1259.16 81.7948   8
   1   6   1 1299.72 99.9015   4
   1   6   1 1232.25 81.6073   7
   1   6   1 1203.64 75.3897   6
   1   6   1 1198.16 90.4274   1
   1   6   2 3266.56 176.101  10
   1   6   2 3208.05 182.573   8
   1   6   2 3431.60 204.098   4
   1   6   2 3395.73 186.799   7
   1   6   2 3288.19 192.729   1
   1   6   2 3273.89 177.447   6
   1   6   3 611.068 57.2501  10
   1   6   3 614.300 59.0575   8
   1   6   3 661.681 65.6737   2
   1   6   3 645.783 70.8170   4
   1   6   3 664.307 64.2858   7
   1   6   3 626.432 64.1368   1
   1   6   3 626.346 55.9744   6
   1   6   4 2013.95 131.097  10
   1   6   4 1888.54 130.948   8
   1   6   4 1974.91 139.032   2
   1   6   4 1993.08 137.657   7
   1   6   4 1749.52 132.267   1
   1   6   5 241.118 41.8171   1
   1   6   5 179.171 37.9495  10
   1   6   5 224.898 41.4353   8
   1   6   5 144.451 36.5114   7
   1   6   5 156.398 39.1344   4
   1   6   5 197.736 40.8253   2
   1   6   6 270.682 50.1688  10
   1   6   6 351.282 58.7435   2
   1   6   6 457.971 64.5867   7
   1   6   6 362.840 59.7184   4
   1   6   7 290.958 53.2302   1
   1   6   7 278.372 54.4225  10
   1   6   7 273.824 57.3084   7
   1   6   7 224.846 51.6023   4
   1   6   7 350.717 62.4478   2
   1   7  -3 1556.20 98.0822   1
   1   7  -2 722.133 60.0152   1
   1   7  -1 252.434 35.7173   1
   1   7  -1 285.005 25.0447   8
   1   7   0 106.759 19.1580   8
   1   7   0 119.556 15.0233   7
   1   7   0 109.649 16.0599   7
   1   7   0 120.935 29.4529   4
   1   7   0 119.310 26.4235   1
   1   7   0 136.108 15.3076   6
   1   7   1 223.531 30.2972   8
   1   7   1 247.711 37.0471   1
   1   7   1 181.368 26.6134   7
   1   7   1 229.267 41.7860   4
   1   7   1 247.759 26.4422   6
   1   7   2 76.8769 17.3869  10
   1   7   2 145.803 23.4920   6
   1   7   2 73.2070 24.1194   1
   1   7   2 93.6359 22.9132   8
   1   7   2 82.1805 22.8122   7
   1   7   2 73.8578 28.2531   4
   1   7   3 120.121 25.4141  10
   1   7   3 182.733 36.3294   1
   1   7   3 158.508 31.3855   8
   1   7   3 149.668 31.7615   7
   1   7   3 121.379 34.8024   4
   1   7   3 117.750 26.1135   6
   1   7   4 533.012 55.6980  10
   1   7   4 425.219 58.6024   1
   1   7   4 400.049 52.5274   8
   1   7   4 556.391 62.9575   7
   1   7   4 448.622 66.9729   4
   1   7   4 373.949 54.9357   2
   1   7   4 445.251 52.3852   6
   1   7   5 108.971 30.6697  10
   1   7   5 103.905 31.2894   1
   1   7   5 86.5204 27.8732   8
   1   7   5 92.3201 32.4604   7
   1   7   5 107.474 34.4326   2
   1   7   5 122.664 30.1853   6
   1   7   6 1329.02 117.364  10
   1   7   6 1544.26 124.579   8
   1   7   6 1429.08 128.113   2
   1   7   6 1504.08 129.858   7
   1   7   7 240.047 50.5550  10
   1   8  -2 233.261 34.4323   1
   1   8  -1 104.035 26.4769   1
   1   8   0 142.777 30.9958   1
   1   8   1 109.552 23.3849   8
   1   8   1 91.0785 28.0589   1
   1   8   2 96.6015 24.4949   8
   1   8   2 71.6917 25.3412   1
   1   8   3 922.999 79.5101   8
   1   8   3 723.841 73.7322   7
   1   8   3 941.515 88.9380   1
   1   8   4 322.121 49.8176   8
   1   8   4 318.816 50.6590   7
   1   8   5 494.054 62.8021   8
   1   8   5 523.395 69.3490   7
   1   8   5 374.110 59.9392   2
   1   9   0 156.723 35.5081   1
   1   9   1 34.0540 23.1129   1
   2  -7  -1 60.2910 29.7744   5
   2  -7   0 97.7359 35.2523   9
   2  -7   0 49.9370 29.4677   4
   2  -7   0 76.4688 28.4338   5
   2  -7   1 358.105 54.9958   5
   2  -7   1 255.076 51.3766   9
   2  -7   1 327.730 58.9077   4
   2  -7   1 242.569 53.1701   1
   2  -7   2 180.740 43.5668   9
   2  -7   2 238.281 54.0778   3
   2  -7   2 122.502 37.3505   4
   2  -7   2 217.834 46.4792   1
   2  -7   3 246.843 54.7510   3
   2  -7   3 144.473 39.6599   1
   2  -7   4 54.4323 35.7528   3
   2  -7   4 41.7750 26.5455   1
   2  -6  -5 421.216 60.8020   2
   2  -6  -4 416.744 62.7304  11
   2  -6  -4 449.394 59.0605   2
   2  -6  -3 56.2131 25.5161  11
   2  -6  -3 52.0301 26.2888   5
   2  -6  -3 62.2720 28.6319   9
   2  -6  -3 53.4255 20.5131   2
   2  -6  -3 83.9328 36.2695   3
   2  -6  -3 47.1821 28.9225   1
   2  -6  -3 76.4078 33.5053   4
   2  -6  -2 780.986 86.1812   5
   2  -6  -2 634.917 81.8139   9
   2  -6  -2 785.685 67.5395   2
   2  -6  -2 653.079 84.8367   4
   2  -6  -2 644.886 82.4319   1
   2  -6  -2 859.259 79.6030  11
   2  -6  -1 151.822 38.3980   5
   2  -6  -1 217.538 29.1533   2
   2  -6  -1 175.456 44.5415   3
   2  -6  -1 206.179 48.0309   4
   2  -6  -1 241.052 47.2004   1
   2  -6   0 364.269 56.0616   5
   2  -6   0 344.931 61.1566   3
   2  -6   0 337.620 56.2337   1
   2  -6   0 362.393 57.8108   4
   2  -6   1 65.6331 25.1908   5
   2  -6   1 85.5605 33.7780   3
   2  -6   1 124.345 34.6273   4
   2  -6   1 115.031 33.2246   1
   2  -6   2 425.383 50.5719   5
   2  -6   2 458.109 68.5010   3
   2  -6   2 316.347 53.1992   4
   2  -6   2 431.335 70.0932  12
   2  -6   2 280.207 50.5363   1
   2  -6   3 339.002 53.4821   1
   2  -6   3 246.926 36.9805   5
   2  -6   3 342.474 50.1808   9
   2  -6   3 357.597 59.5289   3
   2  -6   3 248.664 47.4334   4
   2  -6   3 319.147 62.8601  12
   2  -6   4 279.531 48.7296   1
   2  -6   4 327.149 48.1499   9
   2  -6   4 299.803 57.0222   3
   2  -6   4 404.698 58.1726   9
   2  -6   4 243.443 38.6476   8
   2  -6   4 405.353 55.6342   4
   2  -6   4 375.460 66.9006  12
   2  -6   5 29.5669 21.6674   1
   2  -6   5 7.34130 16.6871   3
   2  -6   5 9.31824 25.0517  12
   2  -6   6 266.718 55.5045  12
   2  -5  -6 6.86621 18.4582   2
   2  -5  -6 23.2731 24.9235   3
   2  -5  -6 5.40270 21.2596  12
   2  -5  -5 489.948 67.9449  11
   2  -5  -5 356.987 58.4681   5
   2  -5  -5 358.808 55.6104   2
   2  -5  -5 490.239 67.9635   9
   2  -5  -5 433.487 66.9747   3
   2  -5  -5 455.596 66.6813   1
   2  -5  -5 459.030 70.8022   4
   2  -5  -4 170.815 39.2386  11
   2  -5  -4 88.2543 32.0009   5
   2  -5  -4 92.4931 28.0891   2
   2  -5  -4 122.975 35.0634   9
   2  -5  -4 88.7223 31.3732   3
   2  -5  -4 138.529 36.9053   1
   2  -5  -4 117.269 36.7398   4
   2  -5  -3 434.703 56.9398  11
   2  -5  -3 301.739 50.6500   5
   2  -5  -3 315.062 44.7032   2
   2  -5  -3 307.616 55.4795   3
   2  -5  -2 84.4626 28.9532   5
   2  -5  -2 72.3821 21.8231   2
   2  -5  -2 117.619 33.8838   3
   2  -5  -2 80.2134 25.1882  11
   2  -5  -2 62.9560 26.8122   4
   2  -5  -2 64.2697 24.6724   1
   2  -5  -1 1134.56 108.983   3
   2  -5  -1 1358.84 108.851   5
   2  -5  -1 1082.21 105.311   4
   2  -5  -1 1482.78 114.514   1
   2  -5  -1 1256.39 84.5289   2
   2  -5  -1 1287.39 95.4366  11
   2  -5   0 1071.03 92.6591   5
   2  -5   0 1061.74 100.112   3
   2  -5   0 936.706 93.2652   4
   2  -5   0 1052.67 95.9177   1
   2  -5   0 1091.56 66.7247   2
   2  -5   1 1794.01 141.332   3
   2  -5   1 1963.63 130.313   5
   2  -5   1 1773.45 135.220   4
   2  -5   1 1896.46 136.968   1
   2  -5   2 781.233 84.7751   3
   2  -5   2 757.355 69.6312   5
   2  -5   2 881.467 74.6151   8
   2  -5   2 789.114 79.1914   4
   2  -5   2 901.257 83.1948   1
   2  -5   2 936.083 74.2231   6
   2  -5   3 108.121 22.1645   5
   2  -5   3 105.639 28.3241   9
   2  -5   3 108.474 33.3310   3
   2  -5   3 91.3488 23.9170   8
   2  -5   3 103.427 29.5647   4
   2  -5   3 112.326 29.0729   1
   2  -5   3 61.0451 22.3442   6
   2  -5   4 566.139 42.7627   5
   2  -5   4 502.727 41.3964   5
   2  -5   4 551.753 57.2512   9
   2  -5   4 573.989 62.0848   9
   2  -5   4 473.190 63.9728   3
   2  -5   4 561.022 54.5071   8
   2  -5   4 519.399 58.3772   4
   2  -5   4 661.140 66.5755   1
   2  -5   4 565.596 54.4143   6
   2  -5   4 494.395 73.0930  12
   2  -5   5 465.445 45.5264   9
   2  -5   5 490.215 50.3613   9
   2  -5   5 446.340 61.5821   3
   2  -5   5 456.835 41.0043   4
   2  -5   5 417.518 54.1145   1
   2  -5   5 389.113 46.0377   8
   2  -5   5 488.710 51.7495   4
   2  -5   5 441.252 48.6790   6
   2  -5   5 493.034 70.7575  12
   2  -5   6 124.864 31.9396   3
   2  -5   6 67.8691 20.8794   8
   2  -5   6 65.5495 23.7816   1
   2  -5   6 86.4979 22.9144   6
   2  -5   6 130.285 37.6854  12
   2  -5   7 282.529 43.2358   1
   2  -4  -7 268.471 48.0174   9
   2  -4  -7 223.133 46.7134   3
   2  -4  -7 224.549 45.0412   1
   2  -4  -7 152.960 43.6353   4
   2  -4  -6 1126.20 102.795   3
   2  -4  -6 1110.92 102.422   5
   2  -4  -6 1125.41 100.430   9
   2  -4  -6 1119.18 89.1122  12
   2  -4  -6 991.881 96.1850   1
   2  -4  -6 1095.79 106.038   4
   2  -4  -6 917.842 94.2419   2
   2  -4  -6 952.892 100.660  11
   2  -4  -5 160.668 40.0172  11
   2  -4  -5 148.846 35.0016   2
   2  -4  -5 137.222 35.3644   9
   2  -4  -5 243.661 45.9539   3
   2  -4  -5 219.094 41.4577   1
   2  -4  -5 248.236 48.0343   4
   2  -4  -5 256.930 41.1899  12
   2  -4  -4 1377.92 114.578   3
   2  -4  -4 1218.31 107.442   5
   2  -4  -4 1304.73 109.870   9
   2  -4  -4 1437.15 113.183   1
   2  -4  -4 1269.29 113.022   4
   2  -4  -4 1312.64 103.267   2
   2  -4  -4 1300.75 109.875  11
   2  -4  -3 3506.63 220.842   5
   2  -4  -3 3281.23 218.364   9
   2  -4  -3 3782.60 212.623   2
   2  -4  -3 3631.48 219.403  11
   2  -4  -2 625.951 67.5981   5
   2  -4  -2 685.512 60.1394   2
   2  -4  -2 721.674 67.4454  11
   2  -4  -1 906.847 79.8802   5
   2  -4  -1 915.047 84.7598   4
   2  -4  -1 843.839 80.2559   1
   2  -4  -1 926.745 66.7860   2
   2  -4  -1 953.068 75.3536  11
   2  -4   0 206.259 35.3893   1
   2  -4   0 139.282 28.8081   5
   2  -4   0 182.162 21.1929   2
   2  -4   0 140.546 33.0513   4
   2  -4   1 4111.03 227.767   5
   2  -4   1 4216.33 230.407   8
   2  -4   1 3992.40 236.647   4
   2  -4   1 4152.01 237.856   1
   2  -4   1 4366.66 229.512   6
   2  -4   2 4224.60 228.291   5
   2  -4   2 4391.29 234.787   8
   2  -4   2 4267.71 241.648   4
   2  -4   2 4478.53 244.582   1
   2  -4   2 4299.69 232.513   6
   2  -4   3 4101.41 201.488   5
   2  -4   3 4100.49 215.923   9
   2  -4   3 3765.96 211.264   8
   2  -4   3 3711.66 217.134   4
   2  -4   3 3804.70 210.820   6
   2  -4   3 3645.56 218.792   1
   2  -4   4 2889.32 145.344   5
   2  -4   4 2794.95 144.638   5
   2  -4   4 3072.77 165.121   9
   2  -4   4 2934.31 167.641   8
   2  -4   4 3152.25 173.360   4
   2  -4   4 3041.64 169.613   6
   2  -4   4 3134.73 186.688   3
   2  -4   4 2768.44 174.287   1
   2  -4   5 2340.20 144.726   3
   2  -4   5 2043.06 115.461   9
   2  -4   5 2163.73 121.698   9
   2  -4   5 1944.22 112.934   4
   2  -4   5 2004.64 126.726   8
   2  -4   5 2241.19 155.140  12
   2  -4   5 2191.87 127.576   4
   2  -4   5 1895.61 116.620   7
   2  -4   5 2174.53 131.823   6
   2  -4   5 2072.36 135.850   1
   2  -4   6 188.831 26.9038   3
   2  -4   6 155.205 13.6465   9
   2  -4   6 184.410 14.8391   9
   2  -4   6 263.442 37.8141   3
   2  -4   6 192.180 30.4618   8
   2  -4   6 175.457 17.8086   4
   2  -4   6 161.141 24.1943   7
   2  -4   6 247.692 24.3053   4
   2  -4   6 188.459 33.6999   1
   2  -4   6 170.531 39.1459  12
   2  -4   6 174.374 31.6012   6
   2  -4   7 33.4949 16.9699   8
   2  -4   7 37.0083 14.2837   7
   2  -4   7 31.2738 17.6374   1
   2  -4   7 18.9527 17.4152  12
   2  -4   7 39.9306 19.1768   6
   2  -4   8 116.624 29.5860   6
   2  -4   8 96.8292 25.6658   1
   2  -3  -8 459.916 59.0079   9
   2  -3  -8 393.573 59.4862   4
   2  -3  -7 318.700 53.3088   5
   2  -3  -7 215.658 45.6170   2
   2  -3  -7 309.231 47.7832   9
   2  -3  -7 346.425 51.7584   3
   2  -3  -7 424.120 59.0000   4
   2  -3  -7 433.946 44.9105  12
   2  -3  -6 33.5719 22.7021  11
   2  -3  -6 85.4057 28.3992   5
   2  -3  -6 47.3565 22.5805   2
   2  -3  -6 36.3222 21.1705   9
   2  -3  -6 48.6719 20.6438   3
   2  -3  -6 27.0506 19.1335   1
   2  -3  -6 44.2637 26.5535   4
   2  -3  -6 40.1227 17.8722  12
   2  -3  -5 66.5777 25.4243  11
   2  -3  -5 48.1871 21.1538   5
   2  -3  -5 37.0961 18.7490   2
   2  -3  -5 29.9620 18.3926   9
   2  -3  -5 37.7525 16.3859  12
   2  -3  -5 63.5283 24.7205   3
   2  -3  -5 36.0100 22.8608   1
   2  -3  -5 48.3855 25.4062   4
   2  -3  -4 4903.79 280.185   9
   2  -3  -4 5603.55 286.451   1
   2  -3  -4 5216.68 291.058   4
   2  -3  -4 4885.42 277.660   2
   2  -3  -4 4981.18 286.033  11
   2  -3  -3 4039.26 239.214   5
   2  -3  -3 4099.18 239.157   9
   2  -3  -3 4824.17 253.923   4
   2  -3  -3 4418.04 241.672   1
   2  -3  -3 4114.10 232.577   2
   2  -3  -3 4174.35 240.034  11
   2  -3  -2 3683.48 221.275   5
   2  -3  -2 4346.33 228.934   1
   2  -3  -2 3942.98 214.100   2
   2  -3  -2 4029.29 222.500  11
   2  -3  -1 1304.17 96.9962   5
   2  -3  -1 1493.44 96.1183  11
   2  -3  -1 1275.36 101.070   4
   2  -3  -1 1429.70 88.1421   2
   2  -3   0 6725.93 343.187   5
   2  -3   0 6558.83 343.908   8
   2  -3   0 6664.24 351.335   4
   2  -3   0 7050.45 325.618   2
   2  -3   0 6597.50 347.396   1
   2  -3   1 1076.64 76.4861   5
   2  -3   1 1117.20 80.3870   8
   2  -3   1 1059.26 83.4496   4
   2  -3   1 1195.91 80.7539   6
   2  -3   1 1108.23 84.1816   1
   2  -3   2 1310.75 82.8124   5
   2  -3   2 1332.10 90.7851   9
   2  -3   2 1382.22 91.3779   8
   2  -3   2 1313.28 93.1953   4
   2  -3   2 1418.13 90.5391   6
   2  -3   2 1318.75 94.3926   1
   2  -3   3 2505.59 127.165   5
   2  -3   3 2468.23 139.178   9
   2  -3   3 2476.48 147.832   1
   2  -3   3 2464.62 142.258   8
   2  -3   3 2386.20 142.710   4
   2  -3   3 2392.36 135.587   7
   2  -3   3 2397.87 141.395   6
   2  -3   4 1762.89 101.267   9
   2  -3   4 1907.63 113.049   8
   2  -3   4 1835.69 109.670   4
   2  -3   4 1645.21 103.254   7
   2  -3   4 1876.48 114.222   6
   2  -3   4 1630.59 113.057   1
   2  -3   5 2239.04 127.824  10
   2  -3   5 2496.32 141.783   3
   2  -3   5 2307.12 115.596   9
   2  -3   5 2218.54 118.036   9
   2  -3   5 2216.55 118.862   4
   2  -3   5 2236.08 135.763   8
   2  -3   5 2429.78 129.219   4
   2  -3   5 2227.25 129.063   7
   2  -3   5 2171.50 138.560   6
   2  -3   5 2365.73 128.219   3
   2  -3   5 2049.86 136.672   1
   2  -3   6 106.595 17.1059   3
   2  -3   6 99.1058 22.5253  10
   2  -3   6 102.256 21.1600   3
   2  -3   6 61.6464 20.1521   1
   2  -3   6 75.0761 21.4097   8
   2  -3   6 113.820 13.1476   4
   2  -3   6 132.093 23.9670   7
   2  -3   6 135.021 16.5597   4
   2  -3   6 121.464 27.0028  12
   2  -3   6 101.081 26.4652   6
   2  -3   7 521.523 53.5389  10
   2  -3   7 451.090 49.7932   1
   2  -3   7 438.009 45.9719   7
   2  -3   7 463.258 42.1976  12
   2  -3   7 439.614 28.4153   3
   2  -3   7 553.095 49.9321  12
   2  -3   7 460.176 31.1450   3
   2  -3   7 375.751 50.2143   6
   2  -3   8 118.936 28.9653  10
   2  -3   8 59.5681 20.5468   1
   2  -3   8 72.6489 22.3864   8
   2  -3   8 70.8241 20.6636   7
   2  -3   8 69.2065 26.7030   6
   2  -3   9 171.782 37.4110   6
   2  -2  -8 14.4713 19.4889  11
   2  -2  -8 22.5094 22.1766   5
   2  -2  -8 27.6868 18.1998   9
   2  -2  -8 61.1733 25.2966   4
   2  -2  -7 272.566 48.5627  11
   2  -2  -7 222.073 40.0885   5
   2  -2  -7 181.560 39.3967   2
   2  -2  -7 200.676 35.3241   9
   2  -2  -7 151.067 32.8286   3
   2  -2  -7 207.518 39.0443   4
   2  -2  -7 191.187 27.2765  12
   2  -2  -6 1606.69 110.021   3
   2  -2  -6 1402.61 109.590   5
   2  -2  -6 1464.37 106.864   9
   2  -2  -6 1396.10 106.213   1
   2  -2  -6 1345.65 109.998   4
   2  -2  -6 1199.24 107.026   2
   2  -2  -6 1641.26 97.7115  12
   2  -2  -6 1633.69 122.744  11
   2  -2  -5 26.6590 15.3704  12
   2  -2  -5 9.12299 13.9314   5
   2  -2  -5 14.4306 12.9606   2
   2  -2  -5 37.1309 18.2910   9
   2  -2  -5 25.6311 16.8318   1
   2  -2  -5 20.1830 16.2346   4
   2  -2  -4 3718.99 213.111   5
   2  -2  -4 3710.47 209.976   9
   2  -2  -4 3959.25 212.579   1
   2  -2  -4 4009.10 203.323  12
   2  -2  -4 3732.60 217.515   4
   2  -2  -4 3597.74 210.458   2
   2  -2  -4 3268.20 211.649  11
   2  -2  -3 314.709 41.2001  11
   2  -2  -3 398.957 44.2038   9
   2  -2  -3 348.057 40.8654   2
   2  -2  -3 385.248 43.3408   1
   2  -2  -3 379.529 46.4041   4
   2  -2  -3 352.114 39.7029  12
   2  -2  -2 2700.48 161.652   5
   2  -2  -2 2530.58 160.893   9
   2  -2  -2 2930.99 169.686   4
   2  -2  -2 3169.45 166.344   1
   2  -2  -2 2688.37 156.478   2
   2  -2  -2 2961.17 164.369  11
   2  -2  -1 1022.30 76.6535   5
   2  -2  -1 1096.38 79.8862   8
   2  -2  -1 1218.58 82.4357   1
   2  -2  -1 1184.29 73.7390   2
   2  -2  -1 1148.56 78.7218  11
   2  -2   0 8484.85 415.759   5
   2  -2   0 8608.29 419.503   9
   2  -2   0 8608.14 418.937   8
   2  -2   0 8635.21 403.987   2
   2  -2   0 8474.94 417.542   6
   2  -2   1 6917.26 327.839   5
   2  -2   1 6866.32 334.003   9
   2  -2   1 6567.07 333.074   8
   2  -2   1 6857.90 333.227   6
   2  -2   1 6445.86 335.651   1
   2  -2   2 551.729 38.0648   5
   2  -2   2 485.073 41.7978   9
   2  -2   2 556.095 46.7077   8
   2  -2   2 511.112 42.5719   7
   2  -2   2 546.273 46.0237   6
   2  -2   2 510.435 46.8916   1
   2  -2   3 3748.74 202.650   1
   2  -2   3 3825.62 179.196   5
   2  -2   3 3791.48 190.583   9
   2  -2   3 3739.14 200.026   8
   2  -2   3 3722.23 195.546   7
   2  -2   3 3797.96 201.823   6
   2  -2   4 1896.46 116.975   1
   2  -2   4 1935.70 103.554   4
   2  -2   4 1870.23 110.475  10
   2  -2   4 1849.65 115.540   8
   2  -2   4 1933.59 99.5230   9
   2  -2   4 1826.06 111.529   7
   2  -2   4 2077.46 121.279   6
   2  -2   5 1849.22 119.103  10
   2  -2   5 1861.09 119.408   1
   2  -2   5 1903.35 109.677   2
   2  -2   5 1920.06 120.975   8
   2  -2   5 1948.88 103.283   4
   2  -2   5 1906.63 117.359   7
   2  -2   5 2104.11 107.530   3
   2  -2   5 2136.30 128.481   6
   2  -2   6 456.361 35.7885   3
   2  -2   6 410.552 44.6070   1
   2  -2   6 411.573 29.8560   3
   2  -2   6 468.978 44.1922   2
   2  -2   6 391.749 29.3861   4
   2  -2   6 412.870 46.0967   8
   2  -2   6 362.181 42.4544   7
   2  -2   6 427.402 36.3615  12
   2  -2   6 599.931 56.4513  10
   2  -2   6 456.493 42.9290  12
   2  -2   6 423.463 49.5383   6
   2  -2   7 78.9933 26.0471  10
   2  -2   7 109.029 24.5698   1
   2  -2   7 84.9851 24.0667   8
   2  -2   7 131.693 26.9609   7
   2  -2   7 100.044 24.4667   2
   2  -2   7 119.314 15.3784  12
   2  -2   7 84.4205 15.1170  12
   2  -2   7 85.9818 27.5564   6
   2  -2   8 75.6717 30.2137  10
   2  -2   8 66.6982 22.4047   8
   2  -2   8 45.0266 18.8659   1
   2  -2   8 72.8841 24.2540   7
   2  -2   8 114.578 27.4368   2
   2  -2   8 80.5814 27.6084   6
   2  -2   9 66.2219 29.9078  10
   2  -2   9 5.92952 18.0868   2
   2  -2   9 8.94282 14.3846   1
   2  -2   9 26.6218 20.2521   8
   2  -2   9 10.2749 14.7813   7
   2  -2   9 32.4288 22.8361   6
   2  -2  10 176.338 44.6025  10
   2  -2  10 79.8055 30.7932   6
   2  -1  -9 153.246 34.6452   5
   2  -1  -8 332.110 54.1910  11
   2  -1  -8 301.038 45.9187   5
   2  -1  -8 326.619 51.5110   2
   2  -1  -8 383.284 44.8602   9
   2  -1  -8 313.983 44.3576   4
   2  -1  -7 1067.42 81.0983   3
   2  -1  -7 1028.46 89.6874   5
   2  -1  -7 1196.07 87.4323   9
   2  -1  -7 1140.67 90.8993   4
   2  -1  -7 1148.67 98.8239   2
   2  -1  -7 1234.16 78.4870   3
   2  -1  -7 1216.31 73.9194  12
   2  -1  -7 1046.11 97.6174  11
   2  -1  -6 1035.77 84.0639   5
   2  -1  -6 992.348 77.8074   9
   2  -1  -6 1002.62 67.5642  12
   2  -1  -6 995.426 82.3332   4
   2  -1  -6 1113.78 93.4755  11
   2  -1  -5 311.018 43.6938  11
   2  -1  -5 280.343 38.0477   5
   2  -1  -5 271.897 36.0047   9
   2  -1  -5 353.058 40.0781   1
   2  -1  -5 236.589 36.5361   4
   2  -1  -5 356.336 33.6821  12
   2  -1  -4 1128.09 78.2904   5
   2  -1  -4 901.525 70.5479   9
   2  -1  -4 1009.74 72.9290   1
   2  -1  -4 979.805 77.1397   4
   2  -1  -4 1019.93 66.7270  12
   2  -1  -4 885.255 73.9759   2
   2  -1  -4 776.929 73.7522  11
   2  -1  -3 3440.47 185.776   5
   2  -1  -3 3227.95 181.791   9
   2  -1  -3 3597.53 190.592   4
   2  -1  -3 3140.97 180.537   1
   2  -1  -3 3186.39 183.480   2
   2  -1  -3 3580.12 178.422  12
   2  -1  -2 676.047 52.8012   9
   2  -1  -2 671.048 56.1964   4
   2  -1  -2 618.455 50.4343   1
   2  -1  -2 606.550 50.4290   2
   2  -1  -2 638.781 49.6223  12
   2  -1  -1 4713.87 266.720   5
   2  -1  -1 6080.51 272.275  12
   2  -1  -1 5179.35 264.887   2
   2  -1  -1 5921.50 272.673   1
   2  -1  -1 5360.70 271.154  11
   2  -1   0 16782.9 764.112   5
   2  -1   0 16857.9 766.981   9
   2  -1   0 15723.2 767.011   6
   2  -1   0 16444.9 768.234   1
   2  -1   1 7720.93 351.419   5
   2  -1   1 7361.67 355.304   9
   2  -1   1 7325.30 359.311   8
   2  -1   1 7243.33 357.392   7
   2  -1   1 7380.86 358.267   6
   2  -1   2 8726.55 426.570   1
   2  -1   2 9131.75 411.136   5
   2  -1   2 9205.33 417.751   9
   2  -1   2 8649.75 425.405   8
   2  -1   2 8611.88 423.014   7
   2  -1   2 8517.60 425.463   6
   2  -1   3 1798.08 101.285  10
   2  -1   3 1734.90 103.929   1
   2  -1   3 1757.38 90.5468   9
   2  -1   3 1686.85 105.593   6
   2  -1   3 1801.53 95.5049   4
   2  -1   3 1740.48 104.581   8
   2  -1   3 1871.18 103.613   7
   2  -1   3 1717.26 95.9764   3
   2  -1   3 1608.57 97.4498  12
   2  -1   4 899.168 66.5621  10
   2  -1   4 846.918 46.3692   9
   2  -1   4 906.509 65.3672   1
   2  -1   4 935.622 61.3458   2
   2  -1   4 869.802 54.7801   4
   2  -1   4 951.779 68.3193   8
   2  -1   4 934.732 66.8871   7
   2  -1   4 888.555 56.9807  12
   2  -1   4 938.305 55.6403   3
   2  -1   4 943.206 70.3468   6
   2  -1   5 1714.90 114.815   1
   2  -1   5 1933.47 122.026   8
   2  -1   5 2005.48 118.534   2
   2  -1   5 1955.08 104.502   4
   2  -1   5 1875.43 119.833   7
   2  -1   5 2061.15 103.852  12
   2  -1   5 2082.34 127.888   6
   2  -1   5 1870.91 100.602   3
   2  -1   5 2061.89 126.840  10
   2  -1   6 1906.47 133.532  10
   2  -1   6 1744.26 119.204   1
   2  -1   6 1999.65 104.420  12
   2  -1   6 1966.35 128.443   8
   2  -1   6 1989.60 127.691   2
   2  -1   6 1978.49 106.683   4
   2  -1   6 1915.62 127.400   7
   2  -1   6 2034.46 100.012  12
   2  -1   6 2105.81 135.816   6
   2  -1   6 1979.48 98.3022   3
   2  -1   7 1397.83 109.976  10
   2  -1   7 1262.08 103.557   6
   2  -1   7 1048.57 85.9576   1
   2  -1   7 1293.88 98.9254   8
   2  -1   7 1417.14 103.004   2
   2  -1   7 1299.14 72.3469   4
   2  -1   7 1105.77 93.8482   7
   2  -1   8 662.643 65.2518   1
   2  -1   8 711.446 73.1366   8
   2  -1   8 814.947 80.2188   2
   2  -1   8 867.569 88.7555  10
   2  -1   8 708.000 73.5780   7
   2  -1   8 673.092 76.3465   6
   2  -1   9-16.1258 25.9007  10
   2  -1   9 6.02265 14.9859   8
   2  -1   9 6.18495 16.6229   7
   2  -1   9 9.30389 15.6730   1
   2  -1   9-6.97892 17.3654   2
   2  -1   9 7.02517 18.8811   6
   2  -1  10 248.862 56.1244  10
   2  -1  10 225.908 44.6262   1
   2  -1  10 215.549 44.7357   8
   2  -1  10 124.157 31.9468   1
   2  -1  10 255.164 48.8698   7
   2  -1  10 216.422 49.6837   2
   2  -1  10 237.215 51.5983   6
   2   0  -9 351.138 54.8824  11
   2   0  -9 283.311 43.9348   5
   2   0  -8 175.146 40.0742  11
   2   0  -8 173.061 33.4777   5
   2   0  -8 199.999 39.6814   2
   2   0  -8 192.327 28.7702   9
   2   0  -8 134.543 26.0216   4
   2   0  -7 280.533 44.1613  11
   2   0  -7 285.454 38.8271   5
   2   0  -7 293.452 44.5947   2
   2   0  -7 257.641 33.5308   9
   2   0  -7 222.165 27.3491   3
   2   0  -7 200.971 31.4788   4
   2   0  -7 229.011 25.0235   3
   2   0  -7 301.861 26.7369  12
   2   0  -6 1452.22 104.055   5
   2   0  -6 1615.60 100.399   9
   2   0  -6 1694.52 104.649   4
   2   0  -6 1531.58 111.192   2
   2   0  -6 1491.34 89.1676   3
   2   0  -6 1588.87 89.9610  12
   2   0  -6 1511.10 112.833  11
   2   0  -5 369.343 43.7161  11
   2   0  -5 278.933 35.1739   5
   2   0  -5 310.859 39.7163   2
   2   0  -5 267.126 31.7636   9
   2   0  -5 351.799 38.6040   4
   2   0  -5 276.868 28.2325   3
   2   0  -5 312.612 29.0312  12
   2   0  -4 5668.31 282.075   5
   2   0  -4 5464.84 276.189   9
   2   0  -4 5396.53 274.800   1
   2   0  -4 5428.97 281.197   4
   2   0  -4 5319.61 267.962  12
   2   0  -4 5617.10 269.836   3
   2   0  -4 5894.17 290.656  11
   2   0  -3 3261.99 169.378   5
   2   0  -3 3067.74 165.762   9
   2   0  -3 3049.13 163.405   1
   2   0  -3 3077.50 160.400   3
   2   0  -3 3024.75 159.253  12
   2   0  -3 3388.24 175.457  11
   2   0  -2 10993.6 578.072   5
   2   0  -2 13275.7 580.791   9
   2   0  -2 12438.1 576.659   1
   2   0  -2 12658.6 575.372  12
   2   0  -1 8903.00 463.924   9
   2   0  -1 9953.62 468.180   8
   2   0  -1 8925.84 464.183   2
   2   0  -1 10223.5 464.581   1
   2   0  -1 10708.9 465.317   3
   2   0  -1 10740.2 465.450  12
   2   0   0 9969.48 496.781   5
   2   0   0 11602.5 501.063   1
   2   0   1 18069.4 778.265   5
   2   0   1 17921.6 780.429   9
   2   0   1 16410.4 780.730   4
   2   0   1 16209.2 779.840  12
   2   0   1 16059.2 780.308   3
   2   0   2 449.241 36.0401  10
   2   0   2 451.393 28.8864   5
   2   0   2 452.213 30.9791   9
   2   0   2 495.043 34.3485   4
   2   0   2 501.164 38.4537   7
   2   0   2 455.551 33.2457   3
   2   0   2 452.333 32.5226  12
   2   0   3 2302.68 128.063  10
   2   0   3 2232.83 115.065  12
   2   0   3 2251.50 112.674   9
   2   0   3 2262.85 123.858   2
   2   0   3 2298.11 119.158   4
   2   0   3 2314.04 129.561   8
   2   0   3 2324.01 128.617   7
   2   0   3 2248.01 129.822   6
   2   0   3 2268.07 116.682   3
   2   0   4 4050.12 209.868  10
   2   0   4 3658.43 180.364   9
   2   0   4 3822.71 202.417   2
   2   0   4 4088.14 208.108   8
   2   0   4 3951.71 192.243   4
   2   0   4 3994.68 207.097   7
   2   0   4 3803.85 183.878  12
   2   0   4 3775.39 187.170   3
   2   0   4 3903.48 208.550   6
   2   0   5 7802.67 383.279  10
   2   0   5 7761.92 381.140   6
   2   0   5 7430.67 343.431  12
   2   0   5 7013.67 374.995   8
   2   0   5 7629.16 376.159   2
   2   0   5 7412.46 357.616   4
   2   0   5 7740.98 379.051   7
   2   0   5 7213.09 349.172   3
   2   0   6 3279.56 193.766  10
   2   0   6 2943.97 183.151   8
   2   0   6 3097.80 185.721   2
   2   0   6 3147.51 165.264   4
   2   0   6 3107.30 186.031   7
   2   0   6 3173.99 189.506   6
   2   0   6 3055.62 151.590   3
   2   0   7 573.019 68.8994  10
   2   0   7 586.285 48.2472   4
   2   0   7 580.345 64.2431   8
   2   0   7 554.408 63.3431   7
   2   0   7 547.623 64.3201   2
   2   0   7 574.639 65.8654   6
   2   0   8 610.441 78.9433  10
   2   0   8 702.267 75.8676   8
   2   0   8 754.548 57.0006   4
   2   0   8 703.243 76.9214   7
   2   0   8 678.535 78.3980   2
   2   0   8 810.343 83.6535   6
   2   0   9 93.7137 35.0981  10
   2   0   9 147.271 35.8727   1
   2   0   9 121.303 34.7149   8
   2   0   9 127.131 37.0390   7
   2   0   9 123.221 36.3152   2
   2   0   9 173.203 42.2977   6
   2   0  10 923.859 109.572  10
   2   0  10 946.903 100.037   8
   2   0  10 957.593 95.6821   1
   2   0  10 1164.47 115.575   2
   2   0  10 992.112 105.758   7
   2   0  10 943.118 106.142   6
   2   1  -9 308.328 48.1192  11
   2   1  -9 312.655 43.5587   5
   2   1  -8 452.612 55.7313  11
   2   1  -8 397.067 38.8665   9
   2   1  -8 390.980 45.8881   5
   2   1  -8 426.368 55.0331   2
   2   1  -7 103.014 26.4603  11
   2   1  -7 172.623 28.6167   5
   2   1  -7 147.239 23.4594   9
   2   1  -7 141.032 30.5519   2
   2   1  -7 133.100 14.2333   3
   2   1  -7 165.833 23.1668   4
   2   1  -7 180.345 14.5437   3
   2   1  -7 121.627 17.0291  12
   2   1  -6 144.623 16.0886   3
   2   1  -6 178.271 28.5099   5
   2   1  -6 185.511 24.2737   9
   2   1  -6 200.714 32.6527   2
   2   1  -6 150.187 22.5919   4
   2   1  -6 158.123 19.8994  12
   2   1  -5 654.025 55.8462   5
   2   1  -5 747.928 52.3202   9
   2   1  -5 635.929 51.5054   4
   2   1  -5 761.825 63.3047   2
   2   1  -5 693.211 48.2154  12
   2   1  -5 733.688 45.2712   3
   2   1  -5 698.787 61.5896  11
   2   1  -4 1802.42 108.689   5
   2   1  -4 1799.03 103.043   9
   2   1  -4 1860.34 105.720   4
   2   1  -4 1862.49 114.052   2
   2   1  -4 1777.50 96.4191   3
   2   1  -4 1811.19 100.071  12
   2   1  -4 2030.59 117.012  11
   2   1  -3 942.173 61.5046   5
   2   1  -3 834.134 56.4463   9
   2   1  -3 824.310 51.8460   1
   2   1  -3 995.213 65.9880   2
   2   1  -3 804.844 51.8874   3
   2   1  -3 858.032 54.6382  12
   2   1  -3 992.430 66.0029  11
   2   1  -2 20650.7 898.566   5
   2   1  -2 19048.2 891.922  12
   2   1  -2 19164.7 894.093   9
   2   1  -2 19072.3 887.337   1
   2   1  -2 20225.8 900.975   2
   2   1  -2 19148.1 890.275   3
   2   1  -1 1662.79 87.9533   9
   2   1  -1 1576.88 84.9332   3
   2   1  -1 1741.60 86.2722   4
   2   1  -1 1579.38 86.2095   8
   2   1  -1 1551.18 80.8520   1
   2   1  -1 1744.77 87.0484  12
   2   1   0 3961.60 182.413   1
   2   1   0 3875.28 184.896   4
   2   1   0 3724.91 183.928   8
   2   1   0 3845.98 185.822   7
   2   1   0 3693.89 184.012   6
   2   1   0 3547.97 183.472   3
   2   1   1 5936.13 272.011   5
   2   1   1 5694.53 271.707   9
   2   1   1 6605.86 276.207   8
   2   1   1 5281.22 273.134   7
   2   1   1 6300.28 274.777   6
   2   1   1 4897.07 268.853  12
   2   1   2 26794.0 1159.43   6
   2   1   2 24996.9 1151.52   9
   2   1   2 24812.0 1154.23   4
   2   1   2 24759.2 1148.91  12
   2   1   2 25213.7 1151.95   3
   2   1   3 10092.1 529.876  10
   2   1   3 10855.9 517.635   9
   2   1   3 11491.6 531.180   2
   2   1   3 11537.0 523.408   4
   2   1   3 11138.8 514.316  12
   2   1   3 11469.4 519.318   3
   2   1   4 1795.15 116.948  10
   2   1   4 1861.53 115.387   2
   2   1   4 1797.40 105.624   4
   2   1   4 1906.31 117.192   7
   2   1   4 1801.55 94.1494  12
   2   1   4 1875.03 101.459   3
   2   1   5 2133.24 140.084  10
   2   1   5 1998.63 134.697   8
   2   1   5 2300.11 139.346   2
   2   1   5 2183.26 124.780   4
   2   1   5 2288.95 140.150   7
   2   1   5 2149.55 105.672  12
   2   1   5 2080.95 116.474   3
   2   1   6 3708.52 192.937   3
   2   1   6 3914.25 228.985  10
   2   1   6 3909.74 223.618   8
   2   1   6 3980.46 226.172   2
   2   1   6 3566.59 204.320   4
   2   1   6 4102.39 227.946   7
   2   1   6 4097.97 227.833   6
   2   1   7 32.5074 22.9244  10
   2   1   7 39.6408 21.5734   8
   2   1   7 41.6211 21.8260   7
   2   1   7 17.3590 12.3034   4
   2   1   7 42.2694 22.1645   2
   2   1   7 59.5688 24.9919   6
   2   1   8 840.690 90.9048  10
   2   1   8 821.947 77.9722   1
   2   1   8 682.775 63.0548   4
   2   1   8 744.957 80.6916   8
   2   1   8 694.423 79.7460   7
   2   1   8 696.786 81.6878   2
   2   1   8 712.795 81.0967   6
   2   1   9 468.591 73.2385  10
   2   1   9 446.146 68.2602   2
   2   1   9 374.450 57.4166   1
   2   1   9 415.781 65.0452   8
   2   1   9 452.686 67.1680   7
   2   1   9 450.295 50.1942   4
   2   1   9 365.047 62.2254   6
   2   1  10 674.431 98.5387  10
   2   1  10 861.440 89.6104   1
   2   1  10 759.608 92.4218   8
   2   1  10 629.586 89.8848   7
   2   1  10 817.888 99.9111   2
   2   1  10 745.763 95.1325   6
   2   2  -9 32.2655 20.4911   2
   2   2  -8 59.0642 22.7295  11
   2   2  -8 46.5131 16.6965   5
   2   2  -8 53.4674 21.6477   2
   2   2  -7 220.018 34.5454  11
   2   2  -7 230.118 31.1663   5
   2   2  -7 204.223 25.0164   9
   2   2  -7 208.777 35.6139   2
   2   2  -7 231.727 15.7941   4
   2   2  -7 208.219 16.4256   4
   2   2  -7 216.774 22.4365  12
   2   2  -6 1368.86 89.9985   5
   2   2  -6 1297.12 81.8529   9
   2   2  -6 1389.57 71.5948   4
   2   2  -6 1621.87 100.788  11
   2   2  -6 1326.79 74.3134   4
   2   2  -6 1326.13 96.4882   2
   2   2  -6 1375.57 81.8254  12
   2   2  -5 6170.53 306.822   5
   2   2  -5 6193.78 299.087   9
   2   2  -5 6071.31 288.129   4
   2   2  -5 6151.58 293.098   4
   2   2  -5 6392.09 315.572   2
   2   2  -5 5871.04 299.119  12
   2   2  -5 6161.18 289.454   3
   2   2  -5 6422.91 313.291  11
   2   2  -4 3041.09 160.387   5
   2   2  -4 2899.36 155.046   9
   2   2  -4 2943.08 148.228   3
   2   2  -4 2894.94 145.774   4
   2   2  -4 3263.78 168.129   2
   2   2  -4 3112.28 157.015  12
   2   2  -3 2642.28 136.675   5
   2   2  -3 2531.39 131.594   9
   2   2  -3 2513.36 124.247   4
   2   2  -3 2370.96 131.863  12
   2   2  -3 2428.53 126.855   3
   2   2  -2 2589.24 137.812   5
   2   2  -2 2533.68 135.804   9
   2   2  -2 2571.99 136.805  12
   2   2  -2 2746.11 130.375   4
   2   2  -2 2519.53 132.415   3
   2   2  -1 13108.3 584.383   5
   2   2  -1 12519.0 582.169   9
   2   2  -1 12057.5 572.221   8
   2   2  -1 12566.1 577.025   4
   2   2  -1 12579.4 582.425  12
   2   2  -1 12523.6 579.551   3
   2   2   0 32186.2 1534.22   9
   2   2   0 33725.2 1524.66   8
   2   2   0 34476.1 1531.55   4
   2   2   0 34045.2 1527.54   7
   2   2   0 33024.3 1524.23   6
   2   2   0 34270.2 1533.18   3
   2   2   1 3593.20 183.806  10
   2   2   1 3833.27 179.473   6
   2   2   1 3984.33 182.536   8
   2   2   1 3797.48 182.548   7
   2   2   2 43128.0 1946.04  10
   2   2   2 38678.2 1941.38   9
   2   2   2 48694.6 1948.17   8
   2   2   2 46593.6 1947.95   7
   2   2   2 46266.8 1944.59   6
   2   2   2 39912.5 1938.84  12
   2   2   2 38457.3 1941.09   3
   2   2   3 5547.71 335.940  10
   2   2   3 7836.98 344.924   8
   2   2   3 6685.33 336.617   4
   2   2   3 7649.85 345.392   7
   2   2   3 8096.03 344.149   6
   2   2   3 6696.93 328.583  12
   2   2   3 6367.75 332.299   3
   2   2   4 2478.07 132.138  12
   2   2   4 2266.21 148.098   2
   2   2   4 2426.33 143.315   4
   2   2   4 2504.25 139.423   3
   2   2   5 88.8420 17.8913   3
   2   2   5 109.079 21.4656   4
   2   2   5 72.8085 21.5839   2
   2   2   5 99.6049 24.0494   6
   2   2   6 1004.26 73.0176   3
   2   2   6 1070.19 85.5794   1
   2   2   6 1101.27 92.7159   8
   2   2   6 1120.21 94.2915   2
   2   2   6 1084.79 83.2340   4
   2   2   6 1115.86 94.7044   7
   2   2   7 1328.13 116.502  10
   2   2   7 1245.30 103.400   1
   2   2   7 1468.57 116.298   8
   2   2   7 1393.03 117.058   2
   2   2   7 1406.06 102.450   4
   2   2   7 1495.42 119.888   7
   2   2   8 495.452 71.6869  10
   2   2   8 581.206 66.4323   1
   2   2   8 590.241 72.7674   8
   2   2   8 704.342 80.6656   7
   2   2   8 481.098 56.6665   4
   2   2   8 596.845 75.7097   2
   2   2   8 474.999 68.3362   6
   2   2   9 480.304 74.5716  10
   2   2   9 231.948 50.3224   8
   2   2   9 322.307 53.6087   1
   2   2   9 294.305 58.5854   7
   2   2   9 375.057 51.2833   4
   2   2   9 410.151 67.4092   2
   2   2   9 305.012 59.3107   6
   2   2  10 257.334 59.7693   2
   2   2  10 367.856 65.4890   8
   2   2  10 204.355 46.9514   1
   2   3  -8 60.2930 18.5739   5
   2   3  -7 398.448 40.0074   5
   2   3  -7 345.885 32.8475   9
   2   3  -6 48.0031 14.8192   5
   2   3  -6 57.9351 14.1832   9
   2   3  -6 68.8526 15.8457  12
   2   3  -5 5381.16 262.357   5
   2   3  -5 5188.33 256.455   9
   2   3  -5 5010.96 260.327  12
   2   3  -5 5112.69 246.518   3
   2   3  -4 5036.13 245.315   5
   2   3  -4 4411.82 240.343   9
   2   3  -4 4923.93 226.617   4
   2   3  -4 5125.21 247.864  12
   2   3  -4 4643.83 234.843   3
   2   3  -3 1926.23 108.492   5
   2   3  -3 1764.83 105.911   9
   2   3  -3 1881.97 96.1863   4
   2   3  -3 1833.91 110.008  12
   2   3  -3 1904.90 103.241   3
   2   3  -2 1769.44 103.880   5
   2   3  -2 1839.68 103.698   9
   2   3  -2 1804.47 94.8446   4
   2   3  -2 1732.96 105.721  12
   2   3  -2 1711.41 99.9298   3
   2   3  -1 4218.95 220.992   9
   2   3  -1 4513.44 215.267   4
   2   3  -1 4303.42 223.868  12
   2   3  -1 4318.00 218.993   3
   2   3   0 7129.47 338.958   9
   2   3   0 7025.77 333.993   4
   2   3   0 7120.58 324.647   1
   2   3   0 6773.25 322.144   7
   2   3   0 7555.24 338.546   3
   2   3   1 6392.39 322.549  10
   2   3   1 6924.51 320.922   8
   2   3   1 6861.52 321.411   1
   2   3   1 6796.17 329.339   4
   2   3   1 6514.66 320.509   7
   2   3   1 6768.71 316.090   6
   2   3   2 20022.3 945.122  10
   2   3   2 20931.6 944.121   1
   2   3   2 21455.9 947.065   8
   2   3   2 17667.3 944.864  12
   2   3   2 21147.7 947.325   7
   2   3   2 21127.9 942.334   6
   2   3   3 5514.72 273.317  10
   2   3   3 5463.40 275.515   2
   2   3   3 5287.03 267.142   1
   2   3   3 5918.96 275.202   8
   2   3   3 5740.34 275.326   7
   2   3   3 5006.28 265.104  12
   2   3   3 5582.01 269.497   6
   2   3   3 4973.32 268.819   3
   2   3   4 3556.29 195.631  10
   2   3   4 3636.18 195.367   8
   2   3   4 2908.91 186.233   4
   2   3   4 3752.87 198.602   7
   2   3   4 3554.29 192.413   6
   2   3   4 3122.15 185.614   3
   2   3   5 928.467 78.7076   3
   2   3   5 1169.77 93.6362  10
   2   3   5 1165.90 92.1850   8
   2   3   5 1113.50 86.7349   4
   2   3   5 1307.59 97.6101   7
   2   3   5 1219.06 92.1876   6
   2   3   6 3967.39 236.247  10
   2   3   6 3694.88 223.497   1
   2   3   6 3549.02 220.955   4
   2   3   7 55.2868 27.3329  10
   2   3   7 77.2158 24.5815   1
   2   3   7 57.5011 22.7021   4
   2   3   7 89.8620 29.0869   2
   2   3   7 38.4327 24.5068   6
   2   3   8 824.448 87.6457   6
   2   3   8 567.764 75.0410   8
   2   3   8 621.636 73.2175   1
   2   3   8 643.853 81.1350   7
   2   3   8 574.540 67.6354   4
   2   3   8 591.803 79.1923   2
   2   3   9 16.9262 25.8214   8
   2   3   9 65.1455 28.5054   1
   2   3   9 53.5071 28.6744   7
   2   3   9 6.20270 18.9441   4
   2   3   9 27.4248 26.2955   2
   2   3  10 80.6565 32.9741   1
   2   4  -7 294.285 34.6175   5
   2   4  -6 880.605 63.7292   5
   2   4  -6 807.011 58.5390   9
   2   4  -5 750.981 56.6557   5
   2   4  -5 710.476 54.3182   9
   2   4  -5 698.990 60.1433  12
   2   4  -4 2510.13 138.958   3
   2   4  -4 2496.27 143.519   5
   2   4  -4 2635.96 144.080   9
   2   4  -4 2751.34 152.341  12
   2   4  -3 2308.12 130.453   9
   2   4  -3 2374.94 118.055   4
   2   4  -3 2307.38 136.733  12
   2   4  -3 2021.31 126.052   3
   2   4  -2 1126.16 76.3517   9
   2   4  -2 1080.31 67.2855   4
   2   4  -2 1113.94 79.8529  12
   2   4  -2 1026.24 73.0673   3
   2   4  -1 820.234 63.7044   9
   2   4  -1 785.700 58.4745   4
   2   4  -1 885.717 50.3072   1
   2   4  -1 929.943 69.0696  12
   2   4  -1 787.130 62.7370   3
   2   4   0 2503.12 153.031  12
   2   4   0 2732.58 130.192   8
   2   4   0 2493.15 145.844   4
   2   4   0 2642.72 130.747   7
   2   4   0 2641.66 137.967   1
   2   4   0 2789.78 153.285   3
   2   4   1 13057.8 624.914  10
   2   4   1 13699.6 624.431   8
   2   4   1 13200.8 637.324   4
   2   4   1 13707.9 628.695   1
   2   4   1 13614.4 624.356   7
   2   4   1 13189.8 617.277   6
   2   4   1 13174.5 641.018   3
   2   4   2 3500.71 191.086  10
   2   4   2 3891.09 203.848   4
   2   4   2 3669.76 193.803   1
   2   4   2 3879.87 194.765   7
   2   4   2 3873.64 188.875   6
   2   4   3 6943.18 352.038  10
   2   4   3 6795.44 356.380   2
   2   4   3 7269.04 352.297   1
   2   4   3 7473.31 356.092   7
   2   4   3 7543.25 350.494   6
   2   4   4 3019.94 190.263   3
   2   4   4 3415.63 194.400  10
   2   4   4 3087.20 194.351   2
   2   4   4 3592.12 193.127   1
   2   4   4 2896.51 190.960   4
   2   4   4 3618.02 198.653   7
   2   4   4 3771.13 194.191   6
   2   4   5 773.286 72.6116   3
   2   4   5 917.585 81.4362  10
   2   4   5 787.126 79.1252   2
   2   4   5 797.088 76.4721   4
   2   4   5 1010.93 85.0802   7
   2   4   5 962.293 79.8804   6
   2   4   6 4317.36 250.765  10
   2   4   6 4027.52 250.242   2
   2   4   6 3722.04 239.658   4
   2   4   6 4653.17 257.021   7
   2   4   6 4273.49 247.006   6
   2   4   7 530.397 71.9974  10
   2   4   7 771.023 83.1253   8
   2   4   7 547.275 67.0210   1
   2   4   7 656.056 78.4875   7
   2   4   7 581.794 69.1607   4
   2   4   7 773.157 81.0232   6
   2   4   8 221.648 49.1308  10
   2   4   8 95.6375 32.5684   1
   2   4   8 159.617 37.6661   4
   2   4   8 221.712 47.7607   6
   2   4   9 47.0514 31.7156  10
   2   4   9 7.68672 20.6764   1
   2   4   9 14.3114 16.2759   4
   2   4   9 76.4454 35.0090   2
   2   4   9 8.72451 21.7253   6
   2   4  10 242.913 51.1586   4
   2   5  -4 429.807 29.1993   4
   2   5  -3 889.619 69.1858   3
   2   5  -3 995.447 62.3982   4
   2   5  -2 141.581 24.3290   3
   2   5  -2 123.357 14.6351   1
   2   5  -2 123.362 20.0210   4
   2   5  -1 60.3228 18.4769   3
   2   5  -1 40.9434 10.9868   1
   2   5  -1 34.3886 13.1556   4
   2   5   0 1477.36 106.665   3
   2   5   0 1657.45 83.4971   8
   2   5   0 1616.84 84.6027   8
   2   5   0 1536.98 102.565   4
   2   5   0 1550.09 82.7581   7
   2   5   0 1622.36 94.9938   1
   2   5   1 332.059 31.9742  10
   2   5   1 326.212 42.5855   3
   2   5   1 369.093 28.3531   6
   2   5   1 401.114 33.9539   7
   2   5   1 404.711 38.7806   1
   2   5   1 341.476 40.7953   4
   2   5   2 1537.26 98.8178  10
   2   5   2 1519.76 110.653   4
   2   5   2 1707.64 103.217   7
   2   5   2 1664.90 105.565   1
   2   5   2 1677.87 97.0399   6
   2   5   3 3499.02 224.855   3
   2   5   3 3950.73 216.794  10
   2   5   3 3960.09 224.945   2
   2   5   3 3831.08 227.845   4
   2   5   3 4214.71 222.096   1
   2   5   3 4205.21 222.291   7
   2   5   3 4198.30 215.263   6
   2   5   4 1520.05 121.537   3
   2   5   4 1780.30 121.429  10
   2   5   4 1944.95 121.272   6
   2   5   4 1779.35 126.269   2
   2   5   4 1735.67 120.520   1
   2   5   4 1911.84 126.503   7
   2   5   5 1540.98 116.183  10
   2   5   5 1460.52 118.177   2
   2   5   5 1327.28 114.472   4
   2   5   5 1487.85 112.510   1
   2   5   5 1672.64 121.662   7
   2   5   5 1599.51 114.546   6
   2   5   6 1216.36 106.350  10
   2   5   6 1206.41 108.400   2
   2   5   6 1022.87 100.330   4
   2   5   6 1152.98 106.329   7
   2   5   6 1410.54 108.594   6
   2   5   7 390.037 61.8034  10
   2   5   7 491.290 68.8228   7
   2   5   7 400.173 60.6647   4
   2   5   7 368.839 56.7975   1
   2   5   7 479.827 69.4565   2
   2   5   7 490.111 64.8030   6
   2   5   8 150.154 42.8360  10
   2   5   8 124.016 39.8941   8
   2   5   8 181.047 46.7683   7
   2   5   8 83.2566 31.3938   4
   2   5   8 175.025 41.7256   1
   2   5   8 210.989 50.1201   2
   2   5   8 133.406 40.3535   6
   2   5   9 40.4924 24.7473   4
   2   6  -3 1651.93 99.1776   4
   2   6  -2 232.730 24.4068   1
   2   6  -2 251.420 32.0176   4
   2   6  -1 664.580 59.3322   4
   2   6  -1 683.956 51.4342   1
   2   6   0 1419.17 107.221   3
   2   6   0 1486.39 78.5238   8
   2   6   0 1419.21 79.7826   8
   2   6   0 1426.77 102.293   4
   2   6   0 1422.26 75.6634   7
   2   6   0 1484.89 93.3695   1
   2   6   1 1847.53 136.034   3
   2   6   1 2055.15 115.235   8
   2   6   1 2036.41 135.759   4
   2   6   1 1977.93 114.647   7
   2   6   1 2105.38 127.111   1
   2   6   1 2124.10 107.163   6
   2   6   1 2122.33 108.348   6
   2   6   2 1257.13 79.1831  10
   2   6   2 1065.96 91.8143   4
   2   6   2 1029.53 78.0310   7
   2   6   2 1239.19 87.8450   1
   2   6   2 1080.41 73.1265   6
   2   6   3 3313.01 193.931  10
   2   6   3 3346.80 211.628   4
   2   6   3 3759.28 202.473   7
   2   6   3 3397.00 202.380   1
   2   6   3 3675.07 193.901   6
   2   6   4 2074.18 138.976  10
   2   6   4 2258.38 150.042   2
   2   6   4 2197.45 144.850   7
   2   6   4 2134.72 143.399   1
   2   6   4 2070.35 135.813   6
   2   6   5 5.04313 17.7465   6
   2   6   5 21.3678 19.5656  10
   2   6   5-23.5290 18.8958   7
   2   6   5 33.6634 20.5177   4
   2   6   5 6.25059 19.0486   2
   2   6   5 38.5947 20.9563   1
   2   6   6 305.858 50.6487   6
   2   6   6 352.911 54.9692  10
   2   6   6 219.756 45.8202   7
   2   6   6 234.998 48.2000   4
   2   6   6 306.997 52.7521   2
   2   6   6 260.585 47.5203   1
   2   6   7 637.092 78.0564  10
   2   6   7 551.904 77.0057   7
   2   6   7 547.492 75.3154   4
   2   6   7 607.850 80.1954   2
   2   6   7 539.014 72.6044   6
   2   6   8 1685.44 147.877  10
   2   6   8 1634.52 145.171   4
   2   6   8 1760.98 147.302   6
   2   7  -3 18.3880 10.0930   1
   2   7  -2 494.721 41.2573   1
   2   7  -2 391.101 45.3943   4
   2   7  -1 155.206 30.1384   4
   2   7  -1 171.347 26.1936   1
   2   7   0 1946.86 104.216   8
   2   7   0 2029.34 106.860   8
   2   7   0 2037.76 135.458   4
   2   7   0 2001.62 97.7615   7
   2   7   0 1960.21 97.6683   7
   2   7   0 2123.75 125.947   1
   2   7   1 2356.63 130.408   8
   2   7   1 2235.65 154.389   4
   2   7   1 2276.65 128.481   7
   2   7   1 2255.03 143.946   1
   2   7   1 2518.36 119.346   6
   2   7   1 2269.06 119.247   6
   2   7   2 66.9643 16.7896  10
   2   7   2 57.2772 19.7118   1
   2   7   2 61.6458 17.6598   8
   2   7   2 51.8153 17.3250   7
   2   7   2 58.0805 23.7678   4
   2   7   2 90.4151 17.5799   6
   2   7   2 52.7431 14.8819   6
   2   7   3 324.103 38.5552  10
   2   7   3 265.791 41.7422   1
   2   7   3 283.234 38.5047   8
   2   7   3 302.326 35.0141   6
   2   7   3 285.913 40.3343   7
   2   7   3 306.380 50.2170   4
   2   7   3 254.053 34.2144   6
   2   7   4 17.0446 16.2137   6
   2   7   4 27.3399 17.5812   1
   2   7   4 13.1871 15.4866  10
   2   7   4 18.3392 16.1513   8
   2   7   4 20.6430 17.4036   7
   2   7   4 6.98067 21.2869   4
   2   7   5 680.927 76.7982   1
   2   7   5 702.912 73.0214  10
   2   7   5 687.065 76.3568   7
   2   7   5 687.833 78.4505   2
   2   7   5 846.126 77.1215   6
   2   7   6 147.753 35.3206   6
   2   7   6 133.336 35.8209  10
   2   7   6 128.425 38.1234   7
   2   7   6 123.518 38.7883   4
   2   7   6 142.411 39.2734   2
   2   7   6 114.720 34.7840   1
   2   7   7 737.346 88.3075  10
   2   7   7 808.596 95.9518   7
   2   7   7 851.762 91.2227   6
   2   8  -1 65.0745 19.9178   1
   2   8  -1 72.3776 24.6981   4
   2   8   0 54.0845 22.7002   4
   2   8   0 23.8038 14.6049   1
   2   8   1 338.001 33.2852   8
   2   8   1 327.129 34.7588   8
   2   8   1 255.735 40.1446   1
   2   8   2 139.835 31.5696   1
   2   8   2 101.666 22.2682   8
   2   8   2 87.1996 21.4459   7
   2   8   2 65.6125 28.6052   4
   2   8   3 321.271 39.2410  10
   2   8   3 288.511 35.9405   6
   2   8   3 397.100 52.8486   1
   2   8   3 291.379 40.3017   8
   2   8   3 235.733 38.9185   7
   2   8   3 458.496 64.4959   4
   2   8   3 289.059 36.7372   6
   2   8   4 93.9389 25.8768  10
   2   8   4 78.7552 28.3974   1
   2   8   4 105.615 29.0428   8
   2   8   4 84.8543 26.6021   7
   2   8   4 46.7637 28.7403   4
   2   8   4 46.6826 19.2431   6
   2   8   4 85.9240 24.9117   6
   2   8   5 294.092 45.9487  10
   2   8   5 329.811 46.7535   6
   2   8   5 385.472 53.1459   8
   2   8   5 333.669 53.2301   7
   2   8   5 305.004 46.7424   6
   2   8   6 411.053 60.4725   8
   2   8   6 519.161 70.7190   7
   2   9   1 111.420 29.1698   1
   2   9   1 139.906 36.8591   4
   2   9   2 27.9157 20.4875   1
   3  -6  -2 972.792 100.796   5
   3  -6  -1 239.431 46.8009   5
   3  -6  -1 157.463 43.8235   9
   3  -6  -1 152.248 41.9940   4
   3  -6   0 306.608 50.2614   5
   3  -6   0 256.150 54.3484   9
   3  -6   0 237.358 53.0278   3
   3  -6   0 224.861 50.3811   4
   3  -6   0 306.173 58.5227   1
   3  -6   1 116.616 31.0743   5
   3  -6   1 106.574 33.2398   9
   3  -6   1 109.071 37.2977   3
   3  -6   1 38.3082 28.2566   4
   3  -6   1 31.1796 27.6291   1
   3  -6   2 85.4076 24.7471   5
   3  -6   2 59.5591 27.8681   9
   3  -6   2 92.1834 35.2190   3
   3  -6   2 29.3885 23.7783   4
   3  -6   2 75.3176 31.6784   1
   3  -6   3 743.029 85.1948   1
   3  -6   3 849.169 83.0722   9
   3  -6   3 632.966 86.3992   3
   3  -6   3 741.048 75.9786   8
   3  -6   3 660.750 79.5117   4
   3  -6   4-7.05720 20.2801   1
   3  -6   4-8.52966 24.5101   3
   3  -6   4-10.2306 25.4590  12
   3  -6   5 254.307 49.2114   1
   3  -6   5 252.599 61.5508  12
   3  -5  -5 19.4858 21.9009   2
   3  -5  -4 872.310 99.6097   3
   3  -5  -4 825.983 83.2299   2
   3  -5  -4 873.832 89.4498  12
   3  -5  -4 925.714 96.2634  11
   3  -5  -3 191.854 42.8357   5
   3  -5  -3 142.383 31.0279   2
   3  -5  -3 103.241 35.7620   3
   3  -5  -3 159.114 40.5199   1
   3  -5  -2 347.541 54.7068   5
   3  -5  -2 398.892 60.7761   9
   3  -5  -2 429.284 47.8355   2
   3  -5  -2 352.440 59.9076   3
   3  -5  -2 244.645 52.5709   4
   3  -5  -1 1313.02 112.162   5
   3  -5  -1 1395.84 120.002   9
   3  -5  -1 1416.34 124.538   4
   3  -5  -1 1513.97 126.839   1
   3  -5   0 194.649 37.4653   5
   3  -5   0 199.333 43.2230   9
   3  -5   0 175.491 41.2723   4
   3  -5   0 208.169 44.3207   1
   3  -5   1 759.411 72.0765   5
   3  -5   1 636.337 74.2260   9
   3  -5   1 753.818 81.8678   1
   3  -5   1 659.780 77.1316   4
   3  -5   2-6.52428 19.8893   1
   3  -5   2 28.3403 14.2562   5
   3  -5   2 11.1994 16.0974   9
   3  -5   2 16.1250 18.9213   8
   3  -5   2 25.3237 18.1973   4
   3  -5   3 415.876 42.7986   5
   3  -5   3 386.442 57.1566   1
   3  -5   3 363.329 50.4467   9
   3  -5   3 318.396 57.2826   3
   3  -5   3 375.204 49.8689   8
   3  -5   3 341.057 47.7152   6
   3  -5   3 402.877 55.8630   4
   3  -5   4 847.476 93.1168   3
   3  -5   4 981.091 80.1858   9
   3  -5   4 709.516 80.8800   1
   3  -5   4 870.044 78.9314   8
   3  -5   4 934.943 86.1510   4
   3  -5   4 902.172 79.5777   6
   3  -5   5 262.625 49.3454   3
   3  -5   5 229.550 43.7868   1
   3  -5   5 242.371 39.4943   8
   3  -5   5 324.962 37.8100   4
   3  -5   5 315.926 47.8871   4
   3  -5   5 229.034 39.1615   6
   3  -5   5 300.474 59.4338  12
   3  -5   6 47.7335 23.5673   1
   3  -5   6 43.7324 32.1029  12
   3  -4  -6 588.249 79.0499   3
   3  -4  -6 625.910 68.0503  12
   3  -4  -5 96.5956 34.0044  11
   3  -4  -5 131.536 37.4232   9
   3  -4  -5 80.1787 29.0027   2
   3  -4  -5 160.471 42.7623   3
   3  -4  -5 61.1312 27.0364   1
   3  -4  -5 88.8908 35.0683   4
   3  -4  -5 78.8507 28.5527  12
   3  -4  -4 504.389 66.6855  11
   3  -4  -4 431.942 61.7725   5
   3  -4  -4 491.434 65.6470   9
   3  -4  -4 596.325 65.0106   2
   3  -4  -4 532.524 68.1298   1
   3  -4  -4 569.468 74.8246   4
   3  -4  -4 473.946 59.8298  12
   3  -4  -3 186.717 38.9087  11
   3  -4  -3 190.651 38.5126   5
   3  -4  -3 272.637 40.5191   2
   3  -4  -3 233.579 48.4306   4
   3  -4  -3 218.416 42.8637   1
   3  -4  -3 186.774 37.8200  12
   3  -4  -2 99.8986 28.6165   5
   3  -4  -2 106.885 29.3456   9
   3  -4  -2 105.472 23.9880   2
   3  -4  -2 136.676 35.4815   1
   3  -4  -1 1447.70 109.413   5
   3  -4  -1 1443.84 114.512   9
   3  -4  -1 1163.59 109.864   4
   3  -4  -1 1439.00 93.3768   2
   3  -4   0 1491.21 114.144   5
   3  -4   0 1786.70 126.674   9
   3  -4   0 1676.84 122.615   8
   3  -4   0 1633.02 126.696   4
   3  -4   0 1623.18 124.947   1
   3  -4   1 978.070 78.1139   5
   3  -4   1 998.860 85.2343   9
   3  -4   1 910.601 82.4266   8
   3  -4   1 752.644 79.7100   4
   3  -4   1 952.721 87.2041   1
   3  -4   1 959.261 82.3806   6
   3  -4   2 1814.42 113.873   5
   3  -4   2 1917.96 126.411   9
   3  -4   2 1751.09 123.806   8
   3  -4   2 1609.34 124.776   4
   3  -4   2 1722.09 129.437   1
   3  -4   2 1745.19 122.554   6
   3  -4   3 17.6070 11.4564   5
   3  -4   3 24.6282 17.7095   9
   3  -4   3 27.0871 17.4220   1
   3  -4   3 9.14177 13.9540   8
   3  -4   3 25.1361 17.7096   4
   3  -4   3 13.4937 15.8492   6
   3  -4   4 158.764 18.7717   5
   3  -4   4 186.159 30.2470   9
   3  -4   4 164.432 31.6549   8
   3  -4   4 117.066 30.8210   1
   3  -4   4 85.1323 25.8339   4
   3  -4   4 184.849 33.3751   6
   3  -4   5 431.976 39.8407   9
   3  -4   5 351.542 52.1662   3
   3  -4   5 324.887 44.3207   8
   3  -4   5 373.397 39.1247   4
   3  -4   5 336.802 48.3728   1
   3  -4   5 368.433 46.4706   4
   3  -4   5 266.916 42.2320   6
   3  -4   6 1099.55 94.7443   3
   3  -4   6 989.725 83.1775   8
   3  -4   6 947.185 66.5828   4
   3  -4   6 1102.28 81.4191   4
   3  -4   6 851.587 71.5049   7
   3  -4   6 1113.91 79.3964   3
   3  -4   6 1050.12 87.2461   6
   3  -4   6 1135.89 91.8744  12
   3  -4   6 1142.84 106.971  12
   3  -4   6 958.555 87.3882   1
   3  -4   7 1548.27 114.560   8
   3  -4   7 1595.30 119.283   6
   3  -4   7 1761.79 118.865  12
   3  -4   7 1965.38 140.096  12
   3  -4   7 1491.24 118.865   1
   3  -4   8 658.242 71.3718   1
   3  -3  -7 131.009 35.2915   9
   3  -3  -7 126.084 38.3836   3
   3  -3  -7 124.473 33.4230   1
   3  -3  -7 186.242 46.4419   4
   3  -3  -6 565.179 73.6084  11
   3  -3  -6 584.076 69.8706   5
   3  -3  -6 566.548 67.5874   9
   3  -3  -6 397.351 60.1597   2
   3  -3  -6 479.236 65.5846   3
   3  -3  -6 502.029 63.7894   1
   3  -3  -6 551.315 72.3702   4
   3  -3  -6 619.112 60.4780  12
   3  -3  -5 1576.69 125.074   9
   3  -3  -5 1788.53 130.633   1
   3  -3  -5 1705.69 136.780   4
   3  -3  -5 1575.86 125.136   2
   3  -3  -5 1743.56 120.335  12
   3  -3  -5 1777.24 137.649  11
   3  -3  -4 416.451 57.8664  11
   3  -3  -4 554.181 62.2864   9
   3  -3  -4 366.273 50.4323   2
   3  -3  -4 442.070 57.5774   1
   3  -3  -4 494.958 65.1057   4
   3  -3  -4 466.889 53.4893  12
   3  -3  -3 1377.33 113.957   5
   3  -3  -3 1534.89 118.659   9
   3  -3  -3 1681.43 128.533   4
   3  -3  -3 1847.41 125.669   1
   3  -3  -3 1580.65 112.872   2
   3  -3  -3 1721.52 118.041  12
   3  -3  -3 1486.25 118.381  11
   3  -3  -2 122.593 30.1186   5
   3  -3  -2 121.548 24.9665   2
   3  -3  -2 164.603 34.3815   1
   3  -3  -1 3017.45 174.622   5
   3  -3  -1 2897.72 177.088   9
   3  -3  -1 2422.70 174.817   4
   3  -3  -1 2965.99 179.344   1
   3  -3  -1 2852.38 159.058   2
   3  -3   0 1770.10 116.617   5
   3  -3   0 1812.16 122.741   9
   3  -3   0 1781.78 122.338   8
   3  -3   0 1631.30 122.970   4
   3  -3   1 1665.15 104.300   5
   3  -3   1 1561.10 109.594   9
   3  -3   1 1591.35 111.742   8
   3  -3   1 1582.59 114.161   4
   3  -3   1 1572.60 109.893   6
   3  -3   1 1439.24 111.029   1
   3  -3   2 7533.55 366.681   5
   3  -3   2 7809.75 380.692   9
   3  -3   2 7670.51 383.898   8
   3  -3   2 6572.62 379.448   4
   3  -3   2 7564.51 381.678   6
   3  -3   2 7703.89 388.951   1
   3  -3   3 498.918 38.9166   5
   3  -3   3 535.899 49.9089   9
   3  -3   3 527.575 53.4965   8
   3  -3   3 445.358 52.5987   1
   3  -3   3 453.791 50.8593   4
   3  -3   3 449.213 51.7651   6
   3  -3   4 4397.47 204.176   5
   3  -3   4 4493.08 224.501   9
   3  -3   4 4504.44 226.659   4
   3  -3   4 4128.88 235.388   8
   3  -3   4 4145.29 228.533   7
   3  -3   4 4028.01 232.286   4
   3  -3   4 4337.21 238.536   6
   3  -3   4 3939.28 238.047   1
   3  -3   5 1101.40 68.7260   9
   3  -3   5 1055.32 72.5884   4
   3  -3   5 1123.14 86.5275   8
   3  -3   5 1110.74 81.5245   4
   3  -3   5 990.063 77.7765   7
   3  -3   5 1260.78 82.8074   3
   3  -3   5 1073.27 86.9215   6
   3  -3   5 996.768 86.0566   1
   3  -3   6 693.068 39.2802   9
   3  -3   6 699.838 41.2075   9
   3  -3   6 652.664 64.2345   8
   3  -3   6 696.257 51.0105   4
   3  -3   6 758.962 60.4452   4
   3  -3   6 696.450 60.9066   7
   3  -3   6 812.829 73.4521   6
   3  -3   6 756.844 65.3359  12
   3  -3   6 710.386 56.7186   3
   3  -3   6 632.030 66.1289   1
   3  -3   7 273.987 39.3041  10
   3  -3   7 289.629 43.2037   1
   3  -3   7 368.353 48.9683  12
   3  -3   7 360.406 42.4851   3
   3  -3   7 330.362 28.9017   4
   3  -3   7 354.660 46.1253   8
   3  -3   7 357.231 34.2215   4
   3  -3   7 246.633 36.6857   7
   3  -3   7 310.853 31.2329   3
   3  -3   7 324.749 39.0999  12
   3  -3   7 324.029 47.5921   6
   3  -3   8 35.1380 19.1899   1
   3  -3   8 67.4447 22.5200   8
   3  -3   8 40.1569 19.6712   7
   3  -3   8 45.5700 23.9464   6
   3  -3   9 638.821 69.6852   1
   3  -3   9 739.643 78.5278   6
   3  -2  -8 32.2237 23.9015   9
   3  -2  -8 89.7033 31.3074   4
   3  -2  -7 73.5423 30.0660  11
   3  -2  -7 76.4326 22.6268   3
   3  -2  -7 94.6200 29.0005   5
   3  -2  -7 67.4412 24.9396   9
   3  -2  -7 45.9077 24.2483   2
   3  -2  -7 93.8306 27.7144   3
   3  -2  -7 76.1586 28.2969   4
   3  -2  -7 72.6180 19.8373  12
   3  -2  -6 1419.26 114.008   5
   3  -2  -6 1239.34 105.179   9
   3  -2  -6 1562.39 113.573   1
   3  -2  -6 1330.00 116.073   4
   3  -2  -6 1413.93 115.620   2
   3  -2  -6 1630.80 103.619  12
   3  -2  -5 723.226 73.7603   5
   3  -2  -5 771.877 73.2778   9
   3  -2  -5 914.646 77.8476   1
   3  -2  -5 773.786 79.7529   4
   3  -2  -5 635.368 71.0868   2
   3  -2  -5 815.926 68.4175  12
   3  -2  -4 319.910 47.2440  11
   3  -2  -4 341.278 45.5012   9
   3  -2  -4 301.965 43.9447   2
   3  -2  -4 394.799 48.2133   1
   3  -2  -4 405.050 53.9202   4
   3  -2  -4 380.330 43.7543  12
   3  -2  -3 1383.82 98.1895   9
   3  -2  -3 969.778 94.0617   4
   3  -2  -3 1274.99 95.7215   1
   3  -2  -3 1224.99 91.8822   2
   3  -2  -3 1313.58 91.3992  12
   3  -2  -3 1187.37 96.4451  11
   3  -2  -2 2433.29 154.578   5
   3  -2  -2 2587.03 163.893   4
   3  -2  -2 2660.57 158.971   1
   3  -2  -2 2541.74 150.101   2
   3  -2  -2 2556.01 153.741  12
   3  -2  -2 2570.10 158.984  11
   3  -2  -1 353.074 41.5687   5
   3  -2  -1 306.653 40.6138   9
   3  -2  -1 378.989 45.3222   8
   3  -2  -1 438.380 47.2890   1
   3  -2  -1 382.288 38.1605   2
   3  -2  -1 504.196 49.0970  12
   3  -2   0 1625.62 103.420   5
   3  -2   0 1658.51 108.494   9
   3  -2   0 1643.75 109.353   8
   3  -2   0 1633.78 108.802   6
   3  -2   0 1454.39 107.133   1
   3  -2   1 6013.51 298.230   5
   3  -2   1 5942.93 304.993   9
   3  -2   1 5893.24 308.691   8
   3  -2   1 5956.39 307.458   6
   3  -2   2 3521.87 180.188   5
   3  -2   2 3692.55 190.395   9
   3  -2   2 3636.19 196.812   8
   3  -2   2 3262.87 189.240   7
   3  -2   2 3487.80 194.586   6
   3  -2   2 3331.83 195.992   1
   3  -2   3 1237.65 71.2501   5
   3  -2   3 1294.86 81.4692   9
   3  -2   3 1272.24 90.2371   8
   3  -2   3 1283.62 87.1064   7
   3  -2   3 1309.61 91.1950   6
   3  -2   3 1143.16 88.9169   1
   3  -2   4 4514.32 237.386   1
   3  -2   4 4039.79 197.946   5
   3  -2   4 4881.90 218.345   9
   3  -2   4 4610.97 222.461   4
   3  -2   4 4306.88 233.704   8
   3  -2   4 4497.60 230.048   7
   3  -2   4 4420.01 225.681   3
   3  -2   4 4511.03 237.597   6
   3  -2   4 4382.63 230.681  12
   3  -2   5 134.039 21.8369   3
   3  -2   5 163.149 26.0482  10
   3  -2   5 162.952 17.0156   9
   3  -2   5 151.733 28.8898   8
   3  -2   5 137.903 27.5297   1
   3  -2   5 143.281 21.2952   4
   3  -2   5 114.959 24.9187   7
   3  -2   5 167.152 26.7811  12
   3  -2   5 156.797 31.0634   6
   3  -2   6 37.0828 12.5406   3
   3  -2   6 35.4082 15.4831  10
   3  -2   6 21.5022 13.1110   8
   3  -2   6 2.10527 8.29148   4
   3  -2   6 11.4490 15.5116   7
   3  -2   6-8.44160 13.5639   1
   3  -2   6 30.4292 13.4820  12
   3  -2   6 48.7191 22.1359   6
   3  -2   7 305.223 43.5260  10
   3  -2   7 271.972 27.0293   4
   3  -2   7 295.156 42.2810   8
   3  -2   7 296.936 41.8293   7
   3  -2   7 252.712 25.4903   3
   3  -2   7 263.525 28.7504  12
   3  -2   7 277.391 36.4043  12
   3  -2   7 177.984 33.9969   1
   3  -2   7 201.260 39.2265   6
   3  -2   8 90.2582 27.8834  10
   3  -2   8 86.9068 26.8958   8
   3  -2   8 89.2552 25.2400   7
   3  -2   8 120.866 32.2453   6
   3  -2   8 156.480 31.5707   1
   3  -2   9 122.125 30.1726   1
   3  -2   9 104.826 31.6718  10
   3  -2   9 122.555 31.4536   8
   3  -2   9 98.4609 28.3649   7
   3  -2   9 167.262 38.8169   6
   3  -1  -8 351.054 53.8348   5
   3  -1  -8 302.949 47.3037   4
   3  -1  -7 629.703 62.0697   9
   3  -1  -7 565.304 65.7385   5
   3  -1  -7 643.868 53.8099  12
   3  -1  -7 439.642 54.2804   3
   3  -1  -7 546.696 62.6017   4
   3  -1  -7 677.906 57.1103   3
   3  -1  -7 765.514 80.7973  11
   3  -1  -6 127.885 33.1942  11
   3  -1  -6 117.917 24.1639   3
   3  -1  -6 151.407 31.0762   5
   3  -1  -6 72.6948 22.4068   9
   3  -1  -6 149.210 33.6652   2
   3  -1  -6 97.7907 26.4933   1
   3  -1  -6 150.899 33.4660   4
   3  -1  -6 164.911 26.7740  12
   3  -1  -5 479.851 60.2922  11
   3  -1  -5 473.639 51.6278   9
   3  -1  -5 493.318 54.0715   5
   3  -1  -5 350.111 48.6342   2
   3  -1  -5 464.894 50.8709   1
   3  -1  -5 493.719 57.1121   4
   3  -1  -5 452.933 46.8746   3
   3  -1  -5 509.631 46.9760  12
   3  -1  -4 8184.80 411.878   5
   3  -1  -4 8495.46 411.013   9
   3  -1  -4 8141.64 407.818   1
   3  -1  -4 8193.30 418.689   4
   3  -1  -4 7352.92 409.360   2
   3  -1  -4 8238.30 400.886  12
   3  -1  -3 1466.25 101.036   9
   3  -1  -3 1595.29 109.722   4
   3  -1  -3 1506.53 100.384   1
   3  -1  -3 1304.08 98.0467   2
   3  -1  -3 1492.52 96.5784  12
   3  -1  -2 3132.13 170.823   9
   3  -1  -2 3214.03 170.115   1
   3  -1  -2 2940.98 165.865   2
   3  -1  -2 3186.13 167.751  12
   3  -1  -1 6456.95 332.889   5
   3  -1  -1 6396.10 334.409   1
   3  -1  -1 7172.98 335.972  12
   3  -1   0 7952.28 389.853   5
   3  -1   0 7863.75 392.678   9
   3  -1   0 7489.02 394.454   6
   3  -1   0 8877.03 399.485   1
   3  -1   1 661.065 48.3111   5
   3  -1   1 628.827 50.3558   9
   3  -1   1 634.788 53.6569   8
   3  -1   1 556.453 50.6230   7
   3  -1   1 672.676 54.5838   6
   3  -1   1 601.161 51.4456  12
   3  -1   2 2994.80 149.548   5
   3  -1   2 3066.86 156.995   9
   3  -1   2 2904.07 163.599   8
   3  -1   2 2823.57 160.506   7
   3  -1   2 2779.16 157.858   3
   3  -1   2 2945.10 163.464   6
   3  -1   2 2729.38 158.765  12
   3  -1   3 7512.03 396.621   1
   3  -1   3 7899.10 374.614   5
   3  -1   3 8251.58 383.725   9
   3  -1   3 8573.17 389.978   4
   3  -1   3 8252.88 399.520   8
   3  -1   3 7973.74 394.725   7
   3  -1   3 7901.58 389.586   3
   3  -1   3 7815.56 398.476   6
   3  -1   3 8010.55 391.487  12
   3  -1   4 5479.48 275.045  10
   3  -1   4 5269.32 278.254   1
   3  -1   4 5378.74 257.631   9
   3  -1   4 5074.00 264.306   4
   3  -1   4 5437.63 280.538   8
   3  -1   4 5399.96 276.947   7
   3  -1   4 5247.51 266.416   3
   3  -1   4 5274.46 267.949  12
   3  -1   4 5712.83 284.115   6
   3  -1   5 1046.51 78.9903  10
   3  -1   5 908.065 74.8369   1
   3  -1   5 1024.86 55.4415   9
   3  -1   5 950.027 78.1900   8
   3  -1   5 907.800 64.6091   4
   3  -1   5 990.117 77.4760   7
   3  -1   5 983.903 66.6113  12
   3  -1   5 959.086 80.7588   6
   3  -1   5 1042.73 67.1567   3
   3  -1   6 1866.30 126.407  10
   3  -1   6 1728.31 118.721   1
   3  -1   6 1852.07 124.731   8
   3  -1   6 1849.83 106.508   4
   3  -1   6 1667.97 119.611   7
   3  -1   6 1924.65 103.424  12
   3  -1   6 1869.90 129.196   6
   3  -1   6 1794.82 102.190   3
   3  -1   7 1740.40 125.255  10
   3  -1   7 1459.08 109.898   1
   3  -1   7 1700.20 114.397   2
   3  -1   7 1535.50 116.564   8
   3  -1   7 1633.82 96.9578   4
   3  -1   7 1625.06 88.6645  12
   3  -1   7 1633.22 117.277   7
   3  -1   7 1531.94 121.079   6
   3  -1   7 1658.22 96.1465  12
   3  -1   7 1635.18 89.3585   3
   3  -1   8 378.059 57.7714  10
   3  -1   8 399.419 36.1509   4
   3  -1   8 398.671 53.9133   8
   3  -1   8 460.939 55.9329   7
   3  -1   8 346.948 47.0929   1
   3  -1   8 387.565 51.7892   2
   3  -1   8 381.378 57.2054   6
   3  -1   9 303.737 54.7364  10
   3  -1   9 276.086 47.3028   8
   3  -1   9 214.918 38.9629   1
   3  -1   9 281.173 46.9916   7
   3  -1   9 286.429 48.2140   2
   3  -1   9 249.327 48.9058   6
   3  -1  10 51.8187 29.2576  10
   3  -1  10 67.2793 26.8882   1
   3  -1  10 67.6311 26.7833   8
   3  -1  10 92.6599 35.0691   7
   3   0  -8 111.405 35.2610  11
   3   0  -8 157.216 34.4685   5
   3   0  -8 178.000 30.7083   9
   3   0  -7 138.229 36.0704  11
   3   0  -7 198.489 26.7496   3
   3   0  -7 226.423 38.9574   5
   3   0  -7 209.868 34.0305   9
   3   0  -7 124.874 33.1924   2
   3   0  -7 171.660 30.7461   4
   3   0  -7 226.163 28.5906  12
   3   0  -6 10.9453 15.7313  11
   3   0  -6 15.4149 10.7713   3
   3   0  -6 13.0093 15.8900   5
   3   0  -6 10.7779 13.6636   9
   3   0  -6 5.13119 12.7768   2
   3   0  -6 4.26238 12.2561   4
   3   0  -6 15.6345 11.2405  12
   3   0  -5 2037.19 136.094   5
   3   0  -5 2100.72 132.485   9
   3   0  -5 2019.19 128.263   1
   3   0  -5 2190.11 138.701   4
   3   0  -5 2305.72 127.205   3
   3   0  -5 2197.62 125.296  12
   3   0  -5 2312.78 147.278  11
   3   0  -4 2956.44 177.181   5
   3   0  -4 3017.29 174.552   9
   3   0  -4 3128.11 171.728   1
   3   0  -4 3119.74 180.934   4
   3   0  -4 3191.68 169.282   3
   3   0  -4 3028.97 167.052  12
   3   0  -4 3389.03 188.173  11
   3   0  -3 6788.03 341.564   5
   3   0  -3 6916.32 339.507   9
   3   0  -3 6916.18 333.394  12
   3   0  -3 6713.65 334.407   1
   3   0  -3 5993.32 338.899   2
   3   0  -3 6856.67 334.009   3
   3   0  -3 7162.73 349.811  11
   3   0  -2 1607.97 95.0174   9
   3   0  -2 1410.90 94.4158   8
   3   0  -2 1445.20 89.2851   1
   3   0  -2 1315.60 91.0530   2
   3   0  -2 1446.23 89.8364   3
   3   0  -2 1359.95 87.6324  12
   3   0  -1 2337.32 141.061   5
   3   0  -1 2690.81 147.165   8
   3   0  -1 2673.75 142.184  12
   3   0  -1 2650.93 147.706   6
   3   0  -1 2524.94 141.591   1
   3   0  -1 2696.33 143.019   3
   3   0   0 4884.29 253.689   5
   3   0   0 4818.23 257.219   8
   3   0   0 5644.57 259.200   1
   3   0   1 1742.27 101.162   1
   3   0   1 1787.10 94.8608   5
   3   0   1 1683.15 96.0475   9
   3   0   1 1614.18 96.7068   4
   3   0   1 1437.32 94.1563  12
   3   0   2 12508.9 567.528   5
   3   0   2 12092.9 570.663   9
   3   0   2 12815.7 576.006   4
   3   0   2 12036.7 579.471   7
   3   0   2 12050.0 574.444   3
   3   0   2 11624.5 572.915  12
   3   0   3 376.537 38.3223  10
   3   0   3 437.288 29.9711   5
   3   0   3 355.519 30.6203   9
   3   0   3 376.975 34.9842   4
   3   0   3 386.251 40.2815   8
   3   0   3 404.961 40.1401   7
   3   0   3 415.548 41.7606   6
   3   0   3 448.086 36.4032   3
   3   0   3 354.644 32.9465  12
   3   0   4 11313.0 548.627  10
   3   0   4 11148.2 527.469   9
   3   0   4 11545.5 547.841   1
   3   0   4 11253.0 536.590   4
   3   0   4 11719.2 552.201   8
   3   0   4 11291.6 549.531   7
   3   0   4 10959.6 531.581  12
   3   0   4 12017.6 555.425   6
   3   0   4 11462.4 534.450   3
   3   0   5 2867.42 174.990  10
   3   0   5 2832.51 147.114   9
   3   0   5 2983.30 176.299   8
   3   0   5 3109.15 161.925   4
   3   0   5 3168.87 177.140   7
   3   0   5 3007.73 153.257  12
   3   0   5 3129.71 180.361   6
   3   0   5 3065.62 157.178   3
   3   0   6 2460.97 163.475  10
   3   0   6 2577.98 165.911   6
   3   0   6 2578.82 158.715   2
   3   0   6 2626.62 163.081   8
   3   0   6 2443.51 142.977   4
   3   0   6 2673.54 163.045   7
   3   0   6 2687.29 132.185  12
   3   0   6 2526.03 137.095   3
   3   0   7 225.262 42.5777  10
   3   0   7 218.955 40.3835   8
   3   0   7 277.481 32.8368   4
   3   0   7 239.341 42.6967   7
   3   0   7 318.834 46.3607   2
   3   0   7 262.655 17.8253  12
   3   0   7 237.809 18.4278  12
   3   0   7 249.483 24.9510   3
   3   0   7 285.786 45.7780   6
   3   0   8 457.368 64.5569  10
   3   0   8 470.648 45.6468   4
   3   0   8 505.705 62.7815   8
   3   0   8 399.114 56.7299   7
   3   0   8 440.343 59.9237   2
   3   0   8 479.153 64.6014   6
   3   0   9 156.757 43.1924  10
   3   0   9 195.554 41.5755   8
   3   0   9 129.406 38.4104   7
   3   0   9 128.273 24.4843   4
   3   0   9 163.382 40.0180   2
   3   0   9 97.8315 36.4007   6
   3   0  10 46.8994 33.0286  10
   3   0  10 67.4921 29.5277   8
   3   0  10 7.58776 26.7273   7
   3   0  10 8.12501 23.3751   2
   3   0  10 92.7748 40.2030   6
   3   1  -8 141.579 31.7612   5
   3   1  -8 217.801 31.3562   9
   3   1  -8 158.410 36.6123   2
   3   1  -7 113.355 29.2698  11
   3   1  -7 70.1318 15.0027   3
   3   1  -7 118.327 27.7566   5
   3   1  -7 89.4813 24.1651   9
   3   1  -7 111.800 29.8708   2
   3   1  -7 49.2894 18.0786   4
   3   1  -7 114.248 19.7664  12
   3   1  -6 225.104 37.1251  11
   3   1  -6 199.405 24.1098   3
   3   1  -6 170.270 30.5608   5
   3   1  -6 183.137 28.9428   9
   3   1  -6 143.567 31.8416   2
   3   1  -6 146.723 26.8819   4
   3   1  -6 217.582 26.3787  12
   3   1  -5 4911.28 253.493   5
   3   1  -5 4633.50 244.751   9
   3   1  -5 4535.18 247.522   4
   3   1  -5 4690.65 257.889   2
   3   1  -5 4770.92 240.150  12
   3   1  -5 4724.91 235.844   3
   3   1  -5 4773.32 260.729  11
   3   1  -4 1673.46 104.329   5
   3   1  -4 1521.17 97.6204   9
   3   1  -4 1724.25 94.2316   1
   3   1  -4 1653.78 107.771   2
   3   1  -4 1488.23 91.2704   3
   3   1  -4 1445.67 93.6063  12
   3   1  -3 482.707 46.2095   5
   3   1  -3 544.876 45.2953   9
   3   1  -3 522.513 40.2355   1
   3   1  -3 534.900 41.9608   3
   3   1  -3 494.998 42.4221  12
   3   1  -2 887.164 62.3550  12
   3   1  -2 897.065 66.0761   5
   3   1  -2 984.265 66.4112   9
   3   1  -2 950.984 66.5242   8
   3   1  -2 981.102 59.8844   1
   3   1  -2 929.932 62.4333   3
   3   1  -1 19759.3 930.089   9
   3   1  -1 20696.8 923.969   1
   3   1  -1 21086.8 929.084   4
   3   1  -1 20155.4 930.117   8
   3   1  -1 19484.5 931.297   6
   3   1  -1 19731.2 927.228   3
   3   1  -1 19407.6 927.418  12
   3   1   0 55.3777 12.1490   3
   3   1   0 58.9314 12.9050   5
   3   1   0 45.5242 11.0302   1
   3   1   0 36.9169 11.2316   8
   3   1   0 55.6413 13.4102   4
   3   1   0 35.6944 11.5328   7
   3   1   0 52.2644 12.3871   6
   3   1   1 3875.53 198.131   5
   3   1   1 4356.45 202.977   1
   3   1   1 3501.18 197.065   9
   3   1   1 4271.42 203.868   8
   3   1   1 3935.83 201.348   6
   3   1   2 1075.55 71.8784  10
   3   1   2 1021.72 64.3414   5
   3   1   2 1093.91 66.7002   9
   3   1   2 974.791 65.6402   3
   3   1   2 1226.87 73.7029   1
   3   1   2 996.769 67.1424   4
   3   1   2 1121.72 72.7401   8
   3   1   2 1074.00 71.2046   6
   3   1   2 1054.37 65.6261  12
   3   1   3 2971.65 167.783  10
   3   1   3 3070.90 157.273   9
   3   1   3 3117.86 162.522   4
   3   1   3 2991.54 155.905  12
   3   1   3 3059.49 159.460   3
   3   1   4 920.310 72.2970  10
   3   1   4 851.610 57.4043   9
   3   1   4 863.337 63.8386   4
   3   1   4 928.468 71.8758   7
   3   1   4 920.137 57.5421  12
   3   1   4 936.993 61.8538   3
   3   1   5 867.069 77.0523  10
   3   1   5 896.967 75.2319   2
   3   1   5 811.713 73.9295   8
   3   1   5 900.519 67.1179   4
   3   1   5 992.487 58.7274  12
   3   1   5 949.953 77.7492   7
   3   1   5 990.535 64.5998   3
   3   1   6 5370.99 301.372  10
   3   1   6 5628.43 297.982   2
   3   1   6 5564.67 298.642   8
   3   1   6 5167.23 278.368   4
   3   1   6 5429.53 298.367   7
   3   1   6 5267.10 298.815   6
   3   1   6 5515.68 259.872  12
   3   1   6 5408.51 270.464   3
   3   1   7 89.7388 30.0288  10
   3   1   7 69.3237 15.9347   3
   3   1   7 103.153 28.7178   8
   3   1   7 71.2708 20.1121   4
   3   1   7 75.8992 26.7370   7
   3   1   7 86.6181 27.7196   2
   3   1   7 54.2894 23.9707   6
   3   1   8 974.895 62.1177   3
   3   1   8 952.865 99.2153  10
   3   1   8 982.070 96.7704   2
   3   1   8 952.046 93.6716   8
   3   1   8 903.112 76.0200   4
   3   1   8 958.236 94.4905   7
   3   1   8 1053.98 99.6151   6
   3   1   9 43.2108 27.8362  10
   3   1   9 51.3101 27.9350   8
   3   1   9 22.7242 24.4178   7
   3   1   9 57.8314 21.0798   4
   3   1   9 39.1269 25.2202   2
   3   1   9 55.2221 26.6566   6
   3   1  10 432.229 75.3689  10
   3   1  10 489.452 68.4626   1
   3   1  10 327.643 61.3596   8
   3   1  10 304.064 60.1326   7
   3   1  10 436.820 73.4012   2
   3   2  -8 4.14117 16.2936   5
   3   2  -7 416.364 41.9066   9
   3   2  -7 396.131 45.6837   5
   3   2  -7 404.286 32.2922   4
   3   2  -7 319.265 33.5236   4
   3   2  -7 408.697 38.1648  12
   3   2  -7 388.592 28.8184   3
   3   2  -6 439.891 46.5818   5
   3   2  -6 415.490 41.2491   9
   3   2  -6 416.237 35.0201   4
   3   2  -6 419.883 39.2995   4
   3   2  -6 472.493 42.3871  12
   3   2  -6 470.242 35.5361   3
   3   2  -5 2561.71 149.038   5
   3   2  -5 2576.25 141.815   9
   3   2  -5 2421.59 131.684   4
   3   2  -5 2563.29 139.866   4
   3   2  -5 2496.59 139.413  12
   3   2  -5 2452.84 132.579   3
   3   2  -4 38.3440 12.1648   3
   3   2  -4 65.5248 18.2491   5
   3   2  -4 39.2783 14.0097   9
   3   2  -4 33.8462 10.4056   4
   3   2  -4 47.5818 13.7982  12
   3   2  -3 1340.80 84.8748   5
   3   2  -3 1216.98 78.8933   9
   3   2  -3 1343.73 75.8154   4
   3   2  -3 1290.68 67.3253   1
   3   2  -3 1165.86 78.2057  12
   3   2  -3 1118.38 74.1389   3
   3   2  -2 8576.84 390.401   5
   3   2  -2 8227.47 385.637   9
   3   2  -2 8014.84 379.292   4
   3   2  -2 7756.67 369.216   1
   3   2  -2 7921.80 383.956  12
   3   2  -2 7727.14 380.274   3
   3   2  -1 19389.6 883.652   5
   3   2  -1 19683.2 881.179   9
   3   2  -1 18647.5 874.646   8
   3   2  -1 19569.6 877.094   4
   3   2  -1 19116.9 877.199   6
   3   2  -1 18015.4 878.857  12
   3   2  -1 19577.1 878.112   3
   3   2  -1 18481.9 866.653   1
   3   2   0 1103.05 61.3480   1
   3   2   0 1024.35 66.0468   3
   3   2   0 1007.11 62.6606   8
   3   2   0 1073.17 65.9657   4
   3   2   0 1109.46 66.6122   7
   3   2   0 1086.17 64.1567   6
   3   2   0 812.612 63.9794  12
   3   2   1 5033.43 233.487   8
   3   2   1 4577.53 233.561   4
   3   2   1 5042.99 235.624   7
   3   2   1 4767.63 231.080   6
   3   2   2 16677.5 819.975   9
   3   2   2 19806.2 826.321   8
   3   2   2 18815.0 825.828   7
   3   2   2 19158.5 823.142   6
   3   2   2 16210.9 816.555  12
   3   2   2 16347.1 818.817   3
   3   2   3 1209.31 78.6409   9
   3   2   3 1499.87 89.6309   8
   3   2   3 1125.58 79.6419   4
   3   2   3 1227.78 75.8461  12
   3   2   3 1210.32 84.3097   7
   3   2   3 1306.17 84.8605   6
   3   2   3 1211.69 79.2534   3
   3   2   4 2000.30 118.203   9
   3   2   4 2059.39 130.140   2
   3   2   4 2220.89 132.740   8
   3   2   4 2032.50 124.082   4
   3   2   4 2414.86 134.628   6
   3   2   4 2057.11 115.305  12
   3   2   4 1953.69 120.231   3
   3   2   5 7489.81 413.678  10
   3   2   5 7924.93 413.479   2
   3   2   5 8166.64 403.448   4
   3   2   5 7965.58 387.976  12
   3   2   5 7828.31 397.630   3
   3   2   6 6251.87 328.608  10
   3   2   6 5958.88 322.692   2
   3   2   6 5642.32 306.003   4
   3   2   6 6502.77 328.114   7
   3   2   6 5614.74 284.564  12
   3   2   6 6013.35 299.288   3
   3   2   7 1697.24 134.232  10
   3   2   7 1745.57 133.165   2
   3   2   7 1603.31 128.517   8
   3   2   7 1647.76 116.232   4
   3   2   7 1891.90 136.580   7
   3   2   7 1657.01 106.022   3
   3   2   8 796.122 64.3284   3
   3   2   8 921.124 96.4828  10
   3   2   8 942.201 87.6556   1
   3   2   8 825.567 91.3700   2
   3   2   8 923.675 92.6960   8
   3   2   8 840.290 77.0081   4
   3   2   8 937.230 95.5761   7
   3   2   9 204.814 49.6388  10
   3   2   9 189.397 42.3167   1
   3   2   9 260.379 52.8129   8
   3   2   9 212.350 50.0015   7
   3   2   9 214.044 38.5311   4
   3   2   9 209.669 49.1285   2
   3   2   9 204.950 48.0650   6
   3   2  10 60.8387 31.9156   1
   3   2  10 26.5283 25.4869   8
   3   2  10 36.4530 30.7698   7
   3   2  10 66.5153 32.0774   2
   3   3  -8 65.1260 21.1612   5
   3   3  -7 277.544 37.9455   5
   3   3  -7 299.602 34.5412   9
   3   3  -7 251.511 31.7219  12
   3   3  -6 75.4557 12.9796   3
   3   3  -6 57.3627 18.9289   5
   3   3  -6 60.1854 16.8481   9
   3   3  -6 49.1732 9.40096   4
   3   3  -6 37.8124 9.90190   4
   3   3  -6 71.0335 17.7221  12
   3   3  -5 315.552 36.5183   5
   3   3  -5 292.151 32.6054   9
   3   3  -5 273.130 23.4710   4
   3   3  -5 208.816 23.9390   4
   3   3  -5 251.131 31.8404  12
   3   3  -5 239.790 25.2070   3
   3   3  -4 470.558 45.7663   5
   3   3  -4 521.320 44.5559   9
   3   3  -4 515.030 36.4258   4
   3   3  -4 495.235 44.9498  12
   3   3  -4 460.992 39.4704   3
   3   3  -3 6792.31 317.892   5
   3   3  -3 6537.06 313.194   9
   3   3  -3 6238.37 301.199   4
   3   3  -3 6335.20 314.297  12
   3   3  -3 5769.87 305.524   3
   3   3  -2 1378.87 86.2016   5
   3   3  -2 1367.68 84.0926   9
   3   3  -2 1306.38 76.0545   4
   3   3  -2 1301.82 83.9678  12
   3   3  -2 1115.15 77.7594   3
   3   3  -1 5291.36 257.447   5
   3   3  -1 5042.23 255.440   9
   3   3  -1 4742.95 251.287   3
   3   3  -1 4765.26 239.191   8
   3   3  -1 5341.77 249.551   4
   3   3  -1 5285.79 256.365  12
   3   3   0 14630.7 730.690   5
   3   3   0 16379.3 734.244   9
   3   3   0 15830.7 717.111   8
   3   3   0 15849.2 728.050   4
   3   3   0 15814.2 721.720   7
   3   3   0 15120.4 716.641   6
   3   3   0 15109.9 730.335  12
   3   3   0 16101.9 730.690   3
   3   3   1 1701.05 93.1063   8
   3   3   1 1679.63 99.5634   4
   3   3   1 1576.02 94.0321   7
   3   3   1 1631.94 90.1786   6
   3   3   2 9651.45 463.008  10
   3   3   2 9106.90 462.710   9
   3   3   2 10567.8 462.020   8
   3   3   2 9681.23 455.933   6
   3   3   2 9977.97 461.556   7
   3   3   2 8547.62 458.530  12
   3   3   3 6642.54 319.560  10
   3   3   3 5270.65 310.699   9
   3   3   3 6997.18 321.052   8
   3   3   3 7064.02 321.524   7
   3   3   3 6920.66 316.258   6
   3   3   3 5709.87 309.545  12
   3   3   3 5727.40 313.003   3
   3   3   4 1022.91 81.2128  10
   3   3   4 945.665 76.8533   4
   3   3   4 1173.39 84.9099   7
   3   3   4 1026.79 78.9087   6
   3   3   4 965.301 71.4977  12
   3   3   4 913.194 74.0673   3
   3   3   5 2425.54 155.414  10
   3   3   5 2158.45 151.486   2
   3   3   5 2769.89 159.775   8
   3   3   5 2261.79 146.366   4
   3   3   5 2662.89 159.608   7
   3   3   5 2724.44 157.122   6
   3   3   5 2252.87 134.483  12
   3   3   5 2104.66 140.028   3
   3   3   6 1810.25 132.010   1
   3   3   6 2084.34 145.848   2
   3   3   6 1972.13 141.487   8
   3   3   6 1817.01 131.091   4
   3   3   6 2063.53 129.079   3
   3   3   7 3591.65 214.893   3
   3   3   7 3859.84 231.711   1
   3   3   7 3767.08 241.423   2
   3   3   7 3898.90 228.623   4
   3   3   8 396.590 57.1155   1
   3   3   8 436.986 63.3491   8
   3   3   8 321.449 57.4397   7
   3   3   8 316.111 49.0248   4
   3   3   8 434.403 65.6744   2
   3   3   8 361.374 60.3702   6
   3   3   9 145.581 43.7743  10
   3   3   9 129.476 36.3059   1
   3   3   9 125.769 39.4990   8
   3   3   9 147.442 41.7660   7
   3   3   9 125.585 34.3623   4
   3   3   9 141.629 42.6089   2
   3   3  10 104.888 36.7851   1
   3   3  10 50.9945 26.0864   4
   3   4  -7 275.863 37.0813   5
   3   4  -6 1498.20 82.2351   3
   3   4  -6 1502.20 99.8613   5
   3   4  -6 1480.40 95.7354   9
   3   4  -6 1319.61 96.3519  12
   3   4  -5 1364.91 92.7929   5
   3   4  -5 1316.38 89.8718   9
   3   4  -5 1365.92 71.8716   4
   3   4  -5 1442.42 96.2609  12
   3   4  -5 1368.97 83.3740   3
   3   4  -4 1618.15 103.893   5
   3   4  -4 1644.00 102.640   9
   3   4  -4 1553.12 87.1886   4
   3   4  -4 1584.29 105.456  12
   3   4  -4 1637.14 96.8115   3
   3   4  -3 176.339 25.5078   3
   3   4  -3 211.175 28.5549   9
   3   4  -3 228.871 30.0713   5
   3   4  -3 226.905 23.2692   4
   3   4  -3 193.249 29.6297  12
   3   4  -2 1637.45 105.119   5
   3   4  -2 1695.21 105.829   9
   3   4  -2 1681.05 96.3417   4
   3   4  -2 1617.53 107.393  12
   3   4  -2 1660.02 102.115   3
   3   4  -1 211.664 27.9202   3
   3   4  -1 220.189 29.7748   9
   3   4  -1 172.817 23.2345   4
   3   4  -1 184.653 14.9316   1
   3   4  -1 186.555 27.7326  12
   3   4   0 462.490 43.4536   9
   3   4   0 349.101 25.1124   8
   3   4   0 308.499 33.8420   4
   3   4   0 356.363 28.3153   1
   3   4   0 326.868 27.6701   7
   3   4   0 348.163 23.9557   6
   3   4   0 331.591 37.9168  12
   3   4   0 381.073 39.2298   3
   3   4   1 1438.61 82.0270   8
   3   4   1 1341.36 82.7959   1
   3   4   1 1566.40 95.4685   4
   3   4   1 1476.32 84.3608   7
   3   4   1 1326.21 76.8506   6
   3   4   1 1459.45 95.9044   3
   3   4   2 8967.91 433.123  10
   3   4   2 9780.35 432.408   8
   3   4   2 8910.35 429.024   1
   3   4   2 9168.30 440.499   4
   3   4   2 8557.27 429.759   7
   3   4   2 8934.17 424.120   6
   3   4   2 7874.41 435.681  12
   3   4   3 2527.94 149.390  10
   3   4   3 2794.93 148.635   1
   3   4   3 2780.72 151.607   8
   3   4   3 2821.41 152.876   7
   3   4   3 2622.50 145.687   6
   3   4   3 2208.54 146.402  12
   3   4   3 2091.54 147.104   3
   3   4   4 644.627 61.2159  10
   3   4   4 657.842 64.1701   2
   3   4   4 613.564 57.0657   1
   3   4   4 681.893 62.9075   8
   3   4   4 675.558 63.6950   4
   3   4   4 715.578 64.4232   7
   3   4   4 630.797 58.2397   6
   3   4   4 574.510 55.7171  12
   3   4   4 573.779 59.0424   3
   3   4   5 3004.86 181.948  10
   3   4   5 3209.57 184.611   8
   3   4   5 3169.73 176.930   1
   3   4   5 2576.07 174.334   4
   3   4   5 3056.23 182.947   7
   3   4   5 3178.42 180.382   6
   3   4   5 2492.83 162.477  12
   3   4   5 2656.13 171.418   3
   3   4   6 1180.05 97.8198   3
   3   4   6 1428.91 113.227  10
   3   4   6 1532.60 115.365   8
   3   4   6 1126.86 100.673   4
   3   4   6 1613.22 118.450   7
   3   4   6 1314.36 107.507   6
   3   4   7 816.785 77.0343   3
   3   4   7 904.024 91.4872  10
   3   4   7 1081.37 98.1962   8
   3   4   7 729.821 79.2629   1
   3   4   7 985.427 88.6117   4
   3   4   7 1015.78 97.6200   7
   3   4   7 658.315 83.4895   2
   3   4   7 936.072 90.7937   6
   3   4   8 137.451 43.2905  10
   3   4   8 178.887 43.8789   8
   3   4   8 175.247 39.9970   1
   3   4   8 160.411 37.5791   4
   3   4   8 163.472 42.1446   2
   3   4   8 150.462 41.0849   6
   3   4   9 157.173 47.4509  10
   3   4   9 137.959 38.7460   1
   3   4   9 131.213 36.4143   4
   3   4   9 157.568 45.6660   2
   3   4   9 197.602 49.8375   6
   3   4  10 80.5850 34.2956   4
   3   5  -6 874.960 68.1530   9
   3   5  -5 296.495 36.8480   9
   3   5  -5 304.217 32.5700   3
   3   5  -5 284.616 40.8807  12
   3   5  -4 509.677 49.3848   9
   3   5  -4 468.749 35.8419   4
   3   5  -4 467.679 51.4600  12
   3   5  -4 518.157 46.1497   3
   3   5  -3 2094.01 136.072   9
   3   5  -3 2336.93 125.642   4
   3   5  -3 2445.77 147.368  12
   3   5  -3 2264.49 135.653   3
   3   5  -2 96.5750 21.0674   3
   3   5  -2 42.8638 16.8954   9
   3   5  -2 92.5194 17.6696   4
   3   5  -2 44.8707 17.8335  12
   3   5  -1 558.032 55.7396   9
   3   5  -1 550.670 49.4198   4
   3   5  -1 624.692 38.9654   1
   3   5  -1 615.628 59.5747  12
   3   5  -1 640.848 57.2903   3
   3   5   0 520.325 54.0347   9
   3   5   0 538.881 32.9862   8
   3   5   0 565.951 51.1966   4
   3   5   0 557.653 37.1744   7
   3   5   0 569.992 41.8464   1
   3   5   0 510.032 54.9045  12
   3   5   0 513.250 52.2538   3
   3   5   1 3382.27 168.298   8
   3   5   1 3207.63 185.073   4
   3   5   1 3383.42 174.865   1
   3   5   1 3275.14 169.003   7
   3   5   1 3226.47 159.839   6
   3   5   1 3113.70 188.357   3
   3   5   2 6851.41 336.505  10
   3   5   2 6780.26 332.907   8
   3   5   2 6814.45 325.767   6
   3   5   2 6935.56 349.038   4
   3   5   2 6782.10 335.863   1
   3   5   2 6677.69 333.187   7
   3   5   2 5951.03 345.865  12
   3   5   3 2264.24 131.333  10
   3   5   3 2285.45 131.043   8
   3   5   3 2145.51 138.677   4
   3   5   3 2155.75 129.456   1
   3   5   3 2090.46 129.046   7
   3   5   3 2037.46 122.383   6
   3   5   3 1642.20 128.387  12
   3   5   3 1855.66 133.919   3
   3   5   4 3722.21 214.534  10
   3   5   4 4078.40 219.080   8
   3   5   4 3543.26 211.205   1
   3   5   4 4078.60 220.066   7
   3   5   4 4092.46 213.329   6
   3   5   4 3184.00 215.510   3
   3   5   5 375.020 50.3048  10
   3   5   5 325.027 47.9110   3
   3   5   5 388.262 50.9151   8
   3   5   5 317.350 44.7726   1
   3   5   5 390.930 52.7292   4
   3   5   5 420.574 55.2545   7
   3   5   5 318.137 50.0713   2
   3   5   5 374.712 47.9632   6
   3   5   6 221.378 42.3886  10
   3   5   6 177.691 36.9642   3
   3   5   6 203.338 41.0630   8
   3   5   6 232.690 40.0022   1
   3   5   6 99.3238 32.1592   4
   3   5   6 272.149 47.2150   7
   3   5   6 205.870 41.9963   2
   3   5   6 281.724 45.5875   6
   3   5   7 1121.24 106.471  10
   3   5   7 1105.35 106.981   2
   3   5   7 1239.07 110.098   8
   3   5   7 1000.34 98.9177   4
   3   5   7 1046.99 104.717   7
   3   5   7 974.074 98.8284   6
   3   5   8 797.507 93.4657  10
   3   5   8 989.089 100.745   8
   3   5   8 548.090 75.2486   1
   3   5   8 894.989 96.7876   7
   3   5   8 541.546 74.3298   4
   3   5   8 696.981 85.0189   6
   3   5   9 453.799 69.1146   4
   3   6  -4 362.569 42.1441   3
   3   6  -4 378.906 31.9332   4
   3   6  -3 1230.91 95.0159   3
   3   6  -3 1424.02 85.8950   4
   3   6  -3 1292.49 101.687  12
   3   6  -2 500.492 52.9444   3
   3   6  -2 531.427 31.9653   1
   3   6  -2 469.255 45.7879   4
   3   6  -2 444.839 55.0381  12
   3   6  -1 2766.38 175.678   3
   3   6  -1 3040.67 170.900   4
   3   6  -1 2980.57 185.164  12
   3   6  -1 3039.12 153.118   1
   3   6   0 1229.43 63.3646   8
   3   6   0 1281.17 63.3085   8
   3   6   0 1169.52 89.2237   4
   3   6   0 1229.99 67.0417   7
   3   6   0 1154.27 77.5404   1
   3   6   0 1131.95 96.3084  12
   3   6   0 1219.46 95.4491   3
   3   6   1 494.825 54.7320   3
   3   6   1 399.240 34.5756   8
   3   6   1 430.200 35.5399   7
   3   6   1 411.192 41.0764   1
   3   6   1 377.916 47.1301   4
   3   6   1 416.388 27.0841   6
   3   6   2 1559.90 120.494   3
   3   6   2 1604.41 105.387  10
   3   6   2 1689.33 104.851   8
   3   6   2 1703.26 120.590   4
   3   6   2 1576.66 102.948   7
   3   6   2 1790.77 111.175   1
   3   6   2 1778.42 97.1349   6
   3   6   3 1690.24 117.344  10
   3   6   3 2065.79 123.821   8
   3   6   3 1864.47 132.549   4
   3   6   3 1761.22 120.682   1
   3   6   3 1877.07 120.220   7
   3   6   3 1848.77 112.798   6
   3   6   4 411.426 49.0350  10
   3   6   4 423.233 56.0903   3
   3   6   4 402.047 50.2609   8
   3   6   4 471.887 53.5474   7
   3   6   4 309.208 44.8868   1
   3   6   4 494.757 49.9990   6
   3   6   5 1122.25 109.136   3
   3   6   5 1547.68 115.929  10
   3   6   5 1541.51 121.511   2
   3   6   5 1627.86 119.718   8
   3   6   5 1269.61 115.424   4
   3   6   5 1643.53 117.331   1
   3   6   5 1633.63 119.946   7
   3   6   5 1507.55 110.243   6
   3   6   6 1129.13 99.6613  10
   3   6   6 1118.28 104.208   2
   3   6   6 1097.29 100.247   8
   3   6   6 835.381 94.3678   4
   3   6   6 1017.01 94.3576   1
   3   6   6 1190.54 103.700   7
   3   6   6 951.828 90.4815   6
   3   6   7 747.348 89.2121  10
   3   6   7 1181.87 107.333   8
   3   6   7 893.206 92.4950   1
   3   6   7 1069.01 104.167   7
   3   6   7 767.589 91.6823   4
   3   6   7 795.722 95.0793   2
   3   6   7 1016.87 96.8425   6
   3   6   8 457.253 71.0446  10
   3   6   8 354.427 66.1943   8
   3   6   8 432.017 71.5287   7
   3   6   8 354.945 62.6571   4
   3   6   8 331.628 64.4460   2
   3   6   8 598.445 76.7302   6
   3   7  -3 810.018 62.6333   4
   3   7  -2 152.338 18.1829   1
   3   7  -2 186.757 35.4199   3
   3   7  -2 98.8468 23.5433   4
   3   7  -1 664.889 70.5066   3
   3   7  -1 764.745 67.8111   4
   3   7  -1 778.466 54.6328   1
   3   7   0 1071.50 94.7292   3
   3   7   0 1021.01 88.3352   4
   3   7   0 1300.58 81.9798   1
   3   7   1 401.878 43.6961   1
   3   7   1 361.993 32.9941   8
   3   7   1 422.589 54.6953   3
   3   7   1 357.854 33.2603   8
   3   7   1 465.638 36.1211   7
   3   7   1 368.306 49.1222   4
   3   7   2 1165.70 103.531   3
   3   7   2 1178.18 82.9149   8
   3   7   2 1280.24 104.183   4
   3   7   2 1291.52 83.6084   7
   3   7   2 1114.43 88.7824   1
   3   7   2 1209.56 73.0870   6
   3   7   3 737.116 62.4404  10
   3   7   3 604.125 59.3405   8
   3   7   3 627.101 59.8804   7
   3   7   3 587.049 69.6710   4
   3   7   3 683.464 54.7658   6
   3   7   3 518.854 59.4849   1
   3   7   4 1224.78 94.8187  10
   3   7   4 1278.67 98.2634   8
   3   7   4 1060.23 103.915   4
   3   7   4 1190.94 96.0857   7
   3   7   4 1158.26 96.9750   1
   3   7   4 1226.02 89.5670   6
   3   7   5 584.834 65.5350  10
   3   7   5 689.259 72.5285   8
   3   7   5 689.905 72.7793   1
   3   7   5 635.717 70.7060   7
   3   7   5 564.014 63.1182   6
   3   7   6 447.907 61.5759  10
   3   7   6 451.346 63.5835   8
   3   7   6 557.117 69.7632   7
   3   7   6 373.063 62.8318   4
   3   7   6 429.817 66.3622   2
   3   7   6 502.602 66.4954   1
   3   7   6 504.717 61.6913   6
   3   7   7 620.478 78.8729  10
   3   7   7 618.000 81.7542   8
   3   7   7 758.079 88.8245   7
   3   7   7 814.529 93.4182   2
   3   7   7 674.110 79.7700   6
   3   8  -2 218.070 34.0109   4
   3   8  -1 80.4089 17.6907   1
   3   8  -1 46.4838 21.3297   4
   3   8   0 67.3697 18.6757   1
   3   8   0 67.5368 24.9387   4
   3   8   1 147.400 28.6346   1
   3   8   1 137.083 19.5916   8
   3   8   1 175.627 22.0127   8
   3   8   1 174.467 20.1417   7
   3   8   1 138.008 34.2962   4
   3   8   2 27.3426 15.3880   1
   3   8   2 25.2530 12.1367   8
   3   8   2 31.0809 15.8201   8
   3   8   2 16.9468 12.2164   7
   3   8   2 12.5826 18.1054   4
   3   8   2 17.9918 8.61367   6
   3   8   2 28.2968 8.80296   6
   3   8   3 394.213 43.7534  10
   3   8   3 249.821 41.9217   1
   3   8   3 324.635 40.1974   8
   3   8   3 336.837 43.2812   8
   3   8   3 304.717 41.3954   7
   3   8   3 227.912 47.1142   4
   3   8   3 378.545 36.7602   6
   3   8   3 288.113 33.8676   6
   3   8   4 527.134 64.3192   1
   3   8   4 504.316 56.9495  10
   3   8   4 475.999 55.6456   8
   3   8   4 480.863 57.2097   8
   3   8   4 588.759 61.8633   7
   3   8   4 548.528 74.3905   4
   3   8   4 476.648 51.3327   6
   3   8   5 156.844 38.2359   1
   3   8   5 116.934 31.6615  10
   3   8   5 138.307 34.0564   8
   3   8   5 200.417 38.8649   7
   3   8   5 196.254 45.9395   4
   3   8   5 105.329 27.3866   6
   3   8   6 80.1284 29.7174  10
   3   8   6 139.678 37.8141   8
   3   8   6 62.2174 28.4549   7
   3   8   6 162.068 36.9991   6
   3   8   7 247.296 50.4517  10
   3   9   0 29.0812 20.5088   4
   3   9   1 135.161 29.6850   1
   3   9   1 76.8878 28.7632   4
   3   9   2 152.486 33.5057   1
   3   9   2 91.1911 32.3280   4
   3   9   3 508.107 62.0166   1
   4  -6   0 783.793 87.3533   5
   4  -5  -2 1278.47 116.274   5
   4  -5  -1 6.38961 20.5265   5
   4  -5  -1-7.35681 22.4207   9
   4  -5  -1 8.33556 20.7420   4
   4  -5   0 109.893 31.2822   5
   4  -5   0 84.3092 31.3019   9
   4  -5   0 78.9733 31.2632   4
   4  -5   0 48.0227 25.9435   1
   4  -5   1 288.596 54.5616   1
   4  -5   1 312.220 47.0654   5
   4  -5   1 376.058 59.1060   9
   4  -5   1 337.865 56.9168   4
   4  -5   2 273.225 52.7546   1
   4  -5   2 270.180 40.7062   5
   4  -5   2 331.625 51.9361   9
   4  -5   2 320.265 53.4485   8
   4  -5   2 257.312 50.3984   4
   4  -5   3 679.668 73.3557   9
   4  -5   3 575.732 77.2005   1
   4  -5   3 663.876 74.1048   8
   4  -5   3 698.426 80.3502   4
   4  -5   3 610.336 72.0247   6
   4  -5   4 295.270 45.2730   9
   4  -5   4 194.155 45.0705   1
   4  -5   4 297.912 56.0773   3
   4  -5   4 326.251 50.5982   8
   4  -5   4 367.636 55.6687   4
   4  -5   4 283.604 54.2837  12
   4  -5   4 267.346 46.1579   6
   4  -5   5 73.0185 27.5867   3
   4  -5   5 143.193 40.5567   3
   4  -5   5 51.4320 24.1898   8
   4  -5   5 119.284 36.5128  12
   4  -5   5 64.0695 26.6908   6
   4  -4  -4 621.341 71.4028   2
   4  -4  -4 662.658 74.0143  12
   4  -4  -3 6.51266 17.5039   5
   4  -4  -3-8.32905 23.9311   4
   4  -4  -3 7.30365 18.1736   1
   4  -4  -3 18.3838 20.6459  12
   4  -4  -2 96.8171 29.7098   5
   4  -4  -2 85.4820 30.0997   9
   4  -4  -2 78.6870 30.1878   1
   4  -4  -2 68.2788 28.4396  12
   4  -4  -1 328.214 48.7184   5
   4  -4  -1 214.105 42.9858   9
   4  -4  -1 281.549 52.1459   4
   4  -4  -1 369.913 54.8588  12
   4  -4  -1 294.654 52.5384   1
   4  -4   0 822.346 77.8061   5
   4  -4   0 831.983 83.7817   9
   4  -4   0 814.784 85.3747   8
   4  -4   0 759.289 85.0570   4
   4  -4   1 181.940 40.5313   1
   4  -4   1 177.888 33.3305   5
   4  -4   1 163.319 35.9627   9
   4  -4   1 142.073 35.6408   8
   4  -4   1 98.2098 32.6662   4
   4  -4   1 202.356 41.7312  12
   4  -4   2 614.162 59.2394   5
   4  -4   2 607.285 67.6151   9
   4  -4   2 719.085 74.9299   8
   4  -4   2 757.705 80.0080   1
   4  -4   2 619.234 72.1045   4
   4  -4   2 655.814 74.6011  12
   4  -4   2 607.582 69.9220   6
   4  -4   3 79.4426 19.1377   5
   4  -4   3 65.5569 23.9704   9
   4  -4   3 77.3396 28.6933   1
   4  -4   3 102.235 29.5706   8
   4  -4   3 52.9507 22.5605   4
   4  -4   3 99.7264 32.4224  12
   4  -4   3 28.2349 20.0943   6
   4  -4   4 191.987 23.8146   5
   4  -4   4 159.173 31.5356   9
   4  -4   4 126.855 32.7230   8
   4  -4   4 157.990 37.2163   1
   4  -4   4 222.447 35.1721   4
   4  -4   4 179.802 37.8759   4
   4  -4   4 219.488 44.5442  12
   4  -4   4 206.148 40.4462   6
   4  -4   5 187.498 36.4038   3
   4  -4   5 294.450 36.5066   9
   4  -4   5 216.526 40.3372   8
   4  -4   5 179.621 31.9286   4
   4  -4   5 317.817 50.2936   1
   4  -4   5 182.286 37.2839   4
   4  -4   5 252.547 45.5885  12
   4  -4   5 117.712 32.0193   6
   4  -4   6 78.0283 25.4123   3
   4  -4   6 66.2704 27.0367   3
   4  -4   6 37.5357 19.7891   8
   4  -4   6 37.1929 21.9476   1
   4  -4   6 55.2806 23.9479  12
   4  -4   6 68.3371 27.2417   6
   4  -4   7 182.641 37.5607   8
   4  -4   7 180.559 40.3848   1
   4  -4   7 198.906 42.0243   6
   4  -3  -6 194.860 40.9219   3
   4  -3  -6 247.403 49.0112   3
   4  -3  -6 254.579 42.1739  12
   4  -3  -5 183.196 38.5873   9
   4  -3  -5 164.079 38.5496   2
   4  -3  -5 214.127 42.7670   1
   4  -3  -5 137.199 38.1989   4
   4  -3  -5 112.226 29.2109  12
   4  -3  -4 80.0620 27.9262   5
   4  -3  -4 152.372 36.0724   9
   4  -3  -4 157.698 34.8511   2
   4  -3  -4 203.165 41.7326   1
   4  -3  -4 108.450 36.5595   4
   4  -3  -4 150.030 33.3670  12
   4  -3  -3 354.558 53.3273   5
   4  -3  -3 393.937 55.9553   9
   4  -3  -3 523.686 57.3133   2
   4  -3  -3 301.256 55.1603   4
   4  -3  -3 358.023 54.2880   1
   4  -3  -3 437.991 54.8278  12
   4  -3  -2 1124.72 99.4705   5
   4  -3  -2 1283.52 107.699   1
   4  -3  -2 1416.39 107.005  12
   4  -3  -1 1744.68 125.351   5
   4  -3  -1 1833.37 132.508   9
   4  -3  -1 1644.96 134.080   4
   4  -3  -1 1934.80 137.632   1
   4  -3  -1 1842.71 131.119  12
   4  -3   0 182.155 33.3585   5
   4  -3   0 171.543 34.2749   9
   4  -3   0 113.807 30.2324   8
   4  -3   0 139.107 33.1989   4
   4  -3   1 1285.60 90.0292   5
   4  -3   1 1151.51 94.1336   9
   4  -3   1 1244.09 100.740   8
   4  -3   1 1119.77 98.2121   4
   4  -3   1 1057.51 94.6296   6
   4  -3   1 1108.94 96.0102  12
   4  -3   2 181.496 30.2537   5
   4  -3   2 277.038 40.2228   9
   4  -3   2 325.370 45.8152   8
   4  -3   2 225.591 40.2431   1
   4  -3   2 177.310 37.4251  12
   4  -3   2 294.738 43.9395   6
   4  -3   3 366.068 35.9302   5
   4  -3   3 322.663 43.2959   9
   4  -3   3 456.138 53.5757   8
   4  -3   3 367.873 51.3869   1
   4  -3   3 344.252 48.3599  12
   4  -3   3 352.495 48.6709   6
   4  -3   4 280.762 41.5996   3
   4  -3   4 292.055 26.2143   5
   4  -3   4 293.791 37.7419   9
   4  -3   4 273.803 42.5813   8
   4  -3   4 285.718 37.5586   4
   4  -3   4 260.505 38.6889   7
   4  -3   4 221.276 40.3235   1
   4  -3   4 190.246 37.5389  12
   4  -3   4 238.019 41.4318   6
   4  -3   5 241.531 38.4892   3
   4  -3   5 350.779 36.0781   9
   4  -3   5 316.259 46.3081   8
   4  -3   5 324.359 38.3608   4
   4  -3   5 279.451 38.4627   7
   4  -3   5 388.628 49.6467  12
   4  -3   5 220.988 41.9429   1
   4  -3   5 314.270 47.5725   6
   4  -3   6 884.712 56.3362   9
   4  -3   6 825.034 78.2807   8
   4  -3   6 820.359 64.6218   4
   4  -3   6 880.278 75.0413   4
   4  -3   6 793.645 72.0410   7
   4  -3   6 875.455 82.6001   6
   4  -3   6 817.300 74.9342  12
   4  -3   6 839.714 70.7967   3
   4  -3   6 773.970 78.9393   1
   4  -3   7 414.241 56.9287   1
   4  -3   7 480.350 58.5019   8
   4  -3   7 546.192 56.5850   7
   4  -3   7 473.807 53.4057  12
   4  -3   7 536.905 64.1174   6
   4  -3   8 58.4217 25.5232   1
   4  -3   8 115.989 30.5023   8
   4  -3   8 125.494 33.9862   6
   4  -2  -7 40.8994 22.2840   1
   4  -2  -6 23.7468 17.4608   3
   4  -2  -6 51.8922 23.4770   9
   4  -2  -6 6.56271 17.7029   2
   4  -2  -6 56.6744 23.7855   1
   4  -2  -6 50.5885 28.4730   4
   4  -2  -6 43.3999 20.2597  12
   4  -2  -5 104.137 28.2627   3
   4  -2  -5 75.6719 28.3725   5
   4  -2  -5 165.851 35.5776   9
   4  -2  -5 172.243 36.6914   2
   4  -2  -5 193.436 33.9506  12
   4  -2  -5 137.744 32.2215   1
   4  -2  -5 126.739 36.9581   4
   4  -2  -4 374.591 52.5040   9
   4  -2  -4 424.405 54.3813   2
   4  -2  -4 459.268 56.0263   1
   4  -2  -4 505.679 66.3845   4
   4  -2  -4 414.624 51.0013  12
   4  -2  -3 868.990 86.1292   5
   4  -2  -3 1187.87 95.3174   9
   4  -2  -3 1152.13 103.436   4
   4  -2  -3 1238.80 97.0710   1
   4  -2  -3 1098.78 90.0817   2
   4  -2  -3 1197.26 92.1918  12
   4  -2  -2 2032.52 139.556   5
   4  -2  -2 2190.91 153.501   4
   4  -2  -2 2140.32 144.472   1
   4  -2  -2 2209.11 141.339  12
   4  -2  -1 1747.69 118.365   5
   4  -2  -1 1674.78 118.666   9
   4  -2  -1 1418.19 117.328   8
   4  -2  -1 1923.22 127.054   1
   4  -2  -1 1790.86 120.520  12
   4  -2   0 14.8189 14.6310   5
   4  -2   0 38.1084 18.2933   9
   4  -2   0 19.3824 16.3751   1
   4  -2   0 34.2897 17.9867   8
   4  -2   0 48.2108 20.2326   6
   4  -2   1 919.322 69.8725   5
   4  -2   1 938.185 75.1152   9
   4  -2   1 825.484 75.7854   8
   4  -2   1 874.568 77.3600   6
   4  -2   1 852.943 75.6557  12
   4  -2   2 383.191 37.4927   5
   4  -2   2 398.749 43.7385   9
   4  -2   2 267.558 40.6679   8
   4  -2   2 382.607 47.1731  12
   4  -2   2 322.253 44.1486   6
   4  -2   3 1848.36 107.134   5
   4  -2   3 1877.22 117.748   9
   4  -2   3 2031.16 121.848   4
   4  -2   3 1921.99 128.522   8
   4  -2   3 1762.90 121.820   7
   4  -2   3 1871.05 122.781   3
   4  -2   3 1765.01 125.925   6
   4  -2   3 1864.22 125.076  12
   4  -2   3 1831.73 128.617   1
   4  -2   4 434.561 46.5645   3
   4  -2   4 368.520 48.5354   1
   4  -2   4 403.514 30.5541   5
   4  -2   4 386.923 38.9141   9
   4  -2   4 388.656 48.9824   8
   4  -2   4 401.202 43.0320   4
   4  -2   4 354.653 44.3537   7
   4  -2   4 471.619 50.6399  12
   4  -2   4 349.340 48.2319   6
   4  -2   5 561.436 61.2825   1
   4  -2   5 536.874 43.8342   9
   4  -2   5 565.313 50.6793   4
   4  -2   5 518.169 58.6022   8
   4  -2   5 537.180 56.6715   7
   4  -2   5 663.046 66.2202   6
   4  -2   5 591.915 54.6679   3
   4  -2   5 518.427 55.0583  12
   4  -2   6 1213.00 101.151   1
   4  -2   6 1286.47 74.4801   9
   4  -2   6 1424.73 106.949   8
   4  -2   6 1329.32 88.2632   4
   4  -2   6 1205.64 96.8884   7
   4  -2   6 1363.64 108.601   6
   4  -2   6 1439.43 96.3602  12
   4  -2   6 1456.26 92.6067   3
   4  -2   7 297.147 43.1168  10
   4  -2   7 333.134 35.7808   3
   4  -2   7 335.828 49.1132   8
   4  -2   7 288.237 45.6450   1
   4  -2   7 361.633 37.7720   4
   4  -2   7 291.810 43.3783   7
   4  -2   7 305.377 36.9956  12
   4  -2   7 393.468 54.4389   6
   4  -2   8 224.711 42.1756  10
   4  -2   8 271.346 44.7693   8
   4  -2   8 246.725 42.0558   1
   4  -2   8 226.616 40.2031   7
   4  -2   8 284.909 49.1703   6
   4  -2   9 253.226 46.2757   8
   4  -2   9 243.237 45.3532   1
   4  -2   9 296.945 46.5689   7
   4  -2   9 323.837 55.8533   6
   4  -1  -7 416.094 54.1246   9
   4  -1  -7 232.391 46.3437   4
   4  -1  -6 173.136 31.1682   3
   4  -1  -6 202.975 39.5007   5
   4  -1  -6 121.110 31.9938   9
   4  -1  -6 184.658 38.7027   2
   4  -1  -6 166.976 32.9353   1
   4  -1  -6 99.4576 32.9854   4
   4  -1  -6 187.042 33.2242  12
   4  -1  -5 216.015 34.4957   3
   4  -1  -5 204.123 38.4771   5
   4  -1  -5 184.162 35.7619   9
   4  -1  -5 222.895 40.0637   2
   4  -1  -5 124.466 29.6387   1
   4  -1  -5 199.763 40.2171   4
   4  -1  -5 167.248 31.2498  12
   4  -1  -4 70.9853 22.4615   3
   4  -1  -4 48.1676 19.7505   5
   4  -1  -4 68.9234 22.0528   9
   4  -1  -4 84.8543 25.4902   2
   4  -1  -4 70.6214 22.5745   1
   4  -1  -4 40.6647 21.4413   4
   4  -1  -4 45.2751 18.1709  12
   4  -1  -3 1019.26 81.9979   9
   4  -1  -3 1008.02 89.1821   4
   4  -1  -3 945.664 78.2879   1
   4  -1  -3 823.980 76.0344   2
   4  -1  -3 902.170 75.5952   3
   4  -1  -3 924.370 75.7602  12
   4  -1  -2 4823.94 274.086   5
   4  -1  -2 4742.62 273.727   9
   4  -1  -2 5376.99 277.315   1
   4  -1  -2 5358.82 275.264   3
   4  -1  -2 5377.35 274.000  12
   4  -1  -1 4003.43 229.855   5
   4  -1  -1 4514.72 236.807   1
   4  -1  -1 4237.21 232.729   3
   4  -1  -1 4323.69 232.829  12
   4  -1   0 3290.90 175.773   5
   4  -1   0 3018.80 176.043   9
   4  -1   0 3516.89 184.609   1
   4  -1   1 542.554 49.3628   5
   4  -1   1 571.614 53.0217   9
   4  -1   1 664.030 59.7435   8
   4  -1   1 604.649 57.6397   6
   4  -1   1 612.939 55.8918   3
   4  -1   1 561.764 54.6176  12
   4  -1   1 566.256 56.6037   1
   4  -1   2 1280.59 81.7285   5
   4  -1   2 1165.16 85.0524   9
   4  -1   2 1352.50 96.8255   8
   4  -1   2 1354.09 94.7293   7
   4  -1   2 1307.15 94.9132   6
   4  -1   2 1390.80 93.2049   3
   4  -1   2 1260.63 90.0628  12
   4  -1   3 1221.18 74.6369   5
   4  -1   3 1278.42 82.4450   9
   4  -1   3 1103.57 82.8011   4
   4  -1   3 1240.63 92.9480   8
   4  -1   3 1253.15 91.0686   7
   4  -1   3 1289.22 93.7475   6
   4  -1   3 1281.38 88.6039   3
   4  -1   3 1226.40 87.2198  12
   4  -1   4 2231.15 144.336   1
   4  -1   4 2185.05 116.948   5
   4  -1   4 2331.40 127.871   9
   4  -1   4 2267.02 134.085   4
   4  -1   4 2249.82 145.285   8
   4  -1   4 2548.06 146.887   7
   4  -1   4 2368.31 148.423   6
   4  -1   4 2225.92 135.483   3
   4  -1   4 2400.62 138.412  12
   4  -1   5 2579.69 157.044  10
   4  -1   5 2523.73 160.016   1
   4  -1   5 2583.98 137.049   9
   4  -1   5 2521.90 146.950   4
   4  -1   5 2753.30 165.040   8
   4  -1   5 2560.68 159.282   7
   4  -1   5 2712.58 167.283   6
   4  -1   5 2740.85 150.351  12
   4  -1   5 2430.60 146.757   3
   4  -1   6 555.547 57.1727  10
   4  -1   6 351.310 48.3807   1
   4  -1   6 412.629 31.3028   9
   4  -1   6 467.956 44.3687   4
   4  -1   6 405.107 52.3678   8
   4  -1   6 450.726 52.9135   7
   4  -1   6 481.971 43.9469  12
   4  -1   6 467.291 43.5700   3
   4  -1   6 442.364 55.9708   6
   4  -1   7 134.729 31.7372  10
   4  -1   7 119.065 21.0258   3
   4  -1   7 74.4100 25.5556   1
   4  -1   7 92.4151 28.4802   8
   4  -1   7 68.9905 18.2738   4
   4  -1   7 86.5739 25.7009   7
   4  -1   7 111.935 20.0797  12
   4  -1   7 85.1065 28.6193   6
   4  -1   8 304.921 49.4486  10
   4  -1   8 245.559 27.7731   3
   4  -1   8 206.498 40.0364   1
   4  -1   8 254.057 45.5267   8
   4  -1   8 278.711 27.2530  12
   4  -1   8 236.757 31.6024   4
   4  -1   8 229.384 41.3545   7
   4  -1   8 241.973 48.6338   6
   4  -1   9 14.2076 22.8200  10
   4  -1   9 6.43070 19.5977   8
   4  -1   9-5.69012 17.3409   1
   4  -1   9-6.12435 19.6737   7
   4  -1   9 7.40085 19.8910   6
   4  -1  10 96.1510 36.5711  10
   4  -1  10 66.6020 29.7009   7
   4   0  -7 65.8081 25.6884   5
   4   0  -7 50.1017 22.8464   9
   4   0  -7 78.9882 26.3615   4
   4   0  -6 23.2954 13.5867   3
   4   0  -6 30.5461 19.3954   5
   4   0  -6 43.8651 18.9510   9
   4   0  -6 39.0389 18.2210   1
   4   0  -6 26.2319 17.7249   4
   4   0  -6 24.0997 13.1522  12
   4   0  -5 6.70421 11.3038   3
   4   0  -5 4.71168 15.8814   5
   4   0  -5 8.35437 13.4270   9
   4   0  -5 10.4750 13.0411   2
   4   0  -5 14.9295 13.1427   1
   4   0  -5 10.2724 13.8125   4
   4   0  -5 20.2886 14.5811  12
   4   0  -4 1801.67 129.767   5
   4   0  -4 1881.51 128.138   9
   4   0  -4 2013.63 126.138   1
   4   0  -4 1865.52 134.702   4
   4   0  -4 2243.99 128.399   3
   4   0  -4 2148.44 126.459  12
   4   0  -3 1137.26 86.3289   9
   4   0  -3 1162.67 82.6445   1
   4   0  -3 1107.53 81.2372   3
   4   0  -3 1096.22 80.7636  12
   4   0  -2 5892.31 288.408   9
   4   0  -2 5392.28 280.657  12
   4   0  -2 5284.04 288.189   8
   4   0  -2 5329.58 280.312   1
   4   0  -2 5414.97 281.574   3
   4   0  -1 8608.79 466.495   5
   4   0  -1 9730.37 474.821   8
   4   0  -1 9684.23 476.117   6
   4   0  -1 9748.99 468.687   1
   4   0  -1 9979.90 469.799   3
   4   0  -1 9930.30 469.114  12
   4   0   0 1799.14 110.528   5
   4   0   0 1787.67 112.098   9
   4   0   0 2026.09 118.867   8
   4   0   0 1547.81 108.977   3
   4   0   0 1905.23 114.324   1
   4   0   1 1868.68 107.056   5
   4   0   1 1770.65 108.625   9
   4   0   1 1691.21 108.127   4
   4   0   1 1648.57 111.222   7
   4   0   1 1509.80 105.295  12
   4   0   2 858.624 65.6175   1
   4   0   2 717.261 53.6468   5
   4   0   2 684.222 55.0868   9
   4   0   2 741.877 58.9031   4
   4   0   2 719.430 61.4980   7
   4   0   2 701.902 58.2519   3
   4   0   2 752.449 58.3080  12
   4   0   3 543.566 40.6765   5
   4   0   3 555.955 44.7991   9
   4   0   3 584.458 49.0924   4
   4   0   3 590.667 55.0300   8
   4   0   3 515.746 50.9749   7
   4   0   3 472.840 44.2757  12
   4   0   3 514.341 46.5601   3
   4   0   3 382.206 46.7251   6
   4   0   4 4375.79 233.698  10
   4   0   4 4017.49 215.897   9
   4   0   4 4467.34 225.339   4
   4   0   4 4303.55 236.622   8
   4   0   4 4273.69 234.257   7
   4   0   4 4365.96 237.874   6
   4   0   4 4293.23 222.112  12
   4   0   4 4183.66 222.697   3
   4   0   5 3019.78 184.642  10
   4   0   5 3007.98 182.903   1
   4   0   5 3047.68 161.663   9
   4   0   5 3264.76 189.031   8
   4   0   5 3204.50 173.560   4
   4   0   5 3151.13 186.229   7
   4   0   5 3165.56 190.372   6
   4   0   5 3093.32 168.042  12
   4   0   5 3251.32 171.916   3
   4   0   6 866.095 76.2451  10
   4   0   6 719.836 55.8718   3
   4   0   6 609.257 44.4140   9
   4   0   6 658.495 65.1435   1
   4   0   6 676.728 69.2053   8
   4   0   6 652.001 57.0400   4
   4   0   6 810.812 73.1751   7
   4   0   6 742.672 73.6952   6
   4   0   6 733.629 52.9363  12
   4   0   7 17.7181 18.0093  10
   4   0   7 23.0247 13.0089   3
   4   0   7-4.89020 14.0643   1
   4   0   7 11.2980 17.2264   8
   4   0   7 33.3171 15.5219   4
   4   0   7 11.0062 17.6886   7
   4   0   7 17.9310 9.29538  12
   4   0   7 18.5009 19.8201   6
   4   0   8 102.120 32.0029  10
   4   0   8 93.8690 17.4158   3
   4   0   8 79.7171 26.2705   1
   4   0   8 93.9499 30.1727   8
   4   0   8 80.9425 21.3152   4
   4   0   8 134.687 34.3527   7
   4   0   8 109.855 14.3103  12
   4   0   8 96.9117 32.5298   6
   4   0   9 419.642 66.0066  10
   4   0   9 411.623 56.9850   1
   4   0   9 394.095 61.4181   8
   4   0   9 441.116 63.0907   7
   4   0   9 478.535 69.2430   6
   4   0  10 69.7134 25.9628   1
   4   0  10 140.472 44.7145  10
   4   0  10 52.2451 27.5354   7
   4   1  -7 155.597 35.8945   5
   4   1  -7 189.355 34.2348   9
   4   1  -7 217.219 31.5148   4
   4   1  -7 157.918 31.1262   4
   4   1  -6 155.832 25.3847   3
   4   1  -6 121.204 30.5299   5
   4   1  -6 127.469 27.5447   9
   4   1  -6 121.492 28.1561   4
   4   1  -6 125.629 24.9800  12
   4   1  -5 133.724 23.0783   3
   4   1  -5 107.331 25.2326   5
   4   1  -5 128.328 26.8636   9
   4   1  -5 129.813 23.5369   1
   4   1  -5 120.115 26.6772   4
   4   1  -5 91.7501 21.7299  12
   4   1  -4 2407.13 150.081   5
   4   1  -4 2362.98 145.078   9
   4   1  -4 2500.48 138.927   1
   4   1  -4 2276.58 137.615   3
   4   1  -4 2643.97 145.071  12
   4   1  -3 319.732 34.9905   3
   4   1  -3 349.017 38.9811   9
   4   1  -3 278.412 37.2385   5
   4   1  -3 331.567 34.4206   1
   4   1  -3 342.059 36.8731  12
   4   1  -2 1318.73 89.0565   9
   4   1  -2 1418.90 93.0682   8
   4   1  -2 1313.76 83.3102   1
   4   1  -2 1307.99 86.1767   3
   4   1  -2 1238.30 85.5640  12
   4   1  -1 5211.33 271.566   9
   4   1  -1 5605.48 272.545   4
   4   1  -1 5196.84 273.111   8
   4   1  -1 5520.75 276.901   6
   4   1  -1 5165.44 269.748   3
   4   1  -1 5402.84 267.151   1
   4   1  -1 5219.44 270.434  12
   4   1   0 4138.30 229.244   5
   4   1   0 5070.49 234.903   4
   4   1   0 4540.60 233.422   8
   4   1   0 4474.91 234.934   7
   4   1   0 4713.10 234.996   6
   4   1   0 4758.21 232.128   3
   4   1   0 4629.33 229.781   1
   4   1   1 1914.45 110.113   1
   4   1   1 1730.67 106.192   5
   4   1   1 1588.82 104.567   9
   4   1   1 1840.35 111.351   8
   4   1   1 1935.53 112.031   6
   4   1   2 198.507 25.7658   3
   4   1   2 180.000 24.4459   9
   4   1   2 182.220 24.3276   5
   4   1   2 205.633 28.3864   8
   4   1   2 202.585 27.5902   1
   4   1   2 168.399 24.6435   4
   4   1   2 192.119 24.7166  12
   4   1   2 192.139 27.6812   6
   4   1   3 565.130 46.6676   5
   4   1   3 646.761 51.1324  12
   4   1   3 705.287 52.1677   9
   4   1   3 760.502 60.4351   1
   4   1   3 663.337 53.9832   4
   4   1   3 667.874 53.8567   3
   4   1   4 331.163 41.2431  10
   4   1   4 292.584 32.0168   9
   4   1   4 348.697 37.3146   4
   4   1   4 377.673 43.8358   7
   4   1   4 357.811 34.7704  12
   4   1   4 321.277 34.7071   3
   4   1   5 1794.95 122.778  10
   4   1   5 1769.71 102.679   9
   4   1   5 1738.09 121.743   8
   4   1   5 1806.37 112.203   4
   4   1   5 1715.04 120.890   7
   4   1   5 1729.74 102.529  12
   4   1   5 1711.57 107.233   3
   4   1   6 2950.24 187.021  10
   4   1   6 2780.34 155.726   9
   4   1   6 3313.03 191.767   8
   4   1   6 3133.02 173.136   4
   4   1   6 3059.73 187.409   7
   4   1   6 2903.89 188.213   6
   4   1   6 3037.91 158.978  12
   4   1   6 2998.31 166.218   3
   4   1   7 1047.68 98.2387  10
   4   1   7 990.976 94.3339   8
   4   1   7 1175.46 86.0289   4
   4   1   7 1176.10 100.340   7
   4   1   7 1000.37 96.5665   6
   4   1   7 1144.45 68.7774  12
   4   1   7 1091.18 77.0571   3
   4   1   8 871.522 94.4341  10
   4   1   8 1033.25 96.6698   8
   4   1   8 1067.32 81.0539   4
   4   1   8 1012.55 95.3932   7
   4   1   8 943.579 95.4382   6
   4   1   8 876.366 48.1478  12
   4   1   8 1012.66 68.5779   3
   4   1   9 532.072 78.5990  10
   4   1   9 668.093 63.2761   4
   4   1   9 645.532 79.1713   8
   4   1   9 550.133 74.8666   7
   4   1   9 595.940 76.4220   2
   4   1   9 646.981 82.5477   6
   4   1  10 255.408 58.8357  10
   4   1  10 345.996 61.4735   7
   4   1  10 208.048 49.9577   2
   4   2  -8 64.7271 26.4425   5
   4   2  -7 176.801 34.6884   5
   4   2  -7 234.434 33.9489   9
   4   2  -6 12.1440 11.0717   3
   4   2  -6 30.3093 16.4828   5
   4   2  -6 14.0432 13.8428   9
   4   2  -6 35.3411 14.5348   4
   4   2  -6 24.2757 13.6745   4
   4   2  -6 15.9487 12.1583  12
   4   2  -5 621.378 60.2500   5
   4   2  -5 578.535 54.6783   9
   4   2  -5 553.150 48.4821   4
   4   2  -5 631.836 54.3045  12
   4   2  -5 624.222 50.0212   3
   4   2  -4 519.849 50.9915   5
   4   2  -4 409.426 43.4932   9
   4   2  -4 453.852 41.5718   4
   4   2  -4 417.871 34.4262   1
   4   2  -4 462.371 44.7922  12
   4   2  -4 430.102 41.2095   3
   4   2  -3 394.848 40.6262   9
   4   2  -3 388.931 41.6271   5
   4   2  -3 392.353 37.0996   4
   4   2  -3 348.610 30.1194   1
   4   2  -3 321.591 36.5564  12
   4   2  -3 308.015 33.7444   3
   4   2  -2 4615.96 234.740   5
   4   2  -2 4444.11 230.414   9
   4   2  -2 4174.00 226.150   8
   4   2  -2 4465.87 225.288   4
   4   2  -2 4220.90 215.143   1
   4   2  -2 4393.01 229.017  12
   4   2  -2 4451.68 225.574   3
   4   2  -1 3140.83 170.509   9
   4   2  -1 3017.92 165.995   8
   4   2  -1 3270.94 167.712   4
   4   2  -1 2982.33 167.950   6
   4   2  -1 3191.89 169.519  12
   4   2  -1 2809.33 164.506   3
   4   2  -1 3230.72 159.511   1
   4   2   0 3676.90 175.864   1
   4   2   0 2753.25 177.586   5
   4   2   0 3381.78 178.304   8
   4   2   0 3836.30 182.682   4
   4   2   0 3438.43 182.050   7
   4   2   0 3188.16 177.889   6
   4   2   0 3255.62 179.323  12
   4   2   0 3498.98 180.576   3
   4   2   1 6327.40 322.535   5
   4   2   1 6816.75 321.292   1
   4   2   1 5961.30 320.485   9
   4   2   1 6527.67 321.953   8
   4   2   1 6695.07 322.923   4
   4   2   1 6843.17 325.485   7
   4   2   1 6324.06 320.065   6
   4   2   2 831.490 62.1823   5
   4   2   2 823.464 63.0803   9
   4   2   2 1026.79 67.5498   1
   4   2   2 863.566 64.7821   8
   4   2   2 816.416 64.8273   7
   4   2   2 900.091 64.7651   6
   4   2   2 806.139 60.7176  12
   4   2   2 837.271 62.8851   3
   4   2   3 299.791 33.0951   9
   4   2   3 322.965 37.1036   8
   4   2   3 270.053 32.9152   4
   4   2   3 235.855 33.2216   7
   4   2   3 293.809 33.3998   3
   4   2   3 252.706 29.7030  12
   4   2   3 316.161 36.3894   6
   4   2   4 623.393 61.0008  10
   4   2   4 638.801 53.9384   9
   4   2   4 843.033 68.1044   8
   4   2   4 659.665 58.0451   4
   4   2   4 705.558 57.5476   3
   4   2   4 783.700 65.4995   6
   4   2   4 655.773 52.7972  12
   4   2   5 2010.47 133.671  10
   4   2   5 1753.70 113.755   9
   4   2   5 1879.17 122.937   4
   4   2   5 1851.01 112.275  12
   4   2   5 1959.78 120.084   3
   4   2   6 7280.79 394.869  10
   4   2   6 7476.31 380.852   4
   4   2   6 7746.71 397.587   7
   4   2   6 7427.99 363.084  12
   4   2   6 7380.23 373.191   3
   4   2   7 340.167 52.4996  10
   4   2   7 233.406 33.4527   3
   4   2   7 224.360 43.7534   8
   4   2   7 243.817 38.3271   4
   4   2   7 327.313 50.2211   7
   4   2   7 305.862 48.8927   2
   4   2   7 289.761 28.6065  12
   4   2   8 897.573 96.4671  10
   4   2   8 1036.28 98.2601   2
   4   2   8 894.266 92.5321   8
   4   2   8 850.078 78.4455   4
   4   2   8 906.122 94.3690   7
   4   2   8 843.820 69.2459   3
   4   2   9 467.010 45.5465   3
   4   2   9 516.150 76.7258  10
   4   2   9 386.428 63.9979   8
   4   2   9 448.436 68.8381   7
   4   2   9 457.057 57.1656   4
   4   2   9 458.547 69.1260   2
   4   2   9 558.777 76.1764   6
   4   2  10 334.521 59.1930   1
   4   2  10 281.430 61.3659   2
   4   3  -8 107.261 29.2184   5
   4   3  -7 237.033 38.8514   5
   4   3  -7 243.580 34.4239   9
   4   3  -6 47.2601 14.6056   3
   4   3  -6 28.8673 16.3558   5
   4   3  -6 54.8810 17.1945   9
   4   3  -6 46.7186 12.6760   4
   4   3  -6 41.6375 14.3852   4
   4   3  -6 61.2556 19.0470  12
   4   3  -5 2.42442 9.54778   3
   4   3  -5 11.6050 13.6190   5
   4   3  -5 19.7906 13.4092   9
   4   3  -5 14.5506 9.68569   4
   4   3  -5 10.0002 11.7376  12
   4   3  -4 1817.63 121.221   5
   4   3  -4 1797.60 118.085   9
   4   3  -4 2021.35 109.861   4
   4   3  -4 1955.73 119.407  12
   4   3  -4 1879.25 112.246   3
   4   3  -3 3502.74 182.856   5
   4   3  -3 3206.18 177.032   9
   4   3  -3 3104.98 166.627   4
   4   3  -3 3185.28 177.104  12
   4   3  -3 2979.82 169.344   3
   4   3  -2 284.830 32.1196   3
   4   3  -2 262.367 34.0011   5
   4   3  -2 315.216 35.9160   9
   4   3  -2 276.085 28.9088   8
   4   3  -2 269.025 29.4551   4
   4   3  -2 256.572 19.5781   1
   4   3  -2 251.832 33.0469  12
   4   3  -1 2035.80 122.313   5
   4   3  -1 1921.33 119.052   9
   4   3  -1 1952.71 110.112   8
   4   3  -1 2094.02 115.406   4
   4   3  -1 1832.57 111.650   6
   4   3  -1 1976.75 119.228  12
   4   3  -1 1920.83 116.190   3
   4   3  -1 2006.86 102.022   1
   4   3   0 3846.40 184.664   1
   4   3   0 3470.71 197.687   9
   4   3   0 3747.59 187.605   8
   4   3   0 3793.86 194.251   4
   4   3   0 3487.59 190.343   7
   4   3   0 3772.72 188.869   6
   4   3   0 3350.78 194.156  12
   4   3   0 3650.25 195.304   3
   4   3   1 650.197 57.0297   5
   4   3   1 740.143 53.2672   8
   4   3   1 795.476 59.1880   4
   4   3   1 803.454 57.2566   7
   4   3   1 707.793 52.2865   6
   4   3   1 656.853 56.1262   3
   4   3   2 3265.69 194.354   9
   4   3   2 4035.04 194.945   8
   4   3   2 3916.33 196.310   7
   4   3   2 3761.47 190.907   6
   4   3   2 3114.63 189.671  12
   4   3   3 2290.76 143.169  10
   4   3   3 2674.17 142.466   6
   4   3   3 2078.53 137.197   9
   4   3   3 2584.97 144.047   8
   4   3   3 2535.53 144.266   7
   4   3   3 2212.03 135.054  12
   4   3   3 2277.02 139.007   3
   4   3   4 2436.55 158.927   9
   4   3   4 3341.57 175.996   8
   4   3   4 2610.27 164.257   4
   4   3   4 3088.86 173.085   7
   4   3   4 3301.29 172.961   6
   4   3   4 2662.57 157.816  12
   4   3   4 2754.50 163.516   3
   4   3   5 3410.97 186.793   8
   4   3   5 2564.94 169.846   4
   4   3   5 2983.67 181.400   7
   4   3   5 3322.41 182.843   6
   4   3   5 2638.20 160.716  12
   4   3   5 2885.11 170.064   3
   4   3   6 1573.30 115.405   8
   4   3   6 1226.75 99.3944   4
   4   3   6 1580.09 114.201   6
   4   3   6 1224.80 86.8914  12
   4   3   6 1260.67 95.3416   3
   4   3   7 542.578 69.7857  10
   4   3   7 734.424 78.4943   2
   4   3   7 587.768 64.1444   4
   4   3   7 732.647 77.6237   6
   4   3   7 531.740 48.3800  12
   4   3   7 653.054 61.2283   3
   4   3   8 456.163 69.3078  10
   4   3   8 492.140 52.6983   3
   4   3   8 386.556 58.2882   1
   4   3   8 422.139 56.0110   4
   4   3   8 377.540 61.7386   7
   4   3   8 476.884 69.0991   2
   4   3   8 510.079 69.2666   6
   4   3   9 475.608 73.0507  10
   4   3   9 366.557 44.9994   3
   4   3   9 327.275 55.7287   1
   4   3   9 350.030 62.6321   8
   4   3   9 263.448 56.9958   7
   4   3   9 409.681 57.0127   4
   4   3   9 403.909 67.3441   2
   4   3  10 434.694 75.3630   2
   4   4  -7 106.287 26.3515   5
   4   4  -6 247.662 37.8884   5
   4   4  -6 211.049 33.0433   9
   4   4  -6 242.062 36.7251  12
   4   4  -5 360.870 44.2342   5
   4   4  -5 364.144 41.4515   9
   4   4  -5 322.203 30.2898   4
   4   4  -5 275.498 39.2329  12
   4   4  -5 326.559 35.4429   3
   4   4  -4 49.3308 16.3611   3
   4   4  -4 59.7414 19.0742   5
   4   4  -4 34.2036 16.7877   9
   4   4  -4 51.6803 13.6002   4
   4   4  -4 33.2052 15.5870  12
   4   4  -3 1242.52 88.5885   5
   4   4  -3 1172.61 85.4871   9
   4   4  -3 1165.06 75.4355   4
   4   4  -3 1210.13 87.9565  12
   4   4  -3 1149.50 80.4518   3
   4   4  -2 2359.78 137.064   5
   4   4  -2 2071.59 131.741   9
   4   4  -2 2093.26 122.467   4
   4   4  -2 2126.50 133.415  12
   4   4  -2 2228.37 129.203   3
   4   4  -1 1272.52 65.6769   1
   4   4  -1 1368.91 91.7675   5
   4   4  -1 1306.51 89.8750   9
   4   4  -1 1229.21 85.6643   3
   4   4  -1 1327.47 72.9991   8
   4   4  -1 1178.57 81.3865   4
   4   4  -1 1227.61 65.7032   1
   4   4  -1 1170.28 87.7248  12
   4   4   0 1862.64 119.486   5
   4   4   0 1894.11 120.876   9
   4   4   0 1781.45 101.223   8
   4   4   0 2037.20 116.345   4
   4   4   0 1870.03 107.171   7
   4   4   0 1936.13 102.825   6
   4   4   0 1802.70 118.154  12
   4   4   0 1869.27 116.699   3
   4   4   1 3108.70 156.801   8
   4   4   1 2871.40 166.212   4
   4   4   1 2876.21 158.841   7
   4   4   1 2953.60 153.731   6
   4   4   1 2972.77 170.189   3
   4   4   2 125.025 24.9725   9
   4   4   2 140.702 21.7897   8
   4   4   2 103.940 23.4124   4
   4   4   2 132.934 22.0885   7
   4   4   2 125.984 23.9703  12
   4   4   2 115.415 19.2886   6
   4   4   3 7.62825 10.9607  10
   4   4   3 3.86416 10.3875   3
   4   4   3 15.6986 12.6090   9
   4   4   3-3.40421 9.15163   8
   4   4   3-3.50315 8.71925   7
   4   4   3 10.7613 10.9336  12
   4   4   3 14.9532 11.7679   6
   4   4   4 2894.89 166.227  10
   4   4   4 2294.60 155.016   9
   4   4   4 3075.17 166.923   8
   4   4   4 2294.98 157.644   4
   4   4   4 2939.52 165.637   7
   4   4   4 3071.61 162.675   6
   4   4   4 2280.42 152.463  12
   4   4   4 2455.27 159.138   3
   4   4   5 3420.63 197.039  10
   4   4   5 3480.48 196.407   8
   4   4   5 2849.08 187.164   4
   4   4   5 3194.56 192.987   7
   4   4   5 3291.55 190.381   6
   4   4   5 2904.62 178.347  12
   4   4   5 2965.01 185.506   3
   4   4   6 780.705 78.2765  10
   4   4   6 720.286 71.0825   1
   4   4   6 849.805 80.3623   8
   4   4   6 771.703 74.1659   4
   4   4   6 641.284 72.2645   7
   4   4   6 758.407 74.8878   6
   4   4   6 568.672 58.3131  12
   4   4   6 590.185 64.9596   3
   4   4   7 83.2638 29.7181  10
   4   4   7 155.922 31.5288   3
   4   4   7 225.173 45.3481   8
   4   4   7 159.570 36.0566   4
   4   4   7 166.400 39.7032   7
   4   4   7 98.8332 31.0527   2
   4   4   7 149.513 36.6983   6
   4   4   8 621.179 69.3643   3
   4   4   8 841.709 84.7537   1
   4   4   8 792.401 89.0803   8
   4   4   8 566.112 71.0763   4
   4   4   8 673.425 84.4288   2
   4   4   8 750.621 86.7765   6
   4   4   9 244.564 51.3596   1
   4   4   9 291.915 50.4426   4
   4   4   9 334.988 61.6746   2
   4   4   9 290.768 58.4108   6
   4   4  10 107.684 35.3089   4
   4   5  -6 737.604 67.8010   5
   4   5  -6 686.424 62.9403   9
   4   5  -6 696.600 66.4934  12
   4   5  -5 66.1997 17.0516   3
   4   5  -5 78.5236 21.6874   9
   4   5  -5 71.9728 20.9189   5
   4   5  -5 56.4730 12.2823   4
   4   5  -5 73.6679 24.2895  12
   4   5  -4 318.404 36.8308   3
   4   5  -4 383.527 43.9253   9
   4   5  -4 367.858 44.1163   5
   4   5  -4 308.814 31.1928   4
   4   5  -4 257.460 38.7288  12
   4   5  -3 209.018 31.9787   3
   4   5  -3 296.468 38.2085   9
   4   5  -3 274.344 39.1744   5
   4   5  -3 334.016 32.8889   4
   4   5  -3 240.414 38.5759  12
   4   5  -2 2621.57 154.982   9
   4   5  -2 2428.91 141.743   4
   4   5  -2 2564.09 156.974  12
   4   5  -2 2517.38 150.149   3
   4   5  -1 2149.35 136.071   9
   4   5  -1 2149.90 104.558   1
   4   5  -1 2076.80 104.068   8
   4   5  -1 1934.79 124.201   4
   4   5  -1 2166.42 104.728   1
   4   5  -1 2089.19 137.378  12
   4   5  -1 2105.25 132.043   3
   4   5   0 2041.79 134.001   9
   4   5   0 1921.75 106.091   8
   4   5   0 2008.22 126.380   4
   4   5   0 2142.24 111.935   1
   4   5   0 2094.46 113.716   7
   4   5   0 2107.21 106.092   6
   4   5   0 2149.77 135.892  12
   4   5   0 2140.93 132.390   3
   4   5   1 3810.84 219.430   9
   4   5   1 3906.63 195.649   8
   4   5   1 3790.91 214.124   4
   4   5   1 4076.84 200.999   1
   4   5   1 3789.43 199.623   7
   4   5   1 3942.32 191.781   6
   4   5   1 3648.93 215.537   3
   4   5   2 966.972 65.8116   8
   4   5   2 756.060 62.3450   1
   4   5   2 965.520 77.1526   4
   4   5   2 872.966 65.8669   7
   4   5   2 902.305 60.1471   6
   4   5   2 854.799 75.4161  12
   4   5   3 647.721 62.8065  10
   4   5   3 907.728 67.3176   8
   4   5   3 691.079 60.2745   1
   4   5   3 771.826 70.8210   4
   4   5   3 770.570 64.5152   7
   4   5   3 797.909 60.3831   6
   4   5   3 719.619 68.6431  12
   4   5   3 632.714 66.4316   3
   4   5   4 222.973 35.7288  10
   4   5   4 206.505 36.7726   3
   4   5   4 203.549 31.8891   1
   4   5   4 177.943 33.6092   8
   4   5   4 198.884 34.1822   7
   4   5   4 211.939 36.0135  12
   4   5   4 178.801 29.9354   6
   4   5   5 31.5597 16.9166  10
   4   5   5 10.4626 14.0838   3
   4   5   5 32.6840 17.7658   1
   4   5   5 31.2774 19.8305   8
   4   5   5 5.67450 14.1435   4
   4   5   5 15.8748 18.6389   7
   4   5   5 18.1465 13.8497  12
   4   5   5 13.8682 16.2878   6
   4   5   6 890.974 86.5737  10
   4   5   6 1089.92 93.9029   8
   4   5   6 873.565 81.6699   1
   4   5   6 822.799 84.5756   4
   4   5   6 899.460 87.5218   7
   4   5   6 834.570 82.1232   6
   4   5   6 716.150 76.7442   3
   4   5   7 501.993 68.0396  10
   4   5   7 396.972 57.9370   3
   4   5   7 621.858 74.8603   8
   4   5   7 513.074 66.1888   1
   4   5   7 516.577 67.0583   4
   4   5   7 552.106 71.5415   7
   4   5   7 458.491 64.2864   6
   4   5   8 218.354 50.4567  10
   4   5   8 229.365 43.3657   3
   4   5   8 241.383 51.5254   8
   4   5   8 294.160 56.1047   7
   4   5   8 186.886 43.9199   4
   4   5   8 253.046 53.9083   2
   4   5   8 295.429 54.9336   6
   4   5   9 15.3450 25.8656   4
   4   5   9 25.9216 27.7712   6
   4   5  10 462.105 71.0313   4
   4   6  -5 71.1871 19.8278   3
   4   6  -5 68.8918 21.0901   9
   4   6  -5 9.81172 17.3843  12
   4   6  -4 258.810 35.9205   3
   4   6  -4 242.540 27.0925   4
   4   6  -4 213.556 38.5169  12
   4   6  -3 1478.95 109.961   9
   4   6  -3 1579.95 97.6573   4
   4   6  -3 1613.05 116.463  12
   4   6  -3 1504.66 107.438   3
   4   6  -2 913.751 80.7063   9
   4   6  -2 1053.82 74.4682   4
   4   6  -2 921.510 85.1049  12
   4   6  -2 1003.10 81.8096   3
   4   6  -1 8.59923 13.1049   3
   4   6  -1 13.7178 14.6904   9
   4   6  -1 3.27712 5.20967   1
   4   6  -1 17.6986 12.4580   4
   4   6  -1-4.94841 13.3014  12
   4   6   0 987.931 82.2808   9
   4   6   0 822.164 46.7377   8
   4   6   0 854.121 71.5783   4
   4   6   0 871.303 54.7604   7
   4   6   0 883.361 58.2949   1
   4   6   0 803.952 77.5680  12
   4   6   0 792.922 74.5062   3
   4   6   1 4895.95 239.374   8
   4   6   1 4746.93 264.912   4
   4   6   1 4749.92 243.420   7
   4   6   1 4895.32 249.811   1
   4   6   1 4997.45 231.775   6
   4   6   1 4599.33 268.401   3
   4   6   2 3803.05 186.904   8
   4   6   2 3507.07 205.475   4
   4   6   2 3545.53 191.022   1
   4   6   2 3476.46 187.106   7
   4   6   2 3368.97 175.989   6
   4   6   2 3056.63 203.885  12
   4   6   2 3221.13 205.111   3
   4   6   3 1541.86 104.576  10
   4   6   3 1388.75 97.6132   8
   4   6   3 1166.06 103.909   4
   4   6   3 1328.53 98.1667   1
   4   6   3 1504.80 100.222   7
   4   6   3 1590.33 93.9599   6
   4   6   3 1319.56 108.790  12
   4   6   4 656.898 65.7819  10
   4   6   4 676.449 65.5058   8
   4   6   4 718.802 66.2669   1
   4   6   4 661.529 64.9716   7
   4   6   4 610.320 69.9271   4
   4   6   4 667.980 59.8716   6
   4   6   4 578.251 66.9555  12
   4   6   4 669.206 72.1202   3
   4   6   5 1183.09 110.199   3
   4   6   5 1416.01 111.059  10
   4   6   5 1695.74 118.604   8
   4   6   5 1355.74 107.849   1
   4   6   5 1348.50 110.139   7
   4   6   5 1489.63 106.927   6
   4   6   6 651.166 72.5875  10
   4   6   6 492.802 66.1244   3
   4   6   6 653.056 70.3671   1
   4   6   6 525.309 68.0692   8
   4   6   6 562.915 69.0002   7
   4   6   6 431.726 64.9444   4
   4   6   6 758.117 73.3409   6
   4   6   7 99.8676 35.6193  10
   4   6   7 32.5311 24.0080   3
   4   6   7 109.475 37.1841   8
   4   6   7 66.9785 29.8007   1
   4   6   7 147.376 39.7166   7
   4   6   7 37.5887 25.4959   4
   4   6   7 52.5611 27.6726   6
   4   6   8 1577.57 138.472  10
   4   6   8 1349.23 134.698   2
   4   6   8 1645.04 141.686   8
   4   6   8 1515.54 134.836   4
   4   6   8 1617.49 136.954   1
   4   6   8 1483.65 137.726   7
   4   6   8 1712.19 138.292   6
   4   7  -4 321.078 44.0492   3
   4   7  -3 527.328 59.2083   3
   4   7  -3 620.889 53.6262   4
   4   7  -3 700.107 72.4617  12
   4   7  -2 703.339 69.5232   3
   4   7  -2 747.001 63.0567   4
   4   7  -2 676.902 73.5438  12
   4   7  -1 1966.49 129.984   4
   4   7  -1 2063.35 146.287  12
   4   7  -1 2116.52 108.110   1
   4   7  -1 1798.29 136.374   3
   4   7   0 101.193 19.3185   1
   4   7   0 100.322 27.0742   3
   4   7   0 77.3124 12.2698   7
   4   7   0 58.5692 21.2991   4
   4   7   0 93.1209 27.3463  12
   4   7   1 879.648 54.2228   8
   4   7   1 820.946 76.4465   4
   4   7   1 801.906 56.6515   7
   4   7   1 865.420 66.2183   1
   4   7   1 774.193 79.1113   3
   4   7   2 5.88127 14.6347   3
   4   7   2 2.66851 11.1774   8
   4   7   2 5.68713 10.4157   7
   4   7   2 10.9791 16.7298   4
   4   7   2 3.70412 13.5674   1
   4   7   2 6.02115 16.1831  12
   4   7   2-1.56131 7.44017   6
   4   7   3 179.427 32.0905  10
   4   7   3 205.337 31.3851   8
   4   7   3 159.330 28.4017   7
   4   7   3 102.472 31.8814   4
   4   7   3 119.879 27.2299   1
   4   7   3 122.091 21.7560   6
   4   7   4 647.793 66.1376  10
   4   7   4 649.188 75.4396   3
   4   7   4 632.064 64.7513   8
   4   7   4 804.221 70.7006   7
   4   7   4 600.020 73.0846   4
   4   7   4 517.362 60.5121   1
   4   7   4 625.969 57.6086   6
   4   7   5 986.236 86.6658  10
   4   7   5 715.109 84.1181   3
   4   7   5 950.319 85.6114   8
   4   7   5 758.593 78.6086   1
   4   7   5 795.007 80.0547   7
   4   7   5 916.152 77.9380   6
   4   7   6 831.320 85.4776  10
   4   7   6 765.336 87.8566   3
   4   7   6 985.529 93.1214   8
   4   7   6 857.343 85.7449   1
   4   7   6 834.606 87.2035   7
   4   7   6 599.671 81.9348   4
   4   7   6 843.177 80.8603   6
   4   7   7 78.8784 31.0658  10
   4   7   7 82.7144 34.3064   8
   4   7   7 67.7742 34.3561   7
   4   7   7 109.300 38.3262   4
   4   7   7 112.801 36.6541   1
   4   7   7 32.7917 22.3209   6
   4   7   8 768.025 90.4369   6
   4   8  -2-5.36582 15.4172   3
   4   8  -2 4.04999 14.2517   4
   4   8  -1 600.786 69.0773   3
   4   8  -1 596.964 61.6085   4
   4   8   0 17.9164 17.2354   3
   4   8   0 42.1046 14.3488   1
   4   8   0 50.9580 22.0215   4
   4   8   1 120.938 25.2174   1
   4   8   1 69.2100 28.4867   3
   4   8   1 136.798 16.1102   8
   4   8   1 143.661 16.3472   8
   4   8   1 130.305 18.1895   7
   4   8   1 174.206 36.5897   4
   4   8   2 20.9266 14.1609   1
   4   8   2 46.4488 22.3939   3
   4   8   2 32.6102 13.5465   8
   4   8   2 20.8147 14.2926   8
   4   8   2 32.6736 13.6126   7
   4   8   2 36.9515 22.5941   4
   4   8   2 23.3693 7.07462   6
   4   8   2 34.6466 7.54743   6
   4   8   3 18.5073 12.4911   8
   4   8   3 14.7437 15.9016   7
   4   8   3 13.4399 20.4914   4
   4   8   3 9.16635 10.9420   6
   4   8   3 28.5769 16.0624   1
   4   8   4 237.278 39.4939  10
   4   8   4 139.817 36.9996   3
   4   8   4 188.197 36.2939   8
   4   8   4 247.038 38.3891   7
   4   8   4 242.374 48.0661   4
   4   8   4 192.576 38.3612   1
   4   8   4 199.832 31.9205   6
   4   8   5 61.2385 25.4716  10
   4   8   5 62.5550 24.0101   8
   4   8   5 78.9108 27.0260   7
   4   8   5 63.8615 29.3938   4
   4   8   5 65.7575 27.3256   1
   4   8   5 70.7847 22.6734   6
   4   8   6 272.820 49.5529  10
   4   8   6 220.471 45.9331   8
   4   8   6 245.048 47.0255   7
   4   8   6 272.304 44.3360   6
   4   8   7 86.3831 32.1580  10
   4   8   7 103.593 33.8059   6
   4   9  -1 400.174 53.1409   4
   4   9   0 113.699 31.5180   4
   4   9   1 381.801 56.9825   4
   4   9   2 27.9259 15.7383   1
   4   9   2 34.2165 24.1185   4
   4   9   3 162.853 35.3542   1
   4   9   4 87.5980 28.7227   1
   5  -5   0 504.171 66.0951   5
   5  -4  -1 30.9082 22.6838   5
   5  -4   0 79.0123 29.5829   5
   5  -4   0 107.051 32.9095   9
   5  -4   0 127.179 37.2789   4
   5  -4   1 188.282 44.5707   1
   5  -4   1 176.105 36.8969   5
   5  -4   1 132.725 36.3026   9
   5  -4   1 259.054 50.6816   8
   5  -4   1 277.785 52.5054   4
   5  -4   1 266.443 50.6670  12
   5  -4   2 200.275 44.9395   1
   5  -4   2 151.378 31.1053   5
   5  -4   2 242.235 44.3774   9
   5  -4   2 127.826 37.5940   8
   5  -4   2 142.202 37.6379   4
   5  -4   2 174.739 40.2876  12
   5  -4   2 224.862 45.8085   6
   5  -4   3 274.090 49.6765   3
   5  -4   3 298.044 47.3395   9
   5  -4   3 196.259 46.6664   1
   5  -4   3 246.640 47.4449   8
   5  -4   3 182.990 41.6103   4
   5  -4   3 255.925 49.3989  12
   5  -4   3 274.279 49.4847   6
   5  -4   4 841.540 76.2972   9
   5  -4   4 732.068 75.5073   4
   5  -4   4 665.224 79.0925   8
   5  -4   4 741.235 81.7540   4
   5  -4   4 747.186 80.9694   3
   5  -4   4 867.657 90.8390  12
   5  -4   4 783.278 84.9072   6
   5  -4   5 63.0432 26.1609   3
   5  -4   5 53.5079 28.9385   6
   5  -4   5 71.4799 29.6305   8
   5  -4   5 31.3661 20.3123   4
   5  -4   5 98.4546 32.7634  12
   5  -4   6 83.0874 30.2279   8
   5  -4   6 149.738 37.3395  12
   5  -4   6 140.877 36.4528   6
   5  -3  -3 186.845 41.4528   5
   5  -3  -3 84.6376 35.0782   4
   5  -3  -3 119.890 38.5328   1
   5  -3  -2 335.231 53.6547   5
   5  -3  -2 415.176 59.4305   9
   5  -3  -2 370.625 55.9434  12
   5  -3  -2 404.393 60.4260   1
   5  -3  -1 413.945 56.3404   5
   5  -3  -1 403.298 59.0801   9
   5  -3  -1 437.133 65.8426   4
   5  -3  -1 556.879 65.8025  12
   5  -3  -1 456.365 64.0963   1
   5  -3   0 626.053 66.6240   5
   5  -3   0 583.195 73.4890   1
   5  -3   0 587.173 69.4101   9
   5  -3   0 666.586 76.5118   8
   5  -3   0 551.944 73.4001   4
   5  -3   1 316.895 43.7782   5
   5  -3   1 373.022 51.6086   9
   5  -3   1 277.703 50.5589   8
   5  -3   1 272.676 49.4651   4
   5  -3   1 382.287 55.1843  12
   5  -3   1 325.969 53.3088   6
   5  -3   2 256.751 46.6214   3
   5  -3   2 257.726 37.3470   5
   5  -3   2 317.201 47.5899   9
   5  -3   2 268.507 48.8867   1
   5  -3   2 301.363 49.9139   8
   5  -3   2 320.361 50.5475  12
   5  -3   2 254.713 46.5454   6
   5  -3   3 22.0741 19.4540   3
   5  -3   3 31.1579 16.4873   5
   5  -3   3 23.4777 17.2371   9
   5  -3   3 31.3482 22.0930   8
   5  -3   3 26.5555 19.1101   1
   5  -3   3 35.1562 21.4920  12
   5  -3   3 12.5480 19.1551   6
   5  -3   4 350.337 51.4529   3
   5  -3   4 350.133 34.9235   5
   5  -3   4 391.675 47.3212   9
   5  -3   4 401.622 55.5822   8
   5  -3   4 418.420 50.5002   4
   5  -3   4 315.468 54.0562   1
   5  -3   4 470.297 60.1561  12
   5  -3   4 407.941 57.4459   6
   5  -3   5 115.410 29.1403   3
   5  -3   5 89.9042 22.3365   9
   5  -3   5 85.8144 28.1628   8
   5  -3   5 91.3939 25.7432   4
   5  -3   5 51.7252 23.2872   7
   5  -3   5 111.081 32.7891   1
   5  -3   5 144.256 34.5408  12
   5  -3   5 108.338 33.2770   6
   5  -3   6 344.313 46.9468   3
   5  -3   6 270.926 47.8965   8
   5  -3   6 342.353 43.5713   4
   5  -3   6 333.276 48.4940   7
   5  -3   6 251.525 42.7180   4
   5  -3   6 229.048 46.1077   1
   5  -3   6 383.351 52.3692  12
   5  -3   6 260.179 47.7179   6
   5  -3   7 162.049 38.5630   8
   5  -3   7 134.386 36.0825   6
   5  -2  -5 121.095 31.5361   3
   5  -2  -5 111.717 31.9229   1
   5  -2  -5 103.435 29.6809  12
   5  -2  -4 174.812 37.2755   3
   5  -2  -4 130.008 34.8168   5
   5  -2  -4 201.927 41.5530   9
   5  -2  -4 231.424 43.6162   1
   5  -2  -4 236.465 50.0147   4
   5  -2  -4 155.520 36.2379  12
   5  -2  -3-5.40089 20.5281   3
   5  -2  -3-5.78360 13.1372   5
   5  -2  -3 17.5829 18.8273   9
   5  -2  -3 7.52330 18.7199   4
   5  -2  -3-5.96296 18.1720   1
   5  -2  -3 10.3442 14.8605  12
   5  -2  -2 575.704 66.1762   3
   5  -2  -2 610.375 67.5216   5
   5  -2  -2 640.094 76.0498   4
   5  -2  -2 644.520 69.1238  12
   5  -2  -2 624.040 71.4158   1
   5  -2  -1 99.6397 29.3589   3
   5  -2  -1 116.848 31.5723   1
   5  -2  -1 68.6285 26.0784   5
   5  -2  -1 101.259 30.3176   9
   5  -2  -1 81.5808 27.9766   8
   5  -2  -1 30.8535 19.1127  12
   5  -2   0 293.028 41.4103   5
   5  -2   0 222.257 40.2868   9
   5  -2   0 267.951 45.5446   1
   5  -2   0 270.569 46.1058   8
   5  -2   0 315.915 49.5817   6
   5  -2   1 206.611 37.9000   3
   5  -2   1 178.195 32.0694   5
   5  -2   1 190.203 35.8752   9
   5  -2   1 185.886 38.7478   1
   5  -2   1 175.060 37.5365   8
   5  -2   1 187.413 36.6683  12
   5  -2   1 219.475 39.8541   6
   5  -2   2 1094.04 81.0522   5
   5  -2   2 1042.10 86.7393   9
   5  -2   2 1139.48 97.5454   8
   5  -2   2 1134.31 97.3661   6
   5  -2   2 1091.51 91.9066   3
   5  -2   2 1057.05 91.1858  12
   5  -2   3 804.817 61.7491   5
   5  -2   3 816.863 71.3774   9
   5  -2   3 770.901 71.5833   4
   5  -2   3 817.748 80.5022   8
   5  -2   3 721.775 76.7387   6
   5  -2   3 781.243 75.1730   3
   5  -2   3 842.728 76.6531  12
   5  -2   3 819.922 81.6266   1
   5  -2   4 738.449 53.3843   5
   5  -2   4 738.166 63.9904   9
   5  -2   4 870.837 72.3250   4
   5  -2   4 787.210 78.7526   8
   5  -2   4 602.899 67.2740   7
   5  -2   4 805.401 79.1138   6
   5  -2   4 734.921 70.6373   3
   5  -2   4 784.707 73.2438  12
   5  -2   4 718.318 76.9281   1
   5  -2   5 76.5129 26.9160   1
   5  -2   5 78.5571 24.8768   3
   5  -2   5 65.7235 18.4690   9
   5  -2   5 81.2297 26.5393   8
   5  -2   5 72.1245 20.5852   4
   5  -2   5 46.1196 21.0504   7
   5  -2   5 69.4834 23.2588  12
   5  -2   5 72.0518 26.0614   6
   5  -2   6 36.4657 17.1172   3
   5  -2   6 65.7541 25.8594   1
   5  -2   6 76.6344 17.4790   9
   5  -2   6 29.7588 20.1767   8
   5  -2   6 64.6210 19.8162   4
   5  -2   6 10.4344 16.0561   7
   5  -2   6 100.725 26.7857  12
   5  -2   6 69.3969 27.2816   6
   5  -2   7 51.2733 19.2248   3
   5  -2   7 85.6045 30.5888   1
   5  -2   7 30.7861 21.8902   8
   5  -2   7 51.0024 19.1259   4
   5  -2   7 123.719 30.5830   7
   5  -2   7 108.559 25.3700  12
   5  -2   7 120.223 34.0670   6
   5  -2   8 512.465 66.3119   1
   5  -2   8 576.164 72.1387   8
   5  -2   8 609.900 68.5200   7
   5  -2   8 738.846 82.2349   6
   5  -1  -6 267.551 41.6490   3
   5  -1  -6 222.975 40.6982   1
   5  -1  -6 174.257 43.3707   4
   5  -1  -6 163.013 38.0955  12
   5  -1  -5 762.954 78.1212   9
   5  -1  -5 595.837 71.6624   5
   5  -1  -5 582.977 66.5758   1
   5  -1  -5 621.435 78.0167   4
   5  -1  -5 758.031 72.2560   3
   5  -1  -5 647.793 66.4020  12
   5  -1  -4 61.7445 24.2051   3
   5  -1  -4 102.591 29.6040   9
   5  -1  -4 25.5420 19.5174   1
   5  -1  -4 20.7723 21.1940   4
   5  -1  -4 45.7484 21.8875  12
   5  -1  -3 505.026 58.1256   3
   5  -1  -3 612.563 64.8553   9
   5  -1  -3 401.403 55.3113   5
   5  -1  -3 716.020 76.7307   4
   5  -1  -3 546.302 59.4880   1
   5  -1  -3 447.954 53.4739  12
   5  -1  -2 299.332 43.7026   3
   5  -1  -2 293.547 44.1070   5
   5  -1  -2 437.738 50.3065  12
   5  -1  -2 327.397 46.3334   1
   5  -1  -1 493.308 54.1700   3
   5  -1  -1 497.153 54.3680   5
   5  -1  -1 413.281 51.6091   1
   5  -1  -1 397.584 51.7385   9
   5  -1  -1 477.675 58.5598   8
   5  -1  -1 462.416 52.5433  12
   5  -1   0 2072.34 137.504   5
   5  -1   0 2287.99 144.714   9
   5  -1   0 1998.93 144.682   6
   5  -1   0 2469.04 150.726   1
   5  -1   1 1397.27 93.2809   5
   5  -1   1 1324.34 96.4603   9
   5  -1   1 1021.46 94.7098   8
   5  -1   1 1135.16 97.0100   6
   5  -1   1 1290.07 97.7966   3
   5  -1   1 1264.97 96.0443  12
   5  -1   1 1391.86 103.809   1
   5  -1   2 2921.44 167.430   5
   5  -1   2 2860.17 173.380   9
   5  -1   2 2987.67 177.687   4
   5  -1   2 2981.88 184.916   8
   5  -1   2 2965.77 183.318   7
   5  -1   2 2823.10 182.608   6
   5  -1   2 3019.31 180.100   3
   5  -1   2 2932.56 178.575  12
   5  -1   2 3654.55 194.212   1
   5  -1   3 1139.08 78.5173   5
   5  -1   3 1302.32 89.1222   9
   5  -1   3 1138.71 89.1045   4
   5  -1   3 1223.12 98.3665   8
   5  -1   3 1175.83 95.2635   7
   5  -1   3 1111.47 95.9040   6
   5  -1   3 1280.06 94.5469   3
   5  -1   3 1207.26 92.3816  12
   5  -1   4 1757.61 131.488   1
   5  -1   4 1793.21 107.638   5
   5  -1   4 1981.46 119.643   9
   5  -1   4 2072.80 127.494   4
   5  -1   4 2095.18 139.266   8
   5  -1   4 1891.73 132.017   7
   5  -1   4 1887.97 135.597   6
   5  -1   4 2034.80 129.266   3
   5  -1   4 1893.25 126.366  12
   5  -1   5 509.315 45.6718   9
   5  -1   5 510.655 52.1530   4
   5  -1   5 517.409 61.7860   8
   5  -1   5 475.953 58.7907   1
   5  -1   5 577.180 61.9773   7
   5  -1   5 542.172 54.8716  12
   5  -1   5 497.784 52.9982   3
   5  -1   5 484.775 60.4669   6
   5  -1   6 265.403 37.1495   3
   5  -1   6 284.381 30.3314   9
   5  -1   6 254.512 44.2890   8
   5  -1   6 309.420 39.2796   4
   5  -1   6 307.509 46.2450   7
   5  -1   6 276.528 44.6856   1
   5  -1   6 278.126 37.1790  12
   5  -1   6 337.795 51.5490   6
   5  -1   7 398.075 53.8110  10
   5  -1   7 368.262 43.0026   3
   5  -1   7 379.714 29.7403   9
   5  -1   7 378.137 56.1207   8
   5  -1   7 377.204 44.1576   4
   5  -1   7 455.830 57.5813   7
   5  -1   7 379.734 54.2159   1
   5  -1   7 448.713 46.2753  12
   5  -1   7 365.638 57.2141   6
   5  -1   8 755.472 82.3881  10
   5  -1   8 742.211 80.4666   1
   5  -1   8 855.972 87.7833   8
   5  -1   8 887.991 85.7042   7
   5  -1   8 821.711 89.6039   6
   5  -1   9 435.525 64.8208   8
   5  -1   9 404.090 59.1326   7
   5   0  -6 840.641 80.7360   9
   5   0  -6 792.958 74.1228   1
   5   0  -6 849.403 87.5068   4
   5   0  -6 949.637 77.0217   3
   5   0  -6 852.427 76.9819  12
   5   0  -5 32.9690 19.0209   3
   5   0  -5 104.711 30.8468   5
   5   0  -5 79.5186 27.8554   9
   5   0  -5 103.991 25.5071   1
   5   0  -5 68.3573 28.4302   4
   5   0  -5 101.603 25.6627  12
   5   0  -4 118.892 29.1646   3
   5   0  -4 148.338 33.7989   5
   5   0  -4 166.281 33.2686   9
   5   0  -4 138.866 28.9725   1
   5   0  -4 102.750 30.0406   4
   5   0  -4 128.191 28.1810  12
   5   0  -3 621.837 62.4355   9
   5   0  -3 527.289 56.0438   3
   5   0  -3 551.495 56.7382  12
   5   0  -3 441.836 51.7677   1
   5   0  -2 318.388 40.6872   1
   5   0  -2 288.680 39.7256   3
   5   0  -2 240.518 39.1116   5
   5   0  -2 288.169 40.4717   9
   5   0  -2 331.522 45.6970   8
   5   0  -2 274.672 38.9690  12
   5   0  -1 1988.69 132.673   5
   5   0  -1 2277.18 142.309   8
   5   0  -1 2096.03 133.863   1
   5   0  -1 2071.10 133.735   3
   5   0  -1 2055.58 132.392  12
   5   0   0 550.510 54.2418   5
   5   0   0 540.648 54.6373   9
   5   0   0 529.453 55.4623   1
   5   0   0 662.501 63.0980   8
   5   0   0 636.044 61.6527   6
   5   0   0 636.988 58.7447   3
   5   0   0 473.851 51.6026  12
   5   0   1 3261.78 185.948   5
   5   0   1 3539.78 191.931   9
   5   0   1 3125.68 188.596   4
   5   0   1 3079.64 193.087   7
   5   0   1 3824.94 199.354   1
   5   0   2 277.704 36.3004   3
   5   0   2 256.465 37.9131   1
   5   0   2 238.997 30.7735   5
   5   0   2 280.953 35.3072   9
   5   0   2 209.505 32.2466   4
   5   0   2 195.929 34.2857   7
   5   0   2 202.219 31.6166  12
   5   0   3 1473.94 102.343   1
   5   0   3 1308.81 83.1619   5
   5   0   3 1309.56 88.1253   9
   5   0   3 1239.30 90.4763   4
   5   0   3 1149.88 95.5313   8
   5   0   3 1158.59 94.0206   7
   5   0   3 1101.26 93.3806   6
   5   0   3 1337.53 92.0102  12
   5   0   3 1221.28 90.4519   3
   5   0   4 681.563 54.0511   5
   5   0   4 789.180 61.1239   9
   5   0   4 773.336 65.2724   4
   5   0   4 760.600 72.5906   8
   5   0   4 807.307 72.8450   7
   5   0   4 751.897 73.0544   6
   5   0   4 806.994 65.3410  12
   5   0   4 756.464 65.6739   3
   5   0   5 451.123 54.2877   1
   5   0   5 524.553 44.9336   9
   5   0   5 499.977 50.7313   4
   5   0   5 463.199 57.3783   8
   5   0   5 448.019 54.7570   7
   5   0   5 445.336 46.4769  12
   5   0   5 498.646 50.0101   3
   5   0   5 457.493 57.7853   6
   5   0   6 731.154 76.5696  10
   5   0   6 701.082 73.8801   1
   5   0   6 854.520 60.2858   9
   5   0   6 750.315 78.4437   8
   5   0   6 900.669 72.2744   4
   5   0   6 842.008 80.6498   7
   5   0   6 918.302 87.1190   6
   5   0   6 921.150 68.2416  12
   5   0   6 866.913 69.8134   3
   5   0   7 139.518 36.2297  10
   5   0   7 109.350 23.4904   3
   5   0   7 87.3924 15.1177   9
   5   0   7 74.0133 27.7030   8
   5   0   7 122.414 26.4087   4
   5   0   7 116.626 31.7527   1
   5   0   7 130.156 33.2438   7
   5   0   7 121.100 22.5330  12
   5   0   7 79.8151 29.0400   6
   5   0   8 438.452 61.7854  10
   5   0   8 405.792 43.3094   3
   5   0   8 448.089 61.9530   8
   5   0   8 401.325 47.7548   4
   5   0   8 283.515 51.0011   7
   5   0   8 492.447 61.1958   1
   5   0   8 397.986 39.4304  12
   5   0   8 433.338 64.1535   6
   5   0   9 177.175 44.8919  10
   5   0   9 173.863 41.6486   8
   5   0   9 152.779 37.8914   1
   5   0   9 133.240 37.0838   7
   5   0   9 225.944 51.0799   6
   5   0  10 369.217 65.0606  10
   5   1  -7 151.156 33.9176   9
   5   1  -6 49.5429 18.7429   3
   5   1  -6 54.6907 26.1040   5
   5   1  -6 23.4748 19.7248   9
   5   1  -6 31.4990 18.3939   4
   5   1  -6 21.4506 17.2958   4
   5   1  -6 36.5972 19.8703  12
   5   1  -5 110.473 24.7815   3
   5   1  -5 142.790 34.1265   5
   5   1  -5 112.073 27.2505   9
   5   1  -5 173.174 29.2993   1
   5   1  -5 155.498 29.3941   4
   5   1  -5 138.979 32.7026   4
   5   1  -5 135.810 27.8999  12
   5   1  -4 843.055 74.7147   5
   5   1  -4 743.739 68.5021   9
   5   1  -4 778.054 66.2867   4
   5   1  -4 761.845 62.3801   1
   5   1  -4 734.744 66.5189  12
   5   1  -4 602.605 60.1975   3
   5   1  -3 84.7230 22.6350   3
   5   1  -3 114.413 27.2589   5
   5   1  -3 133.843 27.7592   9
   5   1  -3 153.056 28.2883   4
   5   1  -3 80.2230 20.4166   1
   5   1  -3 119.128 26.1062  12
   5   1  -2 4414.91 238.062   9
   5   1  -2 4588.48 237.241   4
   5   1  -2 4085.34 238.322   8
   5   1  -2 4156.01 228.177   1
   5   1  -2 4303.70 233.409   3
   5   1  -2 4463.25 236.697  12
   5   1  -1 1877.67 131.382   5
   5   1  -1 2245.94 134.299   4
   5   1  -1 2060.51 134.739   8
   5   1  -1 2206.93 138.221   6
   5   1  -1 2118.61 128.767   1
   5   1  -1 2388.81 136.143   3
   5   1  -1 2160.93 133.215  12
   5   1   0 636.842 58.3388   5
   5   1   0 568.104 56.4209   9
   5   1   0 796.583 62.8857   4
   5   1   0 768.438 64.6040   8
   5   1   0 568.189 58.1816   6
   5   1   0 623.381 58.4325  12
   5   1   0 776.011 62.3023   3
   5   1   0 745.173 60.1734   1
   5   1   1 448.551 45.6029   5
   5   1   1 435.994 46.1070   9
   5   1   1 485.821 49.8199   8
   5   1   1 469.705 49.6061   6
   5   1   1 551.473 51.0938   1
   5   1   2 3743.05 182.302   1
   5   1   2 2895.54 165.566   5
   5   1   2 2904.44 167.410   9
   5   1   2 2614.07 166.976   4
   5   1   2 3364.31 180.167   8
   5   1   2 3168.83 176.859   6
   5   1   2 2846.43 167.399  12
   5   1   2 2712.78 167.805   3
   5   1   3 2118.59 126.939   5
   5   1   3 2285.24 131.753   9
   5   1   3 2157.16 134.196   4
   5   1   3 1968.88 136.717   7
   5   1   3 2248.41 140.819   6
   5   1   3 1993.89 129.021  12
   5   1   3 2163.82 132.895   3
   5   1   4 437.422 42.9780   9
   5   1   4 427.305 46.4340   4
   5   1   4 386.244 49.0597   7
   5   1   4 484.046 52.4940   1
   5   1   4 487.187 45.9225  12
   5   1   4 379.323 43.7227   3
   5   1   5 1397.08 108.546  10
   5   1   5 1341.30 91.6152   9
   5   1   5 1415.35 110.611   8
   5   1   5 1528.09 102.836   4
   5   1   5 1618.53 114.306   7
   5   1   5 1457.90 95.8487  12
   5   1   5 1398.60 98.5168   3
   5   1   6 1705.32 121.562  10
   5   1   6 1352.11 90.9571   9
   5   1   6 1495.89 112.146   1
   5   1   6 1641.61 120.148   8
   5   1   6 1287.93 99.9100   4
   5   1   6 1518.01 116.497   7
   5   1   6 1463.71 117.789   6
   5   1   6 1515.89 96.9884  12
   5   1   6 1448.28 101.074   3
   5   1   7 394.077 53.1084   1
   5   1   7 347.406 53.7916  10
   5   1   7 308.643 40.1148   3
   5   1   7 312.655 33.2418   9
   5   1   7 359.284 53.9484   8
   5   1   7 390.236 46.7025   4
   5   1   7 366.023 54.2785   7
   5   1   7 375.168 38.6876  12
   5   1   7 338.946 54.5917   6
   5   1   8 87.5027 30.6877  10
   5   1   8 79.3494 20.3540   3
   5   1   8 48.1018 23.0492   1
   5   1   8 104.254 33.9923   8
   5   1   8 36.2297 18.0675   4
   5   1   8 61.7441 28.0367   7
   5   1   8 74.2285 17.4143  12
   5   1   8 89.1450 31.2582   6
   5   1   9 115.114 38.4163  10
   5   1   9 39.2007 25.9124   1
   5   1   9 84.1686 33.1395   8
   5   1   9 61.4517 21.7231   4
   5   1   9 75.4756 32.6929   7
   5   1   9 123.821 39.4671   6
   5   2  -7 474.008 56.8514   9
   5   2  -6 301.788 37.0806   3
   5   2  -6 205.770 40.7965   5
   5   2  -6 277.646 42.5815   9
   5   2  -6 303.444 37.5301   4
   5   2  -6 273.779 41.2387   4
   5   2  -6 329.805 42.7120  12
   5   2  -5 466.307 55.1962   5
   5   2  -5 406.209 50.5065   9
   5   2  -5 464.288 47.0803   4
   5   2  -5 451.803 40.4544   1
   5   2  -5 514.416 52.6706  12
   5   2  -5 448.191 46.9943   3
   5   2  -4 119.943 24.6436   3
   5   2  -4 188.999 34.6920   5
   5   2  -4 130.387 29.0453   9
   5   2  -4 155.178 27.4170   4
   5   2  -4 212.872 26.0773   1
   5   2  -4 192.134 31.0210  12
   5   2  -3 339.288 39.1221   3
   5   2  -3 336.372 44.2220   5
   5   2  -3 358.638 42.9386   9
   5   2  -3 350.476 39.1924   4
   5   2  -3 337.525 33.7427   1
   5   2  -3 348.258 42.4550  12
   5   2  -2 2995.04 176.585   9
   5   2  -2 2942.77 174.750   8
   5   2  -2 3324.49 175.044   4
   5   2  -2 3020.92 163.310   1
   5   2  -2 3022.98 175.166  12
   5   2  -2 3054.42 172.926   3
   5   2  -1 2681.62 156.083   9
   5   2  -1 2506.63 152.654   8
   5   2  -1 2763.95 154.186   4
   5   2  -1 2708.17 157.671   6
   5   2  -1 2818.47 156.660  12
   5   2  -1 2468.95 143.851   1
   5   2  -1 2626.39 153.277   3
   5   2   0 1923.93 125.137   5
   5   2   0 2070.21 124.620   8
   5   2   0 2173.76 125.943   4
   5   2   0 2006.22 126.679   7
   5   2   0 2115.66 126.751   6
   5   2   0 2133.42 125.739  12
   5   2   0 1641.70 118.393   3
   5   2   0 2113.84 119.894   1
   5   2   1 455.180 43.3458   1
   5   2   1 382.652 42.8055   5
   5   2   1 361.770 41.8770   9
   5   2   1 467.516 45.6748   8
   5   2   1 457.574 45.0292   4
   5   2   1 425.560 46.0389   7
   5   2   1 407.127 43.7293   6
   5   2   2 3060.45 178.572   5
   5   2   2 3750.94 186.839   1
   5   2   2 3074.85 180.267   9
   5   2   2 3567.00 187.100   8
   5   2   2 3394.37 186.807   7
   5   2   2 3533.16 186.066   6
   5   2   2 2925.39 176.866  12
   5   2   2 2836.90 177.695   3
   5   2   3 706.374 60.8805   5
   5   2   3 793.068 65.2096   9
   5   2   3 910.806 72.0359   1
   5   2   3 973.970 74.5522   8
   5   2   3 798.905 67.1492   4
   5   2   3 875.467 71.2910   6
   5   2   3 780.612 63.8648  12
   5   2   3 796.266 66.8016   3
   5   2   4 5315.46 301.196  10
   5   2   4 5767.00 292.185   9
   5   2   4 6287.70 305.366   1
   5   2   4 5469.75 295.738   4
   5   2   4 6282.76 307.044   6
   5   2   4 5343.64 288.081  12
   5   2   4 5334.70 292.483   3
   5   2   5 741.268 72.5011  10
   5   2   5 637.932 58.2747   9
   5   2   5 783.978 67.9743   4
   5   2   5 859.806 76.8369   6
   5   2   5 702.542 59.4348  12
   5   2   5 723.984 63.6912   3
   5   2   6 82.3080 27.7133  10
   5   2   6 111.070 25.2910   3
   5   2   6 93.4615 21.6727   9
   5   2   6 102.205 27.0590   4
   5   2   6 86.3357 27.1460   7
   5   2   6 97.6355 20.5544  12
   5   2   6 104.919 31.0744   6
   5   2   7 347.620 54.4778  10
   5   2   7 333.009 42.0588   3
   5   2   7 403.718 58.2661   8
   5   2   7 280.801 43.4036   4
   5   2   7 303.438 50.6613   7
   5   2   7 288.399 34.3421  12
   5   2   8 1268.97 120.436  10
   5   2   8 1282.72 117.915   8
   5   2   8 1351.14 105.190   4
   5   2   8 1411.30 122.051   7
   5   2   8 1324.82 85.8042  12
   5   2   8 1404.90 98.3074   3
   5   2   9 162.994 44.4449  10
   5   2   9 225.711 49.2315   8
   5   2   9 220.813 41.1472   4
   5   2   9 159.724 43.0558   7
   5   2   9 210.000 49.0590   6
   5   3  -6 610.359 67.0847   5
   5   3  -6 704.605 66.5794   9
   5   3  -6 654.200 62.3762  12
   5   3  -5 507.333 52.5541   9
   5   3  -5 389.495 51.4188   5
   5   3  -5 438.328 42.9794   4
   5   3  -5 493.831 52.6896  12
   5   3  -5 419.409 44.6114   3
   5   3  -4 503.572 55.3704   5
   5   3  -4 476.760 50.4257   9
   5   3  -4 438.906 43.4551   4
   5   3  -4 470.138 50.7901  12
   5   3  -4 446.895 45.1777   3
   5   3  -3 1070.51 90.4571   5
   5   3  -3 1222.07 90.0239   9
   5   3  -3 1157.34 82.3870   4
   5   3  -3 1402.86 72.3117   1
   5   3  -3 1108.32 88.1621  12
   5   3  -3 1286.15 88.1066   3
   5   3  -2 39.9403 9.81811   1
   5   3  -2 38.3004 16.3405   3
   5   3  -2 67.2954 22.8398   5
   5   3  -2 25.4366 15.3574   9
   5   3  -2 82.1497 18.3999   8
   5   3  -2 41.8687 16.4881   4
   5   3  -2 61.0362 20.4101  12
   5   3  -1 1384.20 96.4977   9
   5   3  -1 1197.05 86.6422   8
   5   3  -1 1496.36 93.8084   4
   5   3  -1 1469.85 93.8656   6
   5   3  -1 1441.12 96.8903  12
   5   3  -1 1416.20 94.5176   3
   5   3  -1 1310.81 80.0961   1
   5   3   0 318.999 31.8088   1
   5   3   0 366.179 38.9380   4
   5   3   0 259.746 32.3075   8
   5   3   0 313.360 36.8926   7
   5   3   0 361.186 39.1222   3
   5   3   0 321.336 36.0658   6
   5   3   0 326.592 39.1442  12
   5   3   1 2614.01 168.098   5
   5   3   1 3113.38 164.023   1
   5   3   1 3008.53 165.393   8
   5   3   1 3070.17 170.273   4
   5   3   1 3127.52 170.462   7
   5   3   1 2823.04 163.338   6
   5   3   1 3007.88 170.310   3
   5   3   2 1797.14 123.315   5
   5   3   2 1773.02 123.769   9
   5   3   2 2149.46 125.734   8
   5   3   2 2058.60 127.249   7
   5   3   2 2057.22 123.602   6
   5   3   2 1850.50 122.206  12
   5   3   3 1255.43 93.9939   9
   5   3   3 1564.26 100.164   8
   5   3   3 1454.73 99.1672   7
   5   3   3 1470.06 96.5861   6
   5   3   3 1184.12 89.5181  12
   5   3   3 1197.64 92.5039   3
   5   3   4 2060.62 136.065   9
   5   3   4 2472.16 147.068   8
   5   3   4 1979.08 137.867   4
   5   3   4 2594.42 150.529   7
   5   3   4 2374.29 144.064   6
   5   3   4 2137.69 133.937  12
   5   3   4 2087.09 137.780   3
   5   3   5 1216.62 96.6940   9
   5   3   5 1706.32 116.833   8
   5   3   5 1381.75 104.948   4
   5   3   5 1510.23 112.298   7
   5   3   5 1614.05 112.860   6
   5   3   5 1363.65 96.5022  12
   5   3   5 1451.08 103.613   3
   5   3   6 90.6796 30.1566  10
   5   3   6 138.196 29.8138   3
   5   3   6 152.315 28.4797   9
   5   3   6 235.708 42.8211   8
   5   3   6 164.028 32.9746   4
   5   3   6 109.559 24.4634  12
   5   3   6 218.289 39.6783   6
   5   3   7 1044.56 101.497  10
   5   3   7 929.668 89.8711   4
   5   3   7 1146.42 81.8092  12
   5   3   7 1132.82 90.4040   3
   5   3   8 1373.71 120.654  10
   5   3   8 1106.35 98.6357   4
   5   3   8 1210.21 112.749   7
   5   3   8 1499.27 122.377   6
   5   3   8 1048.48 77.0997  12
   5   3   8 1054.33 89.8940   3
   5   3   9 299.452 59.8378  10
   5   3   9 237.284 38.9027   3
   5   3   9 252.458 53.9955   8
   5   3   9 231.476 44.0255   4
   5   3   9 312.318 59.3358   7
   5   3   9 297.590 58.4896   6
   5   4  -7 96.2533 28.9789   5
   5   4  -6 284.374 43.9350   5
   5   4  -6 267.520 39.7953   9
   5   4  -6 222.124 38.5094  12
   5   4  -5 511.746 53.9342   9
   5   4  -5 418.672 52.1124   5
   5   4  -5 516.516 44.0719   4
   5   4  -5 425.402 52.6436  12
   5   4  -5 500.412 48.4747   3
   5   4  -4 9.78091 11.0204   3
   5   4  -4 13.2083 15.5187   5
   5   4  -4 32.0280 15.2429   9
   5   4  -4 32.4416 13.4833   4
   5   4  -4 16.6379 15.8348  12
   5   4  -3 109.465 23.4175   3
   5   4  -3 195.619 32.7897   5
   5   4  -3 164.944 30.6601   9
   5   4  -3 164.935 24.8239   4
   5   4  -3 176.861 31.6087  12
   5   4  -2 661.070 59.9968   5
   5   4  -2 488.225 52.8821   9
   5   4  -2 527.940 47.7368   4
   5   4  -2 471.906 51.8154  12
   5   4  -2 465.060 48.3662   3
   5   4  -1 1942.00 123.613   5
   5   4  -1 1816.23 120.835   9
   5   4  -1 1697.78 104.919   8
   5   4  -1 1906.82 115.198   4
   5   4  -1 1676.56 117.821  12
   5   4  -1 1849.50 117.633   3
   5   4  -1 1876.84 96.6522   1
   5   4   0 239.262 24.6581   1
   5   4   0 252.179 34.7367   3
   5   4   0 204.896 33.8306   9
   5   4   0 190.158 24.4734   8
   5   4   0 194.962 29.8599   4
   5   4   0 185.037 27.7945   7
   5   4   0 205.920 26.3114   6
   5   4   0 191.722 31.2515  12
   5   4   1 3050.31 153.005   1
   5   4   1 2518.73 148.436   8
   5   4   1 2733.81 159.904   4
   5   4   1 2650.24 154.047   7
   5   4   1 2629.09 148.917   6
   5   4   1 2782.45 161.922   3
   5   4   2 1585.10 113.893   9
   5   4   2 1759.54 107.117   8
   5   4   2 1915.33 117.681   4
   5   4   2 1623.10 108.381   7
   5   4   2 1726.87 104.984   6
   5   4   2 1501.33 109.981  12
   5   4   3 2158.23 147.670   9
   5   4   3 2537.01 146.601   8
   5   4   3 2503.00 148.472   7
   5   4   3 2616.03 144.430   6
   5   4   3 2300.18 145.320  12
   5   4   3 2113.26 145.600   3
   5   4   4 140.284 29.8712  10
   5   4   4 96.8273 24.9533   3
   5   4   4 113.841 27.4767   9
   5   4   4 118.726 27.2268   8
   5   4   4 80.2669 23.9814   4
   5   4   4 117.852 27.6595   7
   5   4   4 98.3276 23.4472  12
   5   4   4 104.810 24.6961   6
   5   4   5 1504.90 116.492  10
   5   4   5 1386.11 107.336   9
   5   4   5 1753.89 120.813   8
   5   4   5 1514.10 114.961   4
   5   4   5 1871.37 123.261   7
   5   4   5 1631.30 114.939   6
   5   4   5 1333.87 103.958  12
   5   4   5 1404.96 110.041   3
   5   4   6 143.784 31.3227   3
   5   4   6 150.420 35.7115   8
   5   4   6 112.087 30.2924   4
   5   4   6 144.632 35.7663   7
   5   4   6 169.733 30.8641  12
   5   4   6 152.818 36.0375   6
   5   4   7 457.445 58.9286   3
   5   4   7 620.193 74.5610   8
   5   4   7 507.893 64.1763   4
   5   4   7 596.977 74.3827   7
   5   4   7 529.333 54.7536  12
   5   4   7 684.018 75.4915   6
   5   4   8 262.324 43.7830   3
   5   4   8 295.865 55.9476   8
   5   4   8 168.562 40.0273   4
   5   4   8 267.118 35.6634  12
   5   4   8 309.423 55.9011   6
   5   4   9 627.978 86.9770  10
   5   4   9 603.030 67.1724   3
   5   4   9 839.928 92.0495   1
   5   4   9 595.634 75.2409   4
   5   4   9 847.611 96.1338   6
   5   4  10 1093.43 105.759   4
   5   5  -6 318.026 45.4251   5
   5   5  -6 338.724 46.5247   9
   5   5  -5 135.088 25.3783   3
   5   5  -5 146.887 31.1171   9
   5   5  -5 154.147 32.5117   5
   5   5  -5 161.581 34.7722  12
   5   5  -4 360.356 42.4582   3
   5   5  -4 395.367 49.3927   9
   5   5  -4 390.915 49.1527   5
   5   5  -4 396.553 39.3676   4
   5   5  -4 401.269 50.2920  12
   5   5  -3 47.7200 18.0786   3
   5   5  -3 64.2926 21.0488   9
   5   5  -3 66.8973 24.5407   5
   5   5  -3 52.6701 15.6713   4
   5   5  -3 77.5923 23.3337  12
   5   5  -2 994.994 80.4191   5
   5   5  -2 798.989 74.5069   9
   5   5  -2 885.662 68.4973   4
   5   5  -2 972.812 81.6101  12
   5   5  -2 915.576 74.4911   3
   5   5  -1 1147.61 89.9544   5
   5   5  -1 1068.99 89.1825   9
   5   5  -1 1152.96 68.9937   8
   5   5  -1 1163.95 82.9536   4
   5   5  -1 1159.43 61.1145   1
   5   5  -1 1000.39 87.0445  12
   5   5  -1 1109.18 85.9581   3
   5   5  -1 1122.81 59.9081   1
   5   5   0 571.180 58.8917   9
   5   5   0 558.133 41.1696   1
   5   5   0 538.906 41.4579   8
   5   5   0 531.293 39.8634   1
   5   5   0 565.366 54.1341   4
   5   5   0 559.869 47.1722   7
   5   5   0 556.005 42.9246   6
   5   5   0 445.373 54.3358  12
   5   5   0 505.267 54.4868   3
   5   5   1 3733.05 200.012   1
   5   5   1 4012.10 201.613   8
   5   5   1 4078.88 219.820   4
   5   5   1 3927.91 207.250   7
   5   5   1 3874.31 199.611   6
   5   5   1 3787.20 219.832   3
   5   5   2 877.902 63.7844   8
   5   5   2 847.380 72.9308   4
   5   5   2 852.934 66.2414   7
   5   5   2 722.500 57.6404   6
   5   5   2 732.976 70.7881  12
   5   5   3 2167.68 149.521   9
   5   5   3 2520.72 142.867   8
   5   5   3 2461.56 152.348   4
   5   5   3 2432.87 144.164   7
   5   5   3 2427.49 136.758   6
   5   5   3 1944.97 142.818  12
   5   5   3 1993.17 144.777   3
   5   5   4 1234.70 96.9718  10
   5   5   4 1056.27 92.8934   9
   5   5   4 1273.86 94.4261   8
   5   5   4 1310.14 96.2972   7
   5   5   4 1222.67 89.0263   6
   5   5   4 1071.39 91.2050  12
   5   5   4 1045.83 93.6250   3
   5   5   5 368.652 52.1049  10
   5   5   5 395.084 53.8672   3
   5   5   5 432.261 51.8088   1
   5   5   5 477.293 56.5654   8
   5   5   5 387.693 54.3914   4
   5   5   5 404.170 53.8580   7
   5   5   5 371.972 49.6798  12
   5   5   5 413.252 50.6225   6
   5   5   6 18.9352 20.2762  10
   5   5   6-5.69052 11.5627   3
   5   5   6-5.49612 16.7504   1
   5   5   6-12.3009 17.6724   8
   5   5   6-6.31574 15.7163   4
   5   5   6-6.20634 17.8330   7
   5   5   6 9.52283 13.6817  12
   5   5   6-11.1780 17.0333   6
   5   5   7 579.668 75.1115  10
   5   5   7 551.269 69.3133   3
   5   5   7 610.787 72.3836   1
   5   5   7 644.928 78.5495   8
   5   5   7 618.907 74.8374   4
   5   5   7 698.105 81.1915   7
   5   5   7 798.105 82.1065   6
   5   5   7 559.664 60.7062  12
   5   5   8 1822.64 150.341  10
   5   5   8 1953.46 154.163   8
   5   5   8 1487.86 134.967   1
   5   5   8 1670.69 140.447   4
   5   5   8 1936.52 153.735   7
   5   5   8 2290.81 158.704   6
   5   5   8 1649.79 132.262   3
   5   5   9 433.754 58.4470   3
   5   5   9 276.390 54.0625   4
   5   6  -5 22.9995 14.8282   9
   5   6  -5 36.9262 21.4704  12
   5   6  -4 83.2989 21.8463   3
   5   6  -4 32.4646 18.4214   9
   5   6  -4 62.5337 17.2129   4
   5   6  -4 52.6253 21.5328  12
   5   6  -3 24.8663 15.8017   3
   5   6  -3 23.4779 16.5705   9
   5   6  -3 25.0419 12.7802   4
   5   6  -3 51.7009 23.5204  12
   5   6  -2 391.032 48.6494   3
   5   6  -2 329.354 46.6393   9
   5   6  -2 335.790 40.5400   4
   5   6  -2 441.375 54.6709  12
   5   6  -1 102.404 25.7119   3
   5   6  -1 142.086 31.1170   9
   5   6  -1 109.292 24.4654   4
   5   6  -1 117.150 29.7262  12
   5   6   0 989.134 89.6782   9
   5   6   0 1040.00 62.3797   8
   5   6   0 1037.52 83.3151   4
   5   6   0 1128.43 71.6782   7
   5   6   0 1086.93 66.8456   1
   5   6   0 1067.30 91.3319  12
   5   6   0 1031.81 87.8961   3
   5   6   1 2363.86 156.456   9
   5   6   1 2250.48 126.288   8
   5   6   1 2230.95 148.200   4
   5   6   1 2357.07 132.922   1
   5   6   1 2474.69 135.022   7
   5   6   1 2430.17 124.742   6
   5   6   1 2173.98 151.335   3
   5   6   2 830.817 58.9842   8
   5   6   2 616.943 56.5900   1
   5   6   2 740.211 71.1601   4
   5   6   2 709.482 59.3408   7
   5   6   2 703.078 52.1421   6
   5   6   2 621.302 68.1738  12
   5   6   2 737.767 72.2281   3
   5   6   3 422.482 44.3801   8
   5   6   3 346.962 41.8067   1
   5   6   3 326.150 48.0947   4
   5   6   3 403.912 45.6877   7
   5   6   3 242.484 42.0454  12
   5   6   3 337.107 36.8133   6
   5   6   4 600.238 66.7292  10
   5   6   4 673.267 64.6702   8
   5   6   4 586.091 60.6674   1
   5   6   4 648.990 64.6839   7
   5   6   4 617.307 69.9525   4
   5   6   4 696.977 60.7158   6
   5   6   4 558.521 66.7112  12
   5   6   4 718.575 74.9082   3
   5   6   5 1640.24 124.996  10
   5   6   5 1845.33 128.300   8
   5   6   5 1637.38 120.173   1
   5   6   5 1651.24 123.252   7
   5   6   5 1733.66 118.951   6
   5   6   5 1401.75 119.193  12
   5   6   5 1669.11 130.210   3
   5   6   6-6.44411 20.7031  10
   5   6   6 6.50950 20.9131   3
   5   6   6-37.6019 25.4667   8
   5   6   6-5.79376 16.6497   1
   5   6   6 7.04395 16.0033   4
   5   6   6-6.33295 22.2875   7
   5   6   6 5.52466 16.8394  12
   5   6   6-5.50251 16.7719   6
   5   6   7 1634.60 131.854  10
   5   6   7 1592.49 130.463   8
   5   6   7 1579.49 126.263   1
   5   6   7 1180.54 119.341   4
   5   6   7 1645.34 132.271   7
   5   6   7 1379.23 119.077   6
   5   6   7 1323.80 121.074   3
   5   6   8 1791.19 153.060   3
   5   6   8 2379.53 176.023  10
   5   6   8 2205.68 173.016   8
   5   6   8 2327.44 168.816   1
   5   6   8 1958.16 163.549   4
   5   6   8 2369.13 176.184   7
   5   6   8 2412.44 172.485   6
   5   6   9 758.767 85.3138   3
   5   7  -5 23.3355 19.6831  12
   5   7  -4 304.987 42.6811   3
   5   7  -4 261.036 43.0452   9
   5   7  -4 382.703 56.1934  12
   5   7  -3 319.003 45.5894   3
   5   7  -3 272.595 44.3604   9
   5   7  -3 320.708 39.4674   4
   5   7  -3 324.288 52.3501  12
   5   7  -2 270.209 42.8935   3
   5   7  -2 301.124 46.4570   9
   5   7  -2 290.163 38.8564   4
   5   7  -2 305.342 49.1187  12
   5   7  -1 436.660 54.9845   3
   5   7  -1 419.906 56.8526   9
   5   7  -1 415.437 49.2974   4
   5   7  -1 460.112 26.6471   1
   5   7  -1 430.172 58.7769  12
   5   7   0 174.811 22.2209   1
   5   7   0 149.599 34.1750   3
   5   7   0 146.507 34.5740   9
   5   7   0 145.706 20.7038   7
   5   7   0 161.891 32.2810   4
   5   7   0 136.680 33.2473  12
   5   7   1 1044.56 65.0370   8
   5   7   1 905.790 86.0211   4
   5   7   1 1174.12 74.1179   7
   5   7   1 1101.25 76.3550   1
   5   7   1 1106.27 58.3409   6
   5   7   1 970.055 91.7411   3
   5   7   2 522.973 62.4186   3
   5   7   2 425.259 40.1725   8
   5   7   2 493.262 47.7746   1
   5   7   2 396.112 42.2077   7
   5   7   2 366.202 52.3793   4
   5   7   2 411.199 34.2804   6
   5   7   2 381.426 55.6310  12
   5   7   3 1702.78 108.143   8
   5   7   3 1367.70 119.622   4
   5   7   3 1780.37 114.620   1
   5   7   3 1764.05 111.431   7
   5   7   3 1571.16 98.2209   6
   5   7   3 1323.21 120.879  12
   5   7   4 629.731 67.1288  10
   5   7   4 618.860 74.1820   3
   5   7   4 497.960 57.0516   8
   5   7   4 737.908 66.9092   7
   5   7   4 542.516 60.6059   1
   5   7   4 503.512 66.8164   4
   5   7   4 645.352 56.8437   6
   5   7   4 572.054 71.2918  12
   5   7   5 273.926 46.7235  10
   5   7   5 174.922 42.2153   3
   5   7   5 237.776 42.4569   8
   5   7   5 261.407 43.4755   1
   5   7   5 224.050 41.8118   7
   5   7   5 223.278 45.2416  12
   5   7   5 274.419 40.6375   6
   5   7   6 642.147 74.1729  10
   5   7   6 438.326 67.2859   3
   5   7   6 554.408 70.3321   8
   5   7   6 544.547 68.5764   1
   5   7   6 615.153 72.1525   7
   5   7   6 568.593 77.0131   4
   5   7   6 688.928 69.9088   6
   5   7   7 58.8679 30.0167  10
   5   7   7 37.5979 24.2999   3
   5   7   7 51.6381 30.0910   8
   5   7   7 49.0564 25.8039   1
   5   7   7 103.333 36.8264   7
   5   7   7 92.0250 35.1392   4
   5   7   7 57.3956 29.8046   6
   5   7   8 939.858 101.563   3
   5   7   8 1118.09 108.086   6
   5   8  -3 208.678 38.9001   3
   5   8  -3 189.565 40.8437  12
   5   8  -2 11.0422 16.8654   3
   5   8  -2 37.6516 17.5604   4
   5   8  -2 32.8881 23.1752  12
   5   8  -1 104.167 31.2278   3
   5   8  -1 177.969 33.2552   4
   5   8  -1 159.181 38.0700  12
   5   8   0 151.753 35.1126   3
   5   8   0 81.9490 17.3089   1
   5   8   0 56.6321 23.7324   4
   5   8   0 134.264 36.3090  12
   5   8   1 32.0043 15.6708   1
   5   8   1 50.9535 25.1075   3
   5   8   1 31.7519 11.6860   7
   5   8   1 39.4423 21.4741   4
   5   8   2 642.884 76.6302   3
   5   8   2 756.026 53.6145   8
   5   8   2 706.064 56.0195   7
   5   8   2 620.354 60.1934   1
   5   8   2 598.459 71.8037   4
   5   8   2 486.221 69.6939  12
   5   8   3 444.952 63.7347   3
   5   8   3 457.740 47.4318   8
   5   8   3 582.479 58.4468   1
   5   8   3 432.383 47.8084   7
   5   8   3 389.337 59.7441   4
   5   8   3 423.464 38.8435   6
   5   8   4 222.824 47.2441   3
   5   8   4 238.718 37.9010   8
   5   8   4 305.594 42.4281   7
   5   8   4 189.954 44.0830   4
   5   8   4 267.072 42.9017   1
   5   8   4 257.215 34.5313   6
   5   8   5 195.042 39.7856  10
   5   8   5 70.0666 31.1611   3
   5   8   5 135.678 31.7091   8
   5   8   5 142.441 32.9530   7
   5   8   5 110.892 35.5383   4
   5   8   5 144.835 34.7915   1
   5   8   5 121.934 27.2828   6
   5   8   6 59.5363 26.9726  10
   5   8   6 57.8513 27.7935   8
   5   8   6 45.1502 26.3041   7
   5   8   6 58.6245 24.8595   1
   5   8   6 36.3869 20.5734   6
   5   8   7 37.2735 24.0057   8
   5   8   7 37.2681 23.6682   6
   5   9  -2 206.611 41.9917   3
   5   9  -1 153.501 37.3982   3
   5   9   0 248.557 49.7614   3
   5   9   0 380.367 53.4322   4
   5   9   1 199.127 41.9371   4
   5   9   2 291.260 41.4459   1
   5   9   2 318.709 53.3057   4
   5   9   3 680.237 70.3640   1
   5   9   4 11.0973 15.9501   1
   6  -4   3-18.6117 18.9248   9
   6  -3  -1 18.8663 20.2194   5
   6  -3   0 172.567 38.2514   5
   6  -3   0 181.135 41.0945   9
   6  -3   1 269.571 44.1999   5
   6  -3   1 140.257 37.9173   9
   6  -3   1 243.974 50.8752   8
   6  -3   1 262.628 51.1854   4
   6  -3   2 298.956 53.2012   3
   6  -3   2 417.993 50.7979   5
   6  -3   2 428.384 59.4223   9
   6  -3   2 329.052 57.9800   8
   6  -3   2 387.383 60.3546   4
   6  -3   2 424.381 61.5770  12
   6  -3   2 321.199 58.9792   6
   6  -3   3 136.045 36.7079   3
   6  -3   3 213.979 40.0177   9
   6  -3   3 209.816 46.8199   8
   6  -3   3 162.378 36.8035   4
   6  -3   3 145.871 36.6436   4
   6  -3   3 99.9868 35.8634  12
   6  -3   3 143.358 40.4272   6
   6  -3   4 739.418 73.9512   9
   6  -3   4 862.251 83.7619   4
   6  -3   4 670.281 83.8377   8
   6  -3   4 883.289 90.7059   3
   6  -3   4 744.580 84.1011  12
   6  -3   4 890.926 94.6312   6
   6  -3   5 184.002 39.4915   3
   6  -3   5 186.495 37.2484   4
   6  -3   5 202.932 42.5677  12
   6  -3   5 165.017 41.1659   6
   6  -3   6 91.0266 31.0941  12
   6  -2  -3 68.2822 29.5886   1
   6  -2  -2 55.8331 27.5618   3
   6  -2  -2 49.4772 23.6153   5
   6  -2  -2 32.2702 24.6346   9
   6  -2  -2 58.1594 31.6601   4
   6  -2  -2 77.5632 29.7776  12
   6  -2  -2 40.9018 24.0944   1
   6  -2  -1 925.527 89.3094   5
   6  -2  -1 886.797 89.2748   9
   6  -2  -1 881.664 93.0442   1
   6  -2  -1 1153.84 99.8760   3
   6  -2  -1 920.594 90.4582  12
   6  -2   0 78.5637 29.3302   5
   6  -2   0 64.9763 24.9624   9
   6  -2   0 43.2866 25.6035   8
   6  -2   1 11.9508 20.1318   3
   6  -2   1 4.73634 15.9573   5
   6  -2   1 5.61772 18.9267   9
   6  -2   1-6.89086 20.9998   1
   6  -2   1-7.03900 15.9888   8
   6  -2   1 5.86876 14.6030  12
   6  -2   1-7.01223 18.8462   6
   6  -2   2 451.743 61.3075   3
   6  -2   2 538.540 56.3049   5
   6  -2   2 499.472 60.5326   9
   6  -2   2 429.205 63.9303   8
   6  -2   2 613.520 74.0216   1
   6  -2   2 521.738 62.5428   4
   6  -2   2 523.384 64.1949  12
   6  -2   2 524.865 69.3421   6
   6  -2   3 596.617 70.3068   3
   6  -2   3 582.275 56.7401   5
   6  -2   3 653.423 65.9821   9
   6  -2   3 675.547 70.4647   4
   6  -2   3 644.348 76.1191   8
   6  -2   3 648.897 72.0385  12
   6  -2   3 624.800 75.2627   6
   6  -2   4 365.964 52.1637   3
   6  -2   4 311.392 43.3813   9
   6  -2   4 341.979 37.0686   5
   6  -2   4 321.579 54.4809   8
   6  -2   4 297.547 46.4202   4
   6  -2   4 317.671 52.6659   1
   6  -2   4 332.546 49.7655  12
   6  -2   4 305.228 53.8155   6
   6  -2   5 301.229 45.1813   3
   6  -2   5 226.489 34.5212   9
   6  -2   5 151.058 39.8722   8
   6  -2   5 178.449 35.3265   4
   6  -2   5 140.748 34.6740   7
   6  -2   5 246.339 43.3032  12
   6  -2   5 186.962 42.5839   1
   6  -2   5 226.571 46.3774   6
   6  -2   6 10.0024 15.3079   3
   6  -2   6 55.6409 26.4741   8
   6  -2   6 47.2291 19.2437   4
   6  -2   6 36.8028 23.3575   7
   6  -2   6 41.9594 20.6844  12
   6  -2   6 21.8413 24.5702   6
   6  -2   7 154.766 36.7923   7
   6  -1  -5 306.526 50.5696   1
   6  -1  -4 373.268 52.6326   3
   6  -1  -4 245.175 44.3761   1
   6  -1  -4 288.124 47.4305  12
   6  -1  -3 116.474 30.1276   3
   6  -1  -3 66.4600 26.3985   5
   6  -1  -3 113.408 31.8037   9
   6  -1  -3 117.401 39.1909   4
   6  -1  -3 126.906 33.4309   1
   6  -1  -3 69.7387 27.0474  12
   6  -1  -2 202.891 38.0888   3
   6  -1  -2 163.486 37.3804   5
   6  -1  -2 201.602 39.9476  12
   6  -1  -2 276.514 45.5158   1
   6  -1  -1 544.497 64.1768   1
   6  -1  -1 474.734 57.9159   5
   6  -1  -1 473.238 60.6109   9
   6  -1  -1 405.900 60.8455   8
   6  -1  -1 617.615 66.5198   3
   6  -1  -1 545.027 61.9163  12
   6  -1   0 307.691 46.8082   5
   6  -1   0 250.382 43.2199   9
   6  -1   0 375.069 52.5652   1
   6  -1   0 399.177 52.0317  12
   6  -1   1 79.1691 25.9212   3
   6  -1   1 74.3414 24.1461   5
   6  -1   1 54.6475 21.0647   9
   6  -1   1 154.305 35.8171   1
   6  -1   1 73.7326 25.8665   4
   6  -1   1 71.7075 24.0680  12
   6  -1   1 49.8300 26.2938   6
   6  -1   2 295.108 44.7804   3
   6  -1   2 226.376 35.4434   5
   6  -1   2 278.686 41.0215   9
   6  -1   2 192.421 40.4377   8
   6  -1   2 215.215 39.5025   4
   6  -1   2 222.985 42.9935   1
   6  -1   2 288.306 44.7078  12
   6  -1   2 302.512 48.2383   6
   6  -1   3 415.876 55.4234   3
   6  -1   3 473.665 48.7068   5
   6  -1   3 500.985 54.3464   9
   6  -1   3 535.768 65.6914   8
   6  -1   3 455.083 55.4718   4
   6  -1   3 473.172 60.0936   7
   6  -1   3 502.942 58.8590  12
   6  -1   3 526.009 65.5162   1
   6  -1   3 485.797 63.1906   6
   6  -1   4 731.750 58.9608   5
   6  -1   4 762.481 67.7654   9
   6  -1   4 752.609 72.2844   4
   6  -1   4 772.944 81.0441   8
   6  -1   4 782.500 79.3181   7
   6  -1   4 736.938 73.6114  12
   6  -1   4 798.924 76.0591   3
   6  -1   4 678.022 78.2559   6
   6  -1   5 296.213 44.4860   3
   6  -1   5 272.514 48.3573   1
   6  -1   5 252.468 36.0978   9
   6  -1   5 239.307 27.9820   5
   6  -1   5 227.431 46.3260   8
   6  -1   5 294.875 43.6475   4
   6  -1   5 281.905 46.7290   7
   6  -1   5 299.199 43.7111  12
   6  -1   5 265.728 48.7161   6
   6  -1   6 223.542 39.1327   3
   6  -1   6 241.165 33.0228   9
   6  -1   6 226.805 44.9500   1
   6  -1   6 228.319 46.4906   8
   6  -1   6 321.386 43.3106   4
   6  -1   6 196.740 39.9514   7
   6  -1   6 232.426 37.4145  12
   6  -1   6 230.781 46.1802   6
   6  -1   7 61.2827 23.2821   3
   6  -1   7 59.9876 28.0631   1
   6  -1   7 55.7595 27.5708   8
   6  -1   7 86.1248 24.5331   4
   6  -1   7 69.9410 29.7366   7
   6  -1   7 51.7110 20.2634  12
   6  -1   7 66.7741 31.2066   6
   6  -1   8 317.688 54.0095   7
   6   0  -5 103.224 29.6320   3
   6   0  -5 144.337 34.3576   4
   6   0  -5 95.3568 32.9431   4
   6   0  -5 159.041 36.1508  12
   6   0  -4 500.080 56.8602   3
   6   0  -4 469.237 60.2737   9
   6   0  -4 376.108 51.4359   1
   6   0  -4 490.007 68.3174   4
   6   0  -4 380.886 51.5890  12
   6   0  -3 68.2136 23.8573   3
   6   0  -3 39.1504 19.8260   5
   6   0  -3 59.0623 23.8948   9
   6   0  -3 57.6786 24.0393   1
   6   0  -3 48.9796 21.2444  12
   6   0  -2 95.9156 24.8341   1
   6   0  -2 67.6759 25.0245   3
   6   0  -2 141.138 32.2255   5
   6   0  -2 143.680 33.7258   9
   6   0  -2 71.5058 26.8247   8
   6   0  -2 186.709 36.2069   4
   6   0  -2 114.880 29.1703  12
   6   0  -1 95.5508 25.4016   3
   6   0  -1 53.3545 19.9435   1
   6   0  -1 63.0319 24.3213   5
   6   0  -1 57.1247 23.4112   8
   6   0  -1 54.3886 20.9326   4
   6   0  -1 107.728 27.9106  12
   6   0   0 174.761 33.3370   3
   6   0   0 224.618 36.6844   5
   6   0   0 183.008 34.8069   9
   6   0   0 194.624 38.4624   8
   6   0   0 232.501 38.9200   1
   6   0   0 151.795 32.1883  12
   6   0   0 213.929 39.3336   6
   6   0   1 2526.03 158.094   5
   6   0   1 2637.61 162.781   9
   6   0   1 2349.87 160.236   4
   6   0   1 2790.35 173.712   8
   6   0   1 2765.98 169.470   1
   6   0   2 2588.10 159.505   5
   6   0   2 2797.96 167.043   9
   6   0   2 2697.77 168.607   4
   6   0   2 2699.19 175.196   7
   6   0   2 2572.33 167.054   3
   6   0   2 2430.80 163.781  12
   6   0   3 643.309 57.2615   5
   6   0   3 692.370 63.8253   9
   6   0   3 678.329 66.2339   4
   6   0   3 604.042 68.1350   7
   6   0   3 648.445 63.8775  12
   6   0   3 627.926 64.8397   3
   6   0   3 700.030 72.0573   1
   6   0   4 40.3593 19.3915   3
   6   0   4 33.5188 15.6790   9
   6   0   4 51.7630 17.3547   5
   6   0   4 50.8234 24.3890   1
   6   0   4 23.5286 18.9617   8
   6   0   4 36.5055 20.2673   4
   6   0   4 39.6201 20.7909   7
   6   0   4 25.8014 15.8296  12
   6   0   4 23.5261 18.9597   6
   6   0   5 52.8273 21.1076   3
   6   0   5 38.1371 17.4143   9
   6   0   5 43.1214 21.8054   8
   6   0   5 63.7401 23.7004   4
   6   0   5 46.9400 23.2047   7
   6   0   5 63.2434 22.7858  12
   6   0   5 75.1228 25.5465   6
   6   0   6 30.5781 18.3595   3
   6   0   6 34.5014 15.0220   9
   6   0   6 51.9566 25.5970   8
   6   0   6 18.3993 15.5724   4
   6   0   6 55.4342 23.4606   7
   6   0   6 18.2727 18.6245   1
   6   0   6 40.8479 19.0763  12
   6   0   6 53.8655 25.6375   6
   6   0   7 176.148 32.2537   3
   6   0   7 151.248 24.1486   9
   6   0   7 199.606 43.1121   8
   6   0   7 149.125 31.8351   4
   6   0   7 123.836 35.7385   7
   6   0   7 148.008 29.1246  12
   6   0   7 167.522 41.7956   6
   6   0   7 165.455 38.8899   1
   6   0   8 260.719 48.9421   1
   6   0   8 302.395 42.6467   3
   6   0   8 358.132 58.6003   8
   6   0   8 269.660 41.5826   4
   6   0   8 277.514 50.6544   7
   6   0   8 402.202 64.9998   6
   6   0   9 743.536 88.7112  10
   6   1  -5 288.186 42.1503   3
   6   1  -5 272.820 47.7453   9
   6   1  -5 309.585 45.9665   4
   6   1  -5 283.350 50.3656   4
   6   1  -5 351.071 48.8986  12
   6   1  -4 118.153 28.8100   3
   6   1  -4 106.466 30.4476   5
   6   1  -4 71.5704 25.8276   9
   6   1  -4 125.044 29.7156   4
   6   1  -4 71.6380 21.0902   1
   6   1  -4 142.218 31.8905  12
   6   1  -3 456.793 53.1677   3
   6   1  -3 470.573 57.2360   9
   6   1  -3 388.166 50.3345   4
   6   1  -3 469.765 49.9624   1
   6   1  -3 519.204 56.4918  12
   6   1  -2 419.497 46.0350   1
   6   1  -2 327.177 44.5859   3
   6   1  -2 339.235 48.4026   5
   6   1  -2 295.492 44.1613   9
   6   1  -2 281.034 45.4349   8
   6   1  -2 378.147 47.4890   4
   6   1  -2 427.015 49.9344  12
   6   1  -1 1256.56 99.3184   5
   6   1  -1 1409.83 100.720   4
   6   1  -1 1243.26 100.324   8
   6   1  -1 1331.20 95.4764   1
   6   1  -1 1172.32 94.7919  12
   6   1  -1 1282.43 97.9182   3
   6   1   0 2054.83 146.432   5
   6   1   0 2254.78 149.402   9
   6   1   0 2509.99 153.771   4
   6   1   0 2409.21 155.844   8
   6   1   0 2558.88 159.157   6
   6   1   0 2376.34 150.504  12
   6   1   0 2609.45 154.408   3
   6   1   0 2524.60 151.449   1
   6   1   1 4314.42 254.785   5
   6   1   1 4499.01 256.129   9
   6   1   1 5092.50 267.479   8
   6   1   1 4870.32 265.227   6
   6   1   1 4893.60 260.863   1
   6   1   2 925.121 79.4309   1
   6   1   2 781.008 69.1010   5
   6   1   2 788.551 71.5937   9
   6   1   2 873.912 75.6846   4
   6   1   2 1048.72 84.2495   8
   6   1   2 913.024 79.9404   6
   6   1   2 838.476 73.0665  12
   6   1   2 795.833 72.2814   3
   6   1   3 327.377 44.2920   3
   6   1   3 372.136 45.2572   9
   6   1   3 313.625 39.7283   5
   6   1   3 481.339 55.8426   8
   6   1   3 472.407 54.2672   1
   6   1   3 298.450 42.4477   4
   6   1   3 394.271 51.3013   7
   6   1   3 345.108 44.3414  12
   6   1   3 417.174 51.7201   6
   6   1   4 1842.93 126.762   1
   6   1   4 1517.17 103.349   5
   6   1   4 1617.30 110.904   9
   6   1   4 1785.34 118.936   4
   6   1   4 1703.83 124.574   7
   6   1   4 1572.63 112.018  12
   6   1   4 1696.84 116.684   3
   6   1   5 374.515 46.8645   3
   6   1   5 449.622 46.0054   9
   6   1   5 413.315 54.7567   1
   6   1   5 366.098 48.3169   4
   6   1   5 316.608 48.8780   7
   6   1   5 395.798 46.7864  12
   6   1   6 1048.65 82.5564   9
   6   1   6 1215.95 106.429   8
   6   1   6 1144.74 93.8074   4
   6   1   6 1336.94 108.886   7
   6   1   6 1072.78 103.835   6
   6   1   6 1236.00 90.8593  12
   6   1   6 1339.77 97.2916   3
   6   1   7 196.903 43.2683  10
   6   1   7 165.322 33.7438   3
   6   1   7 165.771 26.7482   9
   6   1   7 198.953 42.5774   8
   6   1   7 176.599 34.7374   4
   6   1   7 180.788 40.4650   7
   6   1   7 206.382 32.3342  12
   6   1   7 161.816 37.7279   1
   6   1   7 164.540 40.6049   6
   6   1   8 428.973 66.2562  10
   6   1   8 319.454 54.1936   1
   6   1   8 324.998 43.9492   3
   6   1   8 267.669 53.5203   8
   6   1   8 419.740 52.1629   4
   6   1   8 268.523 52.3485   7
   6   1   8 345.923 40.7464  12
   6   1   8 464.556 68.2243   6
   6   1   9 124.928 40.2824  10
   6   1   9 188.742 44.3008   7
   6   2  -5 133.862 30.1933   3
   6   2  -5 209.209 41.7756   5
   6   2  -5 199.837 39.1244   9
   6   2  -5 189.076 32.7694   4
   6   2  -5 175.232 34.5945  12
   6   2  -4 992.029 91.0148   5
   6   2  -4 1120.48 90.9091   9
   6   2  -4 1094.07 84.7360   4
   6   2  -4 1007.03 74.8946   1
   6   2  -4 1033.71 86.6036  12
   6   2  -4 1030.37 83.2160   3
   6   2  -3 1169.69 98.5463   5
   6   2  -3 1170.49 95.0886   9
   6   2  -3 1243.59 92.2878   4
   6   2  -3 1106.66 81.8439   1
   6   2  -3 1383.41 99.3848  12
   6   2  -3 1264.83 92.5407   3
   6   2  -2 388.232 47.2824   3
   6   2  -2 397.509 49.9918   9
   6   2  -2 584.608 55.4602   4
   6   2  -2 498.093 54.6527   8
   6   2  -2 493.165 46.7185   1
   6   2  -2 369.392 47.6587  12
   6   2  -1 4349.39 265.016   5
   6   2  -1 4747.23 265.296   9
   6   2  -1 4962.97 267.036   8
   6   2  -1 5202.26 266.450   4
   6   2  -1 5121.81 270.841   6
   6   2  -1 5016.99 256.202   1
   6   2  -1 5014.07 266.792  12
   6   2  -1 4668.23 261.844   3
   6   2   0 874.011 77.3386   5
   6   2   0 1010.02 80.6112   8
   6   2   0 953.112 77.7544   4
   6   2   0 973.378 80.4929   6
   6   2   0 997.431 79.4526  12
   6   2   0 975.536 77.9921   3
   6   2   0 872.219 71.6998   1
   6   2   1 241.584 35.2480   1
   6   2   1 186.407 33.3507   5
   6   2   1 226.182 34.9774   9
   6   2   1 212.735 34.3366   8
   6   2   1 234.737 36.3401   4
   6   2   1 188.254 35.0261   7
   6   2   1 236.236 37.0278   6
   6   2   2 154.154 31.5295   3
   6   2   2 183.217 31.2644   9
   6   2   2 192.112 31.2392   5
   6   2   2 222.081 36.8728   8
   6   2   2 153.085 30.4137   1
   6   2   2 238.385 38.1099   7
   6   2   2 227.319 33.9846  12
   6   2   2 227.621 36.0969   6
   6   2   3 2756.22 154.844   1
   6   2   3 2087.69 136.498   5
   6   2   3 2001.13 139.610   9
   6   2   3 2574.43 153.860   8
   6   2   3 2310.50 145.865   4
   6   2   3 2417.68 149.752   6
   6   2   3 2177.27 140.770  12
   6   2   3 2150.39 142.368   3
   6   2   4 5012.72 258.893   1
   6   2   4 4151.08 241.909   9
   6   2   4 5356.19 264.852   8
   6   2   4 4084.21 245.859   4
   6   2   4 5027.71 260.140   6
   6   2   4 4060.83 240.655  12
   6   2   4 4251.04 246.034   3
   6   2   5 158.815 31.9285   3
   6   2   5 205.755 32.6550   9
   6   2   5 118.942 33.3881   8
   6   2   5 142.885 31.8622   4
   6   2   5 176.203 36.3637   7
   6   2   5 176.306 37.1605   1
   6   2   5 193.116 32.4967  12
   6   2   5 151.977 35.5687   6
   6   2   6 4524.48 266.921  10
   6   2   6 4067.67 238.300   9
   6   2   6 4789.42 264.433   1
   6   2   6 4458.71 253.530   4
   6   2   6 4494.15 265.340   7
   6   2   6 4500.42 243.583  12
   6   2   6 4071.84 246.127   3
   6   2   7 1759.11 138.674  10
   6   2   7 1492.05 106.113   9
   6   2   7 1686.16 123.494   4
   6   2   7 1591.59 131.863   7
   6   2   7 1798.68 113.763  12
   6   2   7 1665.50 118.063   3
   6   2   8 219.642 48.4286  10
   6   2   8 168.455 32.6304   3
   6   2   8 152.026 40.1202   8
   6   2   8 132.945 33.2313   4
   6   2   8 188.908 45.4169   7
   6   2   8 182.425 42.4542   1
   6   2   8 182.976 29.4122  12
   6   2   9 78.5356 35.6393  10
   6   2   9 80.7159 28.3172   4
   6   3  -6 1573.97 119.253   9
   6   3  -5 210.278 34.0034   3
   6   3  -5 174.795 38.0320   5
   6   3  -5 223.049 38.9440   9
   6   3  -5 140.807 27.0827   4
   6   3  -5 151.782 32.8999  12
   6   3  -4 86.1724 22.9263   3
   6   3  -4 124.348 31.8784   5
   6   3  -4 93.0623 24.4928   9
   6   3  -4 98.6957 16.3772   1
   6   3  -4 76.8249 21.4693   4
   6   3  -4 128.828 29.8794  12
   6   3  -3 670.549 68.5157   5
   6   3  -3 655.928 65.4915   9
   6   3  -3 683.878 61.5710   4
   6   3  -3 720.817 51.3039   1
   6   3  -3 667.883 66.2840  12
   6   3  -3 683.972 63.2371   3
   6   3  -2 342.314 42.8807   3
   6   3  -2 377.164 49.2446   5
   6   3  -2 287.704 41.6694   9
   6   3  -2 363.976 43.6545   8
   6   3  -2 392.803 43.9971   4
   6   3  -2 325.531 33.3938   1
   6   3  -2 391.479 48.0480  12
   6   3  -1 881.124 75.6481   9
   6   3  -1 785.437 68.7969   8
   6   3  -1 882.232 72.6372   4
   6   3  -1 898.133 63.1292   1
   6   3  -1 860.071 74.4649  12
   6   3  -1 874.817 73.8278   3
   6   3   0 586.158 60.6540   5
   6   3   0 653.475 58.7083   8
   6   3   0 670.129 60.8948   4
   6   3   0 584.615 57.5593   6
   6   3   0 551.065 58.2226  12
   6   3   0 726.123 63.4238   3
   6   3   0 592.035 51.8077   1
   6   3   1 10951.1 479.050   1
   6   3   1 8835.06 482.382   5
   6   3   1 8526.30 480.619   9
   6   3   1 9829.97 479.966   8
   6   3   1 10091.0 484.062   4
   6   3   1 9738.13 484.034   7
   6   3   1 9516.09 478.771   6
   6   3   1 10028.2 484.480   3
   6   3   2 3708.35 228.069   5
   6   3   2 4018.00 232.636   9
   6   3   2 4545.20 234.445   8
   6   3   2 3869.07 230.481   4
   6   3   2 4215.16 235.282   7
   6   3   2 4283.16 230.853   6
   6   3   2 3929.95 229.481  12
   6   3   3 180.482 32.1116   3
   6   3   3 200.957 33.4060   9
   6   3   3 160.390 30.2549   5
   6   3   3 215.424 35.7087   8
   6   3   3 250.694 38.7529   7
   6   3   3 218.697 36.4797   1
   6   3   3 179.296 31.5558  12
   6   3   3 199.477 33.1774   6
   6   3   4 2533.79 171.937   9
   6   3   4 3559.49 189.719   1
   6   3   4 3407.28 188.369   8
   6   3   4 2661.65 176.464   4
   6   3   4 3313.36 187.965   7
   6   3   4 3232.46 183.764   6
   6   3   4 2638.76 170.440  12
   6   3   4 2634.35 175.631   3
   6   3   5 148.786 30.7828   3
   6   3   5 142.038 29.2400   9
   6   3   5 149.601 34.2551   8
   6   3   5 86.6950 26.0197   4
   6   3   5 146.851 36.7382   7
   6   3   5 96.7933 24.5686  12
   6   3   5 182.785 37.0811   6
   6   3   6 887.154 91.0149  10
   6   3   6 919.956 80.0420   9
   6   3   6 1272.82 103.150   8
   6   3   6 1003.37 89.0672   4
   6   3   6 1288.39 102.503   6
   6   3   6 815.672 75.9995  12
   6   3   6 923.385 83.5920   3
   6   3   7 187.602 42.7346  10
   6   3   7 150.229 33.7663   3
   6   3   7 132.218 28.5543   9
   6   3   7 210.123 43.3101   8
   6   3   7 155.384 36.3025   4
   6   3   7 161.539 41.0151   7
   6   3   7 134.291 29.8405  12
   6   3   7 284.732 50.9066   6
   6   3   8 443.161 67.9479  10
   6   3   8 348.386 49.0662   3
   6   3   8 464.067 60.3166   4
   6   3   8 420.561 63.9118   7
   6   3   8 349.549 43.6799  12
   6   3   8 539.582 73.3320   6
   6   3   9 237.929 40.6919   3
   6   3   9 287.115 49.4467   4
   6   4  -6 250.035 43.3780   9
   6   4  -5 111.248 24.7010   3
   6   4  -5 134.807 34.4684   5
   6   4  -5 72.6782 28.1623   9
   6   4  -5 69.0258 26.3665  12
   6   4  -4 175.687 31.7250   3
   6   4  -4 154.928 33.4713   5
   6   4  -4 127.449 30.3436   9
   6   4  -4 146.550 26.5754   4
   6   4  -4 162.666 33.3153  12
   6   4  -3 130.055 27.9145   3
   6   4  -3 89.4583 26.7228   5
   6   4  -3 87.5477 25.2860   9
   6   4  -3 137.292 25.7940   4
   6   4  -3 125.127 28.7015  12
   6   4  -2 206.772 33.0560   3
   6   4  -2 122.168 29.4549   9
   6   4  -2 149.392 31.9902   5
   6   4  -2 189.277 29.3478   8
   6   4  -2 196.090 30.5882   4
   6   4  -2 193.136 33.2515  12
   6   4  -2 187.018 19.6078   1
   6   4  -1 1456.80 112.815   5
   6   4  -1 1884.45 119.987   9
   6   4  -1 1723.20 105.059   8
   6   4  -1 1569.09 107.285   4
   6   4  -1 1493.38 111.070  12
   6   4  -1 1514.96 90.6520   1
   6   4  -1 1567.38 110.740   3
   6   4   0 3514.00 178.173   1
   6   4   0 3252.17 197.346   9
   6   4   0 3322.32 185.171   8
   6   4   0 3456.89 194.298   4
   6   4   0 3329.12 191.406   7
   6   4   0 3368.74 187.672   6
   6   4   0 3231.88 195.835  12
   6   4   0 3293.35 194.583   3
   6   4   1 5210.24 304.398   5
   6   4   1 6109.36 293.604   1
   6   4   1 5668.73 294.716   8
   6   4   1 5850.94 304.601   4
   6   4   1 5560.96 299.790   7
   6   4   1 5775.71 295.397   6
   6   4   1 5803.03 306.094   3
   6   4   2 3145.60 193.216   9
   6   4   2 3396.20 185.193   1
   6   4   2 3387.97 185.633   8
   6   4   2 3278.08 191.851   4
   6   4   2 3305.21 188.657   7
   6   4   2 3262.48 182.724   6
   6   4   2 2793.90 185.161  12
   6   4   3 201.930 36.9153   3
   6   4   3 356.544 45.8758   9
   6   4   3 275.845 38.6326   8
   6   4   3 307.979 42.0683   7
   6   4   3 236.855 36.7600  12
   6   4   3 272.881 37.8357   6
   6   4   4 217.620 39.9186   3
   6   4   4 207.797 38.0368   9
   6   4   4 298.795 42.3502   8
   6   4   4 262.170 42.5312   4
   6   4   4 304.825 44.1505   7
   6   4   4 266.965 39.3548  12
   6   4   4 351.528 44.7749   6
   6   4   5 1077.53 94.6762   9
   6   4   5 1433.20 107.665   8
   6   4   5 969.856 94.3539   4
   6   4   5 1406.10 108.575   7
   6   4   5 1511.26 106.680   6
   6   4   5 1147.21 93.9495  12
   6   4   5 1187.38 98.5246   3
   6   4   6 1539.78 121.181   9
   6   4   6 2047.76 142.579   8
   6   4   6 1810.01 133.866   4
   6   4   6 2000.53 142.227   7
   6   4   6 1833.69 134.553   6
   6   4   6 1740.68 122.535  12
   6   4   6 1606.09 125.442   3
   6   4   7 771.946 88.9517  10
   6   4   7 1000.67 96.9644   8
   6   4   7 1002.67 92.8370   4
   6   4   7 983.654 96.5066   7
   6   4   7 1124.95 100.460   6
   6   4   7 723.282 72.9271  12
   6   4   7 770.026 81.0320   3
   6   4   8 566.851 79.4485  10
   6   4   8 583.017 70.5909   3
   6   4   8 805.639 91.4807   8
   6   4   8 659.149 78.3025   4
   6   4   8 929.270 95.4876   6
   6   4   8 701.136 65.5905  12
   6   4   9 681.460 74.5414   3
   6   4   9 854.371 89.9713   4
   6   4  10 125.439 37.9017   4
   6   5  -5 113.413 31.4624   5
   6   5  -5 205.328 39.1412   9
   6   5  -5 217.751 40.3561  12
   6   5  -4 183.735 32.2262   3
   6   5  -4 153.180 33.7841   9
   6   5  -4 167.599 38.7503   5
   6   5  -4 188.926 29.3743   4
   6   5  -4 144.812 32.4287  12
   6   5  -3 16.6455 13.3915   3
   6   5  -3 4.86604 13.1024   9
   6   5  -3 15.3089 16.4118   5
   6   5  -3 42.0783 17.1015   4
   6   5  -3 30.1626 18.4296  12
   6   5  -2 42.2123 18.2578   3
   6   5  -2 34.0180 21.5734   9
   6   5  -2 30.1390 19.1546   5
   6   5  -2 25.8889 15.5668   4
   6   5  -2 44.0146 21.1333  12
   6   5  -1 1149.82 97.9940   5
   6   5  -1 1323.85 103.177   9
   6   5  -1 1248.01 82.7052   8
   6   5  -1 1340.52 71.7494   1
   6   5  -1 1246.84 92.8336   4
   6   5  -1 1331.24 102.378  12
   6   5  -1 1290.81 71.0003   1
   6   5  -1 1104.46 93.3993   3
   6   5   0 124.254 28.5143   3
   6   5   0 212.251 36.7187   9
   6   5   0 156.015 24.8152   8
   6   5   0 116.290 27.7608   4
   6   5   0 134.772 25.6322   7
   6   5   0 133.725 20.4425   1
   6   5   0 141.151 23.8191   6
   6   5   0 156.282 32.5452  12
   6   5   1 1216.76 80.2924   1
   6   5   1 1126.26 79.3112   8
   6   5   1 1163.20 90.9016   4
   6   5   1 1086.56 83.4810   7
   6   5   1 1140.95 79.1032   6
   6   5   1 1145.11 92.8850   3
   6   5   2 1536.45 119.788   9
   6   5   2 1672.95 106.812   8
   6   5   2 1742.47 120.121   4
   6   5   2 1596.44 110.358   7
   6   5   2 1695.67 105.828   6
   6   5   2 1429.66 113.338  12
   6   5   2 1668.89 118.882   3
   6   5   3 256.075 42.3996   9
   6   5   3 316.531 40.2312   8
   6   5   3 264.961 42.3832   4
   6   5   3 268.400 40.0429   7
   6   5   3 247.561 41.0470  12
   6   5   3 286.897 36.7078   6
   6   5   4 291.896 46.3038   3
   6   5   4 266.147 44.4945   9
   6   5   4 392.802 48.5802   8
   6   5   4 364.336 48.9458   7
   6   5   4 334.897 47.7625  12
   6   5   4 460.726 49.3448   6
   6   5   5 260.110 45.7801  10
   6   5   5 291.875 47.9521   3
   6   5   5 219.245 43.3035   9
   6   5   5 287.577 45.9835   8
   6   5   5 293.080 48.6102   4
   6   5   5 376.874 52.4353   7
   6   5   5 261.413 44.5712  12
   6   5   5 366.376 47.9049   6
   6   5   6 2050.63 149.251  10
   6   5   6 2089.53 147.903   8
   6   5   6 1687.37 139.965   4
   6   5   6 2118.64 148.843   7
   6   5   6 2110.18 143.962   6
   6   5   6 1656.37 130.098  12
   6   5   6 1868.38 141.676   3
   6   5   7 358.399 59.3337  10
   6   5   7 275.144 51.9877   3
   6   5   7 323.329 56.3143   8
   6   5   7 343.367 55.9427   4
   6   5   7 360.094 58.7590   7
   6   5   7 345.597 49.5337  12
   6   5   7 440.878 61.9101   6
   6   5   8 291.161 57.8455  10
   6   5   8 324.620 53.6622   3
   6   5   8 353.547 59.6903   1
   6   5   8 357.238 63.8846   8
   6   5   8 254.044 51.2213   4
   6   5   8 339.080 59.7235   7
   6   5   8 330.808 46.2586  12
   6   5   8 305.642 57.7659   6
   6   5   9 70.0734 26.9835   3
   6   5   9 125.748 36.8068   4
   6   6  -5 192.902 37.0034   9
   6   6  -5 127.012 35.4227  12
   6   6  -4 105.702 25.9427   3
   6   6  -4 83.5346 26.2211   9
   6   6  -4 69.8864 25.8567   5
   6   6  -4 56.8652 24.7611  12
   6   6  -3 281.251 42.5478   3
   6   6  -3 213.328 43.3515   9
   6   6  -3 344.834 51.4184   5
   6   6  -3 327.902 39.6063   4
   6   6  -3 317.196 50.7140  12
   6   6  -2 60.4362 21.2495   3
   6   6  -2 42.1240 22.1781   9
   6   6  -2 50.6022 18.6939   4
   6   6  -2 54.9007 22.4307  12
   6   6  -1 186.714 35.6917   3
   6   6  -1 266.415 43.6125   9
   6   6  -1 238.944 25.4094   8
   6   6  -1 248.848 37.3227   4
   6   6  -1 270.423 43.8867  12
   6   6   0 569.894 44.6788   1
   6   6   0 724.839 73.4990   9
   6   6   0 596.365 47.1418   8
   6   6   0 595.095 61.8137   4
   6   6   0 671.380 47.2757   1
   6   6   0 632.194 55.0304   7
   6   6   0 667.673 50.3918   6
   6   6   0 641.577 69.0218  12
   6   6   0 663.477 68.1907   3
   6   6   1 247.302 40.8232   3
   6   6   1 251.994 44.0426   9
   6   6   1 279.614 31.3071   8
   6   6   1 298.989 32.6333   1
   6   6   1 310.036 43.9066   4
   6   6   1 290.409 36.5077   7
   6   6   1 276.390 31.3902   6
   6   6   2 1681.93 104.557   8
   6   6   2 1493.10 102.141   1
   6   6   2 1575.65 119.631   4
   6   6   2 1728.82 110.654   7
   6   6   2 1649.92 101.626   6
   6   6   2 1431.17 118.088  12
   6   6   2 1750.89 125.495   3
   6   6   3 172.630 38.0156   9
   6   6   3 170.050 31.4822   1
   6   6   3 209.013 33.3599   8
   6   6   3 284.616 45.8086   4
   6   6   3 248.893 37.6091   7
   6   6   3 257.817 44.4110  12
   6   6   3 209.398 30.8850   6
   6   6   4 133.178 35.5926   3
   6   6   4 218.567 42.5000   9
   6   6   4 233.957 37.1681   1
   6   6   4 199.499 36.9784   8
   6   6   4 247.955 44.6977   4
   6   6   4 253.204 40.7487   7
   6   6   4 201.417 39.9780  12
   6   6   4 263.847 37.5074   6
   6   6   5 1102.43 97.3058  10
   6   6   5 944.306 85.1596   1
   6   6   5 1088.44 91.5226   8
   6   6   5 975.318 88.9125   7
   6   6   5 941.665 82.3014   6
   6   6   5 852.435 88.4921  12
   6   6   5 865.510 90.0554   3
   6   6   6 27.2393 21.8757  10
   6   6   6 13.4813 19.3675   3
   6   6   6 5.85116 17.8317   1
   6   6   6-12.6034 20.2434   8
   6   6   6-7.21638 16.3921   4
   6   6   6 19.2055 20.5651   7
   6   6   6-5.90634 13.4165  12
   6   6   6 16.7956 19.7011   6
   6   6   7 567.616 75.7061  10
   6   6   7 532.777 71.6693   3
   6   6   7 560.267 70.4972   1
   6   6   7 550.041 73.0454   8
   6   6   7 389.198 64.4974   4
   6   6   7 478.841 68.6132   7
   6   6   7 450.172 60.2769  12
   6   6   7 404.552 61.7257   6
   6   6   8 14.3350 17.8358   3
   6   6   8-8.24306 20.5119   4
   6   6   8 15.0154 25.2951   6
   6   6   9 142.525 37.4664   3
   6   7  -4 193.566 38.9752   9
   6   7  -4 169.018 41.0450  12
   6   7  -3 200.541 37.4328   3
   6   7  -3 224.445 41.1864   9
   6   7  -3 273.057 47.4381  12
   6   7  -2 321.336 49.4864   3
   6   7  -2 365.068 53.1282   9
   6   7  -2 304.399 41.1449   4
   6   7  -2 288.301 50.3320  12
   6   7  -1 32.0775 16.3991   3
   6   7  -1 64.3279 26.6324   9
   6   7  -1 54.1522 21.0897   4
   6   7  -1 30.4087 20.5748  12
   6   7   0 942.295 59.8475   1
   6   7   0 797.063 85.3009   9
   6   7   0 994.988 57.6250   8
   6   7   0 903.291 81.7726   4
   6   7   0 907.837 67.3299   7
   6   7   0 1001.27 61.6510   1
   6   7   0 920.468 90.1000  12
   6   7   0 827.069 84.0776   3
   6   7   1 422.981 57.9482   3
   6   7   1 519.760 63.7000   9
   6   7   1 378.894 35.9218   8
   6   7   1 405.217 40.2951   1
   6   7   1 427.704 43.1078   7
   6   7   1 334.289 49.6472   4
   6   7   1 441.289 35.5169   6
   6   7   2 206.378 41.1246   3
   6   7   2 240.816 31.7809   8
   6   7   2 284.153 36.5291   1
   6   7   2 313.252 38.0673   7
   6   7   2 246.738 43.1881   4
   6   7   2 277.892 30.3024   6
   6   7   2 188.294 40.9531  12
   6   7   3 153.038 28.5817   8
   6   7   3 97.4024 24.0115   1
   6   7   3 135.544 28.2607   7
   6   7   3 112.263 31.5596   4
   6   7   3 128.602 35.0327  12
   6   7   3 140.045 24.5688   6
   6   7   4 61.0378 25.8179   3
   6   7   4 22.1748 16.3077   8
   6   7   4 65.6595 21.3550   1
   6   7   4 54.5058 25.9365   4
   6   7   4 38.5325 21.3761   7
   6   7   4 13.1397 17.7164  12
   6   7   4 18.2507 14.4332   6
   6   7   5 432.905 61.1313  10
   6   7   5 460.484 68.1288   3
   6   7   5 652.796 67.4254   8
   6   7   5 516.041 60.9801   1
   6   7   5 519.372 62.7661   7
   6   7   5 570.846 58.8877   6
   6   7   5 421.868 63.9612  12
   6   7   6 76.0226 31.4338  10
   6   7   6 37.5895 24.1980   3
   6   7   6 31.4846 23.9824   8
   6   7   6 49.0569 23.3573   1
   6   7   6 15.9236 21.4527   4
   6   7   6 44.8820 26.0974   7
   6   7   6 33.2939 24.4362  12
   6   7   6 16.1804 19.0404   6
   6   7   7 459.567 71.0248  10
   6   7   7 436.669 69.5067   3
   6   7   7 588.445 74.6659   8
   6   7   7 535.480 71.1061   1
   6   7   7 571.358 76.3196   7
   6   7   7 589.612 70.7294   6
   6   7   8 146.710 41.3460   6
   6   8  -2 40.2552 26.1252   3
   6   8  -2-6.15770 19.7806   9
   6   8  -1 47.9502 23.6056   3
   6   8  -1 12.6644 20.3695   9
   6   8  -1 14.7908 15.8739   4
   6   8  -1 34.3963 23.2019  12
   6   8   0 198.847 41.2994   3
   6   8   0 165.619 34.9382   4
   6   8   0 213.717 44.5503  12
   6   8   1 84.4027 29.9468   3
   6   8   1 156.535 34.7294   4
   6   8   2 246.237 47.6198   3
   6   8   2 207.463 30.5687   7
   6   8   2 221.060 44.5954   4
   6   8   2 196.683 32.7983   1
   6   8   2 249.376 47.9101  12
   6   8   3 43.0864 28.3869   3
   6   8   3 43.3997 17.1796   8
   6   8   3 63.4397 21.4908   7
   6   8   3 116.687 36.3356   4
   6   8   3 56.8765 21.0279   1
   6   8   3 116.314 33.9533  12
   6   8   4 568.355 78.6833   3
   6   8   4 795.136 68.7863   8
   6   8   4 734.404 72.1529   1
   6   8   4 779.275 71.0654   7
   6   8   4 588.261 78.2673   4
   6   8   4 620.146 80.1986  12
   6   8   5 191.052 47.8403   3
   6   8   5 221.835 42.4315   8
   6   8   5 276.983 44.7115   7
   6   8   5 228.503 41.7991   1
   6   8   5 320.361 55.7601  12
   6   8   5 297.588 40.4402   6
   6   8   6 182.084 41.9653  10
   6   8   6 143.802 37.5744   8
   6   8   6 116.235 33.4080   1
   6   8   6 140.581 36.6955   7
   6   8   6 138.414 31.8847   6
   6   8   7 311.793 55.4333   8
   6   9   0 5.79735 18.6248   4
   6   9   1 63.1268 26.5923   4
   6   9   2 232.776 47.8181   4
   6   9   4 763.787 77.5389   1
   6   9   5-6.01362 18.3284   1
   7  -2   0 127.769 34.3383   5
   7  -2   1 317.340 50.7081   5
   7  -2   2 194.279 37.7385   5
   7  -2   2 244.301 47.0072   9
   7  -2   3 45.7739 23.3405   9
   7  -2   4 78.6537 26.3343   9
   7  -2   5 41.6877 25.7351   4
   7  -1  -2 359.593 56.0832   1
   7  -1  -1 216.350 44.8176   1
   7  -1  -1 171.269 41.1856   5
   7  -1   0 790.777 80.6438   5
   7  -1   0 684.702 79.0426   9
   7  -1   0 997.533 95.6209   1
   7  -1   0 906.428 90.3391   3
   7  -1   0 904.249 87.7371  12
   7  -1   1 594.467 73.1597   3
   7  -1   1 688.194 74.4634   9
   7  -1   1 616.923 68.5980   5
   7  -1   1 804.663 85.1919   1
   7  -1   1 650.576 73.7892   4
   7  -1   1 583.343 69.2636  12
   7  -1   1 628.703 78.8508   6
   7  -1   2 91.5220 30.8658   3
   7  -1   2 137.157 31.2586   5
   7  -1   2 182.838 38.9812   9
   7  -1   2 126.265 37.3756   8
   7  -1   2 116.677 32.8845   4
   7  -1   2 127.910 38.5971   1
   7  -1   2 95.2785 29.5354  12
   7  -1   2 141.174 38.8836   6
   7  -1   3 198.130 41.2823   3
   7  -1   3 188.414 38.4817   9
   7  -1   3 179.507 32.2280   5
   7  -1   3 215.608 47.2763   8
   7  -1   3 208.881 41.0452   4
   7  -1   3 165.878 40.9606   1
   7  -1   3 117.658 32.6728  12
   7  -1   3 260.257 49.6381   6
   7  -1   4 153.083 36.4938   3
   7  -1   4 189.259 36.9826   9
   7  -1   4 159.186 29.2325   5
   7  -1   4 277.031 51.7971   8
   7  -1   4 214.738 41.8109   4
   7  -1   4 161.851 40.1590   7
   7  -1   4 248.611 47.8191   1
   7  -1   4 237.274 42.5177  12
   7  -1   4 287.316 53.9572   6
   7  -1   5 361.180 51.2555   3
   7  -1   5 248.562 40.4390   9
   7  -1   5 273.544 53.2191   8
   7  -1   5 225.879 43.1548   4
   7  -1   5 268.021 50.1261   7
   7  -1   5 283.526 47.6949  12
   7  -1   5 287.019 53.6975   6
   7  -1   6-5.54313 16.8929   3
   7  -1   6 11.0742 18.6554   4
   7  -1   6 14.2373 20.4536   7
   7  -1   6-11.0152 17.6926  12
   7   0  -3 22.3206 17.0351   1
   7   0  -2 387.273 56.6518   3
   7   0  -2 312.418 51.6735   5
   7   0  -2 399.489 56.5875   4
   7   0  -2 297.082 49.1920  12
   7   0  -2 315.929 49.3059   1
   7   0  -1 186.456 39.6570   3
   7   0  -1 293.379 46.9827   1
   7   0  -1 155.217 39.8843   5
   7   0  -1 191.434 39.3538   9
   7   0  -1 205.070 44.3925   8
   7   0  -1 205.733 41.1665   4
   7   0  -1 280.476 46.2157  12
   7   0   0 1026.06 94.2643   5
   7   0   0 1005.59 94.5619   9
   7   0   0 1096.72 98.3894   4
   7   0   0 1158.24 105.481   8
   7   0   0 1059.14 103.213   6
   7   0   0 1274.94 104.377   1
   7   0   0 1312.23 104.268   3
   7   0   0 1317.33 103.833  12
   7   0   1 199.230 38.3236   5
   7   0   1 235.539 41.6930   9
   7   0   1 219.546 45.0578   8
   7   0   1 321.730 49.6939   1
   7   0   1 229.451 42.5402   4
   7   0   2 88.3334 27.9074   3
   7   0   2 141.567 31.1583   5
   7   0   2 102.553 28.9470   9
   7   0   2 78.9512 26.7045   4
   7   0   2 169.140 40.0410   1
   7   0   2 112.675 30.2519  12
   7   0   3 235.544 42.8114   3
   7   0   3 238.696 41.1949   9
   7   0   3 255.546 38.2381   5
   7   0   3 216.880 41.5382   4
   7   0   3 246.150 49.5887   7
   7   0   3 296.883 45.5302  12
   7   0   3 303.979 51.7355   1
   7   0   4 1995.22 128.375   5
   7   0   4 1945.17 135.141   9
   7   0   4 2006.16 152.783   8
   7   0   4 1988.02 142.460   4
   7   0   4 1964.28 150.856   7
   7   0   4 2037.51 154.093   6
   7   0   4 2095.41 144.147  12
   7   0   4 1950.65 141.865   3
   7   0   4 2463.83 161.927   1
   7   0   5 368.731 53.8750   3
   7   0   5 482.332 45.4484   5
   7   0   5 549.322 69.6011   1
   7   0   5 358.493 48.4874   9
   7   0   5 480.701 67.5611   8
   7   0   5 399.137 54.6841   4
   7   0   5 431.950 62.5251   7
   7   0   5 412.035 54.4856  12
   7   0   5 412.957 62.7928   6
   7   0   6-5.30198 20.1527   3
   7   0   6 3.98298 13.4200   9
   7   0   6 7.46067 18.5647   8
   7   0   6 10.9261 18.4062   4
   7   0   6 7.05916 20.2829   7
   7   0   6 5.02852 19.1134  12
   7   0   6-7.62784 21.9167   6
   7   0   7 5.21506 15.8934   3
   7   0   7 5.46885 15.7137   4
   7   0   7-7.31952 22.3065   7
   7   0   7 14.5940 16.3902  12
   7   1  -4 78.0443 28.1874   3
   7   1  -3 628.151 70.4341   4
   7   1  -3 686.376 67.6482   1
   7   1  -3 645.571 72.7604  12
   7   1  -3 809.039 76.9845   3
   7   1  -2 225.858 38.2845   1
   7   1  -2 149.789 34.6521   3
   7   1  -2 104.478 32.8669   5
   7   1  -2 223.714 41.4514   9
   7   1  -2 236.493 43.7099   8
   7   1  -2 227.260 41.9992   4
   7   1  -2 220.347 41.0061  12
   7   1  -1 87.2424 26.9912   3
   7   1  -1 116.005 27.7362   1
   7   1  -1 115.230 30.8870   5
   7   1  -1 114.391 31.5346   8
   7   1  -1 144.898 33.9302   4
   7   1  -1 73.2818 24.8127  12
   7   1   0 337.028 47.2288   3
   7   1   0 237.518 43.8039   5
   7   1   0 249.426 43.4193   9
   7   1   0 313.357 49.9413   8
   7   1   0 331.181 46.4782   1
   7   1   0 356.187 50.1862   4
   7   1   0 291.035 48.0619   6
   7   1   0 332.957 48.2138  12
   7   1   1 92.0729 28.1542   5
   7   1   1 80.3118 26.3287   9
   7   1   1 100.495 29.0965   8
   7   1   1 94.7574 27.5816   1
   7   1   1 95.4876 29.9883   6
   7   1   2 701.563 69.3883   5
   7   1   2 694.564 69.5091   9
   7   1   2 826.636 81.2432   8
   7   1   2 695.837 71.2838   4
   7   1   2 685.318 70.2040  12
   7   1   2 696.583 71.3523   3
   7   1   2 638.897 72.8970   6
   7   1   2 735.886 74.3435   1
   7   1   3 182.869 36.5904   3
   7   1   3 367.639 52.0998   1
   7   1   3 248.539 41.5353   9
   7   1   3 229.434 36.0441   5
   7   1   3 358.082 52.4336   8
   7   1   3 189.869 37.4929   4
   7   1   3 162.194 38.4626   7
   7   1   3 225.964 39.7887  12
   7   1   3 349.261 50.5452   6
   7   1   4 1726.26 124.358   1
   7   1   4 1303.49 96.5770   5
   7   1   4 1445.01 106.122   9
   7   1   4 1392.15 109.529   4
   7   1   4 1388.83 116.378   7
   7   1   4 1260.86 103.616  12
   7   1   4 1304.58 106.666   3
   7   1   5 57.0283 24.2329   3
   7   1   5 69.9911 22.7639   9
   7   1   5 43.2042 21.3596   4
   7   1   5 26.6080 21.4802   7
   7   1   5 51.2422 24.4438   1
   7   1   5 48.2602 20.9140  12
   7   1   6 120.102 31.7483   3
   7   1   6 115.860 27.0161   9
   7   1   6 79.0390 29.5901   8
   7   1   6 165.287 35.2814   4
   7   1   6 125.661 35.7833   7
   7   1   6 76.0363 23.6464  12
   7   1   6 107.419 33.7553   1
   7   1   7 495.172 60.6203   3
   7   1   7 555.971 74.5833   8
   7   1   7 378.651 56.3166   4
   7   1   7 501.386 70.8725   7
   7   1   7 590.643 61.1783  12
   7   1   7 675.943 81.1842   6
   7   1   8 115.128 30.8243   4
   7   2  -4 78.2257 26.1497   3
   7   2  -4 103.523 28.6408   4
   7   2  -4 104.333 31.3434  12
   7   2  -3 281.034 44.9229   3
   7   2  -3 421.401 55.5158   9
   7   2  -3 260.671 43.0027   4
   7   2  -3 265.545 37.2733   1
   7   2  -3 314.650 48.1588  12
   7   2  -2 3.83842 12.9331   1
   7   2  -2-4.80167 14.6339   3
   7   2  -2 5.61165 16.1242   5
   7   2  -2 10.5778 15.1970   9
   7   2  -2-5.49282 16.7401   8
   7   2  -2 4.90742 14.9562   4
   7   2  -2 10.3469 15.7669  12
   7   2  -1 38.2575 18.8479   3
   7   2  -1 26.6732 17.1733   5
   7   2  -1 20.0185 15.7916   1
   7   2  -1 15.8972 19.4408   8
   7   2  -1 24.5570 18.7013   4
   7   2  -1 25.1519 18.4585  12
   7   2   0 497.391 57.7302   3
   7   2   0 423.058 55.4734   5
   7   2   0 438.930 55.8664   9
   7   2   0 576.562 60.2844   4
   7   2   0 422.592 55.3250   8
   7   2   0 542.437 56.5773   1
   7   2   0 482.178 59.4636   6
   7   2   0 516.239 58.0543  12
   7   2   1 376.289 49.7717   3
   7   2   1 321.417 45.8665   9
   7   2   1 363.348 47.9835   5
   7   2   1 419.902 52.1255   8
   7   2   1 337.808 46.6819   4
   7   2   1 346.875 48.8779   6
   7   2   1 292.045 43.3220   1
   7   2   2 306.033 43.7992   1
   7   2   2 244.765 40.6754   9
   7   2   2 262.354 39.4242   5
   7   2   2 365.951 50.8328   8
   7   2   2 216.049 42.0448   7
   7   2   2 233.736 38.9698  12
   7   2   2 214.697 39.8750   6
   7   2   3 924.779 83.3934   1
   7   2   3 876.463 76.5567   5
   7   2   3 716.853 74.2274   9
   7   2   3 898.001 84.6248   8
   7   2   3 891.963 81.1180   4
   7   2   3 1088.77 90.3105   6
   7   2   3 860.957 78.8700  12
   7   2   3 799.176 78.4876   3
   7   2   4 2856.37 175.541   1
   7   2   4 2352.42 154.419   5
   7   2   4 2310.91 158.482   9
   7   2   4 3074.85 182.590   8
   7   2   4 2565.69 167.091   4
   7   2   4 2730.73 174.655   6
   7   2   4 2526.09 162.191  12
   7   2   4 2385.16 163.111   3
   7   2   5 845.928 83.1929   1
   7   2   5 770.565 72.1713   9
   7   2   5 875.712 86.7197   8
   7   2   5 709.179 75.1529   4
   7   2   5 671.783 78.9035   7
   7   2   5 877.870 86.5663   6
   7   2   5 799.607 74.3359  12
   7   2   5 654.923 71.7431   3
   7   2   6 5.29714 16.1456   3
   7   2   6 17.6968 17.4085   9
   7   2   6-6.49833 19.8057   1
   7   2   6 11.3948 17.3651   4
   7   2   6 6.90597 18.5630   7
   7   2   6 4.65770 14.9649  12
   7   2   6 48.6442 26.4145   6
   7   2   7 26.6832 18.9735   3
   7   2   7 69.8852 23.7775   9
   7   2   7 111.925 31.2115   4
   7   2   7 52.0518 28.3926   7
   7   2   7 77.4629 22.8373  12
   7   2   8 74.1591 26.6173   3
   7   2   8 91.4704 29.9356   4
   7   3  -5 5.59055 21.2505  12
   7   3  -4 590.065 68.0082   9
   7   3  -4 550.127 60.7096   4
   7   3  -4 680.921 72.1418  12
   7   3  -4 609.264 64.7037   3
   7   3  -3 399.200 52.3400   3
   7   3  -3 445.243 59.6459   5
   7   3  -3 544.541 62.5918   9
   7   3  -3 437.328 52.8026   4
   7   3  -3 475.577 59.1687  12
   7   3  -2 294.381 35.5613   1
   7   3  -2 370.135 48.6247   3
   7   3  -2 279.977 45.5079   9
   7   3  -2 352.766 46.7804   8
   7   3  -2 318.507 44.5605   4
   7   3  -2 363.294 50.0888  12
   7   3  -1 65.4361 23.9047   3
   7   3  -1 74.6139 25.5476   5
   7   3  -1 96.2414 27.3712   9
   7   3  -1 61.4910 18.8073   1
   7   3  -1 27.9267 18.5251   8
   7   3  -1 59.8493 21.6135   4
   7   3  -1 89.6411 26.9153  12
   7   3   0 56.4118 20.5571   3
   7   3   0 61.7749 24.2155   5
   7   3   0 92.0007 26.2491   8
   7   3   0 84.5406 25.4848   4
   7   3   0 92.5010 23.1207   1
   7   3   0 87.3791 26.7826   6
   7   3   0 77.8441 24.9552  12
   7   3   1 592.335 65.2189   5
   7   3   1 500.082 60.2911   9
   7   3   1 651.796 64.2762   8
   7   3   1 640.718 64.8148   4
   7   3   1 618.907 67.1526   7
   7   3   1 744.152 68.5397   6
   7   3   1 616.986 64.6186   3
   7   3   1 620.091 59.7028   1
   7   3   2 203.201 37.2050   9
   7   3   2 214.920 36.9129   5
   7   3   2 262.368 41.2222   8
   7   3   2 230.883 36.7803   1
   7   3   2 229.654 39.4659   4
   7   3   2 184.253 36.7399   7
   7   3   2 199.409 36.3917  12
   7   3   2 188.753 35.7199   6
   7   3   3 388.375 49.3404   1
   7   3   3 317.044 45.2261   3
   7   3   3 288.424 43.5847   9
   7   3   3 265.639 42.0718   5
   7   3   3 285.213 45.2672   8
   7   3   3 373.795 52.1112   7
   7   3   3 298.452 43.3646  12
   7   3   3 273.026 44.2416   6
   7   3   4 3280.27 191.802   1
   7   3   4 2957.18 184.117   9
   7   3   4 3153.36 192.943   8
   7   3   4 2743.79 184.339   4
   7   3   4 3223.70 195.546   7
   7   3   4 3264.93 192.569   6
   7   3   4 2924.28 181.978  12
   7   3   4 2441.24 178.572   3
   7   3   5 3223.05 190.896   1
   7   3   5 2613.77 175.588   9
   7   3   5 2953.14 188.235   8
   7   3   5 2720.68 180.827   4
   7   3   5 2424.57 179.661   7
   7   3   5 3301.37 192.981   6
   7   3   5 2599.91 172.470  12
   7   3   5 2808.96 180.109   3
   7   3   6 702.882 71.0245   9
   7   3   6 734.064 81.5574   1
   7   3   6 1006.17 94.7732   8
   7   3   6 786.331 81.5235   4
   7   3   6 776.824 74.0503  12
   7   3   6 781.659 78.6728   3
   7   3   6 730.504 82.5558   6
   7   3   7 287.563 46.3493   3
   7   3   7 187.944 34.7782   9
   7   3   7 290.350 54.3099   8
   7   3   7 295.422 49.7077   4
   7   3   7 269.228 51.8305   7
   7   3   7 348.922 56.2332   1
   7   3   7 282.150 42.8443  12
   7   3   7 310.220 55.4476   6
   7   3   8 8.46697 22.7718  10
   7   3   8 17.1032 16.4021   3
   7   3   8 26.4158 22.2656   4
   7   3   8 22.4602 18.2722  12
   7   3   9 27.3083 23.0341   4
   7   4  -4 144.268 30.8189   3
   7   4  -4 115.806 31.7224   9
   7   4  -4 129.867 28.1800   4
   7   4  -4 122.102 32.9007  12
   7   4  -3 56.1560 22.8556   3
   7   4  -3 86.5380 28.1527   5
   7   4  -3 5.37741 16.4675   9
   7   4  -3 25.5991 17.9430   4
   7   4  -3 64.5496 25.6808  12
   7   4  -2 182.964 35.4503   3
   7   4  -2 142.266 33.2733   9
   7   4  -2 185.266 33.1699   8
   7   4  -2 187.781 33.7404   4
   7   4  -2 234.749 39.5483  12
   7   4  -2 186.410 23.8024   1
   7   4  -1 127.603 31.6919   3
   7   4  -1 124.629 32.2198   9
   7   4  -1 125.857 21.4790   1
   7   4  -1 142.217 28.9332   8
   7   4  -1 148.592 31.6034   4
   7   4  -1 142.364 31.9904  12
   7   4   0 52.7098 20.1615   3
   7   4   0 41.4378 21.7794   9
   7   4   0 63.7155 22.9638   5
   7   4   0 68.7082 21.0226   8
   7   4   0 55.6859 22.6887   4
   7   4   0 30.4335 18.8356   6
   7   4   0 34.9452 17.6718  12
   7   4   0 26.6641 13.5956   1
   7   4   1 1474.20 94.0095   1
   7   4   1 1112.43 98.4670   5
   7   4   1 1077.70 97.1403   9
   7   4   1 1133.88 91.4676   8
   7   4   1 1251.61 99.1359   4
   7   4   1 1332.99 100.583   7
   7   4   1 1348.54 96.9091   6
   7   4   1 1271.23 101.368   3
   7   4   2 4.06578 11.6831   1
   7   4   2 5.29335 13.1724   9
   7   4   2-5.06936 15.4498   5
   7   4   2-4.39943 12.6416   8
   7   4   2-5.10374 15.5545   4
   7   4   2 19.6719 16.5702   7
   7   4   2 14.7518 18.0110  12
   7   4   2 34.9821 17.2046   6
   7   4   3 41.6866 19.8655   3
   7   4   3 37.5679 21.8615   9
   7   4   3 38.3350 18.9154   8
   7   4   3 31.2726 18.4056   7
   7   4   3 34.5497 19.4793  12
   7   4   3 13.8627 14.9236   6
   7   4   3 74.7130 25.5908   1
   7   4   4 195.252 38.5385   1
   7   4   4 146.345 33.3086   3
   7   4   4 151.360 35.4200   9
   7   4   4 174.568 36.7130   8
   7   4   4 137.425 34.6230   4
   7   4   4 213.823 40.6123   7
   7   4   4 134.515 30.7386  12
   7   4   4 126.636 29.4825   6
   7   4   5 773.426 79.6764   9
   7   4   5 1050.13 92.9581   1
   7   4   5 994.971 90.5346   8
   7   4   5 837.946 85.3115   4
   7   4   5 925.125 89.4827   7
   7   4   5 972.865 88.4059   6
   7   4   5 823.333 79.8403  12
   7   4   5 838.836 83.9378   3
   7   4   6 631.656 72.2849   3
   7   4   6 577.048 65.6315   9
   7   4   6 763.233 81.3622   8
   7   4   6 509.421 67.3416   4
   7   4   6 687.915 78.8114   7
   7   4   6 750.541 79.1880   6
   7   4   6 591.369 65.4855  12
   7   4   7 7.82843 19.4858  10
   7   4   7 36.5917 21.4667   3
   7   4   7 5.14312 16.5293   9
   7   4   7-7.40443 21.2805   8
   7   4   7 27.1641 20.7018   4
   7   4   7 7.52161 21.6171   7
   7   4   7 15.2541 17.9000  12
   7   4   7 7.18297 21.8959   6
   7   4   8 471.796 62.3997   3
   7   4   8 357.049 58.4749   4
   7   4   8 370.619 51.1999  12
   7   4   9 260.299 50.3461   4
   7   5  -4 28.3547 23.0358   3
   7   5  -4 16.9897 18.2087   9
   7   5  -4 11.6259 16.7197  12
   7   5  -3 100.464 27.4481   3
   7   5  -3 117.126 31.3733   9
   7   5  -3 82.0226 28.2935   5
   7   5  -3 104.168 26.4965   4
   7   5  -3 113.018 31.7777  12
   7   5  -2 120.674 29.7955   3
   7   5  -2 143.378 33.4745   9
   7   5  -2 63.2526 24.5411   5
   7   5  -2 99.6742 24.9599   4
   7   5  -2 131.955 32.9061  12
   7   5  -1 239.884 39.7180   3
   7   5  -1 215.483 41.2337   9
   7   5  -1 254.660 44.4670   5
   7   5  -1 185.719 22.8346   1
   7   5  -1 250.658 34.1934   8
   7   5  -1 186.395 34.6795   4
   7   5  -1 252.427 43.0094  12
   7   5   0 100.232 18.6070   1
   7   5   0 114.903 30.2422   3
   7   5   0 44.2653 22.0699   9
   7   5   0 80.9314 21.1565   8
   7   5   0 85.4856 25.7852   4
   7   5   0 96.4006 24.1017   6
   7   5   0 52.9379 22.4678  12
   7   5   1 236.327 40.8619   3
   7   5   1 219.354 42.2534   5
   7   5   1 315.777 39.5340   8
   7   5   1 361.624 48.8294   4
   7   5   1 331.458 43.6461   7
   7   5   1 290.568 35.7735   1
   7   5   1 301.180 39.5793   6
   7   5   2 10.6659 16.2521   3
   7   5   2 17.1744 15.3863   9
   7   5   2 3.99478 13.4590   8
   7   5   2-5.32529 16.2289   4
   7   5   2 18.5111 19.3829   7
   7   5   2-7.66918 14.0448   1
   7   5   2 5.27621 15.1597  12
   7   5   2-3.93464 12.6395   6
   7   5   3 601.497 61.3687   1
   7   5   3 484.931 63.3982   9
   7   5   3 641.244 62.3807   8
   7   5   3 641.442 65.0787   7
   7   5   3 541.046 63.9160   4
   7   5   3 558.342 57.2534   6
   7   5   3 464.585 60.5696  12
   7   5   4 681.745 76.4340   9
   7   5   4 845.444 77.8523   8
   7   5   4 856.529 80.1340   7
   7   5   4 867.112 75.8991   6
   7   5   4 674.376 73.9810  12
   7   5   4 707.434 76.5262   3
   7   5   5 43.1666 24.3685   3
   7   5   5 41.8419 21.1576   9
   7   5   5 68.8433 28.0419   8
   7   5   5 32.6177 21.0797   4
   7   5   5 84.7775 28.9427   7
   7   5   5 44.5640 25.4090  12
   7   5   5 64.1074 26.6838   6
   7   5   6 77.5491 28.6888   3
   7   5   6 23.6951 18.1695   9
   7   5   6 52.2863 27.4515   8
   7   5   6 13.9469 18.8547   4
   7   5   6 108.213 34.4132   7
   7   5   6 73.6843 25.1816  12
   7   5   6 54.8797 27.0784   6
   7   5   7 33.4792 21.5728   3
   7   5   7 51.6597 28.0990   8
   7   5   7 36.9174 22.5617   4
   7   5   7 37.7518 25.4918   7
   7   5   7 22.4994 21.4433  12
   7   5   7 48.7560 26.5253   6
   7   5   8 335.178 55.3803   3
   7   5   8 249.601 51.7806   4
   7   6  -3 268.724 42.9876   3
   7   6  -3 298.850 49.5308   9
   7   6  -3 264.289 38.8865   4
   7   6  -3 262.560 49.1943  12
   7   6  -2 128.836 32.6656   3
   7   6  -2 204.879 41.4116   9
   7   6  -2 160.211 39.2772   5
   7   6  -2 204.383 34.5519   4
   7   6  -2 125.185 35.5408  12
   7   6  -1 235.616 40.5795   3
   7   6  -1 176.447 38.6049   9
   7   6  -1 154.820 25.0333   8
   7   6  -1 154.943 32.2595   4
   7   6  -1 205.539 40.7910  12
   7   6   0 322.433 48.8784   3
   7   6   0 272.389 28.6185   1
   7   6   0 418.320 56.6818   9
   7   6   0 253.210 28.3389   1
   7   6   0 270.748 34.1766   8
   7   6   0 233.268 40.9784   4
   7   6   0 283.808 48.6788  12
   7   6   1 256.760 43.6062   3
   7   6   1 195.290 41.4158   9
   7   6   1 199.446 28.6646   1
   7   6   1 220.519 29.9445   1
   7   6   1 222.300 31.4658   8
   7   6   1 206.480 38.2172   4
   7   6   1 291.906 39.1330   7
   7   6   2 98.6395 30.2843   3
   7   6   2 56.1628 23.1574   9
   7   6   2 86.8812 22.6764   8
   7   6   2 89.1848 23.2616   1
   7   6   2 62.3317 24.7039   4
   7   6   2 70.0366 23.4033   7
   7   6   2 116.109 24.7845   6
   7   6   2 93.8562 28.1966  12
   7   6   3 115.404 34.4697   9
   7   6   3 149.354 29.9239   8
   7   6   3 164.173 36.0821   4
   7   6   3 157.480 32.8159   7
   7   6   3 107.091 31.5052  12
   7   6   3 177.124 30.7503   6
   7   6   4 211.630 43.0460   3
   7   6   4 267.845 48.1136   9
   7   6   4 240.409 39.6004   8
   7   6   4 263.262 47.9916   4
   7   6   4 276.147 44.7721   7
   7   6   4 214.173 43.9207  12
   7   6   4 205.612 36.0262   6
   7   6   5 796.973 87.0463   9
   7   6   5 977.658 87.6948   8
   7   6   5 922.562 82.9866   6
   7   6   5 829.954 86.3378  12
   7   6   5 799.773 89.0229   3
   7   6   6 397.878 62.5972   3
   7   6   6 438.313 60.2230   1
   7   6   6 547.063 68.1955   8
   7   6   6 422.742 64.3409   4
   7   6   6 463.438 65.1147   7
   7   6   6 397.901 58.1475  12
   7   6   6 385.607 56.2044   6
   7   6   7 22.1413 22.5121   3
   7   6   7 13.8083 24.3141   1
   7   6   7 58.8636 29.9130   8
   7   6   7 24.2458 23.2407   4
   7   6   7 15.0903 24.2564   7
   7   6   7 18.8543 22.1364  12
   7   6   7 13.4440 19.3373   6
   7   6   8 22.6488 23.0299   3
   7   7  -3 554.925 65.5006   3
   7   7  -2 44.6672 24.1460   3
   7   7  -2 68.6211 26.9598   9
   7   7  -2 32.3221 18.8682   4
   7   7  -1 240.227 42.7196   3
   7   7  -1 183.309 40.3581   9
   7   7  -1 212.673 37.9620   4
   7   7  -1 291.705 49.0044  12
   7   7   0 35.4011 23.9905   3
   7   7   0-6.46627 18.5998   9
   7   7   0 47.5400 24.0129   4
   7   7   0 19.4014 21.8064  12
   7   7   1 110.080 32.3853   3
   7   7   1 32.4850 13.9947   1
   7   7   1 53.1148 24.4568   9
   7   7   1 54.4800 16.3442   8
   7   7   1 86.4345 19.5918   1
   7   7   1 45.7488 18.3510   7
   7   7   1 90.8994 28.9732   4
   7   7   1 65.6645 17.3302   6
   7   7   2 172.164 39.7861   3
   7   7   2 116.636 24.5896   8
   7   7   2 100.534 22.9481   1
   7   7   2 140.747 28.1236   7
   7   7   2 176.324 37.4683   4
   7   7   2 121.131 23.2715   6
   7   7   2 91.9278 29.5956  12
   7   7   3 168.425 39.8469   9
   7   7   3 184.767 32.0384   8
   7   7   3 147.518 29.0329   1
   7   7   3 222.876 43.3725   4
   7   7   3 220.293 37.5599   7
   7   7   3 201.035 42.7088  12
   7   7   3 147.822 28.4093   6
   7   7   4 56.4197 26.9412   3
   7   7   4 35.7212 23.1080   9
   7   7   4 94.6657 27.7527   1
   7   7   4 59.7531 22.5546   8
   7   7   4 42.6279 26.1613   4
   7   7   4 51.7977 22.4865   7
   7   7   4 61.6745 27.9753  12
   7   7   4 80.3543 21.3783   6
   7   7   5 179.071 43.5084   3
   7   7   5 141.213 33.9193   1
   7   7   5 184.822 39.3548   8
   7   7   5 200.105 40.3410   7
   7   7   5 125.567 34.7803  12
   7   7   5 174.733 34.3854   6
   7   7   6 109.239 36.6983   3
   7   7   6 86.6422 30.6012   1
   7   7   6 209.125 42.0465   8
   7   7   6 73.3295 31.4711   7
   7   7   6 141.058 36.9053  12
   7   7   6 127.737 33.7849   6
   7   7   7 73.0078 31.6938   8
   7   7   7 97.7236 33.4752  12
   7   7   7 83.8769 31.6620   6
   7   8  -1 238.450 46.5052   3
   7   8  -1 267.525 43.1645   4
   7   8   0 64.6456 27.1235   3
   7   8   0 22.6120 18.2302   4
   7   8   1 87.2987 34.1920   3
   7   8   1 36.4648 24.0303   4
   7   8   2 21.1424 23.7785   3
   7   8   2 42.5853 19.3089   7
   7   8   2 19.7172 18.9275   4
   7   8   3 577.136 58.7032   1
   7   8   3 562.211 59.1249   7
   7   8   3 515.918 70.6411   4
   7   8   3 509.749 72.8433  12
   7   8   4 291.765 41.9824   8
   7   8   4 326.614 46.9386   1
   7   8   4 321.935 47.2617   7
   7   8   5 283.457 45.2410   8
   7   8   5 268.111 46.7432   1
   7   8   5 218.177 49.8830  12
   7   8   6 577.688 71.1907   8
   7   8   6 552.764 70.9057   7
   8  -1   2 507.634 64.6829   5
   8  -1   4 1107.95 99.6137   9
   8   0   0 110.030 35.2785   1
   8   0   1 193.975 41.2881   5
   8   0   1 163.202 40.9301   1
   8   0   2 293.957 48.7407   5
   8   0   2 291.460 49.9482   9
   8   0   3 985.459 85.7829   5
   8   0   3 903.059 88.5526   9
   8   0   4 254.902 46.1318   9
   8   0   5 105.059 28.1284   9
   8   1  -2 626.216 69.5988   1
   8   1  -1 380.926 55.3456   1
   8   1   0 577.217 72.3459   5
   8   1   0 761.209 85.2020   8
   8   1   0 817.805 80.7078   1
   8   1   1 155.112 37.5096   5
   8   1   1 173.090 39.8241   9
   8   1   1 197.557 45.0645   8
   8   1   1 278.503 47.0438   1
   8   1   1 214.679 45.6807   6
   8   1   2 18.0399 21.2185   3
   8   1   2 28.9863 22.0905   9
   8   1   2 37.6882 22.6048   5
   8   1   2 42.7979 25.1494   8
   8   1   2 18.6855 20.0694   4
   8   1   2 77.8787 28.7793   1
   8   1   2 53.4543 24.9257  12
   8   1   2 28.6786 24.2063   6
   8   1   3 120.947 32.2875   3
   8   1   3 67.4254 25.3488   9
   8   1   3 109.675 29.4938   5
   8   1   3 123.794 35.8068   8
   8   1   3 124.740 35.0402   4
   8   1   3 110.659 35.4840   7
   8   1   3 129.394 34.1447  12
   8   1   3 116.243 34.9550   6
   8   1   3 102.112 33.5179   1
   8   1   4 248.682 50.2002   1
   8   1   4 194.790 41.4218   3
   8   1   4 180.337 37.7828   9
   8   1   4 203.029 35.9156   5
   8   1   4 172.839 44.0040   8
   8   1   4 163.412 37.6401   4
   8   1   4 142.615 41.2249   7
   8   1   4 204.767 41.1867  12
   8   1   4 202.525 45.2284   6
   8   1   5 441.841 61.1860   3
   8   1   5 531.264 63.4016   9
   8   1   5 487.442 65.1349   4
   8   1   5 487.089 62.8427  12
   8   1   6 647.613 76.0691   3
   8   1   6 635.816 75.6871   4
   8   1   6 737.823 77.3464  12
   8   1   7 135.379 36.0718   3
   8   1   7 184.644 38.7886  12
   8   2  -1 165.502 39.3291   3
   8   2  -1 205.893 35.7013   1
   8   2  -1 209.454 42.5907   8
   8   2  -1 151.162 38.7050   4
   8   2   0 5.70750 17.4085   3
   8   2   0 23.9494 21.9412   5
   8   2   0 29.5270 22.4573   9
   8   2   0 25.2824 17.8080   1
   8   2   0 6.27439 19.1347   8
   8   2   0 40.8449 23.7203   4
   8   2   0 6.51350 18.7284   6
   8   2   0 11.7108 18.8233  12
   8   2   1-5.72669 15.3931   3
   8   2   1 11.5633 19.4806   9
   8   2   1 11.4117 15.3370   5
   8   2   1 6.30796 18.1255   8
   8   2   1-5.88123 21.5420   4
   8   2   1 21.5676 16.4334   1
   8   2   1 6.44341 16.0346   6
   8   2   2 507.060 62.4017   9
   8   2   2 389.949 55.5031   5
   8   2   2 495.437 65.0914   8
   8   2   2 549.408 69.9473   7
   8   2   2 512.749 62.9354  12
   8   2   2 471.643 63.6608   6
   8   2   2 514.216 62.9019   1
   8   2   3 166.985 38.1544   1
   8   2   3 117.404 33.7218   3
   8   2   3 95.6113 29.7237   9
   8   2   3 127.202 30.7104   5
   8   2   3 206.119 43.1234   8
   8   2   3 157.381 35.8125   4
   8   2   3 79.1589 27.5794  12
   8   2   3 204.820 42.3279   6
   8   2   4 41.7354 22.7311   3
   8   2   4 27.6336 20.3201   9
   8   2   4 37.7465 19.8417   5
   8   2   4 19.7057 23.1825   1
   8   2   4 34.8455 24.5880   8
   8   2   4 49.4820 24.3992   4
   8   2   4 61.9908 25.0166  12
   8   2   4 55.1045 28.0446   6
   8   2   5 152.349 36.3382   3
   8   2   5 124.683 31.5585   9
   8   2   5 250.378 51.8262   8
   8   2   5 152.897 37.3637   4
   8   2   5 222.555 47.9787   1
   8   2   5 177.847 41.2205   7
   8   2   5 146.175 35.5342  12
   8   2   5 196.260 44.3188   6
   8   2   6 98.8258 32.8095   3
   8   2   6 72.8389 25.6121   9
   8   2   6 65.0071 28.2572   4
   8   2   6 100.279 31.7232  12
   8   2   7 297.722 50.4691   3
   8   2   7 273.797 50.1211   4
   8   2   7 284.528 46.6191  12
   8   3  -2 27.7744 22.6347   3
   8   3  -2 48.6761 24.0079   4
   8   3  -1 655.657 73.2907   3
   8   3  -1 695.021 78.1098   5
   8   3  -1 639.828 73.7538   9
   8   3  -1 766.831 76.5715   8
   8   3  -1 696.468 73.9926   4
   8   3  -1 680.862 63.4908   1
   8   3  -1 734.528 78.1408  12
   8   3   0 100.477 30.3145   3
   8   3   0 101.773 32.4687   5
   8   3   0 128.497 31.8926   8
   8   3   0 85.7002 24.6178   1
   8   3   0 61.1494 23.6809   4
   8   3   0 123.743 33.6065   6
   8   3   0 109.317 32.3026  12
   8   3   1 62.0013 27.5351   3
   8   3   1 52.3088 22.1850   9
   8   3   1 52.0522 22.8454   5
   8   3   1 39.5244 25.7318   8
   8   3   1 73.7735 27.7216   4
   8   3   1 32.8879 18.5965   1
   8   3   1 29.0873 19.7055   6
   8   3   2 5.17176 15.7816   1
   8   3   2 34.5939 22.6981   9
   8   3   2 5.54998 16.9328   5
   8   3   2 40.6118 22.0663   8
   8   3   2 11.6842 17.8221   4
   8   3   2 31.4545 23.9246   7
   8   3   2 22.4433 18.0420  12
   8   3   2 17.5341 19.7081   6
   8   3   3 234.256 44.9197   3
   8   3   3 270.758 46.8820   9
   8   3   3 228.153 42.8171   5
   8   3   3 396.168 53.7375   1
   8   3   3 414.019 56.2240   8
   8   3   3 356.289 54.7002   7
   8   3   3 262.704 45.9537  12
   8   3   3 307.605 50.4221   6
   8   3   4 120.200 32.6852   3
   8   3   4 172.512 37.7736   9
   8   3   4 278.480 49.4204   8
   8   3   4 143.657 36.7447   4
   8   3   4 195.998 42.4968   7
   8   3   4 215.207 43.5386   1
   8   3   4 162.022 35.4082  12
   8   3   4 196.053 41.8824   6
   8   3   5 199.064 43.1004   1
   8   3   5 135.424 35.3892   3
   8   3   5 131.098 34.3533   9
   8   3   5 146.009 41.6694   8
   8   3   5 155.212 37.7008   4
   8   3   5 112.062 32.3196  12
   8   3   5 135.487 38.2225   6
   8   3   6 497.288 65.8864   3
   8   3   6 431.116 57.5542   9
   8   3   6 642.063 77.4615   1
   8   3   6 659.526 80.3145   8
   8   3   6 452.424 64.1432   4
   8   3   6 481.304 62.1886  12
   8   3   6 588.128 74.1750   6
   8   3   7 409.434 61.1740   3
   8   3   7 361.934 51.6084   9
   8   3   7 476.025 66.0195   4
   8   3   7 481.312 60.6620  12
   8   3   8 51.5315 27.8582   3
   8   4  -3 115.441 31.8398   3
   8   4  -3 71.2162 25.6271   4
   8   4  -2 93.5161 28.8518   3
   8   4  -2 108.856 31.0366   4
   8   4  -1 1052.37 101.858   5
   8   4  -1 1205.84 105.637   9
   8   4  -1 1204.20 97.2501   8
   8   4  -1 1354.71 103.514   4
   8   4  -1 1058.77 100.233  12
   8   4  -1 1044.25 97.3961   3
   8   4   0 16.7267 21.9436   3
   8   4   0 30.5007 22.3501   5
   8   4   0 9.94317 14.2962   8
   8   4   0 10.8961 17.5107   4
   8   4   0 21.5618 16.3360   1
   8   4   0 21.3364 18.7794   6
   8   4   0-5.79553 15.5871  12
   8   4   1 143.251 28.8911   1
   8   4   1 226.706 41.4024   3
   8   4   1 137.988 34.2210   9
   8   4   1 142.981 33.4505   5
   8   4   1 166.780 34.8787   8
   8   4   1 208.653 39.5770   4
   8   4   1 172.097 38.5105   7
   8   4   1 184.341 35.8845   6
   8   4   2 404.215 56.7209   9
   8   4   2 300.802 49.6290   5
   8   4   2 405.180 50.0346   1
   8   4   2 346.756 49.8087   8
   8   4   2 486.128 59.8306   4
   8   4   2 404.909 55.9504   7
   8   4   2 329.878 51.5525  12
   8   4   2 381.835 53.8482   6
   8   4   3 1364.78 107.241   1
   8   4   3 1104.50 107.829   9
   8   4   3 1539.51 114.615   8
   8   4   3 1444.96 115.163   7
   8   4   3 1507.53 112.356   6
   8   4   3 1230.18 107.373  12
   8   4   3 1191.53 109.470   3
   8   4   4 135.193 35.8516   3
   8   4   4 245.275 44.0313   1
   8   4   4 79.5949 27.8093   9
   8   4   4 199.235 40.2261   8
   8   4   4 141.000 36.1936   4
   8   4   4 154.646 37.5419   7
   8   4   4 125.945 31.3894  12
   8   4   4 116.856 34.1417   6
   8   4   5 444.676 62.0552   3
   8   4   5 570.888 67.7119   9
   8   4   5 447.793 63.7244   8
   8   4   5 464.393 63.8915   4
   8   4   5 530.780 68.9281   7
   8   4   5 482.978 64.8226   1
   8   4   5 357.972 54.2897  12
   8   4   5 481.822 63.9217   6
   8   4   6 637.694 77.6124   3
   8   4   6 655.669 74.3654   9
   8   4   6 734.264 84.4605   8
   8   4   6 768.959 86.6388   1
   8   4   6 630.585 78.1821   4
   8   4   6 714.320 84.2449   7
   8   4   6 842.590 88.2566   6
   8   4   6 657.012 74.7580  12
   8   4   7 560.503 70.3216   3
   8   4   7 373.083 56.0997   9
   8   4   7 427.822 65.1564   4
   8   4   7 521.387 63.7483  12
   8   4   8 6.87772 20.9620   3
   8   5  -2 466.036 60.6557   3
   8   5  -2 528.726 60.1939   4
   8   5  -1 184.954 38.0939   3
   8   5  -1 150.497 37.3677   9
   8   5  -1 170.744 31.7286   8
   8   5  -1 158.040 36.2955   4
   8   5  -1 177.058 39.4650  12
   8   5   0 215.890 41.4946   3
   8   5   0 206.428 43.2836   9
   8   5   0 157.902 37.0642   5
   8   5   0 140.581 31.1861   8
   8   5   0 185.486 38.3299   4
   8   5   0 149.065 33.9705   6
   8   5   0 150.046 36.3357  12
   8   5   1 569.310 68.4285   3
   8   5   1 607.030 71.1870   5
   8   5   1 664.205 64.3928   8
   8   5   1 639.953 71.1228   4
   8   5   1 495.327 61.5310   7
   8   5   1 637.715 64.4053   6
   8   5   1 566.760 55.1005   1
   8   5   2 244.773 44.7931   3
   8   5   2 262.711 48.6883   9
   8   5   2 200.147 37.8535   8
   8   5   2 312.494 49.0249   4
   8   5   2 269.194 44.4279   7
   8   5   2 399.676 46.3134   1
   8   5   2 337.227 45.3811   6
   8   5   2 332.645 51.4137  12
   8   5   3 284.913 49.9785   9
   8   5   3 356.323 49.5380   1
   8   5   3 386.581 51.4264   8
   8   5   3 309.950 50.9845   4
   8   5   3 329.069 50.7717   7
   8   5   3 280.977 49.5412  12
   8   5   3 287.146 44.8512   6
   8   5   4 508.964 68.0974   3
   8   5   4 735.644 73.8585   1
   8   5   4 412.288 63.3349   9
   8   5   4 566.272 67.0975   8
   8   5   4 778.172 79.0346   7
   8   5   4 605.225 70.2155  12
   8   5   4 610.234 67.6674   6
   8   5   5 1119.16 103.908   9
   8   5   5 1493.13 114.669   1
   8   5   5 1187.15 104.436   8
   8   5   5 938.098 99.5814   4
   8   5   5 1202.68 106.830   7
   8   5   5 1263.98 104.525   6
   8   5   5 971.089 97.3000  12
   8   5   5 977.234 100.568   3
   8   5   6 330.867 55.8647   3
   8   5   6 325.552 53.6829   9
   8   5   6 389.520 60.4320   8
   8   5   6 375.463 60.7469   4
   8   5   6 457.771 63.9973   1
   8   5   6 372.110 60.5227   7
   8   5   6 261.674 48.7856  12
   8   5   6 415.281 60.1657   6
   8   5   7 94.6614 32.4079   3
   8   5   7 69.3262 28.8176   9
   8   5   7 62.8230 24.1014  12
   8   6  -2 74.8761 27.1681   3
   8   6  -2 127.389 31.3651   4
   8   6  -1 40.9580 23.0669   3
   8   6  -1 26.6266 19.5599   4
   8   6   0 1922.57 141.913   9
   8   6   0 1713.91 113.759   8
   8   6   0 1778.17 129.221   4
   8   6   0 1616.31 131.752  12
   8   6   0 1516.42 126.830   3
   8   6   1 330.956 51.7784   3
   8   6   1 386.396 40.9501   1
   8   6   1 292.263 40.6921   8
   8   6   1 300.315 49.9029   4
   8   6   1 302.874 45.3583   7
   8   6   1 272.326 40.7139   6
   8   6   2 291.052 48.9365   3
   8   6   2 272.102 39.3813   1
   8   6   2 204.682 45.2112   9
   8   6   2 241.268 38.9990   8
   8   6   2 255.907 45.7440   4
   8   6   2 279.173 43.4489   7
   8   6   2 247.697 38.0492   6
   8   6   2 185.016 40.9476  12
   8   6   3 666.744 66.4219   1
   8   6   3 613.898 77.8276   9
   8   6   3 641.861 65.2674   8
   8   6   3 722.656 78.6238   4
   8   6   3 587.999 67.0256   7
   8   6   3 574.396 61.5717   6
   8   6   3 573.523 71.7981  12
   8   6   4 1234.59 118.598   9
   8   6   4 1597.66 118.912   1
   8   6   4 1535.42 114.236   8
   8   6   4 1622.94 129.575   4
   8   6   4 1454.12 116.972   7
   8   6   4 1665.40 115.338   6
   8   6   4 1328.04 119.666  12
   8   6   4 1113.31 113.487   3
   8   6   5 130.326 37.8940   3
   8   6   5 121.259 35.9099   9
   8   6   5 143.235 34.7225   8
   8   6   5 116.966 34.0938   7
   8   6   5 101.245 31.8864  12
   8   6   5 116.505 31.8446   6
   8   6   6 120.457 36.6052   9
   8   6   6 255.981 47.9307   8
   8   6   6 271.846 53.3165   7
   8   6   6 205.027 43.9091  12
   8   6   6 349.088 52.7556   6
   8   6   7 582.251 74.6906  12
   8   7  -1 241.391 43.4583   4
   8   7   0 556.727 65.8985   4
   8   7   1 323.137 45.0726   7
   8   7   1 313.004 51.9038   4
   8   7   2 138.648 28.3615   8
   8   7   2 124.679 34.5595   4
   8   7   2 151.047 32.3034   7
   8   7   3 434.834 51.7922   1
   8   7   3 475.918 53.3666   8
   8   7   3 566.588 59.8196   1
   8   7   3 541.042 71.7161   4
   8   7   3 555.662 62.3009   7
   8   7   3 500.125 54.8664   6
   8   7   3 470.908 66.2901  12
   8   7   4 340.523 47.4392   1
   8   7   4 333.485 48.5980   8
   8   7   4 371.987 53.6283   7
   8   7   4 326.180 56.7607  12
   8   7   4 346.873 46.8616   6
   8   7   5 174.984 38.8195   1
   8   7   5 182.300 39.5896   8
   8   7   5 158.142 37.7211   7
   8   7   5 148.403 39.9288  12
   8   7   5 195.902 37.4716   6
   8   7   6 313.177 53.0287   8
   8   7   6 247.211 52.1959  12
   8   7   6 322.531 50.5368   6
   8   8   3 44.8906 21.5915   7
   8   8   4 639.167 69.7921   7
   8   8   5 362.492 54.6566   1
   8   8   5 393.443 58.0458   7
   9   2   1 275.112 50.3370   1
   9   2   2 150.894 36.8238   5
   9   2   2 166.542 40.0959   1
   9   2   3 100.690 29.8228   5
   9   2   4 27.3202 17.5954   5
   9   2   5 175.905 38.0464   9
   9   3   1 250.973 42.9887   1
   9   3   2 12.7431 20.4902   5
   9   3   2 29.6823 20.0239   1
   9   3   3 186.985 41.5927   1
   9   3   3 152.094 36.8159   5
   9   3   4 66.3224 28.8534   9
   9   3   4 118.277 34.8471   1
   9   3   5 241.785 48.1866   9
   9   3   6 771.787 83.8581   9
   9   4  -1 358.321 54.6268   8
   9   4   0 136.738 34.1848   8
   9   4   1 72.3935 29.5068   8
   9   4   1 52.1237 20.5895   1
   9   4   1 56.8614 25.8051   6
   9   4   2 270.288 42.9356   1
   9   4   2 186.433 40.7266   8
   9   4   2 228.736 45.4135   6
   9   4   3 129.873 34.3450   1
   9   4   3 110.496 34.7260   8
   9   4   3 116.869 34.6892   6
   9   4   4 117.609 35.3936   9
   9   4   4 241.697 49.7859   8
   9   4   4 227.344 45.9749   1
   9   4   4 196.551 43.7730   6
   9   4   5 225.944 46.7305   9
   9   4   6 824.772 89.7907   9
   9   5   0 472.473 58.7247   8
   9   5   1 401.360 52.6003   8
   9   5   1 230.219 45.8339   6
   9   5   2 104.812 28.4334   1
   9   5   2 67.5694 25.1746   8
   9   5   2 64.5542 28.0387   7
   9   5   2 75.3969 28.4688   6
   9   5   3 107.364 33.0118   8
   9   5   3 125.340 31.2269   1
   9   5   3 147.332 38.2071   7
   9   5   3 83.3213 28.1546   6
   9   5   4 98.2618 31.4711   1
   9   5   4 57.7405 27.1934   8
   9   5   4 156.417 38.8851   6
   9   5   5 82.1118 31.3049   1
   9   6   2 117.244 29.7151   8
   9   6   2 109.104 32.3813   7
   9   6   2 105.440 30.7036   6
   9   6   3 142.296 34.4190   8
   9   6   3 164.678 39.6574   7
   9   6   3 103.426 30.4594   6
   9   6   3 177.547 35.5320   1
   9   6   4 53.7310 25.1254   8
   9   6   4 35.2455 24.7259   1
   9   6   4 80.5925 28.1521   6
   9   6   5 13.3607 24.5010   1
   9   6   5 43.4448 24.4513   6
   9   7   2 79.8807 29.2030   7
   9   7   3 84.1584 28.8917   7
   0   0   0    0.00    0.00   0

TITL exp_1 in P1
REM P1 (#1 in standard setting)
CELL 0.71073   6.981622   7.067225   7.891063  81.9415  73.7703  62.8445
ZERR    2.00   0.000219   0.000161   0.000176   0.0019   0.0023   0.0027
LATT -1
SFAC C H N O
UNIT 22.00 20.00 2.00 2.00
TREF
HKLF 4
END
;
_shelx_hkl_checksum              80873
loop_
_space_group_symop_operation_xyz
'x, y, z'
loop_
_atom_site_label
_atom_site_type_symbol
_atom_site_fract_x
_atom_site_fract_y
_atom_site_fract_z
_atom_site_U_iso_or_equiv
_atom_site_adp_type
_atom_site_occupancy
_atom_site_site_symmetry_order
_atom_site_calc_flag
_atom_site_refinement_flags_posn
_atom_site_refinement_flags_adp
_atom_site_refinement_flags_occupancy
_atom_site_disorder_assembly
_atom_site_disorder_group
O1 O 0.8968(3) 0.6569(3) 0.3402(2) 0.0376(4) Uani 1 1 d D . . . .
H1O H 0.964(6) 0.685(6) 0.396(5) 0.056 Uiso 1 1 d D U . . .
C1 C 0.5993(3) 0.5686(3) 0.3488(2) 0.0206(4) Uani 1 1 d . . . . .
O2 O 0.8669(2) 0.3222(3) 0.6075(2) 0.0332(4) Uani 1 1 d . . . . .
C2 C 0.6990(3) 0.6576(3) 0.4529(3) 0.0236(4) Uani 1 1 d . . . . .
H2 H 0.593680 0.807098 0.476269 0.028 Uiso 1 1 calc R U . . .
O3 O 0.8008(3) 0.0435(3) 0.6020(3) 0.0481(5) Uani 1 1 d . . . . .
C3 C 0.7299(3) 0.5516(3) 0.6313(3) 0.0262(4) Uani 1 1 d . . . . .
H3 H 0.797772 0.612710 0.686881 0.031 Uiso 1 1 calc R U . . .
O4 O 0.2018(2) 0.6569(3) 0.5121(2) 0.0301(3) Uani 1 1 d D . . . .
H4O H 0.192(6) 0.761(5) 0.560(5) 0.045 Uiso 1 1 d D U . . .
C4 C 0.5143(3) 0.5599(3) 0.7558(2) 0.0243(4) Uani 1 1 d . . . . .
H4 H 0.552964 0.486615 0.864951 0.029 Uiso 1 1 calc R U . . .
O5 O 0.4256(3) 0.3600(3) 0.2050(2) 0.0354(4) Uani 1 1 d . . . . .
C5 C 0.4909(3) 0.4023(3) 0.6555(3) 0.0251(4) Uani 1 1 d . . . . .
H5 H 0.388874 0.347299 0.730387 0.030 Uiso 1 1 calc R U . . .
C6 C 0.4241(3) 0.4979(3) 0.4787(3) 0.0223(4) Uani 1 1 d . . . . .
O6 O 0.8837(3) 0.3850(3) 0.0642(2) 0.0397(4) Uani 1 1 d . . . . .
C7 C 0.4933(4) 0.7476(4) 0.2213(3) 0.0333(5) Uani 1 1 d . . . . .
H7A H 0.412369 0.707635 0.164640 0.050 Uiso 1 1 calc R U . . .
H7AB H 0.607541 0.771025 0.133695 0.050 Uiso 1 1 calc R U . . .
H7AC H 0.393878 0.875851 0.286031 0.050 Uiso 1 1 calc R U . . .
C8 C 0.3140(3) 0.7690(3) 0.8107(3) 0.0270(4) Uani 1 1 d . . . . .
C9 C 0.3206(5) 0.9554(4) 0.7846(3) 0.0406(6) Uani 1 1 d . . . . .
H9A H 0.196587 1.077375 0.833022 0.049 Uiso 1 1 calc R U . . .
H9AB H 0.449133 0.964254 0.717905 0.049 Uiso 1 1 calc R U . . .
C10 C 0.1080(4) 0.7501(5) 0.9182(3) 0.0397(6) Uani 1 1 d . . . . .
H10A H -0.010514 0.889449 0.947543 0.060 Uiso 1 1 calc R U . . .
H10B H 0.136939 0.670374 1.024595 0.060 Uiso 1 1 calc R U . . .
H10C H 0.066244 0.678240 0.850878 0.060 Uiso 1 1 calc R U . . .
C11 C 0.4324(3) 0.3187(3) 0.3869(3) 0.0290(4) Uani 1 1 d . . . . .
H11 H 0.374961 0.221097 0.456253 0.035 Uiso 1 1 calc R U . . .
C12 C 0.6378(4) 0.2347(3) 0.2495(3) 0.0294(4) Uani 1 1 d . . . . .
H12 H 0.718957 0.081801 0.226497 0.035 Uiso 1 1 calc R U . . .
C13 C 0.7597(3) 0.3645(3) 0.2389(3) 0.0254(4) Uani 1 1 d . . . . .
C14 C 1.0021(4) 0.2567(4) 0.1942(4) 0.0398(6) Uani 1 1 d . . . . .
H14A H 1.079349 0.312462 0.242393 0.048 Uiso 1 1 calc R U . . .
H14B H 1.073540 0.103439 0.181724 0.048 Uiso 1 1 calc R U . . .
C15 C 0.7307(4) 0.2311(4) 0.6188(3) 0.0318(5) Uani 1 1 d . . . . .
loop_
_atom_site_aniso_label
_atom_site_aniso_U_11
_atom_site_aniso_U_22
_atom_site_aniso_U_33
_atom_site_aniso_U_23
_atom_site_aniso_U_13
_atom_site_aniso_U_12
O1 0.0339(9) 0.0624(12) 0.0293(8) -0.0094(8) -0.0004(7) -0.0335(9)
C1 0.0190(8) 0.0218(9) 0.0210(8) -0.0030(7) -0.0056(7) -0.0079(7)
O2 0.0253(7) 0.0318(8) 0.0361(8) -0.0031(6) -0.0131(6) -0.0033(6)
C2 0.0230(9) 0.0273(10) 0.0236(9) -0.0043(8) -0.0042(7) -0.0135(8)
O3 0.0544(12) 0.0207(8) 0.0554(11) -0.0026(8) -0.0177(9) -0.0018(7)
C3 0.0235(9) 0.0297(10) 0.0272(10) -0.0050(8) -0.0092(8) -0.0102(8)
O4 0.0174(7) 0.0304(8) 0.0382(8) -0.0137(7) -0.0069(6) -0.0033(6)
C4 0.0286(10) 0.0243(10) 0.0197(9) 0.0004(7) -0.0067(7) -0.0111(8)
O5 0.0302(8) 0.0436(9) 0.0382(9) -0.0123(7) -0.0120(7) -0.0158(7)
C5 0.0278(9) 0.0198(9) 0.0265(10) -0.0002(7) -0.0055(7) -0.0101(7)
C6 0.0173(9) 0.0215(9) 0.0276(9) -0.0053(7) -0.0056(7) -0.0067(7)
O6 0.0366(9) 0.0531(10) 0.0269(8) -0.0119(7) 0.0024(6) -0.0201(8)
C7 0.0395(12) 0.0290(10) 0.0323(11) 0.0038(9) -0.0176(9) -0.0120(9)
C8 0.0300(10) 0.0284(10) 0.0184(8) -0.0048(7) -0.0029(7) -0.0097(8)
C9 0.0498(14) 0.0310(12) 0.0324(11) -0.0093(10) 0.0007(10) -0.0141(11)
C10 0.0341(12) 0.0487(15) 0.0308(11) -0.0098(10) 0.0029(9) -0.0171(11)
C11 0.0268(10) 0.0291(11) 0.0351(11) -0.0087(8) -0.0055(8) -0.0144(8)
C12 0.0271(10) 0.0270(10) 0.0338(11) -0.0109(8) -0.0064(8) -0.0095(8)
C13 0.0213(9) 0.0288(10) 0.0246(9) -0.0070(8) -0.0048(7) -0.0082(8)
C14 0.0216(10) 0.0469(13) 0.0449(13) -0.0186(11) -0.0050(9) -0.0069(10)
C15 0.0344(11) 0.0250(10) 0.0293(11) -0.0004(8) -0.0115(8) -0.0055(9)
loop_
_atom_type_symbol
_atom_type_description
_atom_type_scat_dispersion_real
_atom_type_scat_dispersion_imag
_atom_type_scat_source
C C 0.0033 0.0016 'International Tables Vol C Tables 4.2.6.8 and 6.1.1.4'
H H 0.0000 0.0000 'International Tables Vol C Tables 4.2.6.8 and 6.1.1.4'
O O 0.0106 0.0060 'International Tables Vol C Tables 4.2.6.8 and 6.1.1.4'
loop_
_geom_angle_atom_site_label_1
_geom_angle_atom_site_label_2
_geom_angle_atom_site_label_3
_geom_angle
_geom_angle_site_symmetry_1
_geom_angle_site_symmetry_3
_geom_angle_publ_flag
C2 O1 H1O 111(3) . . ?
C7 C1 C2 106.16(17) . . ?
C7 C1 C13 107.87(16) . . ?
C2 C1 C13 117.89(15) . . ?
C7 C1 C6 111.96(16) . . ?
C2 C1 C6 110.97(15) . . ?
C13 C1 C6 102.08(14) . . ?
C15 O2 C3 107.96(16) . . ?
O1 C2 C3 112.96(16) . . ?
O1 C2 C1 108.16(16) . . ?
C3 C2 C1 115.54(16) . . ?
O1 C2 H2 106.5 . . ?
C3 C2 H2 106.5 . . ?
C1 C2 H2 106.5 . . ?
O2 C3 C2 109.27(16) . . ?
O2 C3 C4 101.93(17) . . ?
C2 C3 C4 113.02(15) . . ?
O2 C3 H3 110.8 . . ?
C2 C3 H3 110.8 . . ?
C4 C3 H3 110.8 . . ?
C6 O4 H4O 109(2) . . ?
C8 C4 C3 121.42(17) . . ?
C8 C4 C5 118.24(17) . . ?
C3 C4 C5 97.08(15) . . ?
C8 C4 H4 106.3 . . ?
C3 C4 H4 106.3 . . ?
C5 C4 H4 106.3 . . ?
C11 O5 C12 60.56(14) . . ?
C15 C5 C4 98.90(17) . . ?
C15 C5 C6 110.33(16) . . ?
C4 C5 C6 112.58(15) . . ?
C15 C5 H5 111.5 . . ?
C4 C5 H5 111.5 . . ?
C6 C5 H5 111.5 . . ?
O4 C6 C11 106.78(15) . . ?
O4 C6 C5 110.51(16) . . ?
C11 C6 C5 106.35(16) . . ?
O4 C6 C1 114.84(16) . . ?
C11 C6 C1 105.61(16) . . ?
C5 C6 C1 112.12(14) . . ?
C13 O6 C14 60.94(14) . . ?
C1 C7 H7A 109.5 . . ?
C1 C7 H7AB 109.5 . . ?
H7A C7 H7AB 109.5 . . ?
C1 C7 H7AC 109.5 . . ?
H7A C7 H7AC 109.5 . . ?
H7AB C7 H7AC 109.5 . . ?
C9 C8 C10 121.1(2) . . ?
C9 C8 C4 123.6(2) . . ?
C10 C8 C4 114.90(19) . . ?
C8 C9 H9A 120.0 . . ?
C8 C9 H9AB 120.0 . . ?
H9A C9 H9AB 120.0 . . ?
C8 C10 H10A 109.5 . . ?
C8 C10 H10B 109.5 . . ?
H10A C10 H10B 109.5 . . ?
C8 C10 H10C 109.5 . . ?
H10A C10 H10C 109.5 . . ?
H10B C10 H10C 109.5 . . ?
O5 C11 C12 60.32(14) . . ?
O5 C11 C6 114.86(18) . . ?
C12 C11 C6 109.08(17) . . ?
O5 C11 H11 119.5 . . ?
C12 C11 H11 119.5 . . ?
C6 C11 H11 119.5 . . ?
O5 C12 C11 59.12(14) . . ?
O5 C12 C13 111.69(18) . . ?
C11 C12 C13 109.14(17) . . ?
O5 C12 H12 120.6 . . ?
C11 C12 H12 120.6 . . ?
C13 C12 H12 120.6 . . ?
O6 C13 C14 59.82(15) . . ?
O6 C13 C12 114.14(18) . . ?
C14 C13 C12 118.05(19) . . ?
O6 C13 C1 118.88(17) . . ?
C14 C13 C1 129.29(18) . . ?
C12 C13 C1 108.00(16) . . ?
O6 C14 C13 59.25(14) . . ?
O6 C14 H14A 117.8 . . ?
C13 C14 H14A 117.8 . . ?
O6 C14 H14B 117.8 . . ?
C13 C14 H14B 117.8 . . ?
H14A C14 H14B 115.0 . . ?
O3 C15 O2 121.8(2) . . ?
O3 C15 C5 129.1(2) . . ?
O2 C15 C5 109.17(18) . . ?
loop_
_geom_bond_atom_site_label_1
_geom_bond_atom_site_label_2
_geom_bond_distance
_geom_bond_site_symmetry_2
_geom_bond_publ_flag
O1 C2 1.416(2) . ?
O1 H1O 0.83(3) . ?
C1 C7 1.538(3) . ?
C1 C2 1.555(3) . ?
C1 C13 1.556(3) . ?
C1 C6 1.585(3) . ?
O2 C15 1.350(3) . ?
O2 C3 1.465(3) . ?
C2 C3 1.521(3) . ?
C2 H2 0.9800 . ?
O3 C15 1.198(3) . ?
C3 C4 1.531(3) . ?
C3 H3 0.9800 . ?
O4 C6 1.415(2) . ?
O4 H4O 0.84(3) . ?
C4 C8 1.510(3) . ?
C4 C5 1.543(3) . ?
C4 H4 0.9800 . ?
O5 C11 1.434(3) . ?
O5 C12 1.452(3) . ?
C5 C15 1.526(3) . ?
C5 C6 1.559(3) . ?
C5 H5 0.9800 . ?
C6 C11 1.516(3) . ?
O6 C13 1.436(3) . ?
O6 C14 1.445(3) . ?
C7 H7A 0.9600 . ?
C7 H7AB 0.9600 . ?
C7 H7AC 0.9600 . ?
C8 C9 1.324(3) . ?
C8 C10 1.506(3) . ?
C9 H9A 0.9300 . ?
C9 H9AB 0.9300 . ?
C10 H10A 0.9600 . ?
C10 H10B 0.9600 . ?
C10 H10C 0.9600 . ?
C11 C12 1.455(3) . ?
C11 H11 0.9800 . ?
C12 C13 1.491(3) . ?
C12 H12 0.9800 . ?
C13 C14 1.461(3) . ?
C14 H14A 0.9700 . ?
C14 H14B 0.9700 . ?
loop_
_geom_hbond_atom_site_label_D
_geom_hbond_atom_site_label_H
_geom_hbond_atom_site_label_A
_geom_hbond_distance_DH
_geom_hbond_distance_HA
_geom_hbond_distance_DA
_geom_hbond_angle_DHA
_geom_hbond_site_symmetry_A
_geom_hbond_publ_flag
O1 H1O O4 0.83(3) 2.03(3) 2.827(2) 161(4) 1_655 yes
O4 H4O O3 0.84(3) 2.50(4) 2.874(2) 108(3) 1_465 yes
C14 H14A O1 0.97 2.30 2.900(3) 119.2 . yes
C14 H14A O5 0.97 2.52 3.378(3) 147.2 1_655 yes
loop_
_geom_torsion_atom_site_label_1
_geom_torsion_atom_site_label_2
_geom_torsion_atom_site_label_3
_geom_torsion_atom_site_label_4
_geom_torsion
_geom_torsion_site_symmetry_1
_geom_torsion_site_symmetry_2
_geom_torsion_site_symmetry_3
_geom_torsion_site_symmetry_4
_geom_torsion_publ_flag
C7 C1 C2 O1 -75.7(2) . . . . ?
C13 C1 C2 O1 45.3(2) . . . . ?
C6 C1 C2 O1 162.48(16) . . . . ?
C7 C1 C2 C3 156.63(17) . . . . ?
C13 C1 C2 C3 -82.4(2) . . . . ?
C6 C1 C2 C3 34.8(2) . . . . ?
C15 O2 C3 C2 -88.5(2) . . . . ?
C15 O2 C3 C4 31.3(2) . . . . ?
O1 C2 C3 O2 -69.5(2) . . . . ?
C1 C2 C3 O2 55.8(2) . . . . ?
O1 C2 C3 C4 177.77(17) . . . . ?
C1 C2 C3 C4 -57.0(2) . . . . ?
O2 C3 C4 C8 -176.43(16) . . . . ?
C2 C3 C4 C8 -59.3(2) . . . . ?
O2 C3 C4 C5 -47.04(17) . . . . ?
C2 C3 C4 C5 70.09(19) . . . . ?
C8 C4 C5 C15 176.10(16) . . . . ?
C3 C4 C5 C15 44.57(17) . . . . ?
C8 C4 C5 C6 59.6(2) . . . . ?
C3 C4 C5 C6 -71.92(19) . . . . ?
C15 C5 C6 O4 -179.95(17) . . . . ?
C4 C5 C6 O4 -70.5(2) . . . . ?
C15 C5 C6 C11 64.5(2) . . . . ?
C4 C5 C6 C11 173.96(17) . . . . ?
C15 C5 C6 C1 -50.4(2) . . . . ?
C4 C5 C6 C1 59.0(2) . . . . ?
C7 C1 C6 O4 -26.4(2) . . . . ?
C2 C1 C6 O4 92.05(19) . . . . ?
C13 C1 C6 O4 -141.49(16) . . . . ?
C7 C1 C6 C11 91.0(2) . . . . ?
C2 C1 C6 C11 -150.57(16) . . . . ?
C13 C1 C6 C11 -24.12(19) . . . . ?
C7 C1 C6 C5 -153.58(17) . . . . ?
C2 C1 C6 C5 -35.2(2) . . . . ?
C13 C1 C6 C5 91.30(17) . . . . ?
C3 C4 C8 C9 -13.1(3) . . . . ?
C5 C4 C8 C9 -132.5(2) . . . . ?
C3 C4 C8 C10 173.95(18) . . . . ?
C5 C4 C8 C10 54.5(2) . . . . ?
C12 O5 C11 C6 98.66(19) . . . . ?
O4 C6 C11 O5 75.5(2) . . . . ?
C5 C6 C11 O5 -166.52(16) . . . . ?
C1 C6 C11 O5 -47.2(2) . . . . ?
O4 C6 C11 C12 140.80(19) . . . . ?
C5 C6 C11 C12 -101.18(19) . . . . ?
C1 C6 C11 C12 18.1(2) . . . . ?
C11 O5 C12 C13 -99.98(19) . . . . ?
C6 C11 C12 O5 -108.36(19) . . . . ?
O5 C11 C12 C13 104.37(19) . . . . ?
C6 C11 C12 C13 -4.0(2) . . . . ?
C14 O6 C13 C12 -109.6(2) . . . . ?
C14 O6 C13 C1 121.1(2) . . . . ?
O5 C12 C13 O6 -83.4(2) . . . . ?
C11 C12 C13 O6 -146.83(19) . . . . ?
O5 C12 C13 C14 -150.7(2) . . . . ?
C11 C12 C13 C14 145.8(2) . . . . ?
O5 C12 C13 C1 51.2(2) . . . . ?
C11 C12 C13 C1 -12.2(2) . . . . ?
C7 C1 C13 O6 36.3(2) . . . . ?
C2 C1 C13 O6 -83.8(2) . . . . ?
C6 C1 C13 O6 154.34(17) . . . . ?
C7 C1 C13 C14 109.4(3) . . . . ?
C2 C1 C13 C14 -10.7(3) . . . . ?
C6 C1 C13 C14 -132.5(2) . . . . ?
C7 C1 C13 C12 -95.8(2) . . . . ?
C2 C1 C13 C12 144.06(18) . . . . ?
C6 C1 C13 C12 22.2(2) . . . . ?
C12 C13 C14 O6 103.1(2) . . . . ?
C1 C13 C14 O6 -104.2(2) . . . . ?
C3 O2 C15 O3 179.1(2) . . . . ?
C3 O2 C15 C5 -1.2(2) . . . . ?
C4 C5 C15 O3 150.8(2) . . . . ?
C6 C5 C15 O3 -91.0(3) . . . . ?
C4 C5 C15 O2 -28.8(2) . . . . ?
C6 C5 C15 O2 89.4(2) . . . . ?
