#------------------------------------------------------------------------------
#$Date: 2020-12-04 04:30:47 +0200 (Fri, 04 Dec 2020) $
#$Revision: 259532 $
#$URL: file:///home/coder/svn-repositories/cod/cif/1/55/94/1559499.cif $
#------------------------------------------------------------------------------
#
# This file is available in the Crystallography Open Database (COD),
# http://www.crystallography.net/
#
# All data on this site have been placed in the public domain by the
# contributors.
#
data_1559499
loop_
_publ_author_name
'Sui, Ying'
'Shi, Yibo'
'Deng, Yunfeng'
'Li, Riqing'
'Bai, Junhua'
'Wang, Zhongli'
'Dang, Yanfeng'
'Han, Yang'
'Kirby, Nigel'
'Ye, Long'
'Geng, Yanhou'
_publ_section_title
;
 Direct Arylation Polycondensation of Chlorinated Thiophene Derivatives to
 High-Mobility Conjugated Polymers
;
_journal_issue                   22
_journal_name_full               Macromolecules
_journal_page_first              10147
_journal_page_last               10154
_journal_paper_doi               10.1021/acs.macromol.0c02206
_journal_volume                  53
_journal_year                    2020
_chemical_formula_moiety         'C10 H4 Cl4 S2'
_chemical_formula_sum            'C10 H4 Cl4 S2'
_chemical_formula_weight         330.05
_space_group_crystal_system      monoclinic
_space_group_IT_number           14
_space_group_name_Hall           '-P 2yn'
_space_group_name_H-M_alt        'P 1 21/n 1'
_atom_sites_solution_hydrogens   geom
_atom_sites_solution_primary     dual
_audit_creation_date             2019-11-07
_audit_creation_method
;
Olex2 1.2
(compiled 2018.05.29 svn.r3508 for OlexSys, GUI svn.r5506)
;
_cell_angle_alpha                90
_cell_angle_beta                 95.219(13)
_cell_angle_gamma                90
_cell_formula_units_Z            2
_cell_length_a                   4.5288(16)
_cell_length_b                   9.877(3)
_cell_length_c                   13.772(4)
_cell_measurement_reflns_used    3074
_cell_measurement_temperature    170(2)
_cell_measurement_theta_max      54.74
_cell_measurement_theta_min      4.80
_cell_volume                     613.5(3)
_computing_cell_refinement       'SAINT v8.37A (Bruker, 2015)'
_computing_data_reduction        'SAINT v8.37A (Bruker, 2015)'
_computing_molecular_graphics    'Olex2 (Dolomanov et al., 2009)'
_computing_publication_material  'Olex2 (Dolomanov et al., 2009)'
_computing_structure_refinement  'ShelXL (Sheldrick, 2015)'
_computing_structure_solution    'ShelXT (Sheldrick, 2015)'
_diffrn_ambient_temperature      170.15
_diffrn_measured_fraction_theta_full 0.993
_diffrn_measured_fraction_theta_max 0.986
_diffrn_measurement_device_type  'Bruker D8 Venture'
_diffrn_measurement_method       '\f and \w scans'
_diffrn_radiation_type           GaK\a
_diffrn_radiation_wavelength     1.34139
_diffrn_reflns_av_R_equivalents  0.0418
_diffrn_reflns_av_unetI/netI     0.0260
_diffrn_reflns_Laue_measured_fraction_full 0.993
_diffrn_reflns_Laue_measured_fraction_max 0.986
_diffrn_reflns_limit_h_max       5
_diffrn_reflns_limit_h_min       -5
_diffrn_reflns_limit_k_max       11
_diffrn_reflns_limit_k_min       -11
_diffrn_reflns_limit_l_max       16
_diffrn_reflns_limit_l_min       -16
_diffrn_reflns_number            7590
_diffrn_reflns_point_group_measured_fraction_full 0.993
_diffrn_reflns_point_group_measured_fraction_max 0.986
_diffrn_reflns_theta_full        53.594
_diffrn_reflns_theta_max         54.964
_diffrn_reflns_theta_min         4.800
_diffrn_standards_number         0
_exptl_absorpt_coefficient_mu    7.631
_exptl_absorpt_correction_T_max  0.7508
_exptl_absorpt_correction_T_min  0.5305
_exptl_absorpt_correction_type   multi-scan
_exptl_absorpt_process_details
'SADABS-2016/2 (Bruker,2016/2) was used for absorption correction. wR2(int) was 0.1886 before and 0.0631 after correction. The Ratio of minimum to maximum transmission is 0.7066. The \l/2 correction factor is Not present.'
_exptl_crystal_colour            colourless
_exptl_crystal_density_diffrn    1.787
_exptl_crystal_description       needle
_exptl_crystal_F_000             328
_exptl_crystal_size_max          0.12
_exptl_crystal_size_mid          0.01
_exptl_crystal_size_min          0.005
_refine_diff_density_max         0.726
_refine_diff_density_min         -0.396
_refine_diff_density_rms         0.090
_refine_ls_extinction_method     none
_refine_ls_goodness_of_fit_ref   1.140
_refine_ls_hydrogen_treatment    constr
_refine_ls_matrix_type           full
_refine_ls_number_parameters     73
_refine_ls_number_reflns         1160
_refine_ls_number_restraints     0
_refine_ls_restrained_S_all      1.140
_refine_ls_R_factor_all          0.0438
_refine_ls_R_factor_gt           0.0397
_refine_ls_shift/su_max          0.000
_refine_ls_shift/su_mean         0.000
_refine_ls_structure_factor_coef Fsqd
_refine_ls_weighting_details
'w=1/[\s^2^(Fo^2^)+(0.0564P)^2^+1.0128P] where P=(Fo^2^+2Fc^2^)/3'
_refine_ls_weighting_scheme      calc
_refine_ls_wR_factor_gt          0.1023
_refine_ls_wR_factor_ref         0.1184
_reflns_Friedel_coverage         0.000
_reflns_number_gt                1075
_reflns_number_total             1160
_reflns_threshold_expression     'I > 2\s(I)'
_cod_data_source_file            ma0c02206_si_003.cif
_cod_data_source_block           191106dyf_0m_pl
_cod_depositor_comments
'Adding full bibliography for 1559498--1559499.cif.'
_cod_database_code               1559499
_shelx_shelxl_version_number     2016/6
_shelx_space_group_comment
;
The symmetry employed for this shelxl refinement is uniquely defined
by the following loop, which should always be used as a source of
symmetry information in preference to the above space-group names.
They are only intended as comments.
;
_olex2_refinement_description
;
1. Fixed Uiso
 At 1.2 times of:
  All C(H) groups
2.a Aromatic/amide H refined with riding coordinates:
 C1(H1), C5(H5)
;
_shelx_res_file
;
TITL 191106dyf_0m_b.res in P2(1) New: P21/n
    191106dyf_0m_pl.res
    created by SHELXL-2016/6 at 07:11:00 on 07-Nov-2019
CELL 1.34139 4.5288 9.877 13.772 90 95.219 90
ZERR 2 0.0016 0.003 0.004 0 0.013 0
LATT 1
SYMM 0.5-X,0.5+Y,0.5-Z
SFAC C H Cl S
DISP C 0.0148 0.007 57.7477
DISP Cl 0.3294 0.5404 4086.1782
DISP H -0 0 0.6481
DISP S 0.2924 0.4247 3241.7632
UNIT 20 8 8 4

L.S. 5
PLAN  -20
TEMP -103
BOND $H
CONF
fmap 2
acta
REM <olex2.extras>
REM <HklSrc "%.\\191106dyf_0m.hkl">
REM </olex2.extras>

WGHT    0.056400    1.012800
FVAR       0.70515
CL1   3    0.649447    0.357868    0.225460    11.00000    0.05816    0.04528 =
         0.02564   -0.00517    0.00255    0.00328
CL2   3    0.224128    0.097791    0.157018    11.00000    0.04615    0.03600 =
         0.04030    0.00948    0.00928    0.00002
S1    4    0.614553    0.280836   -0.076836    11.00000    0.04314    0.03499 =
         0.02584   -0.00282    0.00313   -0.00424
C1    1    0.937596    0.472834    0.037415    11.00000    0.02650    0.03089 =
         0.03186   -0.00009   -0.00491    0.00286
AFIX  43
H1    2    0.990162    0.510715    0.100011    11.00000   -1.20000
AFIX   0
C2    1    0.729973    0.361760    0.032063    11.00000    0.03244    0.02724 =
         0.03251    0.00005    0.00276    0.00520
C3    1    0.597572    0.302904    0.107056    11.00000    0.03864    0.02822 =
         0.02945    0.00098    0.00447    0.00790
C4    1    0.410512    0.193093    0.077631    11.00000    0.03411    0.02686 =
         0.03238    0.00604    0.00178    0.00614
C5    1    0.397452    0.169385   -0.020274    11.00000    0.03587    0.03009 =
         0.03594   -0.00284   -0.00820   -0.00127
AFIX  43
H5    2    0.282402    0.099821   -0.052869    11.00000   -1.20000
AFIX   0
HKLF 4




REM  191106dyf_0m_b.res in P2(1) New: P21/n
REM R1 =  0.0397 for    1075 Fo > 4sig(Fo)  and  0.0438 for all    1160 data
REM     73 parameters refined using      0 restraints

END

WGHT      0.0562      1.0177

REM Highest difference peak  0.726,  deepest hole -0.396,  1-sigma level  0.090
Q1    1   0.7818  0.4275  0.1857  11.00000  0.05    0.73
Q2    1   0.5107  0.1980 -0.0640  11.00000  0.05    0.61
Q3    1   0.1515  0.0852  0.0855  11.00000  0.05    0.35
Q4    1   0.2194  0.0857  0.0234  11.00000  0.05    0.33
Q5    1   0.9098  0.2774 -0.1015  11.00000  0.05    0.29
Q6    1   0.5894  0.2805  0.0353  11.00000  0.05    0.27
Q7    1   0.5608  0.2885 -0.1411  11.00000  0.05    0.26
Q8    1   0.7873  0.3659  0.0954  11.00000  0.05    0.24
Q9    1   0.6120  0.3487  0.0671  11.00000  0.05    0.23
Q10   1   1.0133  0.4273  0.1456  11.00000  0.05    0.22
Q11   1   0.3393  0.2734  0.2727  11.00000  0.05    0.22
Q12   1   0.3943  0.3788  0.2627  11.00000  0.05    0.22
Q13   1   0.8161  0.3977  0.0359  11.00000  0.05    0.21
Q14   1   0.5034  0.1656  0.0245  11.00000  0.05    0.21
Q15   1   0.4123  0.0991  0.2529  11.00000  0.05    0.20
Q16   1  -0.0859  0.0912  0.1819  11.00000  0.05    0.20
Q17   1   0.7018  0.2980 -0.0043  11.00000  0.05    0.19
Q18   1   0.2570  0.0617  0.3067  11.00000  0.05    0.19
Q19   1   0.5106  0.2432  0.0947  11.00000  0.05    0.19
Q20   1   1.0974  0.2471 -0.0458  11.00000  0.05    0.19
;
_shelx_res_checksum              1573
_shelx_hkl_file
;
   1   0   0 -0.2639 0.48156   2
   2   0   0 559.379 26.5292   2
  -2   0   0 514.504 24.6280   4
  -2   0   0 529.100 25.1718   4
  -3   0   0 -1.5966 1.10296   4
   3   0   0 -0.7469 0.93451   2
  -3   0   0 0.26730 0.99683   1
   4   0   0 175.398 12.7655   2
  -4   0   0 190.513 11.2351   4
  -5   0   0 6.58677 2.06303   4
   5   0   0 0.19384 1.67836   2
   0  -1   0 -0.2805 0.41371   4
   0   1   0 0.01909 0.13313   4
   1  -1   0 28.5547 2.35250   2
  -1  -1   0 30.1333 2.23959   4
   1   1   0 28.1558 2.45699   2
  -2  -1   0 1555.11 77.3602   4
  -2  -1   0 1781.28 78.0031   3
   2  -1   0 1668.87 79.0878   2
  -2  -1   0 1784.36 78.3713   4
  -2  -1   0 1677.70 78.1218   1
   2   1   0 1737.73 79.4645   2
  -2   1   0 1761.75 77.8103   4
  -2   1   0 1550.69 77.4386   4
  -3  -1   0 412.142 21.7740   4
   3  -1   0 437.899 23.0278   2
  -3  -1   0 390.299 21.3080   1
  -3   1   0 471.124 21.4840   4
   3   1   0 440.642 23.3502   2
  -4  -1   0 76.7141 6.83121   4
  -4   1   0 82.5228 6.02780   4
   4   1   0 81.5201 7.85359   2
   5  -1   0 24.1642 4.36133   2
  -5  -1   0 20.0500 3.78976   4
   5   1   0 27.0966 4.75048   2
  -5   1   0 21.2538 3.12899   4
   0  -2   0 2182.40 101.852   3
   0  -2   0 2311.95 102.376   4
   0   2   0 2165.35 101.453   1
  -1  -2   0 9909.79 454.683   1
  -1  -2   0 9999.99 454.555   5
   2  -2   0 85.2241 5.62827   2
  -2  -2   0 80.7152 4.71744   3
  -2  -2   0 86.9594 5.72166   4
  -2  -2   0 78.5775 5.04751   1
  -2   2   0 77.3212 4.56520   4
   2   2   0 84.9603 6.12859   2
  -2   2   0 72.5057 4.04829   1
  -2   2   0 72.0241 4.51057   4
  -3  -2   0 2.14566 1.36602   1
  -3  -2   0 2.33556 1.11396   3
  -3  -2   0 2.93515 1.78094   4
   3   2   0 2.67342 2.28571   2
  -3   2   0 1.98876 0.59009   1
  -3   2   0 0.77047 1.11094   4
  -4  -2   0 379.722 20.3602   4
   4  -2   0 351.978 20.5908   2
  -4  -2   0 327.975 18.5429   1
   4   2   0 373.863 21.9442   2
  -4   2   0 359.482 18.3519   4
   5  -2   0 1.23952 2.08809   2
  -5  -2   0 0.74113 2.20569   4
  -5   2   0 -0.6533 1.28286   4
   5   2   0 4.47095 2.30492   2
   0  -3   0 0.42541 0.92752   5
   0  -3   0 -0.1499 1.23069   4
   0  -3   0 0.97614 0.86253   1
   0  -3   0 -0.2939 0.68275   3
   0   3   0 0.04700 0.32150   1
   0   3   0 0.21771 0.30405   5
   0   3   0 0.25979 0.40451   4
  -1  -3   0 1117.47 50.4671   4
   1  -3   0 1183.94 49.5360   2
  -1  -3   0 1065.48 49.5224   3
  -1  -3   0 1125.62 49.9174   5
  -1  -3   0 1107.15 49.8786   1
  -1   3   0 979.687 48.6289   1
   1   3   0 1024.66 48.7127   4
  -1   3   0 984.964 48.8666   5
  -1   3   0 981.194 48.8473   4
   1   3   0 1019.07 48.8092   1
  -2  -3   0 19.9840 2.04473   3
  -2  -3   0 20.4771 2.66758   5
  -2  -3   0 18.0819 3.26378   4
  -2  -3   0 18.8862 2.54603   1
   2  -3   0 16.2228 2.45409   2
   2   3   0 18.4173 3.00842   2
  -2   3   0 13.7815 1.22200   1
  -2   3   0 12.9079 1.95534   4
  -3  -3   0 312.083 16.8480   4
   3  -3   0 298.160 16.3314   2
  -3  -3   0 285.748 16.4018   5
  -3  -3   0 269.616 14.3975   3
  -3  -3   0 285.358 15.6617   1
   3   3   0 315.307 18.0891   2
  -3   3   0 286.545 14.7502   4
  -3   3   0 276.115 13.8605   1
   4  -3   0 142.765 10.4529   2
  -4  -3   0 152.892 9.93435   1
  -4  -3   0 146.898 11.0266   4
   4   3   0 161.983 12.2170   2
  -4   3   0 148.122 8.66887   4
   5  -3   0 -0.0981 1.92287   2
  -5  -3   0 -3.4458 3.34946   5
   5   3   0 -2.5041 1.89303   2
  -5   3   0 0.32045 1.19570   4
   0  -4   0 1145.79 53.7012   1
   0  -4   0 1145.07 54.4564   4
   0  -4   0 1076.18 53.8404   5
   0   4   0 1081.35 52.4739   1
   0   4   0 1226.05 52.4620   5
   0   4   0 1145.21 52.4423   4
  -1  -4   0 269.642 13.9813   1
  -1  -4   0 255.129 13.3496   3
  -1  -4   0 255.589 14.0253   5
   1  -4   0 244.194 13.3078   1
  -1  -4   0 262.809 14.7402   4
   1   4   0 250.809 12.6232   1
  -1   4   0 280.526 12.5426   5
   1   4   0 255.262 12.5445   5
   1   4   0 255.617 12.5624   4
  -1   4   0 260.755 12.5488   4
  -2  -4   0 1105.16 53.1566   5
   2  -4   0 1242.86 52.7486   2
  -2  -4   0 1167.18 54.1628   4
  -2  -4   0 1085.60 52.0281   3
  -2  -4   0 1060.40 52.8164   1
  -2   4   0 1021.44 50.9248   1
   2   4   0 1053.18 51.0891   1
  -2   4   0 1145.76 51.5670   5
   2   4   0 1086.00 54.2995   2
  -2   4   0 1074.98 51.4130   4
   3  -4   0 679.702 34.6648   2
  -3  -4   0 704.740 35.4576   5
  -3  -4   0 697.407 34.7079   1
  -3  -4   0 675.422 33.1236   3
  -3  -4   0 734.425 36.1015   4
  -3   4   0 660.367 33.0546   4
   3   4   0 780.003 37.6964   2
  -3   4   0 655.205 32.3184   1
  -3   4   0 657.820 33.3040   5
  -4  -4   0 80.5909 6.74121   1
  -4  -4   0 84.1073 8.23242   4
  -4   4   0 80.1647 5.29608   4
   4   4   0 72.3072 11.7633   2
  -5  -4   0 41.7413 6.47407   5
   5  -4   0 26.2921 4.92830   2
  -5  -4   0 39.7853 5.82813   4
   5   4   0 43.7959 5.92289   2
   0  -5   0 1.31845 1.20431   5
   0  -5   0 1.72920 1.24910   1
   0  -5   0 1.75824 1.43830   4
   0  -5   0 1.30042 0.99948   3
   0   5   0 0.36006 0.44256   4
   0   5   0 0.43984 0.45925   5
   1  -5   0 5.18896 1.35793   1
  -1  -5   0 4.78360 1.80824   1
  -1  -5   0 2.66106 1.35591   3
  -1  -5   0 1.08974 2.47778   4
  -1  -5   0 2.63589 1.62644   5
  -1   5   0 3.40462 0.80833   4
  -1   5   0 3.99060 0.78724   1
   1   5   0 1.55144 0.59444   5
   1   5   0 3.31279 0.78835   4
  -1   5   0 2.32749 0.60130   5
   1   5   0 3.59059 0.88843   1
  -2  -5   0 24.0388 3.87579   5
  -2  -5   0 25.7487 2.77615   3
  -2  -5   0 20.4749 3.46502   1
   2  -5   0 27.8561 4.86342   2
  -2  -5   0 28.0138 4.66968   4
  -2   5   0 25.7157 2.33189   4
  -2   5   0 25.3011 2.40835   5
   2   5   0 30.7443 4.53120   2
  -2   5   0 24.5354 1.95093   1
  -3  -5   0 2.29887 2.50045   4
  -3  -5   0 4.23475 1.68145   3
   3  -5   0 4.63596 2.90606   2
  -3  -5   0 5.50995 2.37689   5
  -3  -5   0 1.16871 1.60714   1
  -3   5   0 4.65539 0.93344   1
   3   5   0 4.43596 2.38242   2
  -3   5   0 1.64311 1.37424   5
  -3   5   0 2.08596 1.13728   4
  -4  -5   0 22.1122 3.97523   1
  -4  -5   0 21.2091 5.09971   4
   4  -5   0 17.7614 4.39291   2
  -4   5   0 19.8385 2.30488   4
  -4   5   0 23.7753 2.04251   1
   4   5   0 22.8629 5.47444   2
  -4   5   0 18.3463 2.62028   5
   0  -6   0 6.53231 2.31069   5
   0  -6   0 6.48447 2.05752   1
   0  -6   0 9.07329 2.31000   3
   0   6   0 6.26974 1.11820   4
   0   6   0 6.23100 1.10474   1
  -1  -6   0 67.2405 6.95802   4
  -1  -6   0 71.6800 6.18191   1
  -1  -6   0 76.0040 6.64208   5
   1  -6   0 77.9359 5.65089   1
  -1  -6   0 70.2754 5.21542   3
   1   6   0 70.3298 4.37256   4
  -1   6   0 72.0986 4.28374   1
  -1   6   0 72.8249 4.11665   5
   1   6   0 59.3338 4.14726   5
   1   6   0 74.8894 4.52720   1
  -1   6   0 72.7880 4.25462   4
  -2  -6   0 198.103 14.1875   4
  -2  -6   0 203.443 11.5674   3
  -2  -6   0 207.646 13.0507   1
  -2  -6   0 198.898 13.4679   5
  -2   6   0 215.133 10.5235   4
  -2   6   0 201.155 10.4031   1
   2   6   0 191.408 10.6593   1
  -2   6   0 210.545 10.3881   5
  -3  -6   0 542.043 29.0411   1
  -3  -6   0 524.797 26.8565   3
  -3  -6   0 495.182 29.7455   5
  -3  -6   0 532.235 30.4411   4
  -3   6   0 554.837 25.9744   1
  -3   6   0 577.909 26.2137   4
   3   6   0 523.289 31.6547   2
  -3   6   0 569.649 26.1160   5
  -4  -6   0 48.9130 6.35046   1
  -4  -6   0 70.8419 7.67151   4
  -4   6   0 69.0403 4.37168   5
   4   6   0 72.2627 8.34309   2
  -4   6   0 65.9103 4.02915   1
  -4   6   0 64.7975 4.25909   4
   0  -7   0 -0.4020 0.97995   3
   0  -7   0 -0.4680 1.25875   1
   0  -7   0 0.05066 1.76524   5
   0  -7   0 -0.8684 1.96360   4
   0   7   0 0.08637 0.43691   5
   0   7   0 0.18404 0.59409   1
   0   7   0 0.85603 0.50477   4
   1  -7   0 52.4226 4.83148   1
  -1  -7   0 51.5341 4.54276   3
  -1  -7   0 51.6127 5.65265   1
   1   7   0 44.5822 3.42646   4
  -1   7   0 54.4890 3.64662   1
   1   7   0 53.4106 4.07450   1
  -1   7   0 52.4170 3.46397   4
  -1   7   0 48.6110 3.34591   5
  -2  -7   0 176.917 11.9781   1
  -2  -7   0 173.941 10.1794   3
  -2  -7   0 160.566 12.2189   5
  -2   7   0 165.581 8.91155   1
   2   7   0 148.622 9.22236   1
  -2   7   0 172.686 8.93923   4
  -2   7   0 159.278 8.67541   5
  -3  -7   0 2.39706 2.38551   1
  -3  -7   0 6.54495 3.45700   4
  -3  -7   0 0.83287 1.56266   3
  -3   7   0 1.38649 1.34248   5
  -3   7   0 0.63757 0.80746   1
  -4  -7   0 1.45987 2.59227   1
  -4  -7   0 3.28651 2.93675   5
  -4  -7   0 -0.9456 2.71741   4
  -4   7   0 2.34964 0.92799   5
  -4   7   0 0.84525 1.05499   1
  -4   7   0 2.04612 0.86360   4
   4   7   0 1.95780 2.64968   2
   0  -8   0 44.0242 5.12077   1
   0   8   0 40.2525 3.25531   1
   0   8   0 36.6637 3.03247   4
   0   8   0 38.4552 3.02005   5
  -1  -8   0 166.064 10.1071   3
  -1  -8   0 152.406 11.2675   1
   1  -8   0 157.081 10.2211   1
  -1  -8   0 147.681 12.1929   4
  -1  -8   0 145.845 11.4658   5
   1   8   0 152.953 8.76881   1
  -1   8   0 158.485 8.69559   1
  -1   8   0 147.627 9.99255   4
  -1   8   0 151.811 8.33788   5
  -2  -8   0 90.0880 9.35778   4
  -2  -8   0 75.0483 8.19427   5
  -2  -8   0 83.6908 6.51334   3
  -2  -8   0 80.6669 7.95357   1
   2   8   0 76.8179 5.44286   1
  -2   8   0 90.0943 5.52487   1
   2   8   0 90.7657 9.50174   2
  -2   8   0 88.1097 5.31492   4
  -2   8   0 81.7420 5.18388   5
  -3  -8   0 9.19353 3.17324   1
  -3  -8   0 3.84210 4.13857   4
   3   8   0 9.63276 3.75690   2
  -3   8   0 6.16753 1.29177   5
  -3   8   0 8.77976 1.74960   4
  -3   8   0 10.5174 1.66489   1
  -4  -8   0 11.9444 3.21036   1
   4   8   0 8.03296 3.48694   2
  -4   8   0 9.01020 1.62569   5
   0  -9   0 1.13518 1.52127   1
   0  -9   0 0.91244 1.77632   3
   0   9   0 0.18408 0.61275   4
   0   9   0 0.26752 0.74006   1
  -1  -9   0 109.198 11.4470   4
  -1  -9   0 136.499 10.6208   1
  -1   9   0 129.256 7.45731   5
   1   9   0 137.525 7.93364   1
  -1   9   0 127.021 7.52412   4
  -1   9   0 134.762 7.84293   1
  -2  -9   0 15.9342 4.65702   4
  -2  -9   0 6.88108 2.99424   1
  -2   9   0 6.84117 1.45263   5
  -2   9   0 9.45388 1.69505   1
  -2   9   0 7.19532 1.45557   4
   2   9   0 7.93254 3.72749   2
  -3  -9   0 47.1297 5.79043   1
  -3  -9   0 45.1072 7.24277   5
  -3  -9   0 37.2899 6.62405   4
   3   9   0 57.7621 7.47658   2
  -3   9   0 47.5855 3.62760   5
  -3   9   0 47.2853 3.58516   1
  -3   9   0 47.1712 3.55489   4
   0 -10   0 74.0015 6.96014   1
   0  10   0 73.2543 5.18536   1
   0  10   0 73.0978 5.13330   4
  -1 -10   0 51.5776 6.42340   1
   1  10   0 56.9578 4.37252   1
  -1  10   0 56.3044 4.27005   4
  -1  10   0 58.5240 4.16400   5
  -1  10   0 64.6244 4.61036   1
  -2 -10   0 6.29722 2.59026   1
  -2 -10   0 -1.8376 3.71329   5
   2 -10   0 1.45492 1.93324   3
  -2 -10   0 0.09639 2.00499   3
  -2 -10   0 -8.8511 4.56483   4
  -2  10   0 3.01816 1.06982   5
  -2  10   0 4.50346 1.20112   4
  -2  10   0 3.72832 1.11442   1
   2  10   0 2.87788 2.41222   2
   3  10   0 18.0902 4.43079   2
  -3  10   0 18.4458 2.11447   5
  -3  10   0 22.4171 2.11000   1
   0 -11   0 -3.1905 1.89151   3
   0 -11   0 5.40566 3.00067   1
   0  11   0 -0.2243 0.74099   1
  -1 -11   0 78.9539 6.92835   1
  -1  11   0 73.7231 5.01544   1
   1  11   0 76.0113 7.72457   2
  -1  11   0 64.1795 4.59116   5
  -1  11   0 67.5708 5.17943   4
   1  11   0 62.8746 4.66415   1
  -2 -11   0 3.61839 2.32377   3
   2 -11   0 4.88002 2.92794   3
   2  11   0 6.46600 2.77726   2
  -2  11   0 6.33168 1.31585   1
  -2  11   0 6.38286 1.34242   5
   5   0  -1 334.893 21.2645   2
  -5   0   1 379.171 19.1156   4
   4   0  -1 1.70016 2.01357   2
  -4   0   1 0.10081 2.03476   4
  -3   0   1 0.56823 0.88867   1
   3   0  -1 1.76950 1.56102   2
  -3   0   1 1.42074 1.33565   4
  -2   0   1 2.18029 1.25239   4
  -2   0   1 2.14571 0.90908   1
   2   0  -1 0.55795 1.09368   2
   1   0  -1 1242.09 58.6667   2
  -1   0   1 1284.89 58.2942   4
   1   0   1 1996.59 92.0419   2
   2   0   1 1.19220 1.13600   2
  -3   0  -1 507.905 26.2971   4
  -3   0  -1 593.611 27.3922   4
   3   0   1 605.461 29.5321   2
   4   0   1 -0.2902 1.65261   2
  -4   0  -1 5.09954 1.66622   4
   5   0   1 29.9675 4.84725   2
  -5   0  -1 20.4957 3.04081   4
  -5  -1   1 -2.5410 2.05058   4
   5  -1  -1 3.05153 2.30178   2
  -5   1   1 1.05504 1.93110   4
   5   1  -1 6.77200 2.67428   2
  -4  -1   1 5.67907 2.56024   4
   4  -1  -1 6.93167 2.36446   2
  -4  -1   1 6.80113 1.80124   1
   4   1  -1 7.83212 2.72778   2
  -4   1   1 9.31400 2.46604   4
  -4   1   1 6.91962 1.30592   1
  -3  -1   1 253.186 13.7640   4
  -3  -1   1 239.084 13.0278   1
   3  -1  -1 235.740 14.2533   2
  -3   1   1 226.762 12.2501   1
  -3   1   1 261.700 13.2942   4
   3   1  -1 243.660 14.6088   2
  -2  -1   1 391.222 19.0892   4
   2  -1  -1 377.700 19.4735   2
  -2  -1   1 386.723 18.7280   1
   2   1  -1 398.620 19.8336   2
  -2   1   1 399.790 18.6525   4
  -2   1   1 335.225 18.1153   1
  -1  -1   1 12.3278 1.81075   5
   1  -1  -1 9.52852 1.71465   2
  -1  -1   1 9.27079 2.35742   4
  -1  -1   1 8.08520 1.31295   1
   1   1  -1 9.97715 1.76961   2
  -1   1   1 7.78919 1.21007   4
   0  -1   1 63.3505 3.59422   4
   0  -1  -1 64.7794 3.30941   4
   0   1   1 62.1252 3.14326   4
   0   1  -1 60.5516 3.02861   4
  -1  -1  -1 676.543 30.6445   4
   1  -1   1 648.849 31.4804   2
  -1  -1  -1 688.005 30.7332   4
   1   1   1 661.859 31.7144   2
   2  -1   1 10.0697 1.95574   2
  -2  -1  -1 13.1653 1.55138   1
  -2  -1  -1 13.2375 0.90126   4
  -2  -1  -1 13.7578 1.68087   4
   2   1   1 15.0757 2.48368   2
  -3  -1  -1 34.7390 3.28944   1
   3  -1   1 45.6035 4.70194   2
  -3  -1  -1 41.2845 3.03034   3
  -3   1  -1 49.0894 3.46647   4
  -3   1  -1 43.8615 2.65656   4
   3   1   1 44.4143 4.80726   2
  -4  -1  -1 15.1561 2.94360   4
   4  -1   1 9.55700 2.79400   2
   4   1   1 16.7257 4.02284   2
  -4   1  -1 14.4926 2.71306   4
   5  -1   1 21.7381 4.14324   2
  -5  -1  -1 16.8706 2.80836   4
   5   1   1 26.4012 4.60309   2
   5  -2  -1 36.6229 5.23451   2
  -5  -2   1 54.8955 5.52041   4
   5   2  -1 49.9280 6.55740   2
  -5   2   1 44.6537 3.95601   4
  -4  -2   1 264.127 15.3233   1
  -4  -2   1 295.476 16.8994   4
   4  -2  -1 291.917 17.2011   2
  -4  -2   1 271.953 16.5893   5
   4   2  -1 296.929 18.4064   2
  -4   2   1 257.587 13.5950   1
  -4   2   1 294.565 15.4091   4
  -3  -2   1 353.582 18.0639   4
  -3  -2   1 310.450 17.3732   5
   3  -2  -1 292.534 21.8042   2
  -3   2   1 342.503 16.7814   4
   3   2  -1 334.071 20.8438   2
  -3   2   1 308.206 15.6547   1
  -2  -2   1 115.066 6.96701   5
  -2  -2   1 113.891 6.76188   1
  -2  -2   1 112.421 5.95550   3
  -2   2   1 110.198 6.34589   4
  -2   2   1 107.357 5.78220   1
   2   2  -1 119.568 7.75627   2
  -1  -2   1 3239.87 147.599   5
  -1  -2   1 3501.76 148.079   4
   1  -2  -1 3354.37 147.386   2
  -1  -2   1 3315.71 147.534   1
  -1  -2   1 3149.00 146.998   3
   1   2  -1 3209.91 146.656   4
   1   2  -1 3280.56 147.943   2
  -1   2   1 3030.38 146.897   4
  -1   2   1 3034.26 146.640   1
   1   2  -1 3141.62 146.713   1
  -1   2   1 3053.42 146.974   5
   0  -2  -1 69.6324 4.04534   3
   0  -2  -1 72.0710 4.33021   4
   0  -2  -1 66.4377 3.87956   1
   0  -2  -1 70.0662 3.98199   5
   0  -2   1 66.1341 4.41184   4
   0  -2   1 63.8023 3.66590   3
   0   2   1 72.7097 3.48740   4
   0   2   1 59.8176 3.38561   1
   0   2  -1 66.2320 3.37659   5
   0   2  -1 63.2454 3.40870   1
   0   2  -1 72.0537 3.42255   4
  -1  -2  -1 1996.76 91.1680   5
  -1  -2  -1 2098.89 91.5228   1
  -1  -2  -1 1993.04 91.8033   3
   1  -2   1 1987.04 91.5180   2
  -1  -2  -1 1997.72 91.5703   4
  -1   2  -1 1807.16 90.7492   1
   1   2   1 2223.19 92.3574   2
  -1   2  -1 1792.40 91.3207   4
  -2  -2  -1 867.363 38.6245   4
   2  -2   1 802.324 38.9536   2
  -2  -2  -1 819.537 38.2744   1
  -2  -2  -1 890.735 38.5848   3
  -2   2  -1 692.296 37.6224   4
   2   2   1 845.538 39.7536   2
  -2   2  -1 753.414 37.4622   4
  -3  -2  -1 0.93903 1.33832   3
  -3  -2  -1 2.26127 1.55607   4
   3  -2   1 -0.0382 1.83834   2
  -3  -2  -1 0.26589 1.06872   1
  -3   2  -1 0.74772 0.96576   4
   3   2   1 -0.3499 1.36900   2
  -4  -2  -1 32.6353 3.93878   1
   4  -2   1 48.0710 5.44059   2
  -4  -2  -1 49.0274 5.40657   4
  -4   2  -1 37.8299 3.47842   4
   4   2   1 46.2035 5.97552   2
   5  -2   1 61.2963 6.30644   2
   5   2   1 67.2527 7.13746   2
  -5  -3   1 44.6003 5.54656   4
  -5  -3   1 34.6626 6.16254   5
   5  -3  -1 38.9589 5.19280   2
   5   3  -1 46.9729 6.41270   2
  -5   3   1 37.9406 3.75527   4
  -4  -3   1 21.0726 3.70648   1
  -4  -3   1 21.1924 4.21990   5
  -4  -3   1 27.5656 4.94586   4
   4  -3  -1 23.8921 4.11920   2
  -4   3   1 20.7376 1.84633   1
   4   3  -1 26.4387 4.74814   2
  -4   3   1 21.3752 3.21395   4
  -3  -3   1 4.95979 1.32409   3
   3  -3  -1 4.08125 1.99564   2
  -3  -3   1 1.66162 1.97713   4
  -3  -3   1 2.43829 1.71769   5
  -3   3   1 5.93373 1.83467   4
  -3   3   1 4.59244 0.97404   1
   3   3  -1 5.92263 2.25795   2
  -2  -3   1 73.0022 5.38849   5
  -2  -3   1 67.7950 5.73731   4
  -2  -3   1 67.3660 4.09172   3
   2  -3  -1 64.6082 4.85005   2
  -2  -3   1 66.5229 4.94968   1
  -2   3   1 64.9091 4.43519   4
  -2   3   1 54.6563 3.75266   1
   2   3  -1 61.8959 4.21514   1
   2   3  -1 68.9817 5.75256   2
  -1  -3   1 923.121 44.2760   3
  -1  -3   1 943.605 45.1192   5
   1  -3  -1 972.600 44.5018   1
  -1  -3   1 947.516 44.9233   1
  -1  -3   1 988.839 45.6844   4
   1  -3  -1 911.544 44.0615   3
   1  -3  -1 1076.32 44.5978   2
  -1   3   1 816.891 43.9186   4
   1   3  -1 912.237 43.8508   1
  -1   3   1 909.841 43.7020   1
  -1   3   1 1020.03 44.1141   5
   1   3  -1 961.158 43.8162   4
   0  -3  -1 1.93155 0.97158   5
   0  -3   1 2.68393 1.10210   5
   0  -3   1 0.64633 0.76320   3
   0  -3  -1 0.60991 1.23204   4
   0  -3   1 1.24144 0.90718   1
   0  -3  -1 -0.2033 0.76829   1
   0  -3  -1 2.25369 1.24869   3
   0   3   1 0.91879 0.46890   4
   0   3   1 0.98028 0.40813   1
   0   3  -1 1.08577 0.45756   4
   0   3   1 0.91196 0.37740   5
   0   3  -1 1.05787 0.38376   1
   0   3  -1 1.00198 0.39789   5
  -1  -3  -1 303.031 15.5042   3
   1  -3   1 350.434 15.3295   2
  -1  -3  -1 322.477 15.4616   1
  -1  -3  -1 314.313 15.8831   4
  -1  -3  -1 319.972 15.2959   5
  -1   3  -1 285.004 14.3618   1
   1   3   1 293.819 14.5420   1
  -1   3  -1 288.191 14.4717   5
  -1   3  -1 282.286 14.4561   4
  -2  -3  -1 717.601 33.1997   1
  -2  -3  -1 732.481 33.8343   4
  -2  -3  -1 700.557 32.9472   5
   2  -3   1 698.328 33.2106   2
  -2  -3  -1 701.448 33.0867   3
   2   3   1 709.308 34.5855   2
  -2   3  -1 594.821 31.9418   4
  -2   3  -1 633.969 31.6342   1
   3  -3   1 21.6924 3.36032   2
  -3  -3  -1 20.3618 3.18651   5
  -3  -3  -1 16.3080 3.36163   4
  -3  -3  -1 23.1777 2.36658   3
  -3  -3  -1 18.8022 2.90584   1
  -3   3  -1 18.4299 2.26185   4
  -3   3  -1 22.9221 1.53559   1
   3   3   1 22.4706 4.01339   2
  -4  -3  -1 -2.3309 1.67751   1
  -4  -3  -1 -1.7895 2.43625   4
  -4  -3  -1 0.81924 1.41543   5
   4  -3   1 1.95057 1.91601   2
  -4   3  -1 4.17403 1.25564   4
   4   3   1 -1.0716 1.57101   2
  -5  -3  -1 13.2496 3.36890   4
   5  -3   1 7.11669 3.05611   2
   5   3   1 4.34291 2.41596   2
  -5  -4   1 33.7041 6.05933   5
   5  -4  -1 33.7321 5.29660   2
  -5  -4   1 33.9304 5.38269   4
   5   4  -1 29.6202 5.59237   2
  -4  -4   1 1.06619 1.90945   1
  -4  -4   1 3.62548 2.54411   4
  -4   4   1 2.38175 1.71461   5
  -4   4   1 2.10623 1.53233   4
  -3  -4   1 392.138 22.8657   5
  -3  -4   1 401.080 22.0630   1
  -3  -4   1 431.235 23.5241   4
   3  -4  -1 423.594 22.2276   2
  -3  -4   1 391.747 20.2948   3
   3   4  -1 466.095 24.9688   2
  -3   4   1 431.982 21.2755   5
  -3   4   1 419.784 20.9131   4
  -3   4   1 401.442 19.9128   1
  -2  -4   1 2080.46 100.379   3
  -2  -4   1 2174.70 101.643   1
   2  -4  -1 2439.37 101.382   2
  -2  -4   1 2231.46 102.194   5
   2   4  -1 2034.12 99.7698   1
  -2   4   1 2060.67 100.157   4
  -2   4   1 2077.61 99.6028   1
   2   4  -1 2239.30 103.183   2
  -2   4   1 2195.55 100.315   5
   1  -4  -1 22.3500 2.75230   4
  -1  -4   1 23.3026 3.38228   5
  -1  -4   1 27.1689 3.08445   1
   1  -4  -1 24.4710 2.49177   1
  -1  -4   1 26.3951 3.89290   4
   1  -4  -1 22.6801 2.12609   3
  -1  -4   1 25.4655 2.35521   3
  -1   4   1 23.7031 2.01284   4
   1   4  -1 26.0641 1.84498   5
  -1   4   1 21.3507 1.68546   1
   1   4  -1 22.2096 1.83900   1
   1   4  -1 27.0313 2.09516   4
   0  -4  -1 424.129 20.9343   1
   0  -4  -1 413.377 20.6434   3
   0  -4   1 407.404 21.6482   4
   0  -4  -1 427.030 21.6881   4
   0  -4   1 379.082 21.1036   5
   0  -4   1 415.611 20.9980   1
   0  -4  -1 429.518 21.1624   5
   0  -4   1 426.745 20.4643   3
   0   4  -1 439.803 19.7716   5
   0   4   1 397.470 19.7831   1
   0   4   1 435.456 19.7347   5
   0   4  -1 402.398 19.8156   1
   0   4  -1 432.252 19.8050   4
   0   4   1 438.522 19.7854   4
  -1  -4  -1 151.985 8.77397   1
  -1  -4  -1 146.109 9.34362   4
  -1  -4  -1 152.338 8.77576   5
   1  -4   1 150.021 8.11580   1
  -1  -4  -1 150.241 8.50438   3
  -1   4  -1 158.018 7.37525   5
  -1   4  -1 152.489 7.42706   4
  -1   4  -1 144.491 7.80582   1
   1   4   1 139.652 7.43644   4
   1   4   1 139.822 7.55542   1
  -2  -4  -1 382.793 20.5070   4
  -2  -4  -1 382.733 19.6053   1
  -2  -4  -1 379.259 19.6031   5
   2  -4   1 419.122 19.4718   2
  -2  -4  -1 366.274 19.0474   3
  -2   4  -1 383.233 18.0850   4
   2   4   1 372.084 20.8632   2
  -2   4  -1 356.574 17.7338   1
   2   4   1 341.923 17.7197   1
   3  -4   1 56.7217 5.45709   2
  -3  -4  -1 49.0178 6.04599   4
  -3  -4  -1 55.3049 5.45847   5
  -3  -4  -1 52.6825 5.02436   1
  -3  -4  -1 55.3662 4.15568   3
  -3   4  -1 56.0114 3.23220   1
  -3   4  -1 59.5470 3.91235   4
   3   4   1 55.4584 6.38382   2
  -4  -4  -1 55.5563 5.82966   1
  -4  -4  -1 61.7269 7.09216   4
  -4  -4  -1 55.0486 7.56728   5
   4  -4   1 51.5039 5.95074   2
  -4   4  -1 57.8494 3.83445   4
   4   4   1 62.5716 7.32473   2
  -5  -4  -1 80.6423 8.10386   5
   5  -4   1 58.7515 6.96361   2
   5   4   1 90.4641 8.07531   2
  -5  -5   1 8.26881 3.36597   5
  -5  -5   1 2.40781 2.57235   1
   5  -5  -1 5.77708 4.06027   2
   5   5  -1 4.88282 2.89299   2
  -5   5   1 3.88854 1.08897   5
  -4  -5   1 24.5940 4.21073   1
  -4  -5   1 23.2094 4.88430   4
   4  -5  -1 20.8016 4.73240   2
  -4  -5   1 30.7920 5.82408   5
   4   5  -1 31.4509 5.84079   2
  -4   5   1 24.4874 2.20364   1
  -4   5   1 25.8151 3.28302   5
  -4   5   1 30.3537 3.00154   4
  -3  -5   1 -0.6591 2.04037   3
   3  -5  -1 2.21593 2.62489   2
  -3  -5   1 0.57633 1.40485   1
  -3  -5   1 1.06343 2.02323   4
  -3  -5   1 0.37825 1.68517   5
   3   5  -1 0.29742 1.92403   2
  -3   5   1 -0.2420 1.44909   5
  -3   5   1 1.21904 1.21729   4
  -3   5   1 0.22248 0.57263   1
   2  -5  -1 41.1601 5.27049   2
  -2  -5   1 31.2547 5.05651   4
  -2  -5   1 37.2581 4.32136   1
  -2  -5   1 39.4649 4.91127   5
  -2  -5   1 37.3957 3.29412   3
   2   5  -1 39.2781 5.12490   2
  -2   5   1 42.9881 3.20926   4
   2   5  -1 35.7982 2.81686   1
  -2   5   1 37.1042 2.59881   1
  -2   5   1 41.4751 3.26407   5
  -1  -5   1 454.657 22.6525   3
   1  -5  -1 480.556 22.5664   3
  -1  -5   1 467.484 23.7459   1
   1  -5  -1 480.791 23.2376   1
  -1  -5   1 456.190 24.1086   5
  -1   5   1 444.264 21.6213   5
  -1   5   1 449.636 21.7459   1
   1   5  -1 416.820 21.7878   5
   1   5  -1 447.661 21.8955   4
   1   5  -1 460.179 21.9664   1
  -1   5   1 480.889 21.8079   4
   0  -5  -1 875.867 44.0099   4
   0  -5   1 921.415 43.2562   1
   0  -5   1 857.568 43.3578   5
   0  -5  -1 875.681 43.0654   1
   0  -5   1 960.569 42.5768   3
   0  -5  -1 858.915 43.2851   5
   0  -5   1 857.800 43.7177   4
   0  -5  -1 882.314 42.5320   3
   0   5   1 825.865 41.5129   1
   0   5  -1 952.318 41.5403   5
   0   5   1 945.283 41.4835   5
   0   5   1 930.208 41.5111   4
   0   5  -1 893.628 41.5444   4
   0   5  -1 849.363 41.5842   1
  -1  -5  -1 216.079 12.5923   5
  -1  -5  -1 222.914 11.9561   3
  -1  -5  -1 220.908 13.4079   4
   1  -5   1 225.377 11.7968   1
  -1  -5  -1 217.864 12.4578   1
   1   5   1 207.208 10.9046   1
  -1   5  -1 231.245 10.7301   4
  -1   5  -1 214.678 10.7031   1
   1   5   1 191.187 10.7172   4
  -1   5  -1 219.129 10.5622   5
  -2  -5  -1 9.58508 2.46500   5
  -2  -5  -1 11.4159 3.11944   4
  -2  -5  -1 11.8194 2.52775   1
  -2  -5  -1 10.8970 2.01412   3
   2  -5   1 12.0176 3.43554   2
   2   5   1 15.6596 3.76956   2
  -2   5  -1 13.6755 1.57159   4
   2   5   1 8.57185 1.42890   1
  -2   5  -1 13.4984 1.60198   5
  -2   5  -1 12.5642 1.31796   1
  -3  -5  -1 703.570 34.8582   3
  -3  -5  -1 695.829 36.4175   1
  -3  -5  -1 727.137 37.2266   5
   3  -5   1 705.194 36.2322   2
  -3   5  -1 740.249 33.9465   4
  -3   5  -1 713.647 33.9852   5
  -3   5  -1 687.573 33.6127   1
   3   5   1 770.238 39.2461   2
   4  -5   1 1.86103 3.28611   2
  -4  -5  -1 0.23410 2.65963   4
  -4  -5  -1 -0.9743 1.83690   5
   4   5   1 1.63653 2.09895   2
  -4   5  -1 -0.6551 0.79706   4
  -4  -6   1 50.4506 5.63817   1
  -4  -6   1 40.9237 6.28149   4
  -4  -6   1 47.0556 6.94481   5
  -4   6   1 46.1222 3.59761   4
  -4   6   1 49.1990 3.72522   5
   4   6  -1 50.2654 7.36655   2
  -4   6   1 44.7473 3.27282   1
  -3  -6   1 66.8805 7.77733   4
   3  -6  -1 59.4538 8.52955   2
  -3  -6   1 60.5880 6.17475   1
  -3  -6   1 56.0835 6.81407   5
   3   6  -1 65.1772 7.99678   2
  -3   6   1 58.0611 4.31360   5
  -3   6   1 56.2503 4.24416   4
  -3   6   1 59.7710 3.91442   1
  -2  -6   1 316.434 18.6487   1
  -2  -6   1 323.786 17.0112   3
  -2  -6   1 328.895 19.9459   4
  -2  -6   1 313.148 19.3043   5
  -2   6   1 333.418 16.0756   1
  -2   6   1 342.983 16.0489   5
  -2   6   1 338.929 16.1748   4
   2   6  -1 294.145 20.1145   2
   2   6  -1 320.986 16.3794   1
  -1  -6   1 915.448 43.6469   1
  -1  -6   1 905.252 42.2259   3
   1  -6  -1 884.629 42.8778   1
  -1  -6   1 858.662 43.9875   5
  -1  -6   1 886.349 44.5509   4
   1   6  -1 840.730 41.1652   4
  -1   6   1 884.868 41.0533   1
  -1   6   1 882.846 40.9872   4
  -1   6   1 841.645 40.7917   5
   1   6  -1 864.043 41.2874   1
   0  -6  -1 185.396 12.0326   5
   0  -6  -1 187.965 12.6750   4
   0  -6  -1 196.447 11.1166   3
   0  -6   1 191.998 12.5139   4
   0  -6   1 204.664 11.9834   1
   0  -6  -1 193.986 11.8204   1
   0   6  -1 195.682 10.1149   1
   0   6   1 188.606 10.2368   4
   0   6   1 208.355 9.93096   5
   0   6  -1 202.428 10.0361   4
   0   6   1 191.116 10.0694   1
   0   6  -1 200.650 9.96629   5
  -1  -6  -1 495.424 26.8514   5
  -1  -6  -1 507.703 26.6003   1
  -1  -6  -1 526.447 27.9481   4
  -1  -6  -1 533.285 25.7628   3
   1  -6   1 523.992 25.7835   1
   1   6   1 443.796 24.3156   4
  -1   6  -1 521.026 24.4241   1
   1   6   1 518.839 24.6444   1
  -1   6  -1 509.967 24.1688   5
  -1   6  -1 524.867 24.2890   4
  -2  -6  -1 153.017 11.6122   4
  -2  -6  -1 155.466 10.3688   1
  -2  -6  -1 157.519 9.20878   3
  -2  -6  -1 151.901 10.6958   5
   2   6   1 116.574 10.8542   2
  -2   6  -1 158.172 7.88747   4
  -2   6  -1 153.355 7.74299   5
   2   6   1 126.437 7.87663   1
  -2   6  -1 152.509 7.86325   1
  -3  -6  -1 2.53609 2.24396   5
  -3  -6  -1 4.03712 1.68688   3
  -3  -6  -1 3.47548 3.01995   4
  -3  -6  -1 4.69124 2.19558   1
  -3   6  -1 3.07260 0.99493   5
  -3   6  -1 3.25042 1.02320   4
   3   6   1 3.24958 2.67420   2
  -3   6  -1 4.00908 1.02805   1
  -4  -6  -1 141.459 11.5096   4
  -4  -6  -1 119.259 10.6811   5
  -4   6  -1 137.868 7.29666   5
  -4   6  -1 136.844 7.31308   4
   4   6   1 129.603 11.6617   2
  -4  -7   1 15.2884 3.81900   4
  -4  -7   1 13.0600 3.37176   1
  -4  -7   1 16.8400 4.40852   5
  -4   7   1 15.6848 1.94935   5
   4   7  -1 5.58918 3.43900   2
  -4   7   1 11.6749 1.85135   4
  -3  -7   1 2.49039 3.02714   4
  -3  -7   1 0.51695 1.93299   1
  -3   7   1 0.46173 0.94971   5
  -3   7   1 0.81662 0.85948   4
   3   7  -1 2.74685 4.14289   2
  -3   7   1 -0.4419 0.66338   1
  -2  -7   1 84.1954 7.70615   1
  -2  -7   1 80.0314 8.09199   5
  -2  -7   1 77.1418 6.12543   3
  -2  -7   1 81.4857 8.96053   4
   2   7  -1 73.8392 8.65580   2
  -2   7   1 89.3620 5.30778   1
  -2   7   1 95.0773 5.37632   4
  -2   7   1 93.3125 5.21151   5
   2   7  -1 81.6809 5.47940   1
  -1  -7   1 1.19719 1.47959   1
   1  -7  -1 -1.4957 0.96097   1
  -1  -7   1 4.26081 2.14036   5
  -1  -7   1 3.85346 2.22940   4
  -1  -7   1 0.34639 1.39943   3
   1  -7  -1 -0.2112 1.25722   3
  -1   7   1 1.10504 0.67088   1
  -1   7   1 0.19622 0.58170   4
   1   7  -1 1.99073 0.73677   4
  -1   7   1 -0.0231 0.47215   5
   1   7  -1 0.10620 0.56759   1
   1   7  -1 0.17790 0.68288   5
   0  -7   1 11.7326 3.09763   4
   0  -7  -1 12.6331 2.86137   5
   0  -7  -1 13.7408 3.10939   3
   0  -7   1 10.6449 2.53980   1
   0  -7  -1 10.3864 2.81598   1
   0  -7   1 8.25359 5.55155   5
   0   7   1 11.4812 1.47411   4
   0   7   1 11.6061 1.42526   5
   0   7  -1 12.8037 1.55973   5
   0   7  -1 11.7596 1.56663   4
   0   7  -1 11.2683 1.58713   1
   0   7   1 11.9260 1.60020   1
  -1  -7  -1 71.1801 5.80294   3
  -1  -7  -1 74.0660 6.94674   1
  -1  -7  -1 78.7873 7.96900   4
  -1  -7  -1 73.0383 7.16590   5
   1  -7   1 78.5033 5.99484   1
  -1   7  -1 81.7396 4.73324   5
  -1   7  -1 82.7087 4.82258   4
  -1   7  -1 80.0925 4.92222   1
  -2  -7  -1 574.804 28.9382   3
  -2  -7  -1 566.959 31.2088   5
  -2  -7  -1 552.105 32.1265   4
  -2  -7  -1 619.938 31.0076   1
  -2   7  -1 581.908 27.5239   1
  -2   7  -1 597.315 27.4088   4
   2   7   1 491.650 31.9057   2
  -2   7  -1 573.764 27.2360   5
  -3  -7  -1 102.084 10.2675   5
  -3  -7  -1 127.890 12.4789   1
  -3  -7  -1 123.231 7.74444   3
  -3  -7  -1 111.383 10.7161   4
  -3   7  -1 119.307 6.74079   1
   3   7   1 102.063 11.9870   2
  -3   7  -1 123.515 6.76664   4
  -4  -7  -1 201.911 13.4453   1
  -4  -7  -1 206.218 14.8474   4
   4   7   1 205.517 15.6181   2
  -4   7  -1 215.346 10.8154   5
  -4   7  -1 210.234 10.7640   4
  -4  -8   1 25.5617 4.28555   1
  -4   8   1 23.1025 2.19817   1
   4   8  -1 17.0853 4.49458   2
  -4   8   1 23.3993 2.89885   4
  -4   8   1 25.0578 2.36803   5
  -3  -8   1 2.96167 3.22008   5
  -3  -8   1 4.72741 3.77865   4
  -3  -8   1 0.49323 1.64585   1
  -3  -8   1 1.05079 1.86837   3
  -3   8   1 1.40145 0.83947   5
   3   8  -1 1.30092 2.51008   2
  -3   8   1 3.77083 1.11272   1
  -3   8   1 2.67322 1.42367   4
  -2  -8   1 2.96031 3.37956   4
  -2  -8   1 12.6999 3.28967   1
  -2   8   1 7.64064 1.49784   1
   2   8  -1 4.35210 3.23892   2
  -2   8   1 6.32638 1.37442   4
   2   8  -1 5.69181 1.34443   1
  -2   8   1 4.06862 1.11594   5
   1  -8  -1 9.64964 2.29273   1
  -1  -8   1 8.86073 2.82519   1
  -1  -8   1 3.87776 3.02342   4
   1   8  -1 7.62395 1.57060   1
  -1   8   1 6.92511 1.37044   5
  -1   8   1 8.00616 1.49711   4
  -1   8   1 9.88936 1.61143   1
   0  -8  -1 1035.53 45.7142   3
   0  -8   1 972.584 46.7730   1
   0  -8  -1 953.933 46.8031   1
   0   8   1 968.034 43.9323   1
   0   8  -1 915.050 43.9278   1
   0   8  -1 885.235 43.6537   4
   0   8   1 843.670 43.3452   5
   0   8  -1 890.817 43.5276   5
   0   8   1 860.082 43.4847   4
  -1  -8  -1 113.768 9.23380   1
  -1  -8  -1 99.7491 9.05331   5
  -1  -8  -1 115.746 7.94960   3
  -1   8  -1 112.950 6.72930   4
  -1   8  -1 113.019 6.47610   5
  -1   8  -1 112.406 6.71623   1
   1   8   1 111.966 6.77508   1
  -2  -8  -1 303.656 20.9228   4
  -2  -8  -1 337.921 18.0538   3
  -2  -8  -1 337.124 20.0953   1
  -2  -8  -1 298.528 20.2258   5
   2   8   1 353.005 22.1650   2
  -2   8  -1 333.078 16.6651   1
  -2   8  -1 325.777 16.4888   4
  -2   8  -1 331.270 16.4274   5
  -3  -8  -1 1.30755 3.71251   4
  -3  -8  -1 7.96750 3.08765   1
  -3  -8  -1 4.09322 2.49448   5
  -3   8  -1 9.75890 1.56271   1
   3   8   1 8.92242 3.70453   2
  -3   8  -1 11.7116 1.73565   5
  -3   8  -1 8.91668 1.63294   4
  -4  -8  -1 62.3447 7.43855   5
  -4  -8  -1 66.3689 6.70560   1
  -4   8  -1 71.0369 4.42410   5
   4   8   1 71.6189 7.85366   2
  -3  -9   1 15.9890 4.74181   5
  -3  -9   1 18.2063 4.60053   4
   3   9  -1 16.6293 4.73162   2
  -3   9   1 18.4063 2.27568   5
  -3   9   1 13.8378 2.06551   4
  -3   9   1 20.5623 2.30855   1
  -2  -9   1 1.26869 4.01932   4
  -2  -9   1 3.08237 2.43826   3
  -2  -9   1 -2.8006 2.61480   5
   2  -9  -1 -1.2074 1.80935   3
  -2  -9   1 4.75660 2.22133   1
  -2   9   1 4.33631 1.15167   4
   2   9  -1 4.82950 1.46445   1
  -2   9   1 3.51941 1.11172   5
  -2   9   1 2.24890 1.07886   1
   2   9  -1 5.47223 3.01734   2
  -1  -9   1 24.6284 5.61128   4
  -1  -9   1 27.5464 4.65009   1
  -1  -9   1 30.5470 5.75595   5
  -1   9   1 23.2137 2.56970   1
  -1   9   1 22.8757 2.36419   4
  -1   9   1 23.8172 2.37649   5
   1   9  -1 26.2140 2.73421   1
   0  -9   1 104.499 8.30957   1
   0  -9  -1 87.6712 8.00677   1
   0   9  -1 91.9233 6.01564   1
   0   9   1 95.6409 6.02780   1
   0   9  -1 88.7034 5.71474   4
   0   9   1 91.0327 5.52992   5
   0   9  -1 88.4919 5.64820   5
  -1  -9  -1 189.727 14.0594   5
  -1  -9  -1 187.091 15.0160   4
  -1  -9  -1 201.979 14.1732   1
  -1   9  -1 207.551 11.3032   1
  -1   9  -1 230.916 11.1361   5
  -1   9  -1 200.301 11.0246   4
   1   9   1 205.559 11.2854   1
  -2  -9  -1 155.144 13.0670   5
  -2  -9  -1 184.671 13.2382   1
  -2  -9  -1 167.789 14.2692   4
  -2   9  -1 179.062 9.78576   5
  -2   9  -1 184.177 10.0573   1
   2   9   1 198.412 14.8192   2
  -2   9  -1 184.323 9.92390   4
  -3  -9  -1 117.196 9.56078   1
  -3  -9  -1 104.134 10.4619   4
  -3   9  -1 116.840 6.82278   4
  -3   9  -1 115.862 6.82848   1
  -3   9  -1 119.038 6.82941   5
   3   9   1 116.307 10.9159   2
  -3 -10   1 15.7247 3.75645   1
  -3 -10   1 11.2973 4.28884   5
   3  10  -1 21.5799 4.83472   2
  -3  10   1 21.6981 2.19087   1
  -3  10   1 18.3525 2.17340   5
  -2 -10   1 45.9818 5.55569   1
  -2 -10   1 22.4730 6.67757   4
  -2 -10   1 20.1271 4.84795   5
  -2  10   1 31.9634 2.92461   5
  -2  10   1 34.8772 3.11573   1
  -2  10   1 28.7979 2.74464   4
   2  10  -1 38.1647 5.83980   2
  -1 -10   1 135.501 10.2936   1
  -1  10   1 117.965 7.14468   5
  -1  10   1 115.445 7.36627   4
   1  10  -1 122.686 7.58045   1
  -1  10   1 132.178 7.70918   1
   0 -10  -1 -0.0818 1.73093   1
   0 -10  -1 -0.5105 1.86730   3
   0 -10   1 -0.7730 1.75232   1
   0 -10   1 2.67252 2.03280   3
   0  10  -1 2.69375 1.00979   1
   0  10  -1 0.68474 1.08813   4
   0  10  -1 1.41971 0.90875   5
   0  10   1 1.57661 0.75869   1
  -2 -10  -1 10.8365 4.68138   4
  -2 -10  -1 2.17977 2.16409   1
  -2 -10  -1 0.09079 1.82345   3
   2 -10   1 -3.0814 2.13241   3
   2  10   1 2.83557 2.64381   2
  -2  10  -1 2.00080 0.85925   4
  -2  10  -1 2.18793 0.91499   1
  -2  10  -1 1.61180 0.84306   5
  -3 -10  -1 -2.5728 2.95293   5
  -3 -10  -1 -0.1673 2.24393   3
  -3 -10  -1 1.18147 1.67138   1
   3  10   1 0.54081 2.33983   2
  -3  10  -1 -0.7390 0.70563   1
  -3  10  -1 0.09644 0.72948   5
  -2 -11   1 -0.8714 2.06990   3
  -2  11   1 1.31308 0.84024   5
   2  11  -1 2.46100 2.23946   2
  -2  11   1 0.55309 0.72330   1
  -1  11   1 13.2633 2.61858   5
   1  11  -1 15.8953 2.15775   1
  -1  11   1 16.9494 2.22285   1
   1  11  -1 18.4823 4.14387   2
   0 -11   1 242.576 16.1941   1
   0 -11  -1 272.285 16.2951   1
   0  11   1 264.730 14.0219   1
   0  11  -1 268.906 14.1573   1
  -1 -11  -1 -0.9849 2.13701   3
   1 -11   1 -0.3036 1.96618   3
  -1 -11  -1 -0.8608 1.62340   1
  -1  11  -1 -0.6829 1.40010   4
   1  11   1 0.78693 1.71462   2
  -1  11  -1 0.98513 0.80237   1
   1  11   1 1.29003 1.07007   1
  -1  11  -1 0.42952 0.71765   5
  -2 -11  -1 42.0556 5.23032   1
  -2  11  -1 40.4313 3.35340   5
  -2  11  -1 45.1708 3.50231   1
   2  11   1 47.3432 6.04013   2
   5   0  -2 -2.4051 1.66345   2
  -5   0   2 3.70356 2.42833   4
   4   0  -2 289.890 17.7048   2
  -4   0   2 307.811 16.4685   4
  -4   0   2 246.369 14.3851   1
  -3   0   2 -1.2392 0.94482   1
   3   0  -2 1.23599 1.41411   2
  -3   0   2 0.81483 1.51478   4
  -2   0   2 330.308 16.1211   4
   2   0  -2 314.338 16.4406   2
  -2   0   2 298.473 15.5689   1
  -1   0   2 1.52365 0.92486   5
  -1   0   2 1.53210 0.74265   1
   1   0  -2 0.31738 0.66911   2
  -1   0   2 1.05887 1.06916   4
   0   0  -2 410.748 18.9292   4
   1   0   2 0.60414 0.65880   2
   2   0   2 572.016 28.1966   2
   3   0   2 2.37088 1.48135   2
   4   0   2 75.2012 7.29401   2
   5   0   2 1.34716 1.70152   2
  -5  -1   2 20.2982 4.02794   5
   5  -1  -2 20.0785 4.30601   2
  -5  -1   2 26.5372 4.14835   4
   5   1  -2 23.0782 5.06120   2
  -5   1   2 27.4320 3.68660   4
  -4  -1   2 29.5364 4.86116   4
   4  -1  -2 35.5088 4.90876   2
  -4  -1   2 32.9450 4.97789   5
  -4  -1   2 26.4235 3.51572   1
  -4   1   2 40.2336 4.66236   4
  -4   1   2 31.8897 2.71635   1
   4   1  -2 33.3320 5.15490   2
  -3  -1   2 5.00204 1.79974   5
  -3  -1   2 5.96295 2.12439   4
  -3  -1   2 8.80526 1.89707   1
   3  -1  -2 2.47745 1.64352   2
  -3   1   2 5.45460 1.89253   4
   3   1  -2 5.18951 2.12841   2
  -3   1   2 4.09613 1.22917   1
  -2  -1   2 3.23170 1.55346   4
  -2  -1   2 2.06985 1.18457   1
   2  -1  -2 4.25660 1.59689   2
   2   1  -2 1.03775 1.20307   2
  -2   1   2 6.09419 1.55117   4
  -2   1   2 3.59119 1.03561   1
   1  -1  -2 124.200 7.30657   2
  -1  -1   2 135.749 7.29809   4
  -1  -1   2 121.715 6.74685   1
   1  -1  -2 131.839 6.43303   4
  -1   1   2 125.100 6.66525   4
  -1   1   2 109.374 6.56960   1
   1   1  -2 130.426 6.13451   4
   1   1  -2 129.629 6.16080   1
  -1   1   2 119.790 6.66640   5
   0  -1   2 706.814 35.2551   4
   0  -1  -2 823.593 35.0850   4
   0   1  -2 767.935 34.8962   4
   0   1   2 742.816 35.0354   4
   1  -1   2 3703.98 172.578   2
   1   1   2 3829.05 172.893   2
   2  -1   2 715.095 34.1329   2
  -2  -1  -2 682.802 32.8096   1
   2   1   2 712.734 34.5329   2
  -3  -1  -2 284.451 14.5087   3
  -3  -1  -2 267.303 14.3682   4
   3  -1   2 284.613 15.9997   2
   3   1   2 284.549 16.3526   2
   4  -1   2 144.212 11.0424   2
  -4  -1  -2 161.954 9.98596   4
   4   1   2 168.015 11.9826   2
   5  -1   2 10.3269 3.08056   2
   5   1   2 11.2848 3.02616   2
   5  -2  -2 5.46906 2.63941   2
  -5  -2   2 5.97266 3.19269   5
  -5  -2   2 6.82886 2.52911   4
   5   2  -2 2.51089 2.61344   2
  -5   2   2 1.19897 1.98911   4
  -5   2   2 1.39454 2.46091   5
  -4  -2   2 5.31573 2.60793   5
  -4  -2   2 13.8700 2.72583   1
  -4  -2   2 14.5689 3.40505   4
   4  -2  -2 11.6031 3.36433   2
   4   2  -2 10.7725 3.25280   2
  -4   2   2 10.3922 1.56814   1
  -4   2   2 15.5063 3.73504   5
  -3  -2   2 306.662 16.9553   4
  -3  -2   2 291.903 16.0059   1
   3  -2  -2 279.131 16.6816   2
  -3   2   2 308.623 15.7769   4
  -3   2   2 286.263 14.6042   1
   3   2  -2 306.693 17.8249   2
  -2  -2   2 311.682 16.3815   4
  -2  -2   2 309.669 15.7335   1
   2  -2  -2 312.388 16.0636   2
  -2  -2   2 284.573 15.9345   5
  -2   2   2 299.502 14.6816   1
  -2   2   2 309.713 15.3209   4
   2   2  -2 329.562 16.7071   2
   2   2  -2 279.116 14.4124   1
   1  -2  -2 339.308 16.2190   2
   1  -2  -2 343.265 17.2276   4
   1  -2  -2 353.688 16.0472   1
  -1  -2   2 329.803 16.4564   1
  -1  -2   2 322.668 16.7085   5
  -1  -2   2 356.896 15.8307   3
  -1  -2   2 339.086 16.9693   4
   1   2  -2 322.379 15.5848   4
  -1   2   2 302.067 15.9117   4
  -1   2   2 312.118 15.5820   1
   1   2  -2 338.510 16.7581   2
  -1   2   2 323.745 16.0918   5
   1   2  -2 321.480 15.6309   1
   0  -2   2 408.868 21.8342   1
   0  -2   2 431.597 22.0880   4
   0  -2  -2 488.466 21.9361   4
   0  -2  -2 466.581 21.6959   5
   0   2   2 497.617 21.4610   4
   0   2  -2 528.628 21.5575   4
   0   2  -2 426.665 21.3630   1
   0   2   2 431.898 21.3320   1
   1  -2   2 58.1666 3.55891   2
  -1  -2  -2 62.4901 3.53729   1
  -1  -2  -2 58.6028 3.12379   5
  -1  -2  -2 63.6643 3.50656   4
  -1   2  -2 53.3118 2.85179   1
  -1   2  -2 49.8729 3.38200   4
  -1   2  -2 49.4831 2.89862   4
   1   2   2 60.3987 4.08386   2
   2  -2   2 127.693 7.44261   2
  -2  -2  -2 111.162 6.67476   4
  -2  -2  -2 124.010 6.76184   1
   2   2   2 118.197 7.90017   2
   3  -2   2 9.03971 2.44702   2
  -3  -2  -2 9.83761 2.31033   3
  -3  -2  -2 12.1109 2.15722   1
  -3  -2  -2 5.39674 1.89893   4
   3   2   2 10.5015 2.77254   2
   4  -2   2 35.6515 4.74324   2
  -4  -2  -2 28.6174 4.72483   4
   4   2   2 33.3905 5.00571   2
  -5  -2  -2 117.969 7.41639   4
   5  -2   2 91.3802 8.18460   2
   5   2   2 109.922 9.16395   2
  -5  -3   2 1.45870 2.51522   4
   5  -3  -2 0.72942 2.05696   2
  -5  -3   2 2.87238 2.65972   5
  -5   3   2 1.12421 1.65343   4
   5   3  -2 3.79028 2.74466   2
  -5   3   2 1.97690 2.20768   5
   4  -3  -2 -0.7736 1.75270   2
  -4  -3   2 0.50110 2.14759   5
  -4  -3   2 2.65502 2.38339   4
   4   3  -2 0.47581 1.61294   2
  -4   3   2 -1.4592 2.73178   5
  -4   3   2 0.86472 0.69280   1
  -4   3   2 -0.2847 1.71455   4
  -3  -3   2 31.8302 4.26485   5
   3  -3  -2 32.2044 4.06646   2
  -3  -3   2 33.2623 4.87948   4
   3   3  -2 35.5592 4.88744   2
  -3   3   2 25.0814 2.27845   1
  -3   3   2 29.4502 3.63033   4
   2  -3  -2 0.95780 1.14997   2
  -2  -3   2 0.94120 1.19420   5
  -2  -3   2 2.55618 0.97338   3
  -2  -3   2 1.57685 1.67862   4
  -2  -3   2 0.91498 1.04271   1
   2   3  -2 1.52558 1.32889   2
  -2   3   2 0.60155 1.04833   4
   2   3  -2 0.27215 0.44210   1
  -2   3   2 0.12708 0.49625   1
   1  -3  -2 12.7551 1.74172   1
   1  -3  -2 10.6192 1.28967   3
  -1  -3   2 7.28313 1.77550   5
  -1  -3   2 10.4993 2.39156   4
  -1  -3   2 8.44111 1.71236   1
   1  -3  -2 12.1426 2.09560   2
  -1  -3   2 9.75093 1.32069   3
   1  -3  -2 13.3745 2.07128   4
  -1   3   2 9.68964 1.69990   4
   1   3  -2 9.33224 1.08033   1
   1   3  -2 9.44526 1.10012   4
   1   3  -2 7.66426 1.44318   5
  -1   3   2 10.7431 1.05572   1
  -1   3   2 10.4814 1.86462   5
   0  -3  -2 2861.37 130.236   3
   0  -3  -2 2970.64 130.460   4
   0  -3  -2 2974.17 129.991   5
   0  -3   2 2467.57 129.709   3
   0  -3   2 2716.75 130.393   4
   0  -3  -2 2954.15 129.994   1
   0  -3   2 2692.68 130.058   1
   0   3   2 3109.94 129.203   5
   0   3  -2 2878.90 129.223   4
   0   3  -2 2910.84 129.205   5
   0   3   2 2625.07 129.193   1
   0   3  -2 2730.32 129.247   1
  -1  -3  -2 619.724 28.8057   5
  -1  -3  -2 624.723 29.5264   3
   1  -3   2 678.083 29.0413   2
  -1  -3  -2 606.120 29.3362   4
  -1  -3  -2 630.705 29.1231   1
  -1   3  -2 561.318 28.1007   4
  -1   3  -2 565.854 28.1296   1
   1   3   2 579.070 28.2906   1
   2  -3   2 1815.33 80.3900   2
  -2  -3  -2 1818.87 80.7020   4
  -2  -3  -2 1785.64 80.2247   1
  -2  -3  -2 1785.31 80.5219   3
  -2  -3  -2 1735.71 79.7448   5
  -2   3  -2 1460.11 78.8813   4
  -2   3  -2 1652.09 78.7535   1
  -2   3  -2 1662.90 80.4728   4
   2   3   2 1757.86 81.7064   2
   3  -3   2 243.457 14.2550   2
  -3  -3  -2 242.269 14.5926   4
  -3  -3  -2 268.727 13.5668   3
  -3  -3  -2 257.231 13.8428   1
  -3   3  -2 228.557 12.3208   4
   3   3   2 269.141 16.1433   2
   4  -3   2 8.03665 2.89016   2
  -4  -3  -2 14.9728 3.47827   4
   4   3   2 8.63900 3.43887   2
  -4   3  -2 6.24436 1.17000   4
   5  -3   2 -2.5086 1.89362   2
   5   3   2 -2.4331 2.05009   2
  -5  -4   2 5.69197 2.79229   4
   5  -4  -2 -1.2729 2.58625   2
  -5  -4   2 2.95517 2.87648   5
  -5   4   2 5.93380 1.62845   5
  -5   4   2 4.10850 1.29455   4
   5   4  -2 4.35584 2.79333   2
  -4  -4   2 14.6330 3.21570   1
   4  -4  -2 10.5538 4.56040   2
  -4  -4   2 29.9535 5.23919   4
   4   4  -2 21.1619 7.89006   2
  -4   4   2 22.6921 3.23083   4
  -4   4   2 19.8246 1.92867   1
   3  -4  -2 15.5646 3.31133   2
  -3  -4   2 14.4512 2.99800   1
  -3  -4   2 16.1520 3.78042   4
  -3  -4   2 14.8318 3.42297   5
  -3   4   2 20.4894 3.15400   4
   3   4  -2 15.2411 3.91585   2
  -3   4   2 12.6118 2.76933   5
  -3   4   2 16.4809 1.68156   1
  -2  -4   2 686.815 35.3710   5
  -2  -4   2 686.381 33.3326   3
  -2  -4   2 716.822 35.8387   4
   2  -4  -2 750.042 34.3878   2
  -2  -4   2 705.011 34.7760   1
  -2   4   2 760.324 33.7419   5
   2   4  -2 700.462 33.1722   1
   2   4  -2 709.905 36.0512   2
  -2   4   2 674.513 32.7916   1
  -2   4   2 622.960 33.3313   4
  -1  -4   2 399.948 20.5860   1
   1  -4  -2 392.104 20.5423   4
  -1  -4   2 419.334 19.6659   3
  -1  -4   2 387.259 21.1981   4
   1  -4  -2 442.904 20.2075   1
   1  -4  -2 385.694 19.4886   3
  -1  -4   2 390.626 20.9526   5
   1   4  -2 391.330 19.1536   1
  -1   4   2 419.202 19.2269   5
   1   4  -2 395.714 19.1132   5
   1   4  -2 385.660 19.0979   4
  -1   4   2 397.035 19.2543   4
  -1   4   2 400.044 18.9618   1
   0  -4  -2 1688.47 80.9320   5
   0  -4   2 1640.44 81.3701   4
   0  -4  -2 1747.73 80.8785   1
   0  -4   2 1677.82 80.9888   1
   0  -4  -2 1711.78 81.5617   4
   0  -4  -2 1753.91 80.8518   3
   0   4  -2 1726.80 79.7543   5
   0   4   2 1859.06 79.7251   5
   0   4   2 1847.11 79.8190   4
   0   4  -2 1760.56 79.7995   4
   0   4   2 1672.36 79.7946   1
   1  -4   2 13.6900 2.33082   3
  -1  -4  -2 19.7443 2.51707   3
  -1  -4  -2 17.2506 3.01528   4
  -1  -4  -2 19.4682 2.57534   1
  -1  -4  -2 21.5267 2.45834   5
  -1   4  -2 20.5343 1.66320   1
   1   4   2 20.8056 1.64287   1
  -1   4  -2 17.8110 1.37980   5
  -1   4  -2 18.4388 1.47805   4
  -2  -4  -2 445.759 22.4262   4
  -2  -4  -2 419.837 21.4452   3
  -2  -4  -2 419.619 21.5331   1
   2  -4   2 441.597 21.3419   2
  -2  -4  -2 433.416 21.4172   5
   2   4   2 405.671 22.7240   2
  -2   4  -2 390.100 19.8105   4
  -2   4  -2 402.943 19.7413   1
  -3  -4  -2 81.5566 6.18011   1
  -3  -4  -2 68.6280 6.13626   5
  -3  -4  -2 74.0536 7.05057   4
   3  -4   2 78.8861 6.40859   2
   3   4   2 69.5448 7.29115   2
  -3   4  -2 74.8988 4.03558   1
  -3   4  -2 72.4654 4.38556   4
   4  -4   2 119.240 9.58253   2
  -4  -4  -2 137.865 10.3788   5
  -4  -4  -2 149.239 10.9868   4
   4   4   2 153.030 11.6203   2
  -4   4  -2 128.157 6.98672   4
  -5  -4  -2 5.97386 3.20108   5
   5  -4   2 -2.6761 2.96184   2
   5   4   2 1.74281 2.19350   2
   5  -5  -2 -1.3091 3.40470   2
  -5  -5   2 4.06658 2.82344   5
  -5  -5   2 3.62664 2.16510   1
   5   5  -2 6.02246 2.77679   2
   4  -5  -2 67.5051 7.75660   2
  -4  -5   2 83.9149 7.19108   1
  -4  -5   2 85.5232 8.54945   4
  -4  -5   2 70.2202 8.28924   5
   4   5  -2 87.8415 9.66754   2
  -4   5   2 72.6587 6.02012   5
  -4   5   2 85.8786 4.90742   1
  -4   5   2 80.4456 5.73908   4
   3  -5  -2 3.56042 2.83317   2
  -3  -5   2 3.23722 1.82525   1
  -3  -5   2 5.46952 2.85210   4
  -3  -5   2 1.36875 1.29996   3
   3   5  -2 4.32713 2.93354   2
  -3   5   2 3.42901 0.97114   1
  -3   5   2 4.46055 1.94476   5
  -3   5   2 0.44472 1.36467   4
  -2  -5   2 358.572 20.6547   4
   2  -5  -2 394.477 19.4145   2
  -2  -5   2 329.528 17.8827   3
  -2  -5   2 376.776 19.7022   1
  -2  -5   2 322.707 19.9538   5
  -2   5   2 330.292 17.1197   1
  -2   5   2 368.512 17.7574   5
   2   5  -2 366.607 21.0260   2
  -2   5   2 348.274 18.1606   4
   2   5  -2 357.485 17.5374   1
   1  -5  -2 634.543 29.2854   1
  -1  -5   2 528.003 29.8375   5
   1  -5  -2 597.386 28.3683   3
  -1  -5   2 566.652 29.5904   1
   1  -5  -2 577.489 29.6892   4
  -1  -5   2 603.894 28.5678   3
  -1  -5   2 581.466 30.4619   4
  -1   5   2 613.003 27.5895   5
   1   5  -2 585.359 27.8012   4
   1   5  -2 574.969 27.8568   1
  -1   5   2 615.909 27.7495   4
   1   5  -2 570.951 27.7829   5
  -1   5   2 564.795 27.5888   1
   0  -5   2 273.957 15.0181   1
   0  -5   2 249.383 14.9874   5
   0  -5  -2 279.859 14.6387   3
   0  -5  -2 282.347 15.8420   4
   0  -5  -2 287.025 15.0033   1
   0  -5  -2 282.574 15.1898   5
   0  -5   2 256.895 15.4582   4
   0   5   2 289.146 13.4657   4
   0   5  -2 279.168 13.4813   5
   0   5  -2 276.031 13.5166   4
   0   5   2 269.569 13.5119   1
   0   5  -2 275.213 13.6003   1
   0   5   2 292.448 13.4208   5
  -1  -5  -2 847.093 40.3871   5
  -1  -5  -2 838.225 40.0163   3
  -1  -5  -2 831.422 41.2167   4
  -1  -5  -2 807.483 40.2380   1
   1   5   2 791.878 38.7302   1
  -1   5  -2 817.536 38.5856   1
  -1   5  -2 845.878 38.4872   4
  -1   5  -2 831.958 38.3819   5
  -2  -5  -2 498.303 29.5378   5
  -2  -5  -2 562.771 27.8732   1
  -2  -5  -2 546.340 28.8684   4
  -2  -5  -2 547.656 27.2146   3
   2  -5   2 623.229 27.9361   2
  -2   5  -2 533.449 25.5182   4
  -2   5  -2 505.882 25.3957   5
  -2   5  -2 527.098 25.5256   1
   2   5   2 525.655 29.1293   2
  -3  -5  -2 319.367 18.0032   1
  -3  -5  -2 298.710 18.2329   5
  -3  -5  -2 320.303 19.4754   4
  -3  -5  -2 306.077 16.6766   3
   3  -5   2 322.947 18.1867   2
  -3   5  -2 303.827 15.3322   4
   3   5   2 342.218 20.2386   2
  -3   5  -2 315.406 15.3018   1
  -4  -5  -2 12.5571 3.00222   1
   4  -5   2 10.9403 4.47197   2
  -4  -5  -2 9.05094 3.05018   5
  -4  -5  -2 15.0165 5.33862   4
   4   5   2 10.2891 3.25467   2
  -4  -6   2 71.0311 8.28575   4
  -4  -6   2 58.2665 7.87278   5
  -4  -6   2 75.2516 7.26866   1
  -4   6   2 67.7823 5.14184   5
   4   6  -2 82.0951 9.42281   2
  -4   6   2 77.1781 4.68504   1
  -4   6   2 88.0699 5.29178   4
   3  -6  -2 1.99208 4.46907   2
  -3  -6   2 4.06269 2.39229   1
  -3  -6   2 7.86398 3.49497   4
  -3   6   2 5.70460 1.54713   4
   3   6  -2 2.85429 2.61045   2
  -3   6   2 5.86882 1.19237   1
  -3   6   2 5.33521 1.54986   5
  -2  -6   2 6.47576 2.40006   1
  -2  -6   2 2.11770 2.57184   4
   2  -6  -2 2.02594 1.42639   3
  -2  -6   2 6.04235 2.38778   5
  -2   6   2 4.93615 1.23782   5
  -2   6   2 5.37653 1.10712   1
  -2   6   2 5.28063 1.24856   4
   2   6  -2 7.98315 3.18267   2
  -1  -6   2 1418.46 67.4803   1
   1  -6  -2 1415.93 65.7576   3
  -1  -6   2 1436.60 68.4944   4
  -1  -6   2 1379.72 67.9540   5
   1  -6  -2 1453.97 66.8832   1
   1  -6  -2 1202.92 66.9633   4
   1   6  -2 1421.81 65.2010   1
  -1   6   2 1447.20 64.6740   5
  -1   6   2 1429.00 64.9214   1
   1   6  -2 1390.13 65.0475   4
  -1   6   2 1442.20 64.8471   4
   1   6  -2 1335.11 64.9846   5
   0  -6  -2 15.0494 2.35295   3
   0  -6  -2 12.2187 3.04820   4
   0  -6   2 8.90133 3.06858   5
   0  -6  -2 16.1690 3.08704   5
   0  -6  -2 10.9523 2.47500   1
   0  -6   2 16.8180 2.64774   1
   0  -6   2 13.3840 3.21965   4
   0   6  -2 13.8459 1.51508   5
   0   6  -2 14.1234 1.60874   1
   0   6   2 13.3718 1.43090   5
   0   6  -2 14.0700 1.60354   4
   0   6   2 14.3040 1.46027   4
   0   6   2 15.9130 1.63306   1
  -1  -6  -2 24.0872 3.06176   3
  -1  -6  -2 23.8533 4.49463   4
  -1  -6  -2 21.5362 3.58384   1
  -1  -6  -2 26.1976 3.85103   5
  -1   6  -2 28.3871 2.12573   5
  -1   6  -2 31.5878 2.31095   1
  -1   6  -2 28.5787 2.17514   4
   1   6   2 24.2876 2.24173   1
   1   6   2 20.0532 2.10808   4
  -2  -6  -2 23.3673 3.87625   5
  -2  -6  -2 21.0764 2.89015   3
  -2  -6  -2 14.9522 3.22816   1
  -2  -6  -2 14.9417 3.75905   4
  -2   6  -2 19.5725 1.83573   1
  -2   6  -2 22.0435 1.94946   4
   2   6   2 13.2593 3.43739   2
  -2   6  -2 18.6325 1.77527   5
  -3  -6  -2 423.409 22.3043   3
  -3  -6  -2 437.105 24.1069   1
  -3  -6  -2 417.784 25.4880   4
  -3  -6  -2 452.017 24.9325   5
   3   6   2 447.215 26.2254   2
  -3   6  -2 430.715 20.9335   4
  -3   6  -2 420.607 20.9344   1
  -3   6  -2 440.573 20.8491   5
  -4  -6  -2 14.0927 3.87657   5
  -4  -6  -2 9.40403 2.76358   1
  -4  -6  -2 12.8338 3.77880   4
   4   6   2 8.87331 3.39925   2
  -4   6  -2 5.30528 1.07952   5
  -4   6  -2 8.89283 1.40153   4
  -4  -7   2 11.9680 3.83008   5
  -4  -7   2 14.1233 3.37935   1
  -4  -7   2 9.72428 3.58405   4
  -4   7   2 11.1261 1.93941   5
   4   7  -2 7.79675 3.78899   2
  -4   7   2 13.1565 1.90124   4
  -4   7   2 8.96302 2.02579   1
  -3  -7   2 274.923 19.4094   4
  -3   7   2 286.766 15.0215   4
  -3   7   2 310.209 15.0147   1
  -2  -7   2 357.494 23.0888   4
  -2  -7   2 372.464 22.0551   1
   2   7  -2 363.053 23.6721   2
  -2   7   2 389.273 18.6875   5
   2   7  -2 377.902 19.2721   1
  -2   7   2 375.812 18.8066   1
  -2   7   2 415.605 18.9855   4
  -1  -7   2 142.849 11.2464   4
   1  -7  -2 148.028 9.74647   1
  -1  -7   2 146.092 10.3163   1
   1   7  -2 150.650 8.16784   1
   1   7  -2 135.385 7.84278   4
  -1   7   2 143.627 7.54059   5
  -1   7   2 131.381 7.71324   1
   1   7  -2 133.950 7.78914   5
  -1   7   2 143.363 7.68261   4
   0  -7   2 41.5433 4.60943   1
   0  -7  -2 51.3578 6.68373   1
   0  -7  -2 36.3367 5.19673   4
   0  -7  -2 34.5348 4.73051   5
   0  -7  -2 45.8030 4.15142   3
   0   7   2 42.2563 2.83938   5
   0   7   2 40.0385 3.04615   1
   0   7  -2 37.1788 3.07052   1
   0   7  -2 35.1300 2.91707   4
   0   7   2 38.5005 2.84680   4
   0   7  -2 34.2213 2.89084   5
  -1  -7  -2 404.392 24.0383   5
  -1  -7  -2 440.811 25.3810   4
  -1  -7  -2 431.144 23.9531   1
  -1  -7  -2 447.417 22.9238   3
  -1   7  -2 437.365 21.1750   5
  -1   7  -2 449.043 21.4584   1
  -1   7  -2 450.747 21.3223   4
  -2  -7  -2 42.0749 5.69337   5
  -2  -7  -2 40.4357 6.33057   4
  -2  -7  -2 49.8322 5.61656   1
  -2  -7  -2 43.2337 4.34951   3
  -2   7  -2 45.8556 3.26056   4
  -2   7  -2 43.5582 3.17139   5
   2   7   2 49.1078 6.35807   2
  -2   7  -2 42.8310 3.25750   1
  -3  -7  -2 1.69510 2.15511   1
  -3  -7  -2 4.71092 2.69883   3
  -3  -7  -2 6.05482 3.17911   4
  -3  -7  -2 2.85527 2.43881   5
  -3   7  -2 1.73754 1.23903   1
   3   7   2 5.49165 2.58133   2
  -3   7  -2 4.36793 1.07444   4
   4   7   2 151.891 12.2048   2
  -4   7  -2 140.486 8.32368   5
  -4   7  -2 152.148 8.40734   4
  -4  -8   2 5.95888 3.69354   5
  -4  -8   2 17.3063 3.49540   1
  -4   8   2 11.2968 1.79275   5
   4   8  -2 14.5061 4.37887   2
  -4   8   2 13.0576 2.45153   4
  -4   8   2 11.3908 1.71147   1
  -3  -8   2 24.9016 5.41070   5
  -3  -8   2 34.0397 6.04499   4
   3   8  -2 29.1759 6.66032   2
  -3   8   2 30.6237 2.82102   1
  -3   8   2 30.5474 2.77766   5
  -3   8   2 28.7946 2.78715   4
  -2  -8   2 1.38374 1.88223   1
  -2  -8   2 1.17367 3.04723   4
  -2  -8   2 0.97005 2.00850   3
   2  -8  -2 -0.5436 1.89596   3
  -2  -8   2 3.82853 2.98916   5
  -2   8   2 3.44299 1.05976   4
  -2   8   2 3.87677 1.04562   5
   2   8  -2 3.50125 1.11501   1
   2   8  -2 3.65226 2.72305   2
  -2   8   2 4.64499 1.29670   1
  -1  -8   2 101.450 9.55638   4
  -1  -8   2 105.538 8.60977   1
   1  -8  -2 88.1091 7.41128   1
  -1  -8   2 79.3243 8.68594   5
  -1   8   2 98.4162 5.99996   1
  -1   8   2 97.8395 5.65053   5
  -1   8   2 92.4410 5.70204   4
   1   8  -2 97.2370 6.14821   1
   0  -8  -2 129.043 9.68874   1
   0  -8   2 145.538 9.80119   1
   0  -8  -2 128.928 8.61201   3
   0  -8  -2 113.573 9.38186   5
   0   8  -2 131.829 7.55474   1
   0   8   2 121.021 6.95872   5
   0   8   2 129.760 7.42301   1
   0   8  -2 132.083 7.30026   5
   0   8  -2 126.721 7.34412   4
   0   8   2 112.958 6.99765   4
  -1  -8  -2 7.59122 2.76700   1
  -1  -8  -2 10.6169 3.08639   5
  -1  -8  -2 13.3057 3.89138   4
  -1  -8  -2 10.7341 2.51441   3
  -1   8  -2 11.8393 1.77251   1
   1   8   2 9.79440 1.68643   1
  -1   8  -2 14.3464 1.82474   4
  -1   8  -2 13.1692 1.77710   5
  -2  -8  -2 2.98711 2.26449   1
  -2  -8  -2 4.87277 2.46809   3
  -2  -8  -2 4.23237 2.65514   5
  -2   8  -2 3.64896 1.07076   4
  -2   8  -2 1.72776 0.83975   1
  -2   8  -2 3.88246 1.07057   5
   2   8   2 4.74668 2.54093   2
  -3  -8  -2 83.0414 8.77480   5
  -3  -8  -2 71.3761 9.18373   4
  -3  -8  -2 93.1989 8.46429   1
  -3  -8  -2 93.3827 6.53881   3
  -3   8  -2 96.2912 5.63444   5
  -3   8  -2 91.8496 5.59782   1
  -3   8  -2 95.1743 5.64872   4
   3   8   2 92.0407 9.52943   2
  -3  -9   2 112.573 11.5009   4
  -3  -9   2 141.742 11.1165   1
  -3   9   2 140.250 8.15526   5
   3   9  -2 158.586 13.1442   2
  -3   9   2 156.923 8.49422   1
  -3   9   2 149.627 8.29327   4
  -2  -9   2 156.856 11.6085   1
  -2  -9   2 130.108 11.4595   5
  -2  -9   2 134.853 12.2708   4
  -2   9   2 154.857 8.61371   1
  -2   9   2 143.781 8.15170   5
   2   9  -2 158.632 12.9257   2
   2   9  -2 142.731 8.50650   1
  -2   9   2 132.596 8.14316   4
   1  -9  -2 76.4334 7.21170   1
  -1  -9   2 93.0776 8.31235   1
   1   9  -2 86.2678 5.88963   1
  -1   9   2 84.3319 5.47100   4
  -1   9   2 91.0255 5.81988   1
  -1   9   2 90.2919 5.42518   5
   0  -9  -2 35.5220 4.91769   1
   0  -9   2 36.6043 4.67976   1
   0   9   2 34.2940 3.07731   1
   0   9   2 32.7870 2.70604   5
   0   9  -2 34.2401 3.19389   1
   0   9  -2 34.4367 2.94683   5
   0   9  -2 29.2790 2.92551   4
  -1  -9  -2 28.1905 5.37781   5
  -1  -9  -2 36.1284 6.73990   4
  -1  -9  -2 41.1129 5.69785   1
  -1  -9  -2 39.8597 4.45393   3
  -1   9  -2 40.8416 3.38354   4
  -1   9  -2 39.5908 3.31055   5
   1   9   2 38.6188 3.31772   1
  -1   9  -2 47.3162 3.65061   1
  -2  -9  -2 4.24910 3.30267   4
  -2  -9  -2 9.94727 3.10892   1
  -2  -9  -2 7.77314 2.50564   3
  -2   9  -2 8.65186 1.61333   4
  -2   9  -2 8.31264 1.58986   1
   2   9   2 6.52427 3.03158   2
  -2   9  -2 8.19761 1.59520   5
  -3  -9  -2 16.7206 4.45451   5
  -3  -9  -2 30.4532 4.75642   1
  -3  -9  -2 27.9508 5.47427   4
  -3   9  -2 28.2744 2.54178   4
   3   9   2 19.7401 4.84547   2
  -3   9  -2 28.8346 2.63305   5
  -3   9  -2 30.3933 3.68762   1
  -3 -10   2 1.79892 2.24857   1
  -3 -10   2 0.90070 2.14902   3
  -3 -10   2 -0.8927 3.53569   5
  -3  10   2 2.78512 0.94926   5
  -3  10   2 2.86319 1.05402   1
   3  10  -2 4.46713 3.16443   2
  -2 -10   2 -1.0109 4.63973   5
   2 -10  -2 -0.0992 2.45826   3
  -2 -10   2 0.47072 2.03159   3
   2  10  -2 9.20878 3.18219   2
   2  10  -2 3.81353 1.55387   1
  -2  10   2 5.06334 1.10323   4
  -2  10   2 5.46560 1.27238   1
  -2  10   2 4.17630 1.25427   5
  -1 -10   2 48.7629 5.95660   1
  -1  10   2 52.4084 3.80956   5
   1  10  -2 53.8939 6.91691   2
  -1  10   2 51.3223 5.23925   4
   1  10  -2 51.2066 4.22665   1
  -1  10   2 58.4561 4.31029   1
   0 -10  -2 12.4620 2.87845   1
   0  10  -2 15.4528 2.08356   5
   0  10  -2 18.9014 2.34381   1
   0  10  -2 17.4760 2.52626   4
   0  10   2 20.1162 2.33276   1
  -1 -10  -2 15.2373 3.72509   1
  -1  10  -2 27.5525 2.75015   1
  -1  10  -2 21.9436 2.87878   4
  -1  10  -2 23.5377 2.51891   5
   1  10   2 25.4817 2.52297   1
  -2 -10  -2 15.7670 5.08224   4
  -2 -10  -2 14.7403 3.84707   1
  -2 -11   2 16.5146 3.68201   1
   2  11  -2 15.8815 3.89255   2
  -2  11   2 15.7355 2.05982   1
  -2  11   2 16.0006 2.03168   5
  -1 -11   2 61.2861 6.86079   1
  -1  11   2 55.2493 4.07093   5
   1  11  -2 56.7207 6.85968   2
   1  11  -2 59.7922 4.45828   1
  -1  11   2 61.2702 4.51419   1
   0 -11  -2 11.9010 2.81808   1
   0  11   2 11.4030 1.83959   1
   0  11  -2 7.87336 1.62052   1
  -1 -11  -2 104.343 8.90856   1
   1  11   2 93.0889 6.36813   1
  -1  11  -2 115.811 8.23445   5
  -1  11  -2 107.974 6.70978   1
   1  11   2 105.921 9.38373   2
  -2 -11  -2 -0.7762 2.12033   3
  -2 -11  -2 4.60167 2.36802   1
  -2  11  -2 2.73225 0.94661   5
   2  11   2 5.99425 2.51875   2
  -2  11  -2 1.46754 0.84285   1
  -5   0   3 199.249 13.6311   5
   5   0  -3 214.134 14.3472   2
  -5   0   3 199.939 12.6658   4
   4   0  -3 0.25371 1.61609   2
  -4   0   3 -0.6272 1.95664   4
  -4   0   3 0.66754 2.21727   5
  -3   0   3 475.896 22.9958   4
  -3   0   3 425.170 22.6352   5
   3   0  -3 427.655 23.2732   2
  -3   0   3 409.963 21.6696   1
   2   0  -3 0.08569 0.91232   2
  -2   0   3 -0.9041 0.72822   1
  -2   0   3 0.73150 1.20241   5
  -2   0   3 1.78254 1.36714   4
  -1   0   3 1550.31 76.8683   1
   1   0  -3 1702.94 76.6058   1
   1   0  -3 1715.34 76.6105   4
   1   0  -3 1622.83 77.1211   2
  -1   0   3 1750.06 77.3006   4
   0   0  -3 -0.0142 0.21089   5
   0   0  -3 0.19362 0.31313   4
   0   0   3 1.01071 0.62171   4
   0   0  -3 0.22829 0.25877   1
   1   0   3 1200.81 55.6824   2
   2   0   3 0.89815 1.07631   2
   3   0   3 71.5585 6.16722   2
   4   0   3 2.04104 2.00475   2
   5   0   3 14.3115 3.92519   2
  -5  -1   3 8.70109 2.80614   4
  -5  -1   3 4.95358 3.12985   5
   5  -1  -3 5.58356 2.77058   2
  -5  -1   3 2.95835 1.65007   1
   5   1  -3 6.67699 2.72685   2
  -5   1   3 2.39415 3.29053   5
  -5   1   3 0.23187 2.04789   4
  -4  -1   3 209.800 13.1788   4
  -4  -1   3 165.786 11.2500   1
  -4  -1   3 200.221 13.1438   5
   4  -1  -3 198.182 13.4471   2
  -4   1   3 221.483 13.2717   5
   4   1  -3 203.831 14.0646   2
  -4   1   3 170.613 10.5307   1
  -4   1   3 225.282 12.7782   4
  -3  -1   3 1244.98 56.7999   4
   3  -1  -3 1179.47 57.1192   2
  -3  -1   3 1160.01 55.6754   1
  -3  -1   3 1055.80 56.1871   5
  -3   1   3 1181.56 56.1472   5
  -3   1   3 1306.32 56.3142   4
   3   1  -3 1101.32 57.1673   2
  -3   1   3 1127.90 54.9747   1
  -2  -1   3 1304.33 62.8987   5
  -2  -1   3 1415.78 63.2235   4
   2  -1  -3 1304.99 62.9641   2
  -2  -1   3 1347.41 62.5769   1
  -2   1   3 1426.03 62.6436   4
   2   1  -3 1255.05 63.1552   2
  -2   1   3 1302.25 62.5227   5
   2   1  -3 1312.71 61.7336   1
  -1  -1   3 1301.15 61.9398   5
  -1  -1   3 1313.13 61.6732   1
   1  -1  -3 1457.36 61.3206   4
  -1  -1   3 1389.53 62.0677   4
   1  -1  -3 1297.12 61.5623   2
  -1   1   3 1345.52 61.5287   4
  -1   1   3 1293.86 61.1941   1
   1   1  -3 1300.95 60.9737   4
  -1   1   3 1341.95 61.6098   5
   1   1  -3 1261.49 62.3453   2
   1   1  -3 1290.70 60.9935   1
   0  -1  -3 693.246 31.5765   1
   0  -1  -3 675.449 31.4788   5
   0  -1   3 657.092 31.7432   4
   0   1   3 713.454 31.6070   4
   0   1  -3 712.258 31.3985   5
   0   1   3 639.315 31.4007   1
   0   1  -3 678.954 31.4553   1
  -1  -1  -3 225.090 9.79245   4
  -1  -1  -3 206.391 9.95200   1
   1  -1   3 193.148 10.3295   2
   1   1   3 206.425 10.7019   2
   2  -1   3 3.46944 1.28407   2
  -2  -1  -3 2.78946 0.74978   1
   2   1   3 1.39839 1.10044   2
   3  -1   3 5.81013 2.05419   2
  -3  -1  -3 12.0620 2.07720   4
   3   1   3 8.61860 2.53751   2
  -4  -1  -3 84.1410 6.09626   4
   4  -1   3 76.1799 7.21505   2
   4   1   3 80.1506 7.58146   2
   5  -1   3 52.3309 8.63836   2
  -5  -2   3 3.68696 2.56862   4
  -5  -2   3 1.03952 2.57233   5
   5  -2  -3 0.30969 1.80471   2
  -5   2   3 2.46353 2.82746   5
  -5   2   3 -1.3081 2.03236   4
   5   2  -3 -0.0510 1.90349   2
  -4  -2   3 226.623 14.6323   5
  -4  -2   3 209.447 12.9701   1
  -4  -2   3 223.374 14.5230   4
  -4   2   3 252.145 13.7950   4
  -4   2   3 219.710 11.7348   1
   3  -2  -3 203.530 12.3996   2
  -3  -2   3 192.982 12.4196   5
  -3  -2   3 211.620 12.8079   4
  -3  -2   3 198.842 11.7124   1
  -3   2   3 165.085 12.6424   5
   3   2  -3 200.135 13.0241   2
  -3   2   3 205.616 10.5199   1
  -3   2   3 220.250 11.8039   4
  -2  -2   3 7.30878 2.73148   4
   2  -2  -3 8.83113 2.08386   2
  -2  -2   3 8.80564 1.90901   1
  -2   2   3 5.71483 2.91820   4
  -2   2   3 7.36030 1.32263   1
   2   2  -3 7.66751 2.09963   2
  -2   2   3 5.64448 2.01633   5
   2   2  -3 8.12934 0.98496   1
   1  -2  -3 182.135 9.23504   3
   1  -2  -3 177.155 9.43856   2
  -1  -2   3 187.455 10.4536   4
  -1  -2   3 182.347 10.2238   5
   1  -2  -3 198.679 9.67916   4
   1  -2  -3 191.156 9.35383   1
   1   2  -3 184.268 9.94552   2
  -1   2   3 174.661 9.40225   4
  -1   2   3 172.113 8.96402   1
   1   2  -3 179.322 8.96636   1
  -1   2   3 177.299 9.57227   5
   1   2  -3 184.727 8.95551   4
   1   2  -3 186.014 9.11010   5
   0  -2  -3 1412.77 64.0679   5
   0  -2  -3 1405.61 64.1624   1
   0  -2   3 1312.57 64.4385   4
   0  -2  -3 1422.81 64.2406   4
   0  -2   3 1426.05 64.2974   3
   0  -2   3 1285.42 64.3497   1
   0   2  -3 1355.42 63.8391   1
   0   2  -3 1383.43 63.7703   5
   0   2  -3 1450.97 63.8145   4
   0   2   3 1320.68 63.7887   1
   0   2   3 1516.66 63.9682   4
   1  -2   3 731.310 33.5463   2
  -1  -2  -3 791.858 33.4331   4
  -1  -2  -3 767.870 33.5414   1
  -1   2  -3 634.708 33.4521   4
   1   2   3 755.149 34.3407   2
  -1   2  -3 683.255 33.2578   1
  -1   2  -3 649.302 32.8564   4
   2  -2   3 44.4062 3.68830   2
  -2  -2  -3 44.2294 3.22640   1
  -2  -2  -3 47.0900 3.16118   4
   2   2   3 44.3212 4.21839   2
  -3  -2  -3 343.930 18.3997   4
   3  -2   3 353.698 19.2205   2
  -3  -2  -3 342.794 17.9656   1
  -3  -2  -3 369.212 18.6082   3
   3   2   3 368.933 20.3503   2
   4  -2   3 24.9081 3.95299   2
  -4  -2  -3 28.6815 4.34558   4
   4   2   3 23.8119 4.32636   2
   5  -2   3 19.6832 3.80395   2
   5   2   3 28.0337 4.63415   2
  -5  -3   3 101.565 8.11583   4
   5  -3  -3 87.7585 7.85075   2
  -5  -3   3 77.5937 6.33454   1
  -5  -3   3 102.930 8.77850   5
  -5   3   3 99.9551 6.51869   4
  -4  -3   3 238.027 14.9882   4
   4  -3  -3 214.065 14.1203   2
  -4  -3   3 213.056 13.3903   1
  -4  -3   3 218.040 14.8276   5
  -4   3   3 220.511 11.5631   1
  -4   3   3 239.071 13.4022   4
   4   3  -3 227.132 15.9786   2
  -3  -3   3 183.547 11.9479   5
  -3  -3   3 177.706 12.0460   4
  -3  -3   3 173.374 11.0051   1
   3  -3  -3 179.515 11.1572   2
  -3   3   3 168.181 11.3082   5
   3   3  -3 179.029 12.5813   2
  -3   3   3 171.964 9.27164   1
  -3   3   3 184.235 10.6302   4
   2  -3  -3 947.891 44.1890   2
  -2  -3   3 860.255 44.3273   1
  -2  -3   3 906.488 45.2683   4
   2  -3  -3 922.021 43.3281   1
  -2   3   3 969.576 43.9978   5
   2   3  -3 938.701 45.3832   2
   2   3  -3 903.280 42.9351   1
  -2   3   3 922.628 42.9292   1
  -2   3   3 919.045 43.6651   4
  -1  -3   3 661.581 32.4050   1
   1  -3  -3 680.346 32.4041   4
   1  -3  -3 710.346 31.9348   1
  -1  -3   3 674.498 33.0139   4
   1  -3  -3 622.403 31.7886   5
   1  -3  -3 641.304 31.5513   3
   1  -3  -3 711.744 31.9661   2
   1   3  -3 676.364 31.2280   5
  -1   3   3 641.887 31.1040   1
   1   3  -3 694.266 31.2896   1
  -1   3   3 633.878 31.5149   4
  -1   3   3 672.659 31.6099   5
   1   3  -3 669.356 31.2370   4
   0  -3  -3 245.284 12.7145   3
   0  -3  -3 246.827 12.2682   1
   0  -3   3 233.933 12.7099   4
   0  -3  -3 246.524 12.5862   4
   0  -3  -3 243.436 12.1765   5
   0  -3   3 255.437 12.3885   3
   0   3   3 228.557 11.5784   1
   0   3  -3 223.955 11.6201   1
   0   3   3 256.722 11.5603   5
   0   3  -3 242.564 11.5912   5
   0   3  -3 239.741 11.6179   4
  -1  -3  -3 604.169 28.6155   1
  -1  -3  -3 632.831 28.7889   4
   1  -3   3 653.043 28.6176   2
  -1   3  -3 572.019 27.7536   1
  -1   3  -3 548.193 27.6394   4
   1   3   3 579.498 27.8779   1
  -2  -3  -3 18.3579 2.28063   1
  -2  -3  -3 17.7912 2.57918   4
  -2  -3  -3 15.0966 2.43058   3
   2  -3   3 16.5868 2.44540   2
  -2   3  -3 12.9816 2.29696   4
   2   3   3 14.3281 2.74895   2
  -2   3  -3 15.7642 1.19417   1
  -2   3  -3 12.1430 1.24641   4
  -3  -3  -3 171.468 10.0433   3
   3  -3   3 167.307 10.3975   2
  -3  -3  -3 173.932 10.7142   4
  -3  -3  -3 169.288 9.95932   1
   3   3   3 184.346 12.0763   2
  -3   3  -3 141.603 8.14427   4
  -4  -3  -3 8.09325 3.10616   4
   4  -3   3 5.91525 3.91562   2
   5  -3   3 4.14967 3.01468   2
   5   3   3 9.98529 2.55409   2
  -5  -4   3 24.6871 4.44582   4
  -5  -4   3 15.5823 2.50398   1
  -5  -4   3 12.8076 3.48315   5
   5  -4  -3 9.96354 3.58756   2
   5   4  -3 19.0773 4.38577   2
  -5   4   3 17.2296 2.73703   4
  -5   4   3 9.51587 2.36751   5
  -4  -4   3 20.6316 5.90553   1
   4  -4  -3 18.3768 4.12987   2
  -4  -4   3 18.9695 4.38113   4
  -4  -4   3 10.3707 4.04241   5
  -4   4   3 18.9092 2.03877   1
  -4   4   3 19.9958 3.47476   4
   4   4  -3 17.5232 4.60612   2
  -3  -4   3 1.88642 1.52390   3
  -3  -4   3 6.52761 3.06970   4
  -3  -4   3 5.32457 2.09329   1
   3  -4  -3 7.30355 2.52449   2
  -3  -4   3 7.78567 2.87685   5
   3   4  -3 6.15386 3.06561   2
  -3   4   3 4.57512 1.13636   1
  -3   4   3 4.33331 1.90422   4
  -3   4   3 10.2606 2.67253   5
  -2  -4   3 25.2199 4.37399   4
   2  -4  -3 23.1520 2.63725   1
  -2  -4   3 23.8326 3.36085   1
   2  -4  -3 27.2437 3.66442   2
  -2   4   3 28.0292 3.28300   5
  -2   4   3 24.3887 2.04462   1
   2   4  -3 25.5242 3.87371   2
   2   4  -3 24.7388 2.17992   1
  -2   4   3 30.1320 3.08723   4
  -1  -4   3 0.68981 1.50851   4
   1  -4  -3 2.43449 1.12446   3
  -1  -4   3 1.75956 1.23461   1
   1  -4  -3 2.20521 1.31633   4
   1  -4  -3 0.63478 0.91208   1
  -1  -4   3 0.14509 0.81244   3
   1   4  -3 0.34023 0.48683   4
   1   4  -3 0.42482 0.49848   1
   1   4  -3 0.62292 0.48865   5
  -1   4   3 1.46604 0.61683   1
  -1   4   3 0.88681 0.82629   4
   0  -4   3 558.871 29.4528   4
   0  -4  -3 619.248 29.1464   5
   0  -4   3 542.348 29.1631   5
   0  -4   3 574.561 29.1497   1
   0  -4  -3 615.879 29.0990   1
   0  -4  -3 600.224 29.6961   4
   0  -4   3 638.799 29.0834   3
   0  -4  -3 585.544 29.2788   3
   0   4   3 576.273 28.0192   1
   0   4   3 639.718 27.9311   5
   0   4   3 660.392 28.0591   4
   0   4  -3 596.722 28.0464   4
   0   4  -3 566.828 28.0743   1
   0   4  -3 601.967 28.0160   5
  -1  -4  -3 43.9296 3.48529   5
  -1  -4  -3 48.4106 3.80591   1
  -1  -4  -3 42.9462 4.81711   4
  -1  -4  -3 47.4015 4.07652   3
   1   4   3 45.7878 2.87420   1
  -1   4  -3 42.9330 2.57309   5
  -1   4  -3 43.1668 2.72430   1
  -2  -4  -3 29.0991 3.81337   4
  -2  -4  -3 27.0949 2.89499   5
  -2  -4  -3 28.3047 3.27342   1
  -2  -4  -3 27.3138 3.35593   3
   2  -4   3 30.5659 3.85296   2
   2   4   3 29.8671 3.82976   2
  -2   4  -3 24.3017 1.83194   4
  -2   4  -3 25.1866 1.84981   1
  -3  -4  -3 4.71658 1.95895   3
  -3  -4  -3 1.18487 1.50755   5
   3  -4   3 3.46327 2.01398   2
  -3  -4  -3 3.75956 1.69913   1
  -3   4  -3 3.86088 0.73849   4
   3   4   3 3.61833 2.02261   2
   4  -4   3 198.550 13.3932   2
  -4  -4  -3 226.350 14.4997   4
  -4  -4  -3 215.048 12.9561   1
  -4  -4  -3 215.839 13.7805   5
  -4   4  -3 191.111 10.2557   4
   4   4   3 233.957 15.1530   2
   4  -5  -3 80.3296 8.01300   2
  -4  -5   3 76.6517 8.50566   4
  -4  -5   3 84.8782 8.79621   5
  -4  -5   3 81.5569 7.37118   1
   4   5  -3 97.9774 10.0146   2
  -4   5   3 84.0548 6.27739   4
  -4   5   3 72.1799 6.36771   5
  -4   5   3 91.8639 5.22220   1
   3  -5  -3 159.905 11.3628   2
  -3  -5   3 153.806 12.4778   4
  -3  -5   3 168.061 12.4047   5
  -3  -5   3 154.678 11.2439   1
  -3   5   3 171.073 9.95235   4
  -3   5   3 175.308 8.99261   1
  -3   5   3 172.109 10.2150   5
   3   5  -3 172.398 13.2099   2
  -2  -5   3 176.508 12.4325   4
   2  -5  -3 160.137 9.82535   1
  -2  -5   3 160.755 14.6913   1
   2  -5  -3 187.731 14.7932   2
  -2   5   3 177.412 9.18727   1
  -2   5   3 184.376 9.84102   4
   2   5  -3 183.593 9.51140   1
   2   5  -3 180.523 12.4782   2
  -1  -5   3 95.6164 7.01468   1
   1  -5  -3 100.918 6.64170   1
   1  -5  -3 88.6176 5.85657   3
  -1  -5   3 85.6714 7.60005   4
  -1   5   3 100.837 5.51090   4
   1   5  -3 96.8847 5.50643   4
  -1   5   3 104.796 5.37629   5
  -1   5   3 90.4844 5.25033   1
   1   5  -3 98.2644 5.50954   5
   1   5  -3 91.3585 5.48399   1
   0  -5  -3 592.507 28.8559   5
   0  -5  -3 600.320 28.7428   1
   0  -5  -3 594.965 29.6737   4
   0  -5   3 561.662 29.2842   4
   0  -5  -3 578.433 28.5270   3
   0  -5   3 592.941 28.8354   1
   0   5  -3 559.243 27.3276   1
   0   5   3 530.368 27.1422   1
   0   5  -3 567.383 27.3031   4
   0   5   3 613.215 27.1911   4
   0   5  -3 559.587 27.2056   5
  -1  -5  -3 59.9599 4.89381   5
  -1  -5  -3 67.4817 5.12997   1
   1  -5   3 57.4705 4.29910   1
  -1  -5  -3 62.0135 5.00085   3
  -1  -5  -3 64.3641 5.81541   4
   1   5   3 60.8813 3.78717   1
  -1   5  -3 59.7789 3.66557   1
  -1   5  -3 59.5578 3.58397   4
  -1   5  -3 58.4906 3.49124   5
  -2  -5  -3 400.317 21.9379   1
  -2  -5  -3 388.826 21.1512   4
  -2  -5  -3 389.692 20.0753   5
  -2   5  -3 350.036 17.9038   1
  -2   5  -3 365.859 17.8564   4
  -2   5  -3 357.312 17.9635   5
  -3  -5  -3 23.6524 3.14897   3
   3  -5   3 20.5865 4.95771   2
  -3  -5  -3 22.4803 4.07614   5
  -3  -5  -3 23.3451 4.78752   4
  -3  -5  -3 23.4974 3.77940   1
   3   5   3 30.8602 4.76675   2
  -3   5  -3 25.8235 2.07273   4
  -3   5  -3 25.9102 1.97879   1
   4  -5   3 13.9167 4.69272   2
  -4  -5  -3 9.41102 3.32130   5
  -4  -5  -3 16.8685 4.29677   4
  -4  -5  -3 10.9625 2.88085   1
  -4   5  -3 10.3882 1.39119   4
   4   5   3 10.9252 3.36559   2
  -4  -6   3 7.13309 3.49493   5
  -4  -6   3 11.3505 3.40140   4
  -4  -6   3 2.15052 2.56886   1
  -4   6   3 4.95905 1.39546   4
   4   6  -3 11.5562 4.07135   2
  -4   6   3 6.32790 1.38474   1
  -4   6   3 3.70332 1.58082   5
  -3  -6   3 24.7625 5.28317   5
  -3  -6   3 36.6975 5.13801   1
  -3  -6   3 25.4466 5.17489   4
  -3   6   3 31.6361 2.76376   1
  -3   6   3 31.9423 3.37731   4
   3   6  -3 30.0077 5.73636   2
  -3   6   3 30.3191 3.41030   5
  -2  -6   3 2.33046 1.68622   3
  -2  -6   3 3.85230 3.06952   4
  -2  -6   3 5.72369 2.87615   5
  -2  -6   3 6.06303 2.42476   1
  -2   6   3 5.46137 1.20091   1
  -2   6   3 6.43258 1.39851   5
   2   6  -3 10.0509 1.82590   1
   2   6  -3 8.20814 3.09609   2
  -2   6   3 11.0003 1.95669   4
  -1  -6   3 -0.3943 1.92599   4
  -1  -6   3 0.58714 1.29306   1
  -1  -6   3 1.51387 1.99158   5
   1  -6  -3 -1.2512 0.78399   3
   1  -6  -3 3.68028 2.36871   4
   1  -6  -3 0.73205 1.10670   1
  -1  -6   3 0.82715 1.24036   3
   1   6  -3 0.17342 0.58920   4
  -1   6   3 0.32217 0.53624   5
   1   6  -3 0.08303 0.72882   5
  -1   6   3 -0.2733 0.49595   1
  -1   6   3 0.26556 0.58135   4
   1   6  -3 1.20392 0.74092   1
   0  -6  -3 11.9901 2.57911   1
   0  -6  -3 13.0233 3.02631   4
   0  -6   3 13.1467 2.56566   1
   0  -6  -3 10.2274 2.38059   5
   0  -6  -3 12.5296 2.59046   3
   0  -6   3 12.9149 3.56141   4
   0   6  -3 13.5256 1.61153   4
   0   6   3 11.7064 1.45945   1
   0   6   3 12.1037 1.39900   4
   0   6  -3 14.5113 1.67193   1
   0   6   3 12.0252 1.33262   5
   0   6  -3 12.3999 1.55943   5
  -1  -6  -3 48.7329 5.46173   3
   1  -6   3 44.0547 4.58993   1
  -1  -6  -3 45.2494 6.74227   1
  -1  -6  -3 54.8929 5.19847   5
  -1  -6  -3 55.2537 5.82651   4
  -1   6  -3 49.4547 3.64195   5
  -1   6  -3 48.2393 3.36805   1
  -1   6  -3 53.2703 3.38670   4
   1   6   3 50.0174 3.46045   1
  -2  -6  -3 1.38583 1.75574   3
  -2  -6  -3 1.05405 1.75762   1
  -2  -6  -3 3.65097 2.28923   4
  -2  -6  -3 2.20344 1.73535   5
  -2   6  -3 1.42042 0.65608   1
  -2   6  -3 1.69906 0.65587   5
  -2   6  -3 1.16089 0.65451   4
   2   6   3 2.46937 1.88010   2
  -3  -6  -3 33.9550 5.61543   4
  -3  -6  -3 28.6197 4.56631   1
  -3  -6  -3 21.5398 4.40445   5
  -3  -6  -3 30.2760 3.43986   3
  -3   6  -3 21.6856 2.09320   5
  -3   6  -3 27.5279 2.25190   1
   3   6   3 25.2153 5.41752   2
  -3   6  -3 25.0944 2.21940   4
  -4  -6  -3 -0.1447 3.00218   4
  -4  -6  -3 3.52686 2.48892   5
  -4  -6  -3 0.58133 2.25114   1
   4   6   3 2.05413 2.39856   2
  -4  -7   3 12.0137 3.30349   4
  -4  -7   3 7.91898 3.71072   5
  -4  -7   3 15.8537 3.40365   1
  -4   7   3 12.1918 2.05716   1
  -4   7   3 11.1075 1.82018   4
  -4   7   3 11.6276 1.95516   5
   4   7  -3 6.03987 3.65131   2
  -3  -7   3 134.178 12.0049   4
  -3  -7   3 124.310 10.6640   1
  -3  -7   3 139.368 13.3747   5
   3   7  -3 154.934 13.0434   2
  -3   7   3 142.676 8.17554   4
  -3   7   3 133.401 8.02915   5
  -2  -7   3 7.69789 3.19602   5
  -2  -7   3 7.64121 3.13267   4
  -2  -7   3 9.64300 3.05050   1
  -2   7   3 12.0396 1.74247   5
  -2   7   3 9.62656 1.63285   1
   2   7  -3 10.0064 3.41345   2
   2   7  -3 6.75097 1.55330   1
  -2   7   3 11.9864 1.90009   4
  -1  -7   3 458.928 24.5448   1
  -1  -7   3 427.068 25.1727   4
  -1  -7   3 448.366 24.9322   5
   1  -7  -3 461.742 23.9822   1
   1  -7  -3 443.892 22.5959   3
   1   7  -3 415.615 21.6902   5
   1   7  -3 436.406 21.9943   1
   1   7  -3 420.566 21.7831   4
  -1   7   3 464.987 21.7403   1
  -1   7   3 455.273 21.3658   5
  -1   7   3 447.448 21.5393   4
   0  -7  -3 104.644 7.39243   3
   0  -7  -3 109.617 9.11997   4
   0  -7  -3 99.5375 8.02155   1
   0  -7  -3 102.246 8.16115   5
   0  -7   3 117.750 8.23448   1
   0   7  -3 107.125 6.18251   5
   0   7   3 106.041 6.20533   1
   0   7  -3 106.843 6.34862   1
   0   7  -3 110.641 6.29987   4
   0   7   3 104.205 5.97568   4
   0   7   3 100.234 5.85301   5
  -1  -7  -3 160.800 11.1060   5
  -1  -7  -3 145.637 11.8437   4
  -1  -7  -3 159.316 10.9370   1
  -1  -7  -3 149.380 9.91753   3
  -1   7  -3 159.563 8.45990   5
   1   7   3 154.950 9.23269   1
  -1   7  -3 164.793 8.58321   4
  -1   7  -3 160.665 8.68450   1
  -2  -7  -3 17.6086 3.84759   1
  -2  -7  -3 26.3115 3.46246   3
  -2  -7  -3 19.4254 4.47478   4
  -2  -7  -3 16.6111 3.79194   5
  -2   7  -3 21.1237 2.11982   4
   2   7   3 21.0983 4.93070   2
  -2   7  -3 21.4577 2.09323   1
  -2   7  -3 19.5120 2.07489   5
  -3  -7  -3 7.17389 2.30733   3
  -3  -7  -3 3.08666 2.21005   5
  -3  -7  -3 3.55695 2.27406   1
  -3   7  -3 4.17632 0.97341   1
  -3   7  -3 3.87402 1.07184   4
  -3   7  -3 3.35747 0.92050   5
   3   7   3 2.09443 2.35858   2
  -4  -7  -3 5.12490 3.18566   4
  -4  -7  -3 1.96623 2.42957   1
  -4   7  -3 3.74307 0.97116   4
   4   7   3 3.07566 2.06777   2
  -4   7  -3 3.30423 0.80811   5
  -4  -8   3 21.0992 4.90610   5
  -4  -8   3 32.3011 4.32217   1
  -4   8   3 25.7639 2.56125   5
  -4   8   3 31.0671 2.53591   1
   4   8  -3 28.8040 5.34273   2
  -3  -8   3 1.75957 3.10760   5
  -3  -8   3 7.87656 3.70300   4
  -3  -8   3 1.03621 2.03929   3
  -3  -8   3 -1.7135 1.93311   1
  -3   8   3 0.11776 0.88262   4
  -3   8   3 1.55849 0.91559   5
  -3   8   3 2.65453 1.07636   1
   3   8  -3 -0.7113 1.96558   2
  -2  -8   3 57.5678 7.71313   5
  -2  -8   3 70.8858 7.27484   1
  -2  -8   3 65.8182 8.44337   4
  -2   8   3 70.5466 4.82561   1
   2   8  -3 71.0311 5.00441   1
  -2   8   3 67.8654 4.49801   5
   2   8  -3 75.0709 8.40664   2
  -2   8   3 67.2997 4.68020   4
  -1  -8   3 27.0162 5.72012   4
  -1  -8   3 44.1709 5.43057   1
   1  -8  -3 42.2561 4.83024   1
   1   8  -3 39.6363 3.36170   5
  -1   8   3 45.7178 3.47712   1
   1   8  -3 47.1037 3.75634   1
  -1   8   3 43.3362 3.60774   4
  -1   8   3 44.2935 3.17980   5
   0  -8  -3 148.251 10.7211   1
   0  -8  -3 150.717 9.62577   3
   0  -8  -3 143.153 11.6577   4
   0  -8  -3 133.792 11.3878   5
   0  -8   3 160.500 10.6448   1
   0   8  -3 145.952 8.22026   5
   0   8  -3 141.266 8.39423   1
   0   8   3 142.424 7.96168   4
   0   8   3 150.959 8.32688   1
   0   8  -3 141.480 8.27496   4
  -1  -8  -3 0.02733 1.93408   5
  -1  -8  -3 4.95003 2.45224   3
   1  -8   3 -2.8391 2.00104   3
  -1  -8  -3 1.62147 2.11105   1
  -1  -8  -3 4.08769 2.90549   4
  -1   8  -3 2.40369 1.06474   1
   1   8   3 1.91763 0.84277   1
  -1   8  -3 1.59941 0.81341   4
  -1   8  -3 1.40638 0.79329   5
  -2  -8  -3 18.1243 4.13277   5
  -2  -8  -3 22.7321 3.33511   3
  -2  -8  -3 15.3083 3.64564   1
  -2  -8  -3 18.4532 4.87912   4
  -2   8  -3 21.1595 2.24872   4
  -2   8  -3 22.0307 2.33620   1
   2   8   3 27.8322 4.96718   2
  -2   8  -3 20.7000 2.25082   5
  -3  -8  -3 1.19213 2.47122   1
  -3  -8  -3 1.47969 3.17677   4
  -3  -8  -3 1.95412 2.57864   5
  -3  -8  -3 5.81074 2.00872   3
  -3   8  -3 3.82497 1.14370   1
   3   8   3 2.23411 2.56571   2
  -3   8  -3 4.02998 1.05123   5
  -3   8  -3 3.63877 1.02923   4
  -3  -9   3 1.00863 3.10487   5
  -3  -9   3 -2.5780 2.09963   1
  -3  -9   3 -3.9587 4.64283   4
  -3  -9   3 -0.0326 2.47978   3
  -3   9   3 0.74016 0.92149   4
  -3   9   3 0.38489 0.80584   5
   3   9  -3 -0.2050 2.53364   2
  -3   9   3 0.27665 0.80042   1
  -2  -9   3 183.328 14.0083   5
  -2  -9   3 147.435 14.2479   4
  -2   9   3 221.202 10.9368   1
   2   9  -3 182.173 10.6603   1
  -2   9   3 193.937 10.4108   4
  -2   9   3 191.172 10.2835   5
   2   9  -3 197.523 15.1086   2
  -1  -9   3 1.14636 2.07045   3
  -1  -9   3 5.94418 2.53244   1
   1  -9  -3 4.16468 2.07355   1
   1   9  -3 6.38180 1.63567   1
  -1   9   3 5.91617 1.23546   5
  -1   9   3 6.52385 1.50934   1
  -1   9   3 4.28897 1.05496   4
   0  -9  -3 197.199 12.0981   3
   0  -9  -3 183.900 13.2464   1
   0  -9   3 196.582 13.1626   1
   0   9  -3 189.834 10.6770   4
   0   9  -3 202.717 11.0378   1
   0   9  -3 191.116 10.5728   5
   0   9   3 199.539 10.7858   1
  -1  -9  -3 193.144 14.2905   5
  -1  -9  -3 211.429 12.9608   3
  -1  -9  -3 200.757 14.2776   1
   1   9   3 205.826 11.2161   1
  -1   9  -3 210.369 11.2123   5
  -1   9  -3 203.008 11.2649   4
  -1   9  -3 220.176 11.6455   1
   2  -9   3 0.32166 1.88088   3
  -2  -9  -3 1.10279 1.78184   3
  -2  -9  -3 0.36706 2.13621   1
  -2  -9  -3 2.05423 2.07998   5
  -2   9  -3 3.22220 1.46166   4
   2   9   3 0.47731 2.12549   2
  -2   9  -3 3.12937 1.01577   5
  -2   9  -3 2.47411 1.01994   1
  -3  -9  -3 52.4330 8.40551   5
  -3  -9  -3 59.0418 6.79289   1
   3   9   3 85.1355 12.6736   2
  -3   9  -3 56.9367 4.32187   4
  -3   9  -3 60.0984 4.12881   1
  -3   9  -3 67.2505 4.31563   5
  -3 -10   3 11.9576 3.35256   1
  -3 -10   3 15.9373 7.56198   5
  -3  10   3 12.0837 1.77023   5
  -2 -10   3 8.25188 3.05656   1
   2 -10  -3 1.70464 2.78905   3
  -2  10   3 7.77784 1.60831   1
  -2  10   3 6.89553 1.45403   4
  -2  10   3 7.54699 1.50341   5
   2  10  -3 6.05445 2.87341   2
   2  10  -3 8.07857 1.80893   1
  -1 -10   3 1.00518 2.44834   3
   1 -10  -3 -3.1746 2.82452   1
   1 -10  -3 1.49921 1.83858   3
  -1 -10   3 3.72302 2.62900   1
  -1  10   3 3.20897 1.09135   4
  -1  10   3 5.09515 1.27216   1
   1  10  -3 5.61374 2.60056   2
  -1  10   3 3.74208 0.92300   5
   1  10  -3 5.29007 1.43429   1
   0 -10   3 63.3510 7.36166   1
   0 -10  -3 72.7788 7.13894   1
   0  10  -3 72.0436 5.04999   4
   0  10  -3 80.3997 5.40811   1
   0  10  -3 66.5041 4.82882   5
   0  10   3 77.5473 5.19324   1
  -1 -10  -3 2.49588 1.98250   1
  -1 -10  -3 -6.3111 5.52857   4
   1 -10   3 2.25180 2.18862   3
  -1 -10  -3 4.51423 2.15701   3
  -1 -10  -3 2.17500 3.26404   5
   1  10   3 6.00255 2.66443   2
  -1  10  -3 5.91264 1.33146   4
  -1  10  -3 3.49108 1.28748   1
   1  10   3 2.80683 1.03505   1
  -1  10  -3 4.74680 1.25622   5
  -2 -10  -3 3.18523 4.74569   4
  -2 -10  -3 11.3396 3.72194   5
  -2 -10  -3 12.1514 3.30656   1
  -2  10  -3 14.7523 1.97944   4
   2  10   3 17.0907 4.47114   2
  -2  10  -3 13.2539 1.94797   1
  -2  10  -3 14.9054 2.04208   5
  -2 -11   3 24.4625 4.22892   1
  -2  11   3 22.3455 2.31723   5
  -2  11   3 26.5942 2.62159   1
   2  11  -3 24.1905 4.58236   2
  -1 -11   3 29.6073 4.90157   1
   1  11  -3 32.8549 4.99795   2
  -1  11   3 26.5987 2.75572   1
   1  11  -3 26.0534 3.15492   1
   0 -11  -3 15.4604 3.40329   1
   0  11  -3 20.7584 2.43955   1
   0  11  -3 14.7777 2.35627   5
   0  11   3 15.4349 2.10930   1
  -1 -11  -3 26.6087 6.22018   1
  -1  11  -3 23.1878 2.60739   4
  -1  11  -3 18.6374 2.51002   5
   1  11   3 17.7037 2.48303   1
  -1  11  -3 24.6508 2.60730   1
   1  11   3 29.0029 4.73952   2
   5   0  -4 -3.0709 1.66370   2
  -5   0   4 1.97371 1.16490   1
  -5   0   4 -1.7728 1.84359   4
  -4   0   4 21.0054 3.11357   1
   4   0  -4 28.7251 4.67238   2
  -4   0   4 37.6181 5.52049   5
  -4   0   4 34.1155 4.92857   4
   3   0  -4 1.89043 2.58486   2
  -3   0   4 -0.1406 1.61912   4
  -3   0   4 1.88676 1.38218   1
  -2   0   4 1444.93 65.2213   4
   2   0  -4 1360.09 62.5731   1
   2   0  -4 1316.54 63.9011   2
  -2   0   4 1344.96 63.2591   1
  -2   0   4 1299.98 63.7965   5
   1   0  -4 1.13410 0.75471   2
   1   0  -4 0.77781 0.44389   1
  -1   0   4 -0.2345 0.98453   5
   1   0  -4 0.82363 0.51668   4
  -1   0   4 1.77450 0.89346   1
  -1   0   4 1.15845 1.26113   4
   0   0  -4 6.50848 0.84156   1
   0   0  -4 6.19196 0.90225   4
   0   0   4 7.03939 1.22345   4
   0   0   4 5.38480 0.93272   1
   0   0  -4 7.22275 0.80017   5
  -1   0  -4 1.13054 0.32337   4
  -1   0  -4 0.25657 0.41577   4
   1   0   4 0.98190 0.51204   2
   2   0   4 1686.69 78.9659   2
   3   0   4 0.61292 1.00750   2
   4   0   4 28.2075 4.61707   2
   5   0   4 -2.0207 1.86911   2
  -5  -1   4 3.31993 2.30734   4
  -5  -1   4 2.38770 1.47219   1
   5  -1  -4 2.74710 2.09993   2
  -5  -1   4 0.23876 3.07310   5
   5   1  -4 2.83652 2.46434   2
  -5   1   4 -1.9125 3.30423   5
  -5   1   4 4.39703 2.01673   4
  -4  -1   4 191.552 12.4421   4
  -4  -1   4 171.141 10.7073   1
  -4  -1   4 197.291 12.7634   5
   4  -1  -4 176.501 12.5587   2
   4   1  -4 193.589 13.2987   2
  -4   1   4 185.949 12.6819   5
  -4   1   4 182.638 11.9886   4
  -4   1   4 154.656 9.93268   1
  -3  -1   4 32.4322 4.38862   4
  -3  -1   4 26.3614 3.20772   1
  -3  -1   4 22.6362 4.08536   5
   3  -1  -4 27.9670 4.43113   2
  -3   1   4 30.8069 4.77959   5
  -3   1   4 28.5438 4.07452   4
  -3   1   4 29.6407 3.04846   1
   3   1  -4 22.0382 4.11055   2
  -2  -1   4 215.076 11.6694   1
  -2  -1   4 211.216 13.2727   4
   2  -1  -4 212.404 11.9397   2
  -2  -1   4 204.770 12.1185   5
   2  -1  -4 226.746 10.8276   1
   2   1  -4 212.628 12.1106   2
   2   1  -4 213.721 10.6507   1
  -2   1   4 216.518 11.2048   1
  -2   1   4 209.471 12.2682   4
  -2   1   4 215.354 11.8951   5
  -1  -1   4 771.404 35.6447   4
   1  -1  -4 700.993 34.9631   5
   1  -1  -4 754.514 35.0535   2
  -1  -1   4 724.045 35.1833   1
   1  -1  -4 761.790 34.7681   4
   1  -1  -4 760.821 34.7141   1
  -1  -1   4 779.109 35.6734   5
  -1   1   4 764.503 35.1608   4
   1   1  -4 727.743 34.5404   1
  -1   1   4 778.822 35.3161   5
   1   1  -4 731.961 34.5047   5
   1   1  -4 701.168 35.1742   2
  -1   1   4 705.519 34.6984   1
   0  -1  -4 2060.66 93.0478   4
   0  -1   4 1969.65 93.2168   4
   0  -1  -4 1985.56 92.9594   5
   0  -1  -4 2079.74 93.1053   1
   0  -1   4 1886.53 93.1494   1
   0   1  -4 2178.51 92.9135   5
   0   1  -4 2146.87 92.9290   4
   0   1  -4 1958.36 92.9473   1
   0   1   4 1914.75 93.0821   1
   0   1   4 2104.41 93.1091   4
   1  -1   4 302.282 16.8041   2
  -1  -1  -4 381.022 16.5876   4
  -1  -1  -4 359.071 16.7399   1
   1   1   4 350.377 17.3012   2
  -1   1  -4 375.902 16.3907   4
   2  -1   4 23.1222 2.50660   2
  -2  -1  -4 20.1532 1.32789   4
  -2  -1  -4 15.4375 1.11954   4
  -2  -1  -4 19.9120 1.71469   1
   2   1   4 20.7474 2.63871   2
  -3  -1  -4 87.0961 5.09430   4
   3   1   4 77.5650 8.20272   2
   4  -1   4 14.2000 3.13779   2
   4   1   4 19.1213 3.70537   2
   5  -1   4 5.33301 2.33093   2
   5   1   4 2.92094 2.37047   2
   5  -2  -4 18.3707 3.78508   2
  -5  -2   4 28.7289 4.65131   4
  -5  -2   4 32.9411 5.50933   5
   5   2  -4 29.0630 5.20832   2
  -5   2   4 28.5065 4.33968   4
  -5   2   4 21.8193 2.30268   1
  -5   2   4 14.6938 4.01986   5
   4  -2  -4 12.3363 3.38738   2
  -4  -2   4 16.7073 2.99553   1
  -4  -2   4 16.1084 3.82927   5
  -4  -2   4 16.5806 4.00526   4
  -4   2   4 18.2315 3.73114   4
   4   2  -4 13.5901 3.85699   2
  -4   2   4 11.5358 2.02592   1
  -4   2   4 5.86269 3.75347   5
  -3  -2   4 26.4392 4.59824   5
  -3  -2   4 28.0755 4.45186   4
   3  -2  -4 24.9694 3.69035   2
  -3  -2   4 22.4270 3.37117   1
  -3   2   4 22.8215 2.51820   1
   3   2  -4 20.9166 3.84152   2
  -3   2   4 22.6424 3.97170   5
  -3   2   4 27.2700 3.90014   4
  -2  -2   4 822.865 39.5916   1
  -2  -2   4 801.256 40.1748   4
  -2  -2   4 837.054 40.1726   5
   2  -2  -4 843.565 39.5708   2
   2  -2  -4 851.223 38.6019   1
   2   2  -4 763.882 39.8807   2
  -2   2   4 773.395 39.0708   4
   2   2  -4 814.100 38.2094   1
  -2   2   4 862.028 39.4890   5
  -2   2   4 805.759 38.4297   1
   1  -2  -4 669.467 30.8510   2
   1  -2  -4 649.121 30.6895   5
  -1  -2   4 671.158 31.8580   4
   1  -2  -4 674.025 30.7389   1
  -1  -2   4 627.736 31.3035   1
  -1  -2   4 657.672 31.7492   5
   1  -2  -4 701.414 31.0346   4
  -1   2   4 685.552 31.0793   5
  -1   2   4 613.006 30.8003   4
   1   2  -4 625.195 30.3833   1
   1   2  -4 582.963 31.0872   2
   1   2  -4 664.878 30.4065   4
  -1   2   4 612.743 30.3837   1
   1   2  -4 671.207 30.3976   5
   0  -2   4 16.8257 2.08257   4
   0  -2  -4 24.3701 1.80804   5
   0  -2  -4 20.6219 1.83969   1
   0  -2   4 20.3852 2.09403   1
   0  -2   4 17.3446 1.93809   3
   0  -2  -4 22.9837 1.96423   4
   0   2  -4 20.9619 1.51616   5
   0   2   4 23.3085 1.74630   4
   0   2  -4 22.3366 1.58101   4
   0   2  -4 22.2695 1.60288   1
   0   2   4 21.6520 1.51907   1
   0   2   4 25.0430 1.56447   5
  -1  -2  -4 228.179 11.0466   1
  -1  -2  -4 239.465 10.9574   4
  -1  -2  -4 225.227 10.7296   5
  -1   2  -4 209.100 10.5687   1
   1   2   4 212.844 11.5983   2
  -1   2  -4 216.130 10.4592   4
   2  -2   4 24.1052 2.63210   2
  -2  -2  -4 25.8860 2.15697   4
  -2  -2  -4 25.6051 2.38928   1
   2   2   4 25.1745 3.11404   2
  -3  -2  -4 388.547 19.1919   1
  -3  -2  -4 367.536 20.0471   3
   3  -2   4 381.427 20.2233   2
  -3  -2  -4 370.469 19.4635   4
   3   2   4 394.180 21.3633   2
  -4  -2  -4 36.5737 4.67726   4
   4  -2   4 27.9055 4.35306   2
   4   2   4 34.7123 5.07662   2
   5  -2   4 15.5109 3.25349   2
   5   2   4 15.2454 3.38596   2
  -5  -3   4 31.7504 6.16191   5
  -5  -3   4 28.4772 4.76608   4
   5  -3  -4 25.4085 4.35923   2
  -5  -3   4 20.0524 2.83271   1
  -4  -3   4 156.179 11.5139   4
  -4  -3   4 153.010 11.5337   5
  -4  -3   4 143.115 9.81802   1
   4  -3  -4 137.119 10.4442   2
  -4   3   4 120.249 10.6202   5
   4   3  -4 162.265 12.3653   2
  -4   3   4 151.742 8.27281   1
  -4   3   4 161.287 10.1667   4
  -3  -3   4 182.194 10.8818   1
   3  -3  -4 159.088 10.4929   2
  -3  -3   4 165.540 11.6331   4
  -3  -3   4 161.499 11.5037   5
  -3   3   4 170.213 9.00372   1
   3   3  -4 178.244 12.1341   2
  -3   3   4 152.136 10.9384   5
  -3   3   4 157.851 10.8357   4
  -2  -3   4 65.5272 6.19324   4
  -2  -3   4 59.8848 5.79761   5
   2  -3  -4 66.7193 5.07296   2
   2  -3  -4 70.6825 4.54543   1
  -2  -3   4 58.6115 5.22540   1
  -2   3   4 65.1316 4.92050   4
  -2   3   4 66.0221 4.00819   1
   2   3  -4 65.8641 5.72361   2
   2   3  -4 63.7113 3.98266   1
  -2   3   4 65.1389 5.39680   5
  -1  -3   4 308.315 16.2509   1
   1  -3  -4 313.223 16.0658   4
  -1  -3   4 312.047 16.7793   4
  -1  -3   4 305.829 16.6300   5
   1  -3  -4 303.811 15.5268   5
   1  -3  -4 320.096 15.7895   2
   1  -3  -4 326.121 15.6489   1
   1  -3  -4 291.386 15.4877   3
   1   3  -4 314.078 15.0625   4
  -1   3   4 294.453 15.3678   4
   1   3  -4 320.054 15.0480   5
   1   3  -4 315.102 15.0833   1
   1   3  -4 307.413 16.2058   2
  -1   3   4 280.947 14.8541   1
  -1   3   4 345.980 15.5639   5
   0  -3   4 53.7820 3.69456   3
   0  -3  -4 55.0316 3.90039   4
   0  -3   4 50.1554 3.84419   1
   0  -3  -4 49.8143 3.58690   1
   0  -3   4 44.0118 3.83790   4
   0  -3  -4 53.0331 3.46692   5
   0   3   4 49.7090 2.98116   1
   0   3   4 59.0904 2.96542   5
   0   3  -4 51.8936 3.01685   5
   0   3  -4 53.1148 3.08270   4
   0   3  -4 50.6493 3.08422   1
  -1  -3  -4 435.285 20.8397   4
  -1  -3  -4 434.349 20.7698   1
   1  -3   4 421.537 20.8789   3
  -1  -3  -4 423.553 20.3908   5
  -1   3  -4 413.387 19.9927   1
   1   3   4 417.330 21.4195   2
  -1   3  -4 456.303 19.9353   4
   1   3   4 398.574 20.0267   1
   2  -3   4 572.242 25.9482   2
  -2  -3  -4 547.161 25.8549   1
  -2  -3  -4 521.458 25.2027   5
  -2  -3  -4 551.735 26.0066   4
  -2   3  -4 511.402 24.5570   1
  -2   3  -4 457.288 24.3950   4
   2   3   4 530.733 27.2343   2
   3  -3   4 7.54912 2.18007   2
  -3  -3  -4 5.97917 2.24389   4
   3   3   4 10.2164 2.81362   2
  -3   3  -4 5.19245 0.77993   4
  -4  -3  -4 58.5948 6.01253   4
   4  -3   4 36.5067 4.96706   2
   4   3   4 54.0358 6.04254   2
   5  -3   4 -0.3548 3.11074   2
   5   3   4 0.84007 2.19902   2
  -5  -4   4 33.8121 5.36030   5
   5  -4  -4 23.6364 4.53155   2
  -5  -4   4 29.3669 3.74784   1
  -5   4   4 25.1596 3.56067   4
  -5   4   4 18.6020 3.11258   5
   4  -4  -4 5.27019 2.95139   2
  -4  -4   4 9.71420 3.27953   4
  -4  -4   4 1.03204 2.45227   5
  -4  -4   4 6.18108 2.27219   1
  -4   4   4 1.72686 2.43184   5
   4   4  -4 3.82444 2.71389   2
  -4   4   4 9.40183 2.69991   4
  -3  -4   4 266.210 15.7805   1
  -3  -4   4 249.297 16.5538   5
   3  -4  -4 267.799 15.5000   2
  -3  -4   4 289.757 17.2906   4
  -3   4   4 253.253 13.5232   1
   3   4  -4 276.648 17.3574   2
  -3   4   4 265.963 15.2126   5
  -3   4   4 270.986 15.0710   4
   2  -4  -4 53.0093 4.05733   1
   2  -4  -4 50.4381 4.68856   2
  -2  -4   4 52.3556 5.93324   4
  -2  -4   4 43.2890 5.33458   5
  -2   4   4 51.1524 4.38208   5
   2   4  -4 45.2628 3.31241   1
  -2   4   4 48.1785 3.28026   1
  -2   4   4 50.2677 4.21549   4
   2   4  -4 44.9373 5.02310   2
  -1  -4   4 526.293 27.1471   4
   1  -4  -4 524.631 26.5818   4
  -1  -4   4 491.978 26.8062   5
   1  -4  -4 544.001 25.9339   1
  -1  -4   4 524.887 26.4722   1
   1  -4  -4 504.245 25.5533   3
   1  -4  -4 503.784 25.7828   5
  -1   4   4 569.318 25.1522   5
  -1   4   4 528.384 25.1850   4
   1   4  -4 528.232 24.9939   4
   1   4  -4 580.271 25.8419   5
  -1   4   4 497.877 24.7808   1
   1   4  -4 499.825 24.9594   1
   0  -4   4 436.901 19.4082   3
   0  -4  -4 374.942 19.5702   3
   0  -4   4 345.560 19.3781   4
   0  -4  -4 366.303 19.0491   5
   0  -4  -4 364.859 19.1510   1
   0  -4  -4 369.070 19.6662   4
   0  -4   4 383.270 19.4953   1
   0   4   4 413.601 18.1078   5
   0   4  -4 390.841 18.3064   4
   0   4  -4 391.036 18.2621   5
   0   4   4 354.266 18.1689   1
   0   4   4 386.359 18.1874   4
   0   4  -4 390.359 18.3750   1
   1  -4   4 5.03002 1.79530   3
  -1  -4  -4 8.32320 1.57508   5
  -1  -4  -4 7.35413 1.80034   4
  -1  -4  -4 5.20165 1.99266   3
  -1  -4  -4 8.23045 1.87971   1
   1   4   4 5.37358 0.95484   1
  -1   4  -4 5.91195 0.94310   4
  -1   4  -4 6.64398 0.99167   1
  -1   4  -4 5.58180 0.86770   5
   2  -4   4 2.42720 2.43860   2
  -2  -4  -4 3.82928 1.54723   1
  -2  -4  -4 4.04966 1.23701   5
  -2  -4  -4 2.37660 1.73468   3
  -2  -4  -4 3.39089 1.72629   4
   2   4   4 4.56446 1.75037   2
  -2   4  -4 3.17024 0.64601   4
  -2   4  -4 3.40648 0.76622   1
  -3  -4  -4 31.0070 3.60314   3
  -3  -4  -4 31.9718 3.94811   1
   3  -4   4 27.7036 4.38714   2
  -3  -4  -4 28.0288 3.52732   5
  -3  -4  -4 30.3111 4.54599   4
  -3   4  -4 22.5334 2.14012   4
   3   4   4 28.7459 4.33292   2
  -4  -4  -4 250.166 14.2353   1
   4  -4   4 227.560 15.0578   2
   4   4   4 268.074 16.5112   2
  -4  -5   4 15.7973 4.02541   5
   4  -5  -4 14.2265 4.47263   2
  -4  -5   4 14.9053 3.31365   1
   4   5  -4 20.3643 5.17823   2
  -4   5   4 16.8130 1.99873   1
  -4   5   4 13.3912 2.89621   5
  -3  -5   4 108.446 9.50599   4
   3  -5  -4 104.707 8.62828   2
  -3  -5   4 103.128 8.33145   1
  -3  -5   4 96.5684 9.27221   5
  -3   5   4 93.0966 7.27622   5
  -3   5   4 101.630 7.09814   4
  -3   5   4 98.8691 5.99917   1
   3   5  -4 97.6100 9.36049   2
  -2  -5   4 350.716 20.3363   5
  -2  -5   4 309.861 19.2148   4
   2  -5  -4 342.660 18.3639   2
  -2   5   4 307.520 15.8584   1
  -2   5   4 328.202 16.5441   5
   2   5  -4 305.695 16.1221   1
  -2   5   4 313.384 16.4930   4
   1  -5  -4 3.66023 1.79642   4
  -1  -5   4 0.89524 1.74721   4
   1  -5  -4 0.69868 1.29417   5
  -1  -5   4 2.76043 1.98706   5
  -1  -5   4 1.97371 1.29546   1
   1  -5  -4 3.40374 1.35921   3
   1  -5  -4 4.33750 1.53165   1
  -1   5   4 2.32499 0.74939   1
  -1   5   4 1.61333 0.80385   4
   1   5  -4 1.82434 0.79348   4
  -1   5   4 2.25398 0.76319   5
   1   5  -4 2.57981 0.85893   5
   1   5  -4 2.08997 0.80453   1
   0  -5  -4 0.93149 1.02475   5
   0  -5   4 -0.1035 1.70699   3
   0  -5  -4 -0.0606 1.18689   4
   0  -5  -4 0.01582 0.86178   1
   0  -5  -4 -0.1362 1.02626   3
   0  -5   4 0.95803 1.74802   4
   0   5   4 0.69390 0.40506   5
   0   5   4 -0.0122 0.46299   1
   0   5  -4 1.57376 0.64892   1
   0   5   4 0.91696 0.46206   4
   0   5  -4 0.29856 0.53182   4
   0   5  -4 0.54405 0.53231   5
  -1  -5  -4 422.271 22.1886   5
  -1  -5  -4 453.977 23.3627   4
   1  -5   4 452.613 22.3750   3
  -1  -5  -4 412.366 22.6006   3
  -1  -5  -4 460.202 22.5777   1
  -1   5  -4 428.191 20.9038   1
   1   5   4 431.974 20.9795   1
  -1   5  -4 429.135 20.7860   4
  -1   5  -4 432.381 20.7038   5
  -2  -5  -4 134.052 8.64888   5
  -2  -5  -4 128.294 8.82627   3
  -2  -5  -4 132.570 9.66773   4
  -2  -5  -4 132.638 8.86895   1
  -2   5  -4 128.511 6.91804   1
  -2   5  -4 125.192 6.71695   5
   2   5   4 126.357 9.56588   2
  -2   5  -4 136.461 6.87776   4
  -3  -5  -4 99.0096 8.93474   4
  -3  -5  -4 98.9487 7.18346   3
  -3  -5  -4 106.401 7.97774   1
  -3  -5  -4 95.0140 7.78327   5
  -3   5  -4 101.855 5.42578   1
   3   5   4 101.196 8.89611   2
  -3   5  -4 95.2170 5.39593   4
  -4  -5  -4 8.88537 3.04836   5
  -4  -5  -4 10.4230 3.47889   4
   4   5   4 12.3600 3.53584   2
  -4   5  -4 14.2212 1.45039   4
  -4  -6   4 9.56803 3.47166   5
  -4  -6   4 11.0759 2.80551   1
  -4  -6   4 9.26879 3.58357   4
  -4   6   4 6.45454 1.75897   5
  -4   6   4 9.66950 1.67339   1
   4   6  -4 10.7300 3.97298   2
  -4   6   4 6.63357 1.74230   4
  -3  -6   4 56.1251 7.26975   5
  -3  -6   4 48.4762 6.01591   1
  -3  -6   4 51.2768 7.22519   4
  -3   6   4 53.6090 4.58861   5
  -3   6   4 52.6465 3.88659   1
  -3   6   4 52.4933 4.51883   4
   3   6  -4 50.1495 7.28144   2
  -2  -6   4 53.1977 6.86481   5
  -2  -6   4 58.1773 7.15438   4
  -2   6   4 53.9591 4.24957   4
  -2   6   4 54.9954 4.08420   5
   2   6  -4 56.9061 6.58003   2
   2   6  -4 59.8480 4.18527   1
  -2   6   4 52.3782 3.79719   1
  -1  -6   4 4.24554 1.79746   1
   1  -6  -4 8.46080 2.30793   4
   1  -6  -4 4.48267 1.72747   1
   1  -6  -4 3.73121 1.67625   3
  -1  -6   4 0.92594 2.01195   5
   1  -6  -4 3.96667 1.92730   5
  -1  -6   4 1.05173 2.24554   4
   1   6  -4 3.27216 1.02616   1
   1   6  -4 1.97756 0.84810   4
  -1   6   4 2.30189 0.75757   1
  -1   6   4 3.37555 0.94023   4
  -1   6   4 2.88446 0.74887   5
   1   6  -4 4.46473 1.08902   5
   0  -6  -4 764.018 38.3674   1
   0  -6  -4 767.190 38.0419   3
   0  -6  -4 758.197 39.4901   4
   0  -6   4 703.801 38.4135   4
   0  -6  -4 774.792 38.5766   5
   0   6   4 785.716 36.3718   4
   0   6  -4 789.441 36.7803   1
   0   6   4 799.880 36.3034   5
   0   6  -4 792.783 36.6174   5
   0   6  -4 810.786 36.7208   4
   0   6   4 771.562 36.5465   1
  -1  -6  -4 428.223 22.6801   3
  -1  -6  -4 411.909 23.8897   4
  -1  -6  -4 438.905 23.0556   5
  -1  -6  -4 440.719 23.0323   1
  -1   6  -4 445.301 20.9228   4
  -1   6  -4 442.608 20.8306   5
   1   6   4 413.112 20.9787   1
  -2  -6  -4 197.700 18.0656   4
  -2  -6  -4 175.003 10.9719   3
  -2  -6  -4 169.857 11.4486   1
  -2  -6  -4 174.615 11.5069   5
  -2   6  -4 167.768 9.06449   1
   2   6   4 176.365 12.3987   2
  -2   6  -4 164.473 8.88068   5
  -3  -6  -4 64.4687 7.84674   4
  -3  -6  -4 69.8382 6.79639   1
  -3  -6  -4 71.2711 5.76785   3
  -3  -6  -4 68.4230 7.65047   5
  -3   6  -4 68.3908 4.32818   4
  -3   6  -4 77.4129 4.42141   1
   3   6   4 74.8360 7.61826   2
  -3   6  -4 69.8583 4.29812   5
  -4  -6  -4 13.5322 5.28122   1
  -4  -6  -4 8.02086 3.35097   4
  -4  -6  -4 6.01738 3.03566   5
   4   6   4 9.62140 3.11635   2
  -4   6  -4 7.78763 1.28008   4
  -4  -7   4 32.0292 4.46821   1
  -4  -7   4 25.9901 5.05710   5
  -4  -7   4 26.0394 4.94112   4
  -4   7   4 28.0709 2.75577   4
   4   7  -4 32.9725 5.82707   2
  -4   7   4 25.4805 2.76918   5
  -3  -7   4 116.706 11.1726   4
  -3  -7   4 127.137 10.3485   1
  -3  -7   4 124.958 11.3672   5
  -3   7   4 125.025 7.49877   5
   3   7  -4 137.086 12.0337   2
  -3   7   4 128.367 7.58685   1
  -3   7   4 122.921 7.64899   4
  -2  -7   4 27.6460 5.44755   5
  -2   7   4 27.9253 2.75344   4
  -2   7   4 28.5720 2.62438   5
  -2   7   4 29.1839 2.80698   1
   2   7  -4 33.8898 5.69228   2
   2   7  -4 30.3116 2.93259   1
  -1  -7   4 366.125 21.9707   4
   1  -7  -4 366.410 19.4009   3
   1  -7  -4 411.011 21.0267   1
  -1  -7   4 361.746 21.5058   5
  -1  -7   4 391.121 21.4446   1
  -1   7   4 377.742 18.1775   5
   1   7  -4 389.438 18.9402   1
   1   7  -4 350.817 18.5854   5
  -1   7   4 368.514 18.4749   1
   1   7  -4 342.948 18.6136   4
  -1   7   4 388.346 18.4359   4
   0  -7  -4 418.274 21.7869   3
   0  -7  -4 405.303 22.6761   5
   0  -7  -4 415.354 22.6432   1
   0  -7  -4 389.483 23.5949   4
   0  -7   4 408.250 22.4762   1
   0   7   4 410.331 19.9074   5
   0   7   4 420.817 20.3185   1
   0   7  -4 409.504 20.3059   5
   0   7  -4 436.511 20.5012   4
   0   7  -4 409.053 20.5195   1
   0   7   4 410.426 20.0475   4
  -1  -7  -4 11.7758 3.12073   1
  -1  -7  -4 13.1753 3.16631   5
  -1  -7  -4 16.3713 2.98211   3
  -1  -7  -4 12.2761 3.84864   4
  -1   7  -4 16.6802 1.88650   5
   1   7   4 13.1620 1.78074   1
  -1   7  -4 17.9652 1.96249   4
  -1   7  -4 14.0348 1.83577   1
  -2  -7  -4 57.0803 6.34968   5
  -2  -7  -4 46.5845 6.59366   4
  -2  -7  -4 46.9885 4.96827   3
  -2  -7  -4 60.5459 6.28104   1
   2   7   4 60.1956 6.75892   2
  -2   7  -4 54.7080 3.77989   4
  -2   7  -4 54.0953 3.76853   1
  -2   7  -4 55.5318 3.73656   5
  -3  -7  -4 112.602 9.08555   1
  -3  -7  -4 99.5967 10.0588   4
  -3  -7  -4 105.922 9.39672   5
  -3  -7  -4 104.278 7.52502   3
  -3   7  -4 111.760 6.33146   4
  -3   7  -4 106.732 6.20540   5
   3   7   4 113.843 9.91636   2
  -3   7  -4 114.323 6.28064   1
  -4  -7  -4 8.31085 3.04391   5
  -4  -7  -4 4.16137 2.78535   1
  -4  -7  -4 10.2282 3.67236   4
   4   7   4 15.7125 3.88157   2
  -4  -8   4 0.27294 2.11813   1
  -4   8   4 1.72298 0.85607   1
   4   8  -4 2.18761 2.53488   2
  -4   8   4 0.52141 0.72944   5
  -3  -8   4 53.2052 7.70989   5
  -3  -8   4 56.5125 6.74097   1
  -3  -8   4 60.0380 8.33217   4
  -3   8   4 61.2068 4.37987   5
   3   8  -4 60.8018 8.03963   2
  -3   8   4 70.7103 4.68696   1
  -3   8   4 59.3603 4.51004   4
  -2  -8   4 29.5891 5.48336   4
  -2  -8   4 33.0556 5.19099   1
  -2  -8   4 33.9464 6.37428   5
  -2   8   4 27.4657 2.62487   5
  -2   8   4 29.1704 2.92831   1
   2   8  -4 33.6234 3.08961   1
  -2   8   4 30.7302 2.91071   4
   2   8  -4 28.5234 5.56321   2
   1  -8  -4 256.957 14.1450   3
   1  -8  -4 250.960 15.4527   1
  -1   8   4 255.627 12.7650   5
   1   8  -4 235.351 13.0533   5
  -1   8   4 252.567 13.1554   1
   1   8  -4 259.454 13.5703   1
  -1   8   4 258.287 14.9193   4
   1   8  -4 235.151 13.2096   4
   0  -8  -4 87.2702 6.86412   3
   0  -8  -4 87.2001 8.84606   4
   0  -8  -4 89.4812 7.85506   5
   0  -8   4 85.7510 7.61801   1
   0  -8  -4 96.0664 8.16020   1
   0   8  -4 92.6564 5.80438   5
   0   8  -4 96.3012 6.09268   1
   0   8   4 95.6548 5.83858   1
  -1  -8  -4 771.732 40.2393   1
  -1  -8  -4 746.748 41.6139   4
  -1  -8  -4 743.316 40.3800   5
  -1  -8  -4 781.601 38.8589   3
   1   8   4 777.170 37.0923   1
  -1   8  -4 780.330 37.1366   4
  -1   8  -4 800.506 37.2568   1
  -1   8  -4 792.064 37.0329   5
  -2  -8  -4 1.37555 2.61705   4
  -2  -8  -4 8.74640 3.08699   3
  -2  -8  -4 9.13492 3.24017   1
  -2   8  -4 6.20215 1.29153   4
  -2   8  -4 5.63126 1.53676   1
   2   8   4 8.92225 4.88541   2
  -2   8  -4 4.80539 1.27213   5
  -3  -8  -4 9.15770 2.47385   3
  -3  -8  -4 5.21397 2.76875   5
  -3  -8  -4 6.43653 2.87468   1
  -3  -8  -4 14.5293 4.51373   4
   3   8   4 13.4658 4.00057   2
  -3   8  -4 9.49579 1.60791   5
  -3   8  -4 6.43280 1.23507   1
  -3   8  -4 9.85231 1.58775   4
  -3  -9   4 8.33953 2.99406   1
  -3  -9   4 2.51263 2.43718   3
  -3   9   4 6.50491 1.43135   1
  -3   9   4 4.61822 1.17235   4
   3   9  -4 5.31718 2.98754   2
  -3   9   4 5.38849 1.23499   5
  -2  -9   4 169.354 12.7256   1
  -2  -9   4 159.021 15.0794   4
  -2  -9   4 144.707 12.6572   5
   2   9  -4 176.318 13.7860   2
  -2   9   4 167.715 9.26345   5
  -2   9   4 188.896 9.89073   1
   2   9  -4 164.317 9.69153   1
   1  -9  -4 216.566 13.8871   1
  -1  -9   4 228.001 14.9206   1
  -1   9   4 222.696 11.2769   5
  -1   9   4 202.917 11.3354   4
   1   9  -4 220.472 13.1036   1
   1   9  -4 195.960 16.5003   2
   0  -9   4 3.55152 2.41654   1
   0  -9  -4 -2.2169 5.88582   4
   0  -9   4 -0.9438 2.58431   3
   0  -9  -4 8.00967 2.86062   3
   0  -9  -4 3.40714 2.28790   1
   0  -9  -4 -2.9323 2.81460   5
   0   9   4 4.26837 1.30794   1
   0   9  -4 2.61536 1.01259   5
   0   9  -4 5.04575 1.54461   1
   0   9  -4 4.11180 1.22818   4
  -1  -9  -4 58.5792 7.77675   4
  -1  -9  -4 73.3493 6.16075   3
  -1  -9  -4 68.3321 7.22437   1
  -1  -9  -4 66.7314 8.04407   5
   1   9   4 63.7195 4.53045   1
  -1   9  -4 74.0622 5.00377   5
  -1   9  -4 68.5081 4.88150   4
  -1   9  -4 71.8374 5.03376   1
  -2  -9  -4 32.2819 5.74824   5
  -2  -9  -4 35.9692 5.17507   1
  -2  -9  -4 35.3651 4.11043   3
   2   9   4 41.3337 6.00137   2
  -2   9  -4 35.4802 3.07931   5
  -2   9  -4 37.6920 3.16652   1
  -2   9  -4 32.9479 3.05410   4
  -3  -9  -4 20.1449 2.83069   3
  -3  -9  -4 12.3745 3.25650   1
  -3  -9  -4 28.3664 5.33211   4
  -3  -9  -4 11.1833 3.48707   5
  -3   9  -4 16.9828 2.01265   4
  -3   9  -4 15.5379 1.99982   1
  -3   9  -4 17.0454 2.01250   5
   3   9   4 20.4586 4.36680   2
  -2 -10   4 2.81501 2.24411   3
  -2 -10   4 13.7526 3.61808   1
   2  10  -4 8.61552 3.69089   2
  -2  10   4 6.59283 1.27564   4
  -2  10   4 12.9116 1.92154   1
  -2  10   4 9.50827 1.73802   5
   2  10  -4 9.65017 2.50661   1
  -1 -10   4 149.665 10.7954   1
   1 -10  -4 118.240 9.62171   1
  -1  10   4 147.151 8.24989   1
   1  10  -4 139.054 8.37647   1
   1  10  -4 149.319 11.5483   2
  -1  10   4 117.183 7.66377   4
  -1  10   4 131.485 7.53089   5
   0 -10  -4 358.107 20.9218   1
   0  10  -4 335.336 17.7640   5
   0  10  -4 338.646 18.1828   4
   0  10  -4 367.091 18.3738   1
   0  10   4 356.850 18.0066   1
  -1 -10  -4 29.5566 7.36240   4
  -1 -10  -4 29.6976 5.22386   1
  -1 -10  -4 44.4764 4.43147   3
  -1 -10  -4 23.1462 4.83775   5
  -1  10  -4 36.6431 3.21867   4
   1  10   4 33.7026 2.98836   1
  -1  10  -4 38.0890 3.34042   1
  -1  10  -4 32.2141 3.13823   5
   1  10   4 43.5404 5.70005   2
  -2 -10  -4 60.1416 6.68126   1
  -2 -10  -4 59.3360 5.19319   3
  -2  10  -4 56.3606 4.26487   1
  -2  10  -4 55.8499 4.10653   5
   2  10   4 61.7370 7.29827   2
  -2  10  -4 55.9284 4.18773   4
   1 -11  -4 8.06250 2.43495   3
  -1 -11   4 3.93265 2.99483   1
  -1 -11   4 -2.7570 2.25406   3
   1  11  -4 2.59396 2.72932   2
   1  11  -4 2.41150 1.19890   1
  -1  11   4 2.91275 1.54212   1
   0 -11  -4 0.44188 2.12652   3
   0 -11   4 -1.0762 2.01312   3
   0 -11  -4 0.12759 2.75532   1
   0  11   4 3.56062 0.97265   1
   0  11  -4 1.02184 0.83897   1
   0  11  -4 3.79908 1.36768   5
  -1 -11  -4 12.0166 3.25494   1
  -1  11  -4 20.5174 2.32256   1
  -1  11  -4 15.8562 2.17285   5
  -1  11  -4 14.3397 2.91018   4
   1  11   4 17.1838 3.89951   2
  -5   0   5 150.854 10.2156   4
   5   0  -5 140.010 10.7751   2
   4   0  -5 -0.6820 1.40342   2
  -4   0   5 -1.5632 2.07724   5
  -4   0   5 -0.5423 1.12547   1
  -4   0   5 -1.3000 1.89509   4
   3   0  -5 565.340 29.9974   2
  -3   0   5 560.937 29.8483   5
  -3   0   5 596.457 29.8801   4
  -3   0   5 589.843 29.5356   1
  -2   0   5 -0.0532 1.28740   5
   2   0  -5 1.37894 0.65753   1
  -2   0   5 -0.6574 0.97885   1
  -2   0   5 0.83648 1.50231   4
   2   0  -5 0.00506 1.00526   2
  -1   0   5 1009.20 44.2663   5
  -1   0   5 937.606 43.6189   1
   1   0  -5 937.017 43.2784   1
  -1   0   5 922.411 44.0072   4
   1   0  -5 962.875 43.3183   4
   1   0  -5 930.107 43.2166   5
   1   0  -5 817.827 43.5163   2
   0   0  -5 0.98198 0.55528   1
   0   0   5 0.45627 0.44676   1
   0   0   5 1.10815 0.63402   4
   0   0  -5 0.37484 0.43878   4
   0   0  -5 0.70408 0.43728   5
  -1   0  -5 2648.80 125.152   1
  -1   0  -5 2819.42 125.063   4
   2   0   5 1.10272 1.10973   2
   3   0   5 186.068 13.7501   2
   4   0   5 -2.4379 2.23802   2
   5   0   5 3.56630 2.95697   2
   5  -1  -5 58.8425 6.07945   2
  -5  -1   5 56.2567 7.04793   5
  -5  -1   5 58.7868 5.94559   4
  -5   1   5 45.5566 4.06651   1
   5   1  -5 56.0512 6.48501   2
  -5   1   5 57.5838 5.69742   4
   4  -1  -5 156.874 11.3746   2
  -4  -1   5 133.570 9.57215   1
  -4  -1   5 165.059 11.3665   4
  -4  -1   5 168.216 11.8474   5
  -4   1   5 141.234 9.13658   1
   4   1  -5 160.176 11.8185   2
  -4   1   5 175.096 12.1469   5
  -4   1   5 166.133 11.1957   4
  -3  -1   5 7.95987 2.17731   1
  -3  -1   5 8.39145 2.68290   5
   3  -1  -5 3.75913 1.70045   2
  -3  -1   5 6.06414 2.39694   4
  -3   1   5 7.05877 1.71316   1
   3   1  -5 6.45494 2.31117   2
  -3   1   5 9.40831 2.90047   5
  -3   1   5 6.95980 2.30331   4
  -2  -1   5 33.9256 4.13056   4
   2  -1  -5 38.8482 3.64334   2
  -2  -1   5 39.4655 3.49855   1
  -2  -1   5 36.5888 4.15464   5
   2  -1  -5 39.1362 2.85280   1
  -2   1   5 41.1847 3.99939   4
   2   1  -5 33.4449 3.61702   2
  -2   1   5 37.9583 4.23100   5
   2   1  -5 36.7917 2.63274   1
  -2   1   5 35.9128 3.13215   1
   2   1  -5 31.6034 2.53150   4
   1  -1  -5 6.16145 1.09385   4
   1  -1  -5 6.00449 1.16835   2
   1  -1  -5 7.11297 1.16053   1
  -1  -1   5 8.17250 1.99806   4
  -1  -1   5 8.64637 2.02447   5
   1  -1  -5 6.98164 1.09071   5
  -1  -1   5 5.66908 1.40295   1
   1   1  -5 7.71577 1.17382   4
   1   1  -5 6.39899 1.01811   5
  -1   1   5 6.76862 1.58818   4
   1   1  -5 7.31586 1.39706   2
   1   1  -5 7.97661 1.06806   1
  -1   1   5 6.35840 1.17106   1
  -1   1   5 5.61497 1.66454   5
   0  -1  -5 51.6182 2.94972   5
   0  -1   5 45.4570 3.12514   1
   0  -1  -5 52.1547 3.07262   4
   0  -1   5 47.1831 3.17935   4
   0  -1  -5 49.8674 3.05849   1
   0   1  -5 52.2994 2.94290   4
   0   1  -5 51.6027 2.95941   1
   0   1   5 47.7476 2.84467   1
   0   1  -5 50.1061 2.86117   5
   0   1   5 50.0125 3.05255   4
  -1  -1  -5 60.7465 3.33992   4
  -1  -1  -5 59.9745 3.46912   1
   1   1   5 52.3378 3.64907   2
  -1   1  -5 64.2341 3.17861   4
  -1   1  -5 60.2835 3.27657   1
   2  -1   5 83.2160 5.28579   2
  -2  -1  -5 81.4969 4.25535   4
  -2  -1  -5 79.2234 4.54260   1
   2   1   5 74.5934 5.50259   2
   3  -1   5 229.581 13.8470   2
  -3  -1  -5 245.950 12.1856   4
   3   1   5 249.480 14.5695   2
   4   1   5 93.2895 11.1058   2
   5  -1   5 26.1504 4.85349   2
   5   1   5 28.4407 4.64925   2
  -5  -2   5 8.68233 2.95896   4
  -5  -2   5 11.4705 3.76126   5
  -5  -2   5 10.3960 2.16047   1
   5  -2  -5 13.5980 3.19540   2
  -5   2   5 16.8780 3.27854   4
  -5   2   5 13.2411 1.90257   1
   5   2  -5 8.31775 3.36380   2
  -5   2   5 6.36306 3.13714   5
   4  -2  -5 161.757 11.1337   2
  -4  -2   5 172.384 11.7733   4
  -4  -2   5 161.018 11.8721   5
  -4  -2   5 133.969 9.84639   1
  -4   2   5 147.398 8.87188   1
   4   2  -5 166.884 12.1475   2
  -4   2   5 124.663 11.5557   5
  -4   2   5 185.696 11.2337   4
  -3  -2   5 10.9488 2.87882   4
  -3  -2   5 9.00936 2.27067   1
  -3  -2   5 7.29743 2.75566   5
   3  -2  -5 10.7335 2.77514   2
   3   2  -5 10.8532 2.71666   2
  -3   2   5 14.4040 3.52334   5
  -3   2   5 12.6565 2.75348   4
  -3   2   5 13.5983 1.99694   1
  -2  -2   5 1056.83 50.6294   5
  -2  -2   5 1050.49 49.9603   1
  -2  -2   5 1037.06 50.6274   4
   2  -2  -5 1124.46 49.0696   1
   2  -2  -5 1052.27 49.7198   2
  -2   2   5 1021.05 48.8067   1
  -2   2   5 1030.96 49.5771   4
   2   2  -5 1035.66 48.5939   1
   2   2  -5 1044.82 50.2989   2
   2   2  -5 962.443 48.4667   4
  -1  -2   5 1285.81 57.5044   5
   1  -2  -5 1245.23 56.3634   2
  -1  -2   5 1178.88 56.8854   1
  -1  -2   5 1225.64 57.3972   4
   1  -2  -5 1258.30 56.5535   4
   1  -2  -5 1229.33 56.3295   1
   1  -2  -5 1189.16 56.2182   5
   1   2  -5 1196.04 56.0240   1
  -1   2   5 1180.67 55.9963   1
   1   2  -5 1129.77 56.6628   2
   1   2  -5 1214.89 56.0176   4
   1   2  -5 1216.26 55.9927   5
  -1   2   5 1173.41 56.4525   4
   0  -2  -5 2809.65 125.699   4
   0  -2   5 2511.83 125.682   1
   0  -2   5 2525.87 125.725   4
   0  -2  -5 2736.70 125.517   5
   0  -2   5 2779.40 125.946   3
   0  -2  -5 2680.33 125.656   1
   0   2   5 2670.44 125.230   1
   0   2  -5 2689.97 125.395   1
   0   2  -5 2888.24 125.320   5
   0   2  -5 2835.72 125.334   4
   0   2   5 2893.99 125.431   4
   0   2   5 2797.94 125.203   5
  -1  -2  -5 9.22973 1.06210   5
  -1  -2  -5 8.79376 1.26315   4
   1   2   5 9.10130 1.42760   2
  -1   2  -5 6.92880 0.90012   1
  -1   2  -5 6.42378 0.84604   4
  -2  -2  -5 443.215 20.7743   4
   2  -2   5 431.878 21.2855   2
  -2  -2  -5 426.745 20.9540   1
  -2   2  -5 414.430 19.9933   4
   2   2   5 438.874 22.4620   2
  -3  -2  -5 123.302 7.60008   4
   3  -2   5 118.988 7.99692   2
  -3  -2  -5 122.914 7.32546   1
   3   2   5 119.948 8.97846   2
   4  -2   5 3.11776 2.05094   2
   4   2   5 1.11019 1.87479   2
   5  -2   5 19.6044 4.86955   2
  -5  -3   5 27.8856 4.52411   4
  -5  -3   5 33.1813 6.90394   5
   5  -3  -5 29.2287 4.39684   2
  -5  -3   5 27.0470 3.31085   1
  -5   3   5 23.4859 2.37403   1
  -5   3   5 24.6021 4.67023   5
  -5   3   5 22.4061 3.49105   4
   5   3  -5 34.0550 5.56806   2
  -4  -3   5 7.68006 2.79950   4
   4  -3  -5 0.61240 2.76970   2
  -4  -3   5 2.59857 2.13802   1
  -4   3   5 3.39507 1.14236   1
  -4   3   5 2.34798 2.06363   4
  -3  -3   5 723.135 37.8914   5
  -3  -3   5 746.866 38.0503   4
   3  -3  -5 721.501 36.6178   2
  -3  -3   5 722.178 36.7132   1
  -3   3   5 699.966 34.8812   1
   3   3  -5 736.027 38.0373   2
  -3   3   5 692.038 36.6340   5
  -3   3   5 804.355 36.5891   4
  -2  -3   5 10.0876 2.33278   1
  -2  -3   5 10.0492 2.98601   4
   2  -3  -5 9.85451 2.13989   2
  -2  -3   5 8.86350 2.64999   5
  -2   3   5 9.41563 2.06678   4
   2   3  -5 13.5149 2.57347   2
   2   3  -5 10.7422 1.42982   1
   2   3  -5 8.33955 1.39632   4
  -2   3   5 9.43165 2.37201   5
  -2   3   5 8.99631 1.44213   1
   1  -3  -5 0.30583 0.99678   4
   1  -3  -5 1.18265 0.90766   1
  -1  -3   5 1.12635 1.19535   1
  -1  -3   5 2.60001 1.55074   4
   1  -3  -5 0.64024 1.06303   3
  -1  -3   5 0.12299 1.11408   3
   1  -3  -5 2.12987 0.84373   5
   1  -3  -5 1.35818 2.19954   2
  -1   3   5 0.27161 1.20897   5
  -1   3   5 1.59731 0.61616   1
  -1   3   5 1.87787 1.08577   4
   1   3  -5 1.86473 0.65791   4
   1   3  -5 1.43448 1.07359   2
   1   3  -5 1.55783 0.63024   1
   0  -3  -5 5.06973 1.28631   4
   0  -3   5 6.68731 1.98881   3
   0  -3   5 6.11773 1.51370   1
   0  -3   5 4.30231 1.26831   4
   0  -3  -5 4.53215 1.14172   1
   0  -3  -5 4.42716 0.98994   5
   0   3  -5 5.53489 0.93547   5
   0   3  -5 4.42409 0.82657   4
   0   3   5 4.49663 0.87257   4
   0   3  -5 4.16394 0.82375   1
   0   3   5 4.60658 0.77513   5
   0   3   5 6.12911 0.91475   1
  -1  -3  -5 917.465 40.4846   4
  -1  -3  -5 845.264 39.9642   5
  -1  -3  -5 858.861 40.3561   1
   1   3   5 825.782 40.9427   2
  -1   3  -5 880.756 39.4361   5
   1   3   5 750.874 39.4949   1
  -1   3  -5 865.150 39.6385   1
  -1   3  -5 877.071 39.5255   4
   2  -3   5 233.134 13.0167   2
  -2  -3  -5 261.942 13.2142   4
  -2  -3  -5 258.586 13.1217   1
  -2  -3  -5 246.150 12.4804   5
   2   3   5 252.882 14.2746   2
  -2   3  -5 240.873 11.9204   1
  -2   3  -5 233.256 11.7526   4
   3  -3   5 14.3065 2.86625   2
  -3  -3  -5 11.5606 2.38873   1
  -3  -3  -5 16.8456 3.03062   3
  -3  -3  -5 16.6104 3.61645   4
   3   3   5 13.6023 3.23429   2
  -3   3  -5 16.5660 1.26258   4
   4  -3   5 33.4751 4.57419   2
   4   3   5 41.7437 5.23330   2
   5  -4  -5 16.8623 4.24324   2
  -5  -4   5 21.9711 4.15526   5
  -5  -4   5 18.6321 3.16145   1
  -5   4   5 12.4585 2.67283   5
   5   4  -5 28.3333 5.40286   2
  -5   4   5 18.6851 2.62335   1
  -4  -4   5 11.1517 3.73105   5
   4  -4  -5 13.2721 3.49534   2
  -4  -4   5 12.9690 3.66197   4
  -4  -4   5 10.1947 2.80698   1
  -4   4   5 14.0871 3.24554   4
  -4   4   5 13.8737 1.97389   1
   4   4  -5 9.64499 3.50891   2
  -3  -4   5 286.805 18.0611   5
   3  -4  -5 297.085 16.6094   2
  -3  -4   5 289.289 18.4818   4
  -3  -4   5 278.716 16.7476   1
  -3   4   5 275.143 14.6468   1
  -3   4   5 301.604 16.1338   4
   3   4  -5 282.762 17.9782   2
   2  -4  -5 163.687 9.08340   1
  -2  -4   5 144.368 10.6508   4
  -2  -4   5 153.009 10.7169   5
   2  -4  -5 159.279 9.69836   2
  -2  -4   5 149.907 9.96085   1
  -2   4   5 156.397 9.04107   4
   2   4  -5 144.439 8.21943   1
  -2   4   5 159.518 9.16433   5
   2   4  -5 133.367 8.22742   4
   2   4  -5 143.896 10.1634   2
  -2   4   5 150.538 8.12318   1
  -1  -4   5 3684.37 177.826   1
   1  -4  -5 4085.06 177.327   1
   1  -4  -5 3671.73 177.085   5
  -1  -4   5 3269.03 176.626   3
   1  -4  -5 3914.69 177.080   3
  -1  -4   5 3953.86 178.412   5
  -1  -4   5 3992.63 178.595   4
   1  -4  -5 3758.21 177.885   4
  -1   4   5 4158.89 176.427   5
   1   4  -5 4016.35 176.374   5
   1   4  -5 3744.65 177.780   2
  -1   4   5 3923.07 177.212   4
   1   4  -5 3864.22 176.363   4
   1   4  -5 3765.44 176.352   1
   0  -4  -5 459.536 22.7754   1
   0  -4   5 513.559 22.9714   3
   0  -4  -5 449.138 23.1567   4
   0  -4  -5 442.212 23.2535   3
   0  -4   5 444.713 22.9155   1
   0  -4   5 407.450 22.6537   4
   0  -4  -5 460.738 22.6307   5
   0   4  -5 469.397 21.9858   1
   0   4   5 449.535 21.6844   4
   0   4   5 434.198 21.7149   1
   0   4  -5 462.070 21.8334   5
   0   4   5 500.736 21.6150   5
   0   4  -5 465.381 21.8779   4
  -1  -4  -5 299.075 17.4288   3
   1  -4   5 352.886 17.1730   3
  -1  -4  -5 311.529 16.3770   5
  -1  -4  -5 329.983 17.1308   4
  -1  -4  -5 326.202 16.8014   1
  -1   4  -5 344.349 15.6654   4
   1   4   5 307.413 15.6783   1
  -1   4  -5 333.200 15.5515   5
  -1   4  -5 313.559 15.7056   1
  -2  -4  -5 9.96458 2.62871   3
  -2  -4  -5 10.9969 1.96686   5
  -2  -4  -5 10.7643 2.33065   1
  -2  -4  -5 8.83479 2.21195   4
  -2   4  -5 9.23685 1.20209   1
   2   4   5 10.8920 2.78861   2
  -2   4  -5 10.4104 1.20346   4
  -3  -4  -5 29.5140 4.60799   4
  -3  -4  -5 37.5634 3.97298   5
  -3  -4  -5 36.5340 4.27490   1
  -3  -4  -5 29.7252 3.84467   3
   3  -4   5 29.7084 5.61001   2
  -3   4  -5 35.8776 2.30148   4
   3   4   5 35.9959 4.77220   2
   4  -4   5 20.5750 4.94775   2
   4   4   5 33.2427 4.72952   2
  -4  -5   5 139.411 10.3807   1
   4  -5  -5 132.205 11.3610   2
  -4  -5   5 141.888 11.9089   4
  -4  -5   5 157.956 12.1635   5
  -4   5   5 160.530 8.68263   1
   4   5  -5 173.502 12.9773   2
  -4   5   5 167.431 9.91706   4
   3  -5  -5 174.256 12.0490   2
  -3  -5   5 175.770 13.1010   5
  -3  -5   5 166.341 12.8421   4
  -3  -5   5 171.300 11.6893   1
   3   5  -5 168.012 12.7854   2
  -3   5   5 165.227 9.26905   1
  -3   5   5 176.707 10.4691   4
  -3   5   5 151.941 10.3561   5
   2  -5  -5 404.576 21.0458   1
  -2  -5   5 420.129 23.2956   5
  -2  -5   5 375.365 22.9901   4
  -2  -5   5 387.556 22.2948   1
  -2   5   5 441.432 20.6233   5
  -2   5   5 407.479 19.9160   1
  -2   5   5 415.062 20.6080   4
   2   5  -5 403.719 20.2048   1
   2   5  -5 396.398 22.7770   2
   1  -5  -5 1.24808 1.67822   4
   1  -5  -5 2.42695 1.35554   1
  -1  -5   5 2.01776 2.16105   4
   1  -5  -5 2.22722 1.30898   3
  -1  -5   5 1.33630 1.56997   3
  -1  -5   5 2.42484 1.68729   1
  -1  -5   5 0.31528 1.97634   5
  -1   5   5 2.13789 0.84041   1
  -1   5   5 2.35838 0.78494   5
   1   5  -5 2.58883 0.89538   1
   1   5  -5 1.25675 0.69968   5
   1   5  -5 2.09028 0.77888   4
  -1   5   5 2.41509 0.89324   4
   0  -5   5 266.792 15.0676   1
   0  -5  -5 292.149 15.1170   5
   0  -5  -5 266.782 15.2578   3
   0  -5  -5 275.378 15.0920   1
   0  -5  -5 263.235 15.6943   4
   0  -5   5 288.738 15.0776   3
   0   5  -5 265.131 13.7453   5
   0   5   5 290.982 13.6142   4
   0   5  -5 272.618 13.8985   1
   0   5   5 289.908 13.5091   5
   0   5   5 278.520 13.7482   1
   0   5  -5 280.892 13.8592   4
   1  -5   5 939.671 42.0358   3
  -1  -5  -5 851.789 41.8439   1
  -1  -5  -5 817.749 41.4910   5
  -1  -5  -5 870.427 42.4288   3
  -1  -5  -5 851.276 42.6260   4
  -1   5  -5 874.790 40.2538   4
  -1   5  -5 839.013 40.1134   5
   1   5   5 856.509 40.3091   1
  -1   5  -5 831.993 40.2969   1
  -2  -5  -5 174.423 10.8649   5
  -2  -5  -5 172.381 11.4348   3
  -2  -5  -5 185.286 11.2718   1
  -2  -5  -5 185.945 12.1893   4
   2   5   5 168.187 11.8433   2
  -2   5  -5 181.539 9.14484   5
  -2   5  -5 190.376 9.29844   4
  -2   5  -5 185.864 9.94602   1
  -3  -5  -5 42.6466 4.89137   5
  -3  -5  -5 34.8271 5.65427   4
  -3  -5  -5 39.2815 4.99789   1
  -3  -5  -5 45.4180 4.51423   3
   3   5   5 43.9572 5.55848   2
  -3   5  -5 38.2900 2.76859   4
  -3   5  -5 43.4745 2.83107   1
  -4  -5  -5 14.2605 4.25053   4
  -4  -5  -5 20.4399 3.85068   5
   4   5   5 24.3033 4.37695   2
  -4   5  -5 17.1012 1.72545   4
  -4  -6   5 50.2564 6.45010   4
  -4  -6   5 37.4525 5.07316   1
  -4  -6   5 37.3138 6.47834   5
  -4   6   5 37.5269 3.96319   5
   4   6  -5 46.3415 7.08070   2
  -4   6   5 44.9042 3.99794   4
  -4   6   5 41.2428 3.32166   1
  -3  -6   5 19.2173 4.62959   5
  -3  -6   5 20.0034 4.76779   4
  -3  -6   5 31.8117 4.89137   1
  -3   6   5 26.7159 3.45024   4
  -3   6   5 31.5211 3.58101   5
   3   6  -5 27.1346 5.22674   2
  -3   6   5 31.5506 2.85920   1
  -2  -6   5 1223.01 62.6897   5
  -2  -6   5 1227.21 62.9729   4
  -2  -6   5 1239.44 62.1043   1
   2   6  -5 1215.83 62.7210   2
   2   6  -5 1246.54 59.4286   1
  -2   6   5 1371.92 59.2323   5
  -2   6   5 1263.14 59.0544   1
  -2   6   5 1289.57 59.4407   4
   1  -6  -5 23.1507 2.75818   3
  -1  -6   5 20.3369 3.92710   5
   1  -6  -5 20.1911 3.34071   5
  -1  -6   5 18.9125 3.80656   4
  -1  -6   5 25.6992 3.95859   1
   1  -6  -5 22.6386 4.09606   4
   1  -6  -5 23.0935 3.38084   1
   1   6  -5 24.2069 2.36919   1
   1   6  -5 24.9081 2.39935   4
  -1   6   5 22.7804 2.14096   1
  -1   6   5 23.8874 2.06886   5
   1   6  -5 25.7096 2.35713   5
  -1   6   5 19.4366 2.09082   4
   0  -6  -5 1020.86 50.8959   5
   0  -6   5 1115.15 51.0155   1
   0  -6  -5 1020.28 50.8637   1
   0  -6  -5 1015.94 51.9595   4
   0   6   5 1082.13 48.6800   5
   0   6  -5 1018.33 50.0411   5
   0   6   5 992.567 48.9038   1
   0   6  -5 1062.05 49.2623   1
   0   6  -5 1078.14 49.1753   4
   0   6   5 1055.76 48.7608   4
  -1  -6  -5 80.1720 7.63824   4
   1  -6   5 96.2227 7.10656   3
  -1  -6  -5 87.9562 6.99753   1
  -1  -6  -5 81.2649 6.77873   3
  -1  -6  -5 78.1225 6.74843   5
  -1   6  -5 95.5652 5.32817   5
  -1   6  -5 89.1979 5.39571   1
  -1   6  -5 96.5293 5.42567   4
   1   6   5 89.3398 5.30115   1
  -2  -6  -5 108.484 8.12186   5
  -2  -6  -5 100.746 8.85483   4
  -2  -6  -5 106.235 8.13382   1
  -2  -6  -5 100.307 7.67800   3
  -2   6  -5 95.2146 5.74902   4
   2   6   5 105.293 8.66132   2
  -2   6  -5 96.3011 5.67710   5
  -2   6  -5 97.1007 5.77807   1
  -3  -6  -5 300.092 17.2241   1
  -3  -6  -5 278.393 16.0110   3
  -3  -6  -5 285.213 18.3841   4
  -3  -6  -5 276.889 17.2422   5
   3   6   5 296.899 18.6283   2
  -3   6  -5 285.467 14.0167   1
  -3   6  -5 258.150 13.8888   5
  -3   6  -5 277.818 14.0145   4
  -4  -6  -5 1.18374 2.41044   5
   4   6   5 3.05851 2.30566   2
  -4   6  -5 1.44078 0.77272   4
  -4  -7   5 59.2136 10.9135   5
  -4  -7   5 66.0855 8.64611   1
   4   7  -5 78.7110 9.37887   2
  -4   7   5 67.3587 5.40074   5
  -4   7   5 74.8493 4.74799   1
  -3  -7   5 17.4405 3.90400   1
  -3  -7   5 11.4558 3.83583   5
  -3  -7   5 10.3009 3.86163   4
  -3   7   5 15.6811 2.32870   5
   3   7  -5 11.0398 3.74236   2
  -3   7   5 16.1825 2.23821   1
  -3   7   5 13.7578 2.42459   4
  -2  -7   5 106.275 9.74312   5
  -2  -7   5 106.082 9.12091   1
  -2  -7   5 104.264 10.1492   4
  -2   7   5 113.002 6.66615   4
  -2   7   5 107.503 6.35420   5
   2   7  -5 105.998 6.82756   1
  -2   7   5 106.737 6.59757   1
   2   7  -5 108.918 9.87529   2
   1  -7  -5 35.2154 3.60054   3
  -1  -7   5 31.8490 6.03286   5
   1  -7  -5 36.3823 4.65185   1
  -1  -7   5 51.0651 5.55696   1
   1   7  -5 39.8040 3.24793   5
   1   7  -5 38.9202 3.28708   4
  -1   7   5 37.9687 2.83741   5
  -1   7   5 38.5131 3.04247   4
   1   7  -5 44.6818 3.54793   1
  -1   7   5 39.6059 3.18551   1
   0  -7  -5 516.518 27.3224   1
   0  -7  -5 526.501 27.4953   5
   0  -7   5 522.811 26.9660   1
   0  -7  -5 525.788 26.6199   3
   0  -7  -5 507.713 28.4702   4
   0   7  -5 507.703 25.0568   4
   0   7  -5 494.528 24.9752   5
   0   7   5 511.627 24.9067   1
   0   7  -5 510.468 25.2310   1
  -1  -7  -5 1.83200 1.97522   4
   1  -7   5 3.03439 2.89149   3
  -1  -7  -5 0.28570 1.50591   1
  -1  -7  -5 4.71720 1.98907   5
  -1  -7  -5 4.95131 2.23684   3
  -1   7  -5 1.81906 0.83877   4
  -1   7  -5 0.64863 0.77480   1
   1   7   5 2.03673 0.78992   1
  -1   7  -5 1.14125 0.81078   5
  -2  -7  -5 204.931 13.0819   3
  -2  -7  -5 213.041 14.0477   1
  -2  -7  -5 210.036 15.1895   4
  -2  -7  -5 214.404 14.1976   5
  -2   7  -5 211.487 11.1068   5
  -2   7  -5 208.467 11.2333   1
  -2   7  -5 219.478 11.2509   4
   2   7   5 223.895 14.9937   2
  -3  -7  -5 -0.6456 1.85451   5
  -3  -7  -5 1.33267 2.00220   1
  -3  -7  -5 3.75561 2.42116   4
  -3  -7  -5 0.11393 1.85076   3
  -3   7  -5 0.28626 0.60526   5
  -3   7  -5 0.20741 0.68202   4
  -3   7  -5 0.88032 0.84055   1
   3   7   5 2.76804 2.29874   2
  -4  -7  -5 24.9434 4.69423   5
   4   7   5 20.3849 3.73687   2
  -3  -8   5 10.9878 3.82681   5
  -3  -8   5 11.1645 4.50055   4
  -3  -8   5 10.8009 3.23796   1
   3   8  -5 10.6940 3.87380   2
  -3   8   5 13.4273 2.09682   1
  -3   8   5 13.8867 2.13914   5
  -3   8   5 14.7778 2.27973   4
  -2  -8   5 21.4751 4.75348   5
  -2  -8   5 24.5878 5.54628   4
  -2   8   5 33.8830 3.09719   5
   2   8  -5 33.7525 8.16443   2
  -2   8   5 33.3913 2.97376   4
   2   8  -5 31.5253 3.17101   1
  -2   8   5 33.5200 3.92121   1
   1  -8  -5 250.431 13.8007   3
   1  -8  -5 233.018 15.0774   1
  -1  -8   5 268.727 16.0719   1
   1   8  -5 262.957 16.4388   2
  -1   8   5 237.105 12.4065   5
   1   8  -5 264.352 13.4776   1
   1   8  -5 233.403 13.0706   4
   1   8  -5 221.702 12.8033   5
  -1   8   5 235.597 12.5363   4
  -1   8   5 244.149 12.9135   1
   0  -8  -5 88.9686 7.94295   1
   0  -8  -5 89.2808 8.58094   4
   0  -8  -5 93.2583 7.05736   3
   0  -8   5 88.8210 7.45900   1
   0  -8  -5 86.5335 7.63419   5
   0   8   5 93.9290 5.78002   1
   0   8  -5 86.6758 5.75525   4
   0   8  -5 94.3235 6.08472   1
   0   8  -5 89.8060 5.79296   5
  -1  -8  -5 4.28494 2.48432   5
  -1  -8  -5 6.27448 3.24373   4
  -1  -8  -5 1.90495 2.00460   1
  -1  -8  -5 8.11192 2.77201   3
   1  -8   5 0.65957 2.57108   3
  -1   8  -5 11.3518 1.82419   5
  -1   8  -5 11.0255 1.77456   1
   1   8   5 6.64546 1.29768   1
  -2  -8  -5 598.221 31.0989   3
  -2  -8  -5 591.599 32.9749   5
  -2  -8  -5 601.751 32.6794   1
  -2  -8  -5 585.151 34.2092   4
  -2   8  -5 595.409 29.2551   1
   2   8   5 658.946 34.2157   2
  -2   8  -5 589.859 29.2164   4
  -2   8  -5 607.048 29.1598   5
  -3  -8  -5 10.7562 2.86001   3
  -3  -8  -5 6.12333 2.71136   1
  -3  -8  -5 7.44353 3.13256   5
   3   8   5 8.07652 3.19896   2
  -3   8  -5 5.56732 1.26716   5
  -3   8  -5 5.44428 1.14363   4
  -3  -9   5 15.8155 4.82347   5
  -3  -9   5 34.6937 6.65999   1
   3   9  -5 27.6525 5.91239   2
  -3   9   5 26.2778 3.87236   1
  -3   9   5 22.8153 3.45203   5
  -3   9   5 17.7010 2.35473   4
   2  -9  -5 2.80657 3.21929   3
  -2  -9   5 6.82892 3.19753   1
   2   9  -5 8.39959 3.33729   2
  -2   9   5 6.31829 1.30889   5
   2   9  -5 6.40201 1.73999   1
  -2   9   5 6.52467 1.47079   1
  -2   9   5 6.39660 1.44356   4
  -1  -9   5 74.2873 7.25998   1
  -1   9   5 65.6937 4.71345   5
   1   9  -5 66.4369 7.19476   2
   1   9  -5 65.9342 5.10637   1
  -1   9   5 72.4963 4.95510   1
  -1   9   5 61.2402 4.47051   4
  -1  -9  -5 86.0560 7.05263   3
  -1  -9  -5 83.7516 8.21821   5
  -1  -9  -5 88.9451 8.44131   1
  -1  -9  -5 83.5901 9.21551   4
  -1   9  -5 90.0611 5.84101   5
   1   9   5 107.595 9.33640   2
   1   9   5 88.1488 5.67743   1
  -1   9  -5 89.0388 5.95885   1
  -1   9  -5 86.7502 5.82670   4
  -2  -9  -5 26.3322 4.98330   1
  -2  -9  -5 19.2427 5.24179   4
  -2  -9  -5 29.7886 5.41809   5
  -2  -9  -5 29.1197 3.80796   3
  -2   9  -5 31.3167 2.85948   1
   2   9   5 36.9777 5.57797   2
  -2   9  -5 33.5305 2.88055   4
  -2   9  -5 31.5073 2.88267   5
  -3  -9  -5 0.06028 1.74614   5
  -3  -9  -5 -0.0941 1.76998   1
  -3  -9  -5 -1.9278 1.45819   3
   3   9   5 4.90574 2.66479   2
  -3   9  -5 1.14257 0.93781   1
  -3   9  -5 0.27140 0.65134   5
  -2 -10   5 17.6929 3.75934   1
  -2  10   5 14.5713 2.13384   1
   2  10  -5 14.2196 2.28092   1
   2  10  -5 13.1270 3.93233   2
  -2  10   5 14.5850 2.33560   5
   1 -10  -5 49.7188 6.52569   1
  -1 -10   5 66.0499 6.85364   1
  -1  10   5 71.3016 4.88197   1
   1  10  -5 64.5290 7.07907   2
   1  10  -5 66.2460 4.98093   1
   0 -10  -5 1.41911 2.04445   1
   0 -10   5 -0.9269 2.46259   3
   0 -10  -5 3.35350 2.00396   3
   0  10  -5 3.55708 1.26355   4
   0  10   5 1.17565 0.85211   1
   0  10  -5 0.75192 0.88594   5
   0  10  -5 1.73820 1.03128   1
  -1 -10  -5 69.5995 7.57632   1
  -1 -10  -5 80.4951 6.32198   3
  -1 -10  -5 64.0678 7.70613   5
  -1  10  -5 77.1656 5.21951   5
   1  10   5 91.1762 8.37009   2
  -1  10  -5 82.6397 5.43550   1
  -1  10  -5 73.7498 5.12475   4
   1  10   5 68.3180 4.95661   1
  -2 -10  -5 4.73783 2.67277   5
  -2 -10  -5 12.5009 3.13322   3
  -2 -10  -5 16.0420 3.49375   1
  -2  10  -5 12.4155 1.70838   1
  -2  10  -5 10.0172 1.79953   4
   2  10   5 8.80323 3.18983   2
  -2  10  -5 11.7816 2.01859   5
  -1 -11   5 2.88233 3.20551   1
  -1 -11   5 1.17314 1.78391   3
   1 -11  -5 2.36003 2.08203   3
   1  11  -5 2.67727 1.72885   2
  -1  11   5 0.73558 0.87851   1
   0 -11  -5 -0.1468 1.96710   3
   0 -11  -5 0.67090 2.34647   1
   0  11  -5 7.46927 1.61102   5
   0  11  -5 3.38230 2.12301   2
   0  11  -5 6.73626 2.19980   1
   0  11   5 4.83140 1.09928   1
  -1 -11  -5 44.7807 5.61386   1
  -1  11  -5 49.5811 3.87334   1
  -1  11  -5 50.4612 3.76390   5
   1  11   5 45.7566 5.64914   2
  -5   0   6 -3.4374 2.96021   5
   5   0  -6 2.41535 1.77124   2
  -5   0   6 -0.7246 1.20196   1
   4   0  -6 314.797 19.0604   2
  -4   0   6 332.475 18.9638   4
  -4   0   6 283.655 16.8520   1
  -4   0   6 343.616 19.7459   5
   3   0  -6 1.19352 1.51436   2
  -3   0   6 -0.7762 1.14421   1
  -3   0   6 -0.5497 1.83043   5
  -2   0   6 357.201 18.8697   5
   2   0  -6 326.683 17.3477   4
  -2   0   6 348.473 18.7152   4
   2   0  -6 355.478 17.4240   1
  -2   0   6 367.235 18.0942   1
   2   0  -6 367.124 18.5435   2
   1   0  -6 0.04144 0.42710   5
   1   0  -6 0.16449 0.39216   1
  -1   0   6 -1.5815 1.50988   5
  -1   0   6 -0.3043 1.03497   4
  -1   0   6 0.67453 0.86665   1
   1   0  -6 -0.0419 0.47771   4
   0   0   6 487.270 23.4819   1
   0   0   6 455.583 23.5640   4
   0   0  -6 508.204 23.5586   5
   0   0  -6 523.664 24.3271   1
   0   0  -6 522.955 23.6028   4
  -1   0  -6 0.12755 0.43257   4
  -1   0  -6 0.11635 0.48464   1
  -2   0  -6 527.137 23.7165   4
   2   0   6 486.197 24.8952   2
   3   0   6 1.01213 1.35694   2
   4   0   6 715.754 36.2759   2
   5  -1  -6 22.4460 4.92654   2
  -5  -1   6 17.5332 2.55425   1
  -5  -1   6 13.0181 4.04383   5
   5   1  -6 28.0838 5.19984   2
  -5   1   6 7.41954 3.67345   5
  -5   1   6 13.9435 2.03163   1
  -5   1   6 17.6720 3.75813   4
  -4  -1   6 21.3114 4.50743   5
  -4  -1   6 16.0152 3.23085   1
   4  -1  -6 19.0155 3.89436   2
  -4  -1   6 18.8953 3.97041   4
  -4   1   6 19.9385 4.20500   4
  -4   1   6 20.8624 2.73920   1
   4   1  -6 24.1310 4.16081   2
  -4   1   6 17.2023 4.52168   5
  -3  -1   6 38.4307 4.10731   1
  -3  -1   6 39.4100 5.19956   5
   3  -1  -6 38.8676 4.55553   2
  -3  -1   6 36.5898 5.07766   4
  -3   1   6 40.2877 3.75868   1
  -3   1   6 43.1593 5.91141   5
  -3   1   6 42.1157 4.94317   4
   3   1  -6 37.8272 4.60619   2
  -2  -1   6 412.391 20.7884   1
   2  -1  -6 367.657 19.9868   4
  -2  -1   6 413.377 21.5781   5
   2  -1  -6 409.311 20.8656   2
  -2  -1   6 423.252 21.5455   4
   2  -1  -6 425.308 20.0262   1
  -2   1   6 408.626 20.2486   1
  -2   1   6 414.367 21.0096   4
   2   1  -6 378.544 20.8480   2
   2   1  -6 382.404 19.7697   4
  -2   1   6 452.583 21.5051   5
   2   1  -6 405.581 19.8580   1
  -1  -1   6 1.05231 1.57672   5
   1  -1  -6 0.70737 0.55229   5
   1  -1  -6 1.47085 0.79483   2
  -1  -1   6 0.17655 0.86996   1
   1  -1  -6 0.65170 0.60841   1
  -1  -1   6 0.29658 1.12147   4
   1  -1  -6 0.51042 0.57384   4
  -1   1   6 0.77430 0.78531   1
   1   1  -6 -0.1474 0.40000   5
  -1   1   6 0.33030 1.04993   4
  -1   1   6 -0.4996 1.92596   5
   1   1  -6 0.05077 0.48659   1
   1   1  -6 0.20682 0.47335   4
   0  -1  -6 15.0663 1.59189   4
   0  -1   6 20.7840 2.46987   4
   0  -1   6 14.9641 1.63039   1
   0  -1  -6 14.4515 1.48326   1
   0  -1  -6 15.8047 1.47077   5
   0   1  -6 17.5131 1.53231   4
   0   1  -6 16.8726 1.58507   1
   0   1   6 12.6333 1.29557   1
   0   1  -6 15.0696 1.40325   5
   0   1   6 12.4281 1.46614   4
  -1  -1  -6 232.820 10.8848   4
  -1  -1  -6 211.531 10.9369   1
  -1  -1  -6 220.375 10.7106   5
  -1   1  -6 224.798 10.6671   4
  -1   1  -6 210.244 10.7462   1
  -2  -1  -6 872.114 41.6015   1
  -2  -1  -6 939.650 41.4473   4
   2   1   6 873.885 42.6769   2
  -2   1  -6 920.708 41.0999   4
  -2   1  -6 843.945 41.2382   1
  -3  -1  -6 8.98127 1.61759   4
   3   1   6 7.05029 1.91204   2
   4  -1   6 0.23897 2.06371   2
   4   1   6 6.18728 2.45141   2
  -5  -2   6 38.1102 4.06667   1
  -5  -2   6 53.1085 6.09165   4
   5  -2  -6 47.8689 5.30760   2
   5   2  -6 53.1963 6.28813   2
  -5   2   6 49.3078 3.64639   1
  -5   2   6 50.5302 5.97114   4
  -4  -2   6 56.0138 5.78409   1
  -4  -2   6 66.0497 6.90206   4
   4  -2  -6 61.6633 7.16505   2
  -4   2   6 60.2455 4.66490   1
   4   2  -6 62.8659 7.69473   2
  -4   2   6 70.3577 6.84467   4
  -3  -2   6 170.351 12.1699   5
   3  -2  -6 185.871 11.3929   2
  -3  -2   6 182.018 11.1140   1
  -3  -2   6 186.306 12.2932   4
  -3   2   6 163.146 9.92501   1
   3   2  -6 171.059 11.6859   2
  -3   2   6 192.297 11.5838   4
  -2  -2   6 8.10142 2.07780   1
  -2  -2   6 7.27425 2.30553   5
   2  -2  -6 8.33901 1.78958   4
   2  -2  -6 6.86028 1.79427   2
  -2  -2   6 13.1595 2.77856   4
   2  -2  -6 10.6095 1.82104   1
  -2   2   6 6.35424 2.42071   5
   2   2  -6 10.5851 2.44997   2
   2   2  -6 11.2021 1.50408   1
  -2   2   6 8.82165 2.13730   4
  -2   2   6 7.06860 1.50400   1
   2   2  -6 9.23033 1.55326   4
   1  -2  -6 3.96946 1.13325   1
  -1  -2   6 1.73474 1.02961   1
  -1  -2   6 5.07659 1.76222   4
   1  -2  -6 4.55218 1.12293   4
   1  -2  -6 3.98348 0.94952   5
  -1  -2   6 4.77789 2.05631   5
   1  -2  -6 5.77987 1.69336   2
  -1   2   6 4.82464 0.95715   1
  -1   2   6 0.20264 1.46356   5
   1   2  -6 3.08484 1.09770   2
   1   2  -6 2.88877 0.78651   4
   1   2  -6 3.27649 0.81353   1
  -1   2   6 3.52011 1.24965   4
   1   2  -6 2.93079 0.79706   5
   0  -2  -6 1819.62 79.9634   4
   0  -2  -6 1758.45 79.9394   1
   0  -2   6 1490.77 79.8339   4
   0  -2   6 1667.25 79.8608   1
   0  -2  -6 1842.91 79.7919   5
   0   2   6 1642.23 79.4520   4
   0   2  -6 1765.18 79.5603   4
   0   2  -6 1787.20 79.6538   1
   0   2  -6 1774.90 79.5014   5
   0   2   6 1719.11 79.3930   1
  -1  -2  -6 131.166 7.16633   1
  -1  -2  -6 131.436 6.85917   5
  -1  -2  -6 129.597 7.05836   4
   1   2   6 124.194 7.34918   2
  -1   2  -6 133.357 6.64026   4
  -1   2  -6 135.149 6.79085   1
   2  -2   6 -0.2556 1.04778   2
  -2  -2  -6 -0.9415 0.72269   1
  -2  -2  -6 0.48290 0.65545   4
   2   2   6 0.26352 1.09271   2
  -2   2  -6 0.28729 0.41289   4
  -2   2  -6 0.22838 0.46589   1
   3  -2   6 665.608 33.7839   2
   3   2   6 711.849 35.3211   2
  -4  -2  -6 70.8357 8.02517   3
   4  -2   6 65.7929 6.04702   2
  -4  -2  -6 51.3906 8.24646   4
   4   2   6 66.1141 6.46531   2
  -5  -3   6 1.53547 2.97327   5
  -5  -3   6 1.65497 1.71036   1
  -5  -3   6 8.99865 2.58075   4
   5  -3  -6 0.90115 2.32365   2
   5   3  -6 4.13850 2.43501   2
  -5   3   6 3.07292 1.54709   1
  -5   3   6 6.25024 2.38994   4
  -5   3   6 3.12630 2.10356   5
  -4  -3   6 10.0146 2.61302   1
  -4  -3   6 11.4264 3.52887   5
  -4  -3   6 7.97083 3.28457   4
   4  -3  -6 10.7436 3.04563   2
  -4   3   6 8.26526 3.66434   5
  -4   3   6 9.36938 3.04135   4
   4   3  -6 7.61567 2.73428   2
  -4   3   6 9.01992 1.93817   1
   3  -3  -6 6.13710 2.30918   2
  -3  -3   6 5.24317 2.66511   5
  -3  -3   6 6.32974 2.06900   1
  -3  -3   6 6.38745 2.87902   4
  -3   3   6 16.1749 3.86132   5
   3   3  -6 6.81986 2.63725   2
  -3   3   6 10.7924 1.89912   1
  -2  -3   6 126.613 8.97201   5
  -2  -3   6 115.241 8.79189   4
  -2  -3   6 114.936 8.11375   1
   2  -3  -6 120.421 7.73620   2
   2  -3  -6 133.296 7.44640   1
   2   3  -6 113.036 8.13509   2
  -2   3   6 121.513 6.85061   1
   2   3  -6 117.028 6.81751   1
  -2   3   6 118.067 7.64639   4
   2   3  -6 119.572 6.83499   4
  -2   3   6 122.735 8.14795   5
   1  -3  -6 59.2967 4.10634   1
   1  -3  -6 53.0270 4.22843   4
  -1  -3   6 50.8323 4.96668   4
  -1  -3   6 50.8194 5.16387   5
  -1  -3   6 49.6345 4.36012   1
   1  -3  -6 56.8710 4.06557   5
   1   3  -6 51.6407 3.50577   4
   1   3  -6 51.5225 3.51355   1
  -1   3   6 55.8025 3.42559   1
  -1   3   6 63.0911 4.19460   5
   1   3  -6 46.8066 4.03354   2
  -1   3   6 57.6333 4.05726   4
   1   3  -6 51.1315 3.47134   5
   0  -3  -6 240.117 12.7035   4
   0  -3  -6 239.401 11.8671   5
   0  -3   6 219.646 11.9756   1
   0  -3   6 236.232 12.2917   3
   0  -3  -6 240.890 12.0921   1
   0   3   6 229.874 11.3138   1
   0   3  -6 221.318 11.3824   5
   0   3  -6 231.424 11.4439   4
   0   3  -6 238.333 11.5986   1
   0   3   6 212.421 11.2332   4
  -1  -3  -6 619.952 28.7341   4
  -1  -3  -6 587.758 28.2557   5
  -1  -3  -6 606.406 28.6839   1
   1   3   6 560.717 28.9916   2
  -1   3  -6 642.899 27.8998   4
   1   3   6 498.796 27.6384   1
  -1   3  -6 624.101 27.7623   5
  -1   3  -6 599.010 27.9501   1
  -2  -3  -6 327.433 16.0785   5
  -2  -3  -6 322.732 16.5284   1
   2  -3   6 285.558 16.3866   2
  -2  -3  -6 328.927 16.5995   4
   2   3   6 315.958 17.5454   2
  -2   3  -6 329.384 15.2866   4
  -2   3  -6 318.484 15.4040   1
  -3  -3  -6 217.977 12.9802   1
  -3  -3  -6 242.198 14.2428   3
   3  -3   6 230.471 13.3218   2
  -3  -3  -6 215.701 13.4951   4
   3   3   6 236.501 14.4270   2
  -3   3  -6 247.705 11.3512   4
   4  -3   6 40.2228 6.23866   2
  -4  -3  -6 48.6574 5.03122   3
  -4  -3  -6 64.6884 6.05390   4
   4   3   6 57.0816 6.06590   2
  -4  -4   6 4.93043 2.70573   5
  -4  -4   6 4.69163 2.00069   1
   4  -4  -6 4.02706 3.03056   2
  -4  -4   6 7.69052 3.42252   4
  -4   4   6 0.73806 2.27308   5
  -4   4   6 5.60750 1.44166   1
  -4   4   6 10.4832 2.71985   4
   4   4  -6 9.17457 3.49956   2
  -3  -4   6 2.46229 2.07861   1
   3  -4  -6 6.56033 2.79547   2
  -3  -4   6 1.96457 2.49583   4
  -3  -4   6 6.55295 3.05259   5
  -3   4   6 5.72848 2.37849   4
   3   4  -6 4.88168 2.28885   2
  -3   4   6 5.49375 1.49888   1
   3   4  -6 1.57009 1.44720   1
  -3   4   6 1.10539 2.16477   5
  -2  -4   6 101.152 7.48024   1
  -2  -4   6 91.4969 8.00105   4
   2  -4  -6 97.1034 6.47049   1
  -2  -4   6 91.7749 8.04353   5
   2  -4  -6 103.310 7.83075   2
  -2   4   6 89.5274 5.59284   1
   2   4  -6 92.7967 5.74246   1
  -2   4   6 95.0409 6.63301   5
  -2   4   6 91.3389 6.49645   4
   2   4  -6 88.9401 7.23524   2
  -1  -4   6 1105.01 52.1726   5
   1  -4  -6 987.679 50.9217   3
  -1  -4   6 1096.14 52.2744   4
   1  -4  -6 1104.96 51.7927   4
  -1  -4   6 1052.09 51.6147   1
   1  -4  -6 1124.69 51.1149   1
   1  -4  -6 1065.51 50.9489   5
  -1   4   6 1234.88 50.2922   5
  -1   4   6 1035.97 49.9393   1
  -1   4   6 1089.16 50.3680   4
   1   4  -6 927.256 50.5510   4
   1   4  -6 1006.93 51.3313   2
   1   4  -6 1107.15 50.2267   5
   0  -4  -6 551.159 28.7268   5
   0  -4  -6 607.405 29.4804   4
   0  -4   6 591.602 29.0205   1
   0  -4  -6 610.895 29.1163   1
   0  -4  -6 559.102 29.6323   3
   0  -4   6 628.485 29.1592   3
   0   4   6 602.623 27.7269   5
   0   4   6 575.486 27.9286   1
   0   4  -6 600.808 28.1244   4
   0   4   6 585.307 27.8699   4
   0   4  -6 606.021 28.1257   5
   0   4  -6 597.897 28.2533   1
  -1  -4  -6 465.064 23.5435   1
  -1  -4  -6 499.235 23.9695   4
  -1  -4  -6 461.935 23.1403   5
  -1   4  -6 471.003 22.2926   5
   1   4   6 450.810 23.9850   2
   1   4   6 451.775 22.3179   1
  -1   4  -6 457.532 22.4568   1
  -1   4  -6 495.281 22.4416   4
  -2  -4  -6 566.998 28.1381   5
  -2  -4  -6 555.391 29.7438   3
  -2  -4  -6 595.683 29.2721   4
  -2  -4  -6 565.725 28.6297   1
  -2   4  -6 555.917 27.0839   1
   2   4   6 571.215 29.7094   2
  -2   4  -6 590.486 27.0264   4
  -3  -4  -6 80.9322 6.15511   5
  -3  -4  -6 77.6260 7.17182   4
  -3  -4  -6 77.4742 6.74037   3
  -3  -4  -6 82.0820 6.57459   1
  -3   4  -6 77.3396 4.43452   4
   3   4   6 74.7671 6.97184   2
  -4  -4  -6 0.64449 2.77636   3
  -4  -4  -6 4.39261 2.65317   4
   4   4   6 2.27683 2.45995   2
   4  -5  -6 12.5967 4.97123   2
  -4  -5   6 21.5397 4.56288   4
  -4  -5   6 20.7884 3.63474   1
  -4  -5   6 19.1081 4.40848   5
  -4   5   6 22.0829 2.43338   1
  -4   5   6 15.6714 3.19413   5
  -4   5   6 17.8769 3.32472   4
   4   5  -6 21.6583 4.77212   2
   3  -5  -6 18.8770 5.11060   2
  -3  -5   6 19.3401 3.84694   1
  -3  -5   6 20.4995 4.74806   4
  -3  -5   6 19.7271 4.73000   5
  -3   5   6 24.6085 3.59098   4
   3   5  -6 20.7437 4.34320   2
  -3   5   6 16.8390 2.28988   1
  -3   5   6 20.6876 3.76280   5
  -2  -5   6 90.5387 7.48718   1
  -2  -5   6 86.5098 8.21389   4
  -2  -5   6 86.8846 8.22105   5
   2  -5  -6 84.4756 6.30564   1
  -2   5   6 94.5026 6.13974   5
   2   5  -6 92.0083 5.73932   1
   2   5  -6 83.6324 7.38807   2
  -2   5   6 83.0070 5.39679   1
  -2   5   6 90.0043 6.11607   4
   1  -5  -6 228.871 12.6944   3
   1  -5  -6 227.034 13.8581   4
  -1  -5   6 224.661 13.9530   5
   1  -5  -6 250.617 13.3364   1
  -1  -5   6 210.316 13.8721   4
  -1  -5   6 234.623 13.6987   1
   1  -5  -6 216.296 12.9073   5
   1   5  -6 230.567 12.1550   1
   1   5  -6 231.491 12.0090   5
  -1   5   6 243.011 11.6636   5
   1   5  -6 213.017 13.3523   2
  -1   5   6 240.001 12.0986   1
  -1   5   6 250.061 12.0022   4
   1   5  -6 228.607 12.0410   4
   0  -5  -6 280.069 16.1314   1
   0  -5  -6 299.635 16.9751   4
   0  -5   6 290.609 16.0814   1
   0  -5  -6 285.721 16.0022   5
   0  -5  -6 304.880 16.6921   3
   0  -5   6 334.675 16.4135   3
   0   5  -6 296.481 15.0996   1
   0   5   6 299.513 14.6465   4
   0   5   6 297.398 14.8419   1
   0   5  -6 306.222 14.9953   5
   0   5  -6 306.891 14.9928   4
   0   5   6 303.711 14.5323   5
  -1  -5  -6 104.056 6.92506   5
  -1  -5  -6 102.239 7.19860   1
   1  -5   6 118.281 7.70460   3
  -1  -5  -6 103.748 7.82483   4
  -1  -5  -6 99.6987 7.61172   3
  -1   5  -6 102.659 5.83130   4
   1   5   6 95.5669 7.34575   2
  -1   5  -6 98.6904 5.71620   5
   1   5   6 98.3113 5.71394   1
  -1   5  -6 96.2765 5.83195   1
  -2  -5  -6 106.172 7.46654   5
  -2  -5  -6 112.817 7.81320   1
  -2  -5  -6 118.108 9.08995   4
  -2  -5  -6 114.374 8.41016   3
  -2   5  -6 102.204 5.95420   1
  -2   5  -6 93.8511 7.01341   4
  -2   5  -6 100.546 5.78860   5
   2   5   6 105.146 8.37297   2
  -3  -5  -6 179.632 11.7078   1
  -3  -5  -6 182.379 12.8215   4
  -3  -5  -6 169.036 13.5100   5
  -3  -5  -6 177.144 11.5135   3
  -3   5  -6 179.340 9.24473   4
   3   5   6 182.596 12.5640   2
  -4  -5  -6 0.01660 2.17860   5
  -4  -5  -6 0.02906 2.48149   3
   4   5   6 2.15846 2.63923   2
  -4  -6   6 97.8951 7.72496   1
  -4  -6   6 109.874 9.63665   5
  -4  -6   6 75.5575 8.25489   4
   4   6  -6 108.113 9.36446   2
  -4   6   6 85.9463 6.40561   4
  -4   6   6 99.6949 6.02509   1
  -4   6   6 82.3610 6.30072   5
  -3  -6   6 109.663 13.6294   1
  -3  -6   6 124.846 11.4191   5
  -3  -6   6 139.310 11.5502   4
   3   6  -6 134.565 11.3420   2
  -3   6   6 144.889 8.87519   4
  -3   6   6 153.292 9.67061   1
  -2  -6   6 414.169 23.5861   5
  -2  -6   6 426.195 23.1393   1
   2  -6  -6 357.357 22.5084   1
  -2  -6   6 392.585 23.7167   4
   2   6  -6 400.985 20.5245   1
  -2   6   6 417.868 20.1964   1
  -2   6   6 412.365 20.1634   5
   2   6  -6 420.004 23.4493   2
   1  -6  -6 2.13602 1.57435   5
   1  -6  -6 3.60216 1.70381   1
  -1  -6   6 0.29247 2.79872   5
  -1  -6   6 5.02637 1.97855   1
  -1  -6   6 0.80682 2.88767   4
  -1  -6   6 -0.3782 1.65311   3
   1   6  -6 2.34003 0.87322   4
   1   6  -6 2.25020 0.93045   1
   1   6  -6 2.82309 1.16157   5
  -1   6   6 3.75294 0.95590   4
  -1   6   6 2.84431 0.96552   1
   0  -6   6 154.819 10.3230   3
   0  -6  -6 171.203 10.5032   3
   0  -6  -6 165.279 10.9004   5
   0  -6   6 166.236 10.2245   1
   0  -6  -6 156.412 11.3102   4
   0   6  -6 166.580 9.02098   5
   0   6  -6 162.758 9.11324   1
   0   6  -6 166.527 9.01218   4
   0   6   6 173.568 8.85937   1
  -1  -6  -6 773.458 40.2256   3
  -1  -6  -6 816.326 40.1934   1
  -1  -6  -6 772.687 41.1458   4
  -1  -6  -6 770.109 39.8732   5
   1  -6   6 917.394 40.5373   3
   1   6   6 771.150 37.8579   1
  -1   6  -6 809.144 38.0628   4
  -1   6  -6 783.842 38.1047   1
  -1   6  -6 804.500 37.9491   5
  -2  -6  -6 -0.1897 1.29119   5
  -2  -6  -6 3.15341 2.00974   3
  -2  -6  -6 1.17213 2.04339   1
  -2  -6  -6 0.58187 2.06056   4
  -2   6  -6 1.31294 0.69814   5
   2   6   6 2.93950 1.90102   2
  -2   6  -6 3.70870 1.03274   1
  -2   6  -6 3.30346 1.01055   4
  -3  -6  -6 0.25931 1.86913   5
  -3  -6  -6 2.92641 2.51825   1
  -3  -6  -6 2.71703 2.25543   3
  -3   6  -6 1.73174 0.74594   5
  -3   6  -6 2.58815 1.12534   1
  -3   6  -6 2.08730 0.94163   4
   3   6   6 0.79749 1.89327   2
  -4  -6  -6 6.63111 2.97404   1
  -4  -6  -6 5.72340 3.03254   4
  -4  -6  -6 -0.0106 1.98553   5
   4   6   6 3.02151 3.07249   2
  -4  -7   6 3.61615 1.95969   1
  -4  -7   6 -3.5727 2.58410   5
  -4   7   6 -1.2834 1.13041   4
  -4   7   6 0.11264 0.95324   5
  -4   7   6 -0.5684 0.97767   1
  -3  -7   6 0.93282 2.60777   5
  -3  -7   6 3.33631 4.02518   4
  -3  -7   6 5.44348 2.42754   1
   3   7  -6 1.04587 2.39436   2
  -3   7   6 2.16623 1.09628   5
  -3   7   6 3.10154 1.39079   1
  -2  -7   6 0.43866 1.64572   3
  -2  -7   6 1.15784 2.95315   4
  -2  -7   6 3.31800 2.12152   1
   2  -7  -6 3.00383 2.17747   1
  -2  -7   6 -1.6881 2.90125   5
  -2   7   6 1.61191 1.02257   4
   2   7  -6 3.98934 2.44632   2
  -2   7   6 1.63938 1.02279   1
   2   7  -6 3.14035 1.21753   1
  -2   7   6 0.96365 0.78547   5
  -1  -7   6 461.538 24.4109   1
   1  -7  -6 436.294 22.5645   3
   1  -7  -6 424.931 23.7009   1
   1   7  -6 447.572 24.5118   2
   1   7  -6 447.529 21.8616   5
  -1   7   6 429.882 21.3543   4
   1   7  -6 448.959 22.1139   1
  -1   7   6 439.915 21.1405   5
  -1   7   6 422.592 21.5831   1
   1   7  -6 416.227 21.8526   4
   0  -7   6 12.1334 3.91578   1
   0  -7  -6 12.7588 3.35779   4
   0  -7  -6 11.5341 2.84843   1
   0  -7  -6 13.9056 3.64123   3
   0  -7  -6 11.0719 2.66939   5
   0   7   6 14.1911 1.73693   1
   0   7  -6 12.3162 1.90158   4
   0   7  -6 12.5480 1.95451   1
   0   7  -6 12.7591 1.89626   5
   1  -7   6 157.484 11.4263   3
  -1  -7  -6 178.645 11.9771   5
  -1  -7  -6 169.981 11.8158   1
  -1  -7  -6 171.583 11.3656   3
  -1  -7  -6 168.515 12.8886   4
  -1   7  -6 187.275 9.67348   5
  -1   7  -6 180.566 9.78714   1
  -1   7  -6 183.882 9.74001   4
   1   7   6 172.149 9.39260   1
  -2  -7  -6 5.10088 2.34775   5
  -2  -7  -6 6.91035 2.49392   3
  -2  -7  -6 6.93946 2.95559   4
  -2  -7  -6 7.17749 2.74688   1
   2   7   6 8.69681 2.94097   2
  -2   7  -6 6.72431 1.37380   5
  -2   7  -6 7.59730 1.53715   4
  -2   7  -6 9.09523 1.51933   1
  -3  -7  -6 1.91596 2.57410   4
  -3  -7  -6 1.20655 1.97897   3
  -3  -7  -6 4.74522 2.47004   1
  -3  -7  -6 -1.2899 1.66650   5
  -3   7  -6 0.34043 0.93735   1
  -3   7  -6 -0.0822 0.69197   4
  -3   7  -6 0.41197 0.70707   5
   3   7   6 -1.1960 1.95398   2
  -3  -8   6 513.983 27.2429   1
  -3  -8   6 434.859 27.6725   4
  -3  -8   6 458.672 27.4189   5
  -3   8   6 494.085 23.8990   5
  -3   8   6 461.182 24.0617   4
  -3   8   6 532.346 24.3644   1
   3   8  -6 507.745 28.3336   2
  -2  -8   6 49.2025 5.97030   1
  -2  -8   6 23.8294 5.67769   5
   2   8  -6 46.0395 5.98600   2
  -2   8   6 38.4024 3.38801   1
   2   8  -6 34.2802 3.39266   1
  -2   8   6 39.6180 3.08196   5
  -2   8   6 35.2068 3.32329   4
   1  -8  -6 118.671 8.08544   3
  -1  -8   6 137.410 9.92327   1
   1  -8  -6 115.823 9.17365   1
  -1   8   6 115.263 6.99347   4
   1   8  -6 120.891 7.40658   5
  -1   8   6 131.334 7.47286   1
   1   8  -6 131.463 7.89181   1
   1   8  -6 122.692 9.96879   2
  -1   8   6 126.325 6.93132   5
   1   8  -6 122.642 7.73172   4
   0  -8  -6 6.32648 2.77836   1
   0  -8  -6 4.12930 2.95306   4
   0  -8   6 0.43207 2.52755   3
   0  -8   6 -0.8875 2.06696   1
   0  -8  -6 3.82721 2.27463   5
   0  -8  -6 7.85355 2.80251   3
   0   8  -6 6.95341 1.69632   1
   0   8  -6 8.70016 1.75219   5
   0   8  -6 4.33820 1.27499   4
   0   8   6 8.45988 1.49033   1
  -1  -8  -6 2.61501 2.12757   5
  -1  -8  -6 -2.8054 1.92162   4
  -1  -8  -6 3.98570 2.42295   1
   1  -8   6 0.58575 2.60824   3
  -1  -8  -6 4.43354 2.29412   3
   1   8   6 2.11184 0.99624   1
  -1   8  -6 3.75867 1.20847   4
   1   8   6 0.52380 1.72934   2
  -1   8  -6 4.03371 1.25293   1
  -1   8  -6 4.62126 1.22811   5
  -2  -8  -6 17.3955 4.30597   5
  -2  -8  -6 24.8730 3.74899   3
  -2  -8  -6 26.5171 4.75929   1
  -2  -8  -6 20.3647 6.81203   4
  -2   8  -6 27.4120 2.64708   5
   2   8   6 22.0659 4.67211   2
  -2   8  -6 23.4260 2.45915   1
  -3  -8  -6 23.4269 3.52884   3
  -3  -8  -6 19.5884 4.16631   5
  -3  -8  -6 16.2711 6.19379   1
  -3  -8  -6 17.8474 4.85402   4
  -3   8  -6 20.9982 2.26903   1
  -3   8  -6 22.7365 2.54753   4
  -3   8  -6 22.3444 2.30900   5
   3   8   6 18.8463 4.35971   2
  -3  -9   6 1.58326 2.03004   1
  -3   9   6 0.54806 0.80101   5
  -3   9   6 0.75989 0.94966   1
   3   9  -6 1.30181 2.14829   2
  -2  -9   6 2.35681 2.12959   3
  -2  -9   6 1.92888 2.27917   1
  -2   9   6 -0.0647 0.70609   5
  -2   9   6 1.13311 0.91549   1
   2   9  -6 2.15123 1.04247   1
   2   9  -6 1.63698 1.88848   2
   1  -9  -6 29.8780 3.58068   3
   0  -9  -6 286.950 18.4469   1
   0  -9  -6 308.732 17.1422   3
   0   9   6 306.416 15.6039   1
   0   9  -6 316.048 15.8432   5
   0   9  -6 276.755 15.7093   4
   0   9  -6 313.525 16.1490   1
  -1  -9  -6 1.65823 1.95171   1
  -1  -9  -6 -0.6790 1.81984   5
  -1  -9  -6 2.78825 2.06619   3
   1  -9   6 -0.4609 2.86442   3
   1   9   6 0.48898 1.13349   1
   1   9   6 -0.1661 1.34928   2
  -1   9  -6 -0.4734 0.71581   5
  -1   9  -6 0.76513 0.77016   1
  -2  -9  -6 65.2347 5.84097   3
  -2  -9  -6 53.3348 7.36692   4
  -2  -9  -6 65.5282 7.27212   5
  -2  -9  -6 64.8406 7.16906   1
  -2   9  -6 63.6224 4.55655   4
   2   9   6 87.5584 7.98755   2
  -2   9  -6 67.0388 4.59660   1
  -2   9  -6 70.8706 4.73169   5
  -2 -10   6 295.327 16.8368   1
   2  10  -6 290.184 17.5819   2
  -2  10   6 250.340 16.7376   1
  -2  10   6 248.371 13.7254   5
   2  10  -6 280.440 14.4705   1
   1 -10  -6 17.5718 3.97147   1
  -1 -10   6 22.0582 4.13309   1
   1  10  -6 25.0476 4.55280   2
  -1  10   6 19.7798 2.47427   1
   1  10  -6 24.4279 2.77285   1
   0 -10  -6 20.8567 3.03029   3
   0  10  -6 14.3355 2.22777   5
   0  10   6 15.5339 2.10532   1
   0  10  -6 19.3763 2.63243   4
   0  10  -6 17.4207 2.48550   1
  -1 -10  -6 72.6238 5.96384   3
  -1 -10  -6 70.6598 7.41475   1
  -1  10  -6 63.8852 4.72916   4
  -1  10  -6 69.7928 4.98900   1
  -1  10  -6 65.6710 4.83295   5
   1  10   6 77.9388 7.55562   2
  -2 -10  -6 2.04684 2.64541   5
  -2 -10  -6 2.61659 1.76069   3
  -2 -10  -6 5.73562 2.52322   1
  -2  10  -6 1.41661 0.86138   5
   2  10   6 -1.0734 2.01473   2
  -2  10  -6 -0.5693 0.79704   1
  -1 -11   6 -0.2442 1.81463   3
   1 -11  -6 -2.4153 2.09247   3
  -1  11   6 -0.0886 0.75576   1
   1  11  -6 3.75770 2.23827   2
   1  11  -6 0.89235 0.91544   1
   0 -11  -6 3.07224 2.27656   1
   0 -11  -6 1.97123 1.75980   3
   0 -11   6 -0.1109 2.00763   3
   0  11  -6 0.93600 2.04751   2
   0  11  -6 1.38729 1.34878   5
   0  11   6 0.46751 0.88263   1
   0  11  -6 0.76607 0.76160   1
  -5   0   7 11.3542 4.22921   5
   5   0  -7 15.6767 3.37645   2
  -5   0   7 17.9003 3.47587   4
  -5   0   7 14.6582 2.37447   1
  -4   0   7 0.51052 3.16620   5
  -4   0   7 3.10944 2.32836   1
  -4   0   7 0.57632 2.13240   4
  -3   0   7 1088.22 52.9506   1
  -3   0   7 1142.72 54.5634   5
  -3   0   7 1111.03 54.1480   4
   3   0  -7 1062.50 53.7871   2
  -2   0   7 0.11730 1.50262   4
   2   0  -7 -0.5296 0.98506   2
  -2   0   7 -0.4412 1.71151   5
   2   0  -7 -0.1382 0.85242   4
   2   0  -7 -0.3494 0.51028   1
  -2   0   7 0.06832 1.00263   1
   1   0  -7 1655.39 88.7339   2
   1   0  -7 1952.41 89.2492   1
   1   0  -7 1981.19 89.1455   5
  -1   0   7 2052.36 90.0273   4
  -1   0   7 1936.76 89.3935   1
   1   0  -7 2005.62 89.2877   4
   0   0   7 -1.2069 0.75428   4
   0   0  -7 0.54817 0.54628   4
   0   0  -7 0.77694 0.52402   5
   0   0  -7 0.07754 0.45181   1
   0   0   7 -0.0268 0.46019   1
  -1   0  -7 604.143 29.6292   1
  -1   0  -7 645.665 29.4725   5
  -1   0  -7 636.207 29.5558   4
  -2   0  -7 0.51303 0.50881   4
  -2   0  -7 0.03513 0.64336   1
   2   0   7 2.83021 1.05024   2
   3   0   7 0.40752 1.34547   2
   5  -1  -7 7.04234 2.53156   2
  -5  -1   7 14.9102 2.31536   1
  -5  -1   7 4.55096 3.38847   5
   5   1  -7 11.9678 2.90663   2
  -5   1   7 5.08160 3.38810   5
  -5   1   7 12.7280 2.98233   4
  -5   1   7  9.9999 1.73874   1
  -4  -1   7 0.22224 2.83207   5
  -4  -1   7 2.11137 1.60607   1
  -4  -1   7 0.40614 2.29675   4
   4  -1  -7 2.69011 1.98585   2
  -4   1   7 2.74157 3.34276   5
   4   1  -7 -1.0562 1.82860   2
  -4   1   7 1.97822 1.37508   1
  -4   1   7 0.96800 2.36781   4
  -3  -1   7 177.450 12.4393   5
  -3  -1   7 183.583 11.1504   1
  -3  -1   7 189.522 12.3492   4
   3  -1  -7 188.241 11.6298   2
   3   1  -7 174.141 11.6911   2
  -3   1   7 176.785 10.5525   1
  -3   1   7 186.557 11.9221   4
  -2  -1   7 2.16050 1.61917   4
  -2  -1   7 1.27116 1.85995   5
  -2  -1   7 2.16012 1.34321   1
   2  -1  -7 1.91598 1.19708   2
   2  -1  -7 0.90265 1.15948   4
   2  -1  -7 2.73230 0.98162   1
   2   1  -7 1.61769 0.67535   1
  -2   1   7 1.60259 1.05667   1
  -2   1   7 2.82909 1.71075   4
  -2   1   7 2.54942 2.04671   5
   2   1  -7 0.72934 0.76718   4
   2   1  -7 1.43185 1.12821   2
  -1  -1   7 564.904 27.3756   4
   1  -1  -7 550.384 26.4075   5
  -1  -1   7 531.554 26.7905   1
   1  -1  -7 556.853 26.5911   4
   1   1  -7 560.536 26.3318   5
   1   1  -7 535.675 26.3481   4
   1   1  -7 477.104 26.1557   2
  -1   1   7 634.478 27.3886   5
  -1   1   7 559.991 26.9758   4
   1   1  -7 560.944 26.4218   1
  -1   1   7 547.444 26.4082   1
   0  -1   7 1171.76 54.6352   1
   0  -1  -7 1202.15 54.6864   5
   0  -1  -7 1141.17 54.8289   1
   0   1  -7 1169.11 54.5608   5
   0   1   7 1187.62 54.4270   1
   0   1  -7 1175.41 54.7162   1
   0   1  -7 1190.83 55.2503   4
  -1  -1  -7 2251.02 101.345   4
  -1  -1  -7 2155.16 101.152   5
  -1  -1  -7 2156.74 101.430   1
  -1   1  -7 2136.47 101.205   1
  -1   1  -7 2303.39 101.171   4
  -1   1  -7 2196.85 101.020   5
  -2  -1  -7 584.702 27.4228   1
  -2  -1  -7 598.589 27.2740   4
  -2   1  -7 584.868 27.0673   1
  -2   1  -7 604.185 26.9487   4
   2   1   7 492.822 27.6998   2
  -4  -1  -7 8.34549 4.65038   3
  -5  -2   7 36.6790 5.72037   5
   5  -2  -7 26.5242 4.17678   2
  -5  -2   7 28.1536 3.28484   1
  -5  -2   7 32.7149 5.03825   4
   5   2  -7 29.6102 4.69052   2
  -5   2   7 37.6865 4.61008   4
  -5   2   7 32.2622 2.88538   1
  -4  -2   7 47.3628 4.91109   1
  -4  -2   7 40.9158 5.91710   4
  -4  -2   7 55.4430 6.89018   5
   4  -2  -7 49.3582 5.28862   2
  -4   2   7 48.0258 4.15819   1
  -4   2   7 37.0178 6.07635   5
   4   2  -7 45.9372 5.64471   2
  -3  -2   7 6.19942 2.71747   5
  -3  -2   7 6.49024 2.25869   1
   3  -2  -7 5.53936 2.10076   2
  -3  -2   7 6.66379 3.26955   4
   3   2  -7 9.15904 2.64867   2
  -3   2   7 6.28063 1.72396   1
  -3   2   7 5.55783 3.70940   5
  -2  -2   7 1246.57 60.6773   1
   2  -2  -7 1309.05 59.9384   1
  -2  -2   7 1298.93 61.5539   4
  -2  -2   7 1374.21 61.8399   5
   2  -2  -7 1226.79 60.1202   2
   2  -2  -7 1137.04 60.0833   4
   2   2  -7 1233.58 59.5953   4
   2   2  -7 1314.54 59.6384   1
   2   2  -7 1199.21 60.6527   2
  -2   2   7 1341.31 59.7834   1
   2   2  -7 1217.01 59.3305   5
  -2   2   7 1314.29 60.6592   4
  -2   2   7 1344.98 60.9589   5
   1  -2  -7 289.160 14.3252   5
  -1  -2   7 287.431 14.8884   1
   1  -2  -7 289.744 14.6090   4
  -1  -2   7 284.783 15.3753   4
  -1  -2   7 246.389 16.5188   5
   1  -2  -7 282.091 14.4505   1
  -1   2   7 284.702 14.0296   1
  -1   2   7 274.417 14.5411   4
   1   2  -7 293.963 14.2187   1
   1   2  -7 293.420 14.1304   5
   1   2  -7 272.843 14.3441   2
   1   2  -7 292.775 14.1715   4
   0  -2  -7 112.332 6.71120   1
   0  -2  -7 123.246 6.81041   4
   0  -2   7 115.266 6.62200   1
   0  -2  -7 115.070 6.53538   5
   0   2  -7 118.518 6.49336   1
   0   2   7 118.386 6.20008   1
   0   2  -7 123.179 6.38500   5
   0   2  -7 121.624 6.44278   4
  -1  -2  -7 393.956 20.4164   1
  -1  -2  -7 418.761 20.1795   5
  -1  -2  -7 415.238 20.4089   4
  -1   2  -7 439.006 19.9947   4
  -1   2  -7 438.908 19.9198   5
  -1   2  -7 402.533 20.0445   1
  -2  -2  -7 270.044 13.4035   1
   2  -2   7 213.731 14.0793   2
  -2  -2  -7 275.481 13.3016   4
   2   2   7 235.897 13.7478   2
  -2   2  -7 262.065 12.6499   1
  -2   2  -7 277.570 12.5643   4
  -3  -2  -7 106.539 6.62219   1
  -3  -2  -7 103.076 6.68553   4
   3   2   7 88.5225 7.21115   2
  -4  -2  -7 38.1447 4.92088   4
  -4  -2  -7 39.3485 4.59966   3
  -5  -3   7 4.03667 2.72607   5
  -5  -3   7 2.24258 1.46700   1
   5  -3  -7 5.64833 2.68097   2
   5   3  -7 5.07586 2.27587   2
  -5   3   7 4.59344 1.27608   1
  -4  -3   7 106.360 9.31612   4
   4  -3  -7 110.288 8.49265   2
  -4  -3   7 100.453 7.91071   1
  -4  -3   7 108.055 9.78863   5
  -4   3   7 112.829 6.83064   1
  -4   3   7 123.220 8.83248   4
  -4   3   7 83.8540 8.51146   5
   4   3  -7 99.1849 8.96725   2
  -3  -3   7 97.4181 7.24981   1
   3  -3  -7 91.9445 6.99595   2
  -3  -3   7 89.3518 8.27768   4
  -3  -3   7 79.4041 8.23487   5
   3   3  -7 86.1163 7.31552   2
  -3   3   7 80.3352 5.70445   1
  -3   3   7 77.6943 7.51270   5
  -3   3   7 86.6636 7.19902   4
   2  -3  -7 12.7535 2.09267   1
   2  -3  -7 9.90124 2.60716   2
  -2  -3   7 11.4349 3.17261   5
  -2  -3   7 9.26717 2.22710   1
  -2  -3   7 12.0311 3.04634   4
   2   3  -7 11.3387 1.95393   4
   2   3  -7 8.02838 2.16922   2
  -2   3   7 13.9529 1.86695   1
  -2   3   7 10.1324 2.24589   4
   2   3  -7 10.4503 1.57286   1
   2   3  -7 7.99019 1.45098   5
   1  -3  -7 54.2344 4.23740   4
  -1  -3   7 46.2444 4.14430   1
   1  -3  -7 51.5322 3.97222   1
   1  -3  -7 53.0079 3.83522   5
  -1  -3   7 45.3186 4.68311   4
  -1  -3   7 51.9712 5.23623   5
   1   3  -7 51.3000 3.48422   5
  -1   3   7 50.7619 3.81230   4
   1   3  -7 44.6723 3.41760   1
  -1   3   7 52.0589 3.35502   1
  -1   3   7 61.0141 4.04906   5
   1   3  -7 46.4182 3.42879   4
   1   3  -7 45.2823 3.89653   2
   0  -3  -7 892.800 41.4028   5
   0  -3  -7 886.062 41.7743   4
   0  -3  -7 893.958 41.6653   1
   0   3   7 815.852 40.6323   4
   0   3   7 897.812 40.7850   1
   0   3  -7 889.880 41.1230   1
   0   3  -7 904.259 40.9631   5
   0   3  -7 882.648 41.0092   4
   0   3  -7 809.435 40.9170   2
  -1  -3  -7 279.639 14.7287   4
  -1  -3  -7 294.087 14.3942   5
  -1  -3  -7 285.030 14.7500   1
  -1   3  -7 293.106 13.9155   4
   1   3   7 266.232 14.7726   2
  -1   3  -7 278.265 14.0020   1
  -1   3  -7 283.315 13.8165   5
  -2  -3  -7 203.136 10.6866   5
  -2  -3  -7 190.537 11.1672   4
  -2  -3  -7 185.310 11.1486   1
  -2   3  -7 209.656 10.1737   1
   2   3   7 191.877 11.7985   2
  -2   3  -7 210.833 10.0233   4
  -3  -3  -7 291.485 17.6393   3
  -3  -3  -7 285.975 16.8243   4
  -3  -3  -7 307.158 16.5221   1
  -3   3  -7 319.669 14.6497   4
   3   3   7 296.911 17.2949   2
  -4  -3  -7 40.7165 4.18562   3
  -4  -3  -7 31.4112 5.19721   4
   4  -4  -7 50.7880 6.61932   2
  -4  -4   7 56.7662 6.37659   4
  -4  -4   7 61.4731 7.30579   5
  -4  -4   7 50.0867 5.31300   1
  -4   4   7 38.9472 5.53642   5
   4   4  -7 55.5433 6.20008   2
  -4   4   7 54.0467 4.25686   1
  -4   4   7 59.9116 5.80171   4
  -3  -4   7 32.5625 4.36210   1
   3  -4  -7 36.3898 5.37594   2
  -3  -4   7 32.2083 5.76410   5
  -3  -4   7 24.8994 4.93783   4
  -3   4   7 34.7895 3.12107   1
  -3   4   7 33.3830 4.47279   4
   3   4  -7 28.2061 4.46693   2
  -3   4   7 24.5386 4.42807   5
   2  -4  -7 81.3775 5.68255   1
  -2  -4   7 66.6464 6.99966   5
  -2  -4   7 73.9187 7.04542   4
  -2  -4   7 72.8562 6.35756   1
  -2   4   7 78.6393 5.83485   4
   2   4  -7 72.0907 4.97388   1
  -2   4   7 75.7443 4.88517   1
   2   4  -7 66.3161 6.03384   2
  -2   4   7 77.5634 5.87400   5
  -1  -4   7 160.738 10.1435   5
   1  -4  -7 157.370 8.99112   1
   1  -4  -7 145.905 8.70881   5
   1  -4  -7 134.247 10.0998   4
  -1  -4   7 149.448 9.66731   4
  -1  -4   7 148.357 9.30004   1
   1  -4  -7 144.695 8.90625   3
   1   4  -7 143.052 8.11748   1
  -1   4   7 152.648 8.27839   4
   1   4  -7 142.147 8.08183   4
   1   4  -7 147.886 8.09136   5
   1   4  -7 133.648 8.81835   2
   0  -4   7 9.80772 1.79898   1
   0  -4  -7 5.90320 1.41487   5
   0  -4  -7 7.45228 1.69304   1
   0  -4   7 13.7937 3.22920   3
   0  -4  -7 7.78729 1.92229   4
   0   4  -7 5.21683 1.07740   1
   0   4   7 7.48693 1.11746   1
   0   4  -7 7.40485 1.31337   4
   0   4  -7 5.23948 1.07963   5
  -1  -4  -7 142.369 8.85879   4
  -1  -4  -7 128.552 9.80964   1
  -1  -4  -7 138.119 8.19296   5
   1   4   7 133.191 7.26408   1
   1   4   7 138.056 8.72759   2
  -1   4  -7 144.244 7.66210   1
  -1   4  -7 146.664 7.50902   4
  -2  -4  -7 327.660 20.4048   4
  -2  -4  -7 359.123 17.8527   5
  -2  -4  -7 322.972 19.4139   3
  -2  -4  -7 342.177 18.2472   1
  -2   4  -7 336.006 16.8199   1
  -2   4  -7 346.172 16.6337   4
   2   4   7 343.981 19.0086   2
  -2   4  -7 338.898 16.5015   5
  -3  -4  -7 52.2828 5.94962   4
  -3  -4  -7 53.5490 5.43459   1
  -3  -4  -7 49.4722 5.51553   3
  -3  -4  -7 51.0522 4.92219   5
   3   4   7 52.5053 5.80182   2
  -3   4  -7 57.7468 3.42864   4
  -4  -4  -7 5.75133 2.54081   4
  -4  -4  -7 -1.1124 2.75038   3
  -4  -5   7 15.9990 3.20740   1
  -4  -5   7 8.75562 3.62334   5
  -4  -5   7 10.6108 3.80527   4
   4   5  -7 17.6505 3.63816   2
  -4   5   7 9.79292 2.66731   4
  -4   5   7 8.06563 2.63307   5
  -4   5   7 11.1540 1.95073   1
  -3  -5   7 39.5091 6.46112   5
  -3  -5   7 32.2436 5.92573   4
  -3  -5   7 39.6776 5.02577   1
   3   5  -7 41.3047 5.35904   2
  -3   5   7 32.8233 4.41055   5
  -3   5   7 39.2589 4.47250   4
  -3   5   7 35.9430 3.35442   1
  -2  -5   7 188.069 12.6274   5
  -2  -5   7 157.595 12.1446   4
  -2  -5   7 180.113 11.7623   1
   2  -5  -7 172.819 10.7257   1
  -2   5   7 174.332 9.58050   1
  -2   5   7 181.134 10.2477   4
   2   5  -7 165.576 11.4112   2
   2   5  -7 169.495 9.79799   1
  -2   5   7 183.144 10.0334   5
  -1  -5   7 3.42828 2.34063   1
  -1  -5   7 3.32733 2.02855   3
   1  -5  -7 1.90583 1.31263   1
   1  -5  -7 1.02321 1.05683   5
  -1  -5   7 0.05574 2.88075   5
  -1  -5   7 2.08398 2.14126   4
   1  -5  -7 4.82058 1.91172   3
   1  -5  -7 4.81078 1.86538   4
  -1   5   7 2.25125 0.96933   4
   1   5  -7 3.25880 1.03217   5
   1   5  -7 3.63304 1.02148   4
  -1   5   7 3.14346 0.85359   5
  -1   5   7 1.16436 0.79100   1
   1   5  -7 5.04726 1.69593   2
   1   5  -7 3.84440 1.17952   1
   0  -5  -7 42.0593 4.25204   1
   0  -5  -7 46.2387 4.91128   3
   0  -5   7 43.2071 4.03605   1
   0  -5  -7 43.2125 4.83831   4
   0  -5   7 50.5203 4.61538   3
   0   5  -7 45.3709 3.35367   5
   0   5   7 44.5539 3.15046   1
   0   5  -7 46.6927 3.41459   4
   0   5  -7 45.7609 3.49057   1
  -1  -5  -7 55.8103 5.63591   3
  -1  -5  -7 56.6757 5.64527   4
  -1  -5  -7 58.6597 4.93715   5
  -1  -5  -7 59.5554 5.27640   1
   1   5   7 60.7793 5.29662   2
  -1   5  -7 63.1871 4.05302   4
   1   5   7 60.9209 3.78228   1
  -1   5  -7 58.9598 4.03848   1
  -1   5  -7 60.3204 3.95831   5
  -2  -5  -7 108.422 8.69545   4
  -2  -5  -7 107.288 7.64685   5
  -2  -5  -7 112.415 8.67142   3
  -2  -5  -7 112.523 8.05573   1
  -2   5  -7 104.125 6.14048   4
  -2   5  -7 105.440 6.21091   1
   2   5   7 103.403 8.06744   2
  -2   5  -7 107.562 6.08000   5
  -3  -5  -7 27.0698 4.15769   3
  -3  -5  -7 28.9403 4.55316   1
  -3  -5  -7 39.4319 5.26997   4
  -3  -5  -7 25.8915 4.20716   5
  -3   5  -7 33.5744 2.49215   4
   3   5   7 28.8124 4.92523   2
  -4  -5  -7 153.763 10.6439   5
  -4  -5  -7 142.622 9.27884   3
  -4  -6   7 28.0285 4.07688   1
  -4  -6   7 34.9146 7.18243   5
  -4   6   7 30.4825 3.11052   1
   4   6  -7 30.5078 7.05010   2
  -4   6   7 25.6492 3.27137   5
  -3  -6   7 55.3120 7.39005   4
  -3  -6   7 48.9065 5.75953   1
  -3  -6   7 52.2957 7.19573   5
  -3   6   7 53.5345 4.22326   1
  -3   6   7 46.4738 4.42863   5
  -3   6   7 57.6544 4.90344   4
   3   6  -7 57.9946 6.29661   2
  -2  -6   7 7.27271 2.69581   1
  -2  -6   7 3.06121 1.52164   3
  -2  -6   7 -1.0711 2.58665   5
   2  -6  -7 0.20057 1.65402   1
  -2  -6   7 4.07483 2.81347   4
  -2   6   7 5.18089 1.31634   5
  -2   6   7 4.43109 1.45520   4
   2   6  -7 5.21274 2.40985   2
   2   6  -7 6.83223 1.48017   1
  -2   6   7 4.14645 1.23112   1
   1  -6  -7 46.6318 4.82760   1
   1  -6  -7 46.6703 4.23469   3
   1  -6  -7 38.6347 4.43195   5
  -1  -6   7 53.8626 5.21436   1
  -1  -6   7 37.8803 4.39404   3
   1  -6  -7 32.7750 5.21212   4
  -1   6   7 48.3045 3.35045   4
  -1   6   7 47.7523 3.47051   1
  -1   6   7 47.4980 3.15903   5
   1   6  -7 49.2344 3.78447   4
   1   6  -7 49.3594 3.72024   5
   1   6  -7 48.7396 4.82226   2
   0  -6   7 159.475 9.68683   1
   0  -6  -7 153.633 10.2184   3
   0  -6   7 162.003 10.2392   3
   0  -6  -7 154.570 10.1278   5
   0  -6  -7 149.823 11.0632   4
   0   6  -7 151.072 8.70840   4
   0   6   7 155.201 8.43715   1
   0   6  -7 161.636 8.78938   5
   0   6  -7 158.615 8.92883   1
  -1  -6  -7 10.8399 3.30617   4
  -1  -6  -7 7.00521 3.02443   3
  -1  -6  -7 6.23067 2.06270   5
  -1  -6  -7 7.11798 2.32978   1
   1   6   7 6.01238 1.98532   2
  -1   6  -7 5.39877 1.28263   4
   1   6   7 3.53521 1.06823   1
  -1   6  -7 4.90142 1.17303   5
  -1   6  -7 5.62655 1.24139   1
  -2  -6  -7 18.2447 4.19424   4
  -2  -6  -7 14.4193 3.44526   3
  -2  -6  -7 24.6033 3.87574   5
  -2  -6  -7 16.1002 3.39137   1
   2   6   7 21.5197 3.77989   2
  -2   6  -7 19.8138 2.15630   4
  -2   6  -7 19.1311 2.12524   1
  -2   6  -7 20.2060 2.16045   5
  -3  -6  -7 7.16875 2.44153   1
  -3  -6  -7 2.25192 2.10860   3
  -3  -6  -7 6.83892 2.79819   4
  -3  -6  -7 3.21076 2.00403   5
  -3   6  -7 1.88619 0.76348   5
  -3   6  -7 3.06255 0.88697   4
   3   6   7 4.41330 2.61846   2
  -4  -7   7 0.11213 1.57668   1
  -4  -7   7 3.51198 3.15092   5
   4   7  -7 0.75815 2.15138   2
  -4   7   7 0.61337 1.16638   1
  -4   7   7 -0.1984 0.86547   5
  -3  -7   7 4.88664 2.55305   1
  -3  -7   7 6.86766 3.38442   5
  -3  -7   7 7.40897 4.57091   4
  -3   7   7 5.47956 1.63158   4
  -3   7   7 4.58465 1.41208   1
  -3   7   7 5.36525 1.46458   5
   3   7  -7 6.36538 2.77693   2
  -2  -7   7 56.9138 6.39604   1
  -2  -7   7 60.3620 7.89271   4
  -2  -7   7 46.7605 7.11418   5
  -2   7   7 50.1870 3.72195   5
   2   7  -7 53.5429 5.97537   2
  -2   7   7 53.5080 4.06216   1
   2   7  -7 53.2358 4.30134   1
  -2   7   7 46.3162 3.92136   4
   1  -7  -7 321.851 19.0039   1
  -1  -7   7 368.101 19.6547   1
   1  -7  -7 331.079 17.8954   3
  -1   7   7 328.826 16.6869   4
   1   7  -7 333.865 17.2221   5
   1   7  -7 349.225 17.5333   1
   1   7  -7 319.594 19.3201   2
  -1   7   7 325.855 16.4328   5
  -1   7   7 337.331 17.0348   1
   1   7  -7 332.754 17.7226   4
   0  -7  -7 17.7567 4.11062   4
   0  -7  -7 19.9917 3.52818   5
   0  -7  -7 17.1971 3.19347   3
   0  -7  -7 17.8223 3.63192   1
   0   7  -7 21.5890 2.40560   4
   0   7  -7 21.3110 2.52266   1
   0   7   7 21.5210 2.11234   1
   0   7  -7 20.6459 2.45044   5
  -1  -7  -7 26.9228 3.98738   3
  -1  -7  -7 23.5492 4.28809   1
  -1  -7  -7 29.0817 4.25565   5
  -1  -7  -7 32.3260 5.28140   4
  -1   7  -7 30.4561 2.89724   1
   1   7   7 36.1619 4.59187   2
  -1   7  -7 29.2770 2.81775   5
  -1   7  -7 26.5399 2.64795   4
  -2  -7  -7 12.6656 3.32078   3
  -2  -7  -7 10.3460 3.17862   1
  -2  -7  -7 12.5011 3.11203   5
  -2  -7  -7 10.9615 3.40400   4
  -2   7  -7 9.99723 1.78841   4
  -2   7  -7 11.4031 1.84032   5
  -2   7  -7 11.7266 1.78687   1
  -3  -7  -7 12.4914 3.29028   1
  -3  -7  -7 8.19744 2.85998   5
  -3  -7  -7 14.9305 3.01471   3
  -3  -7  -7 12.9018 3.54739   4
   3   7   7 17.1174 6.36814   2
  -3   7  -7 15.4882 1.73560   4
  -3   7  -7 16.9694 1.91538   5
  -3  -8   7 20.9642 5.80876   5
  -3  -8   7 24.6656 4.32042   1
  -3   8   7 23.5771 2.51984   5
   3   8  -7 24.5436 4.37490   2
  -3   8   7 24.6949 2.76690   1
  -3   8   7 25.3604 2.67824   4
  -2  -8   7 155.892 11.4595   1
   2   8  -7 153.289 9.16230   1
  -2   8   7 154.351 8.40075   5
  -2   8   7 139.781 8.58287   4
   2   8  -7 151.631 11.5092   2
  -2   8   7 157.829 8.92396   1
  -1  -8   7 18.4456 3.81805   1
   1  -8  -7 14.2560 3.53400   1
   1  -8  -7 17.6142 2.72822   3
   1   8  -7 25.9906 4.17514   2
   1   8  -7 20.0919 2.47052   5
   1   8  -7 19.8428 2.82742   1
  -1   8   7 17.3672 2.24620   1
   1   8  -7 15.4584 2.64805   4
   0  -8  -7 36.2361 4.99600   5
   0  -8  -7 40.6446 4.39582   3
   0  -8  -7 42.3989 5.43069   1
   0  -8  -7 24.3541 4.93970   4
   0   8  -7 35.6209 3.31034   4
   0   8  -7 38.2946 3.36495   5
   0   8   7 31.7185 2.96739   1
   0   8  -7 40.8286 3.61443   1
  -1  -8  -7 -0.1413 2.24830   4
  -1  -8  -7 0.00172 1.77454   1
  -1  -8  -7 -0.3582 1.66586   5
  -1  -8  -7 1.12626 1.97558   3
  -1   8  -7 1.59062 1.01000   1
  -1   8  -7 0.01205 0.68474   4
  -1   8  -7 0.27528 0.80918   5
   1   8   7 -0.4546 1.28916   1
   1   8   7 -0.9460 2.75257   2
  -2  -8  -7 26.6443 3.81584   3
  -2  -8  -7 24.9935 5.63233   4
  -2  -8  -7 28.1803 5.00092   1
  -2  -8  -7 28.4467 4.93510   5
   2   8   7 27.4799 4.98285   2
  -2   8  -7 27.6454 2.73290   5
  -2   8  -7 29.9548 2.75155   1
  -2   8  -7 27.8419 2.64405   4
  -3  -8  -7 7.27497 3.23913   4
  -3  -8  -7 14.8906 3.42045   1
  -3  -8  -7 13.1212 2.64227   3
  -3  -8  -7 12.8679 3.32883   5
  -3   8  -7 15.3810 1.91621   5
   3   8   7 18.0907 7.07492   2
  -3   8  -7 17.4465 2.03646   4
  -3  -9   7 32.2873 4.33538   1
   3   9  -7 35.1907 4.96213   2
  -3   9   7 28.0844 2.67777   5
  -3   9   7 32.0105 3.01746   1
  -2  -9   7 37.7390 5.18649   1
   2   9  -7 39.0385 5.56805   2
  -2   9   7 36.8286 3.34438   4
   2   9  -7 38.3039 3.66910   1
  -2   9   7 36.2027 3.13338   5
  -2   9   7 46.5104 3.64605   1
   1  -9  -7 1.26813 2.24399   1
   1  -9  -7 4.72064 1.99317   3
  -1  -9   7 -2.6309 2.01216   3
  -1  -9   7 2.52575 2.17025   1
   1   9  -7 0.62902 1.32793   5
   1   9  -7 4.86306 2.24930   2
   1   9  -7 2.51310 1.03093   1
  -1   9   7 1.83236 1.04220   1
   0  -9  -7 156.173 10.1710   3
   0  -9  -7 149.812 11.4141   1
   0   9   7 151.026 8.70661   1
   0   9  -7 155.178 8.99493   5
   0   9  -7 158.366 9.34933   1
  -1  -9  -7 1.17773 3.07827   4
  -1  -9  -7 4.20661 2.28455   5
  -1  -9  -7 3.56929 2.61590   1
  -1  -9  -7 2.75856 1.57540   3
   1   9   7 2.39663 1.85902   2
  -1   9  -7 0.89913 0.88923   1
  -1   9  -7 1.20948 1.03417   4
  -1   9  -7 2.14212 0.97644   5
  -2  -9  -7 -3.1599 1.96681   1
  -2  -9  -7 -3.4258 3.84502   4
  -2  -9  -7 1.54101 1.56942   3
  -2  -9  -7 2.50782 2.35889   5
  -2   9  -7 -0.0131 0.73043   4
   2   9   7 -0.0942 2.60491   2
  -2   9  -7 0.51237 0.77957   5
  -2 -10   7 91.0093 7.01332   1
  -2  10   7 83.6497 5.46927   1
   2  10  -7 73.6780 5.35949   1
   2  10  -7 67.8846 6.60973   2
   1 -10  -7 18.2254 3.74218   1
   0 -10  -7 7.27774 2.33649   3
   0 -10  -7 1.63033 2.42163   1
   0 -10   7 -1.7480 2.64024   3
   0  10   7 5.09576 1.11987   1
   0  10  -7 2.15442 1.10830   5
   0  10  -7 3.41302 1.10832   1
   0  10  -7 5.44998 1.54578   4
  -1 -10  -7 3.29174 2.17792   3
  -1 -10  -7 4.20392 3.06380   5
  -1 -10  -7 2.44965 2.27754   1
   1  10   7 -0.1157 1.99450   2
  -1  10  -7 0.72810 1.35819   1
  -5   0   8 -0.6106 1.13373   1
  -5   0   8 1.82006 2.70880   5
   5   0  -8 -1.8396 1.73085   2
  -4   0   8 -0.2753 1.17243   1
   4   0  -8 -0.6531 1.63725   2
  -4   0   8 1.69712 3.42330   5
  -4   0   8 2.40017 2.27070   4
  -3   0   8 0.37812 1.97468   4
  -3   0   8 1.15226 1.34825   1
  -3   0   8 2.69632 3.00335   5
   3   0  -8 -1.2971 1.17677   1
   3   0  -8 3.16569 1.69720   2
  -2   0   8 0.76000 1.51674   4
  -2   0   8 -0.6959 0.94037   1
  -2   0   8 3.55722 2.82085   5
   2   0  -8 0.63222 0.64924   1
   2   0  -8 1.42418 1.24284   2
   2   0  -8 0.50856 0.89499   4
   2   0  -8 0.53937 0.91560   5
   1   0  -8 0.61775 0.59823   1
  -1   0   8 0.19299 0.77230   1
   1   0  -8 -0.2397 0.69133   4
  -1   0   8 0.11001 0.98249   4
   1   0  -8 0.07887 0.50762   5
  -1   0   8 0.22905 1.82407   5
   0   0  -8 123.135 6.96285   1
   0   0  -8 126.009 6.83547   5
   0   0  -8 126.003 6.93719   4
  -1   0  -8 0.16863 0.51859   5
  -1   0  -8 0.75737 0.60818   4
  -1   0  -8 -0.5546 0.36571   1
  -2   0  -8 19.5783 1.91203   4
  -2   0  -8 19.0579 1.99490   1
  -3   0  -8 -0.4344 0.69410   4
  -4   0  -8 13.3261 6.33351   3
   5  -1  -8 54.6923 5.38064   2
  -5  -1   8 56.7111 4.38388   1
   5   1  -8 57.4447 5.41764   2
  -5   1   8 62.4759 4.22501   1
   4  -1  -8 95.6463 7.33605   2
  -4  -1   8 78.7502 6.43440   1
  -4  -1   8 84.0909 8.02500   4
  -4  -1   8 85.4310 8.97711   5
  -4   1   8 79.9988 6.23662   1
  -4   1   8 95.7903 8.04171   4
   4   1  -8 94.6141 7.80781   2
   3  -1  -8 204.593 12.2314   2
  -3  -1   8 212.338 13.9526   5
  -3  -1   8 200.326 13.2063   4
  -3  -1   8 199.513 12.2262   1
   3   1  -8 197.517 12.4974   2
  -3   1   8 186.724 13.5411   5
  -3   1   8 205.849 11.6466   1
  -3   1   8 197.077 12.7617   4
  -2  -1   8 29.4920 3.41265   1
   2  -1  -8 23.3667 2.93638   4
   2  -1  -8 29.9418 2.98978   5
  -2  -1   8 21.8143 4.09295   5
   2  -1  -8 30.8023 3.09313   2
  -2  -1   8 27.2563 3.98336   4
   2  -1  -8 30.0499 2.81650   1
   2   1  -8 24.2638 3.00883   2
   2   1  -8 26.0629 2.61136   1
  -2   1   8 27.4978 3.71909   4
  -2   1   8 27.9791 2.92217   1
   2   1  -8 24.5560 2.51368   5
  -2   1   8 35.5419 5.47051   5
   2   1  -8 23.1748 2.58808   4
   1  -1  -8 170.728 9.32891   5
   1  -1  -8 178.706 9.57518   1
  -1  -1   8 177.972 9.75971   1
  -1  -1   8 150.515 10.5957   5
  -1  -1   8 175.756 10.2264   4
   1   1  -8 182.145 9.40908   4
   1   1  -8 179.802 9.42313   1
  -1   1   8 173.528 9.28019   1
   1   1  -8 186.522 9.32991   5
  -1   1   8 166.114 9.76412   4
   0  -1  -8 3.99278 1.07794   4
   0  -1  -8 4.75384 1.19989   1
   0  -1  -8 3.05553 0.87020   5
   0  -1   8 2.18576 0.91192   1
   0   1  -8 3.90295 0.98495   4
   0   1  -8 3.05767 0.84532   5
   0   1  -8 4.63796 1.16633   1
   0   1   8 3.01894 0.74957   1
  -1  -1  -8 44.2895 3.17440   4
  -1  -1  -8 41.5687 2.95566   5
  -1  -1  -8 40.3918 3.18955   1
  -1   1  -8 40.1053 2.95606   1
  -1   1  -8 41.7776 2.86691   5
  -1   1  -8 43.2687 2.97988   4
  -2  -1  -8 173.120 9.68178   1
  -2  -1  -8 184.071 9.65712   4
  -2   1  -8 190.362 9.34935   4
  -2   1  -8 176.043 9.43525   1
  -3  -1  -8 66.6971 4.92683   4
  -3   1  -8 77.2651 4.36761   4
  -4  -1  -8 35.4916 5.13934   3
   4  -2  -8 122.153 8.83172   2
  -4  -2   8 143.414 11.8225   4
  -4  -2   8 126.779 8.66504   1
  -4  -2   8 118.821 10.5542   5
  -4   2   8 93.4370 9.65400   5
  -4   2   8 118.640 7.69096   1
  -4   2   8 120.419 10.4805   4
   4   2  -8 127.943 9.49334   2
  -3  -2   8 0.45222 2.23356   5
   3  -2  -8 0.79320 1.64031   2
  -3  -2   8 0.40465 1.50388   1
  -3  -2   8 -1.3538 1.80071   4
  -3   2   8 0.60570 1.21682   1
   3   2  -8 -0.3399 1.26744   2
  -3   2   8 -2.8428 2.64453   5
  -3   2   8 1.90520 1.97056   4
   3   2  -8 -0.7446 1.46577   1
   2  -2  -8 62.6869 4.50049   1
  -2  -2   8 54.9904 6.14162   5
  -2  -2   8 50.5546 5.63610   4
   2  -2  -8 59.4369 4.68840   2
  -2  -2   8 59.8341 5.13565   1
  -2   2   8 64.4360 4.35654   1
   2   2  -8 58.2393 4.18572   1
   2   2  -8 55.5147 4.70494   2
   2   2  -8 52.6101 4.11317   4
  -2   2   8 45.4222 7.00702   5
   2   2  -8 51.2412 4.22915   5
  -2   2   8 62.4475 5.18043   4
  -1  -2   8 9.03600 2.11905   4
  -1  -2   8 9.34365 2.00014   1
   1  -2  -8 9.36718 1.77431   1
   1  -2  -8 8.78904 1.54929   5
   1  -2  -8 7.70276 1.66947   4
  -1  -2   8 8.35949 2.70466   5
   1   2  -8 10.3215 1.60729   4
  -1   2   8 8.42102 1.73793   5
   1   2  -8 7.40573 1.41088   5
  -1   2   8 11.6640 1.54786   1
  -1   2   8 10.3171 1.92465   4
   1   2  -8 9.48251 1.49164   1
   0  -2  -8 122.014 7.20861   1
   0  -2  -8 131.356 7.28756   4
   0  -2  -8 123.036 6.97636   5
   0  -2   8 103.885 7.30636   1
   0   2   8 121.405 6.50123   1
   0   2  -8 132.966 6.90993   4
   0   2  -8 126.749 6.94314   1
   0   2  -8 121.384 6.73477   5
  -1  -2  -8 3.69662 1.14536   4
  -1  -2  -8 5.58629 1.44193   1
  -1  -2  -8 4.28291 1.02094   5
  -1   2  -8 4.15885 0.89669   5
  -1   2  -8 5.34578 1.06830   4
  -1   2  -8 4.72264 1.06273   1
  -2  -2  -8 96.1323 6.20929   4
  -2  -2  -8 97.2083 5.87165   5
  -2  -2  -8 96.2350 6.27308   1
  -2   2  -8 107.320 5.68042   4
  -2   2  -8 99.2121 5.64551   1
  -3  -2  -8 2.00798 1.93688   1
  -3  -2  -8 1.36753 1.25803   4
  -4  -3   8 174.260 11.9191   1
  -4  -3   8 206.509 14.1150   5
  -4  -3   8 181.548 13.1262   4
   4  -3  -8 184.675 12.4184   2
  -4   3   8 196.275 11.0331   1
   4   3  -8 199.931 13.1537   2
  -4   3   8 220.597 12.9717   4
  -3  -3   8 176.903 12.5537   5
  -3  -3   8 167.403 10.9324   1
   3  -3  -8 155.354 10.3896   2
  -3  -3   8 156.478 11.7848   4
  -3   3   8 157.884 11.1042   5
  -3   3   8 167.863 10.9573   4
   3   3  -8 149.770 10.8559   2
  -3   3   8 177.484 9.67396   1
  -2  -3   8 544.791 28.8817   4
   2  -3  -8 574.960 27.4960   1
  -2  -3   8 568.927 28.2413   1
  -2  -3   8 598.846 29.8051   5
   2  -3  -8 544.426 27.6196   2
  -2   3   8 568.535 27.6928   4
   2   3  -8 494.376 26.5464   5
   2   3  -8 483.335 27.6090   2
  -2   3   8 573.825 26.7897   1
   2   3  -8 538.780 26.8188   1
   1  -3  -8 51.8687 4.14049   1
   1  -3  -8 46.2559 3.85003   5
   1  -3  -8 47.2510 4.22307   4
  -1  -3   8 46.9384 4.66507   4
  -1  -3   8 50.3980 4.37963   1
  -1   3   8 52.7267 3.85634   5
  -1   3   8 54.7773 4.46458   4
   1   3  -8 53.3598 3.66006   5
  -1   3   8 45.9254 3.38054   1
   1   3  -8 49.4769 3.67845   1
   1   3  -8 50.3206 3.64383   4
   0  -3   8 62.2994 4.44181   1
   0  -3  -8 64.3618 4.78557   1
   0  -3  -8 67.0893 4.90417   4
   0  -3  -8 68.4272 4.56672   5
   0   3  -8 67.8366 4.28381   4
   0   3  -8 65.6618 4.28095   1
   0   3   8 62.8681 3.89238   1
   0   3  -8 64.3240 4.14293   5
  -1  -3  -8 48.7246 3.98905   4
  -1  -3  -8 35.4220 5.21815   1
  -1  -3  -8 47.3943 3.60228   5
  -1   3  -8 46.2788 3.21004   4
  -1   3  -8 45.4230 4.25436   5
  -1   3  -8 40.0737 3.14338   1
  -2  -3  -8 -0.4998 0.79003   5
  -2  -3  -8 3.99885 1.39309   1
  -2   3  -8 -0.0663 0.53202   4
  -2   3  -8 1.34481 0.60022   1
  -3  -3  -8 104.250 8.64243   3
  -3  -3  -8 93.8929 7.62786   1
  -3  -3  -8 103.674 7.96504   4
  -3  -3  -8 109.000 7.17936   5
  -3   3  -8 121.822 6.09844   4
  -4  -3  -8 111.804 7.76871   3
  -4  -4   8 46.8577 5.13921   1
  -4  -4   8 51.5693 7.03152   5
  -4  -4   8 47.1184 6.34900   4
   4  -4  -8 44.2126 6.39613   2
  -4   4   8 57.1715 5.49937   4
  -4   4   8 37.7054 5.30070   5
   4   4  -8 50.7230 5.94568   2
  -4   4   8 52.6167 4.14012   1
   3  -4  -8 48.8932 6.86629   2
  -3  -4   8 52.0401 5.57225   1
  -3  -4   8 62.0804 6.82373   4
  -3  -4   8 62.8605 7.35440   5
  -3   4   8 51.3948 4.16461   1
  -3   4   8 45.8828 5.33185   5
  -3   4   8 49.7627 5.44014   4
   3   4  -8 47.2967 5.39179   2
  -2  -4   8 87.5487 7.80372   5
  -2  -4   8 85.3323 7.59047   4
  -2  -4   8 84.2101 6.89115   1
   2  -4  -8 87.6136 6.30192   1
  -2   4   8 90.0796 6.33137   4
  -2   4   8 85.7670 6.27313   5
   2   4  -8 81.3764 5.55163   1
  -2   4   8 80.7526 5.38509   1
   2   4  -8 75.9088 6.55294   2
  -1  -4   8 57.6599 7.53618   5
  -1  -4   8 57.6088 5.10108   1
   1  -4  -8 56.8800 4.78419   1
   1  -4  -8 56.3967 4.81674   3
   1  -4  -8 55.9375 4.54739   5
  -1  -4   8 52.4263 5.61203   4
   1  -4  -8 58.6005 5.21574   4
   1   4  -8 61.7067 4.19984   4
  -1   4   8 57.6936 3.90481   1
   1   4  -8 58.4587 4.10821   5
   1   4  -8 55.0737 4.12554   1
  -1   4   8 57.0018 4.11366   4
   1   4  -8 55.8396 4.59594   2
  -1   4   8 66.3997 3.96132   5
   0  -4   8 215.008 11.7356   1
   0  -4  -8 214.497 12.2376   1
   0  -4  -8 227.254 12.6502   4
   0   4  -8 205.786 11.3342   1
   0   4   8 211.805 10.9121   1
   0   4  -8 222.370 11.2575   5
   0   4  -8 214.713 11.3124   4
  -1  -4  -8 9.92314 2.21684   1
  -1  -4  -8 10.6515 2.07967   5
  -1  -4  -8 15.4690 2.75339   4
  -1   4  -8 11.6590 1.65185   4
  -1   4  -8 11.6734 1.62648   5
  -1   4  -8 8.97881 1.53062   1
  -2  -4  -8 141.037 8.86237   5
  -2  -4  -8 146.546 9.82842   4
  -2  -4  -8 137.498 10.4817   3
  -2  -4  -8 140.785 9.27231   1
  -2   4  -8 151.524 7.82199   5
  -2   4  -8 144.946 7.84902   4
  -2   4  -8 144.009 7.93478   1
  -3  -4  -8 0.73458 1.35732   5
  -3  -4  -8 -3.3521 2.18030   3
  -3  -4  -8 1.66892 1.99969   4
  -3   4  -8 0.32871 0.64102   4
  -4  -4  -8 27.4285 4.50738   4
  -4  -4  -8 43.7676 4.33170   3
  -4  -5   8 105.710 9.75045   5
  -4  -5   8 109.805 9.60233   4
  -4  -5   8 106.542 8.02469   1
  -4   5   8 87.6693 7.25245   5
  -4   5   8 112.116 6.72693   1
   4   5  -8 105.148 8.66442   2
  -4   5   8 107.222 7.86086   4
  -3  -5   8 299.697 16.8257   1
  -3  -5   8 253.565 17.3698   4
  -3   5   8 269.775 14.5286   1
  -3   5   8 284.389 15.5391   4
   3   5  -8 259.480 16.6719   2
  -2  -5   8 84.7234 7.18788   1
  -2  -5   8 77.3436 8.02353   5
  -2  -5   8 84.9719 7.79060   4
   2  -5  -8 92.5134 6.78103   1
   2   5  -8 81.6132 5.76745   1
   2   5  -8 77.4594 6.86614   2
  -2   5   8 83.0736 8.65390   4
  -2   5   8 90.3966 5.86707   5
  -2   5   8 95.4977 5.69742   1
   1  -5  -8 199.551 12.9124   4
   1  -5  -8 204.110 11.9754   3
  -1  -5   8 219.697 12.5134   1
   1  -5  -8 185.633 11.8091   5
   1  -5  -8 209.609 12.3003   1
  -1   5   8 204.238 10.7573   4
  -1   5   8 215.154 10.4900   5
   1   5  -8 187.681 11.7552   2
   1   5  -8 201.477 11.1785   1
   1   5  -8 209.005 11.1093   5
   1   5  -8 207.225 11.1393   4
  -1   5   8 212.843 10.7967   1
   0  -5  -8 599.840 30.4778   1
   0  -5  -8 625.751 30.2606   5
   0  -5  -8 609.351 31.0043   3
   0  -5   8 618.430 29.6804   1
   0  -5  -8 595.357 31.1254   4
   0   5  -8 604.453 29.0787   4
   0   5   8 558.176 29.2932   1
   0   5  -8 592.911 29.1684   1
   0   5  -8 585.724 29.5308   2
   0   5  -8 617.047 29.0324   5
  -1  -5  -8 45.6424 5.73372   4
  -1  -5  -8 45.0742 4.57988   1
  -1  -5  -8 37.8726 4.84163   3
  -1  -5  -8 42.7833 4.26483   5
  -1   5  -8 46.1588 3.49520   1
  -1   5  -8 46.8844 3.45264   5
   1   5   8 44.4684 4.34180   2
  -2  -5  -8 56.5161 5.02560   5
  -2  -5  -8 44.6781 5.66345   4
  -2  -5  -8 51.4770 5.26903   1
  -2  -5  -8 49.8397 5.61600   3
  -2   5  -8 43.8594 3.45439   1
  -2   5  -8 42.6896 3.37322   5
  -2   5  -8 47.8569 3.47882   4
  -3  -5  -8 49.2775 5.39765   1
  -3  -5  -8 40.4411 4.94855   5
  -3  -5  -8 45.0656 5.15839   3
  -3  -5  -8 41.6334 5.98236   4
  -3   5  -8 41.4900 3.11150   4
  -4  -5  -8 55.9371 6.87715   3
  -4  -5  -8 52.0660 5.89632   5
  -4  -6   8 -1.1387 1.45300   1
  -4  -6   8 0.53154 3.05389   5
  -4   6   8 -1.8371 1.43919   4
  -4   6   8 0.62257 1.24893   5
  -4   6   8 0.47406 0.99443   1
   4   6  -8 -3.4772 1.86907   2
  -3  -6   8 -0.7621 1.56322   1
  -3  -6   8 4.27945 3.10418   4
  -3  -6   8 -1.9155 2.98672   5
   3   6  -8 -1.5245 1.89890   1
   3   6  -8 3.44039 2.17262   2
  -3   6   8 2.15736 1.39143   5
  -3   6   8 -0.2237 1.55048   4
  -3   6   8 0.27603 0.90154   1
   2  -6  -8 129.010 9.24697   1
  -2  -6   8 145.709 10.2324   1
  -2  -6   8 131.236 10.9973   5
  -2  -6   8 137.305 11.8275   4
  -2   6   8 142.582 7.82714   5
   2   6  -8 139.029 8.41763   1
  -2   6   8 134.898 7.99391   1
  -2   6   8 136.751 8.22397   4
   2   6  -8 134.159 9.86309   2
   1  -6  -8 247.475 14.4618   1
   1  -6  -8 222.706 14.1440   5
   1  -6  -8 246.646 13.6459   3
  -1  -6   8 251.666 14.4346   1
  -1   6   8 240.827 12.2950   4
  -1   6   8 237.916 12.4811   1
   1   6  -8 233.163 12.7757   5
  -1   6   8 248.011 12.0486   5
   1   6  -8 227.335 13.9527   2
   1   6  -8 249.239 13.0580   1
   1   6  -8 223.929 12.7773   4
   0  -6  -8 72.0454 6.22749   5
   0  -6  -8 80.2951 7.30162   4
   0  -6  -8 74.0237 6.43886   3
   0  -6  -8 75.4293 6.45726   1
   0   6  -8 73.2426 5.16492   1
   0   6  -8 73.1060 5.02388   5
   0   6  -8 75.3685 5.28305   4
   0   6   8 73.6915 4.69608   1
   0   6  -8 73.1419 5.63406   2
  -1  -6  -8 2.39469 1.77749   1
  -1  -6  -8 1.94210 1.64138   3
  -1  -6  -8 2.80124 1.57882   5
  -1  -6  -8 0.50694 1.65045   4
  -1   6  -8 0.38795 0.70152   5
  -1   6  -8 2.05571 0.88551   4
  -1   6  -8 1.15742 0.90800   1
   1   6   8 2.30310 1.73306   2
  -2  -6  -8 73.6611 7.92369   4
  -2  -6  -8 60.1812 8.36970   3
  -2   6  -8 79.6845 4.98432   1
  -2   6  -8 75.3177 4.88603   4
  -3  -6  -8 165.648 11.0245   3
  -3  -6  -8 164.208 12.5562   4
  -3  -6  -8 179.743 11.9817   5
  -3  -6  -8 163.228 11.5004   1
  -3   6  -8 174.089 9.08908   4
  -3   6  -8 166.723 9.07913   5
  -3  -7   8 66.6083 9.19382   4
  -3  -7   8 53.4127 8.26917   5
  -3  -7   8 75.9932 6.78052   1
  -3   7   8 71.1559 5.06213   1
   3   7  -8 69.1821 6.91511   2
  -3   7   8 68.5992 4.70941   5
  -3   7   8 63.0126 4.98067   4
  -2  -7   8 23.9512 4.19218   1
   2  -7  -8 20.0964 3.48412   1
  -2   7   8 24.7964 2.77471   4
  -2   7   8 25.8597 2.69445   1
   2   7  -8 23.5783 2.88294   1
   2   7  -8 23.8405 6.04030   2
   1  -7  -8 83.3536 6.08682   3
  -1  -7   8 89.7315 7.03566   1
   1  -7  -8 83.3211 7.09689   1
   1   7  -8 80.3056 5.69932   1
  -1   7   8 76.1636 5.21655   1
   1   7  -8 71.8766 5.33347   4
   1   7  -8 78.3012 5.46990   5
   1   7  -8 72.7112 6.73569   2
   0  -7  -8 233.571 14.4805   5
   0  -7  -8 233.584 13.9693   3
   0  -7   8 212.856 14.1462   3
   0  -7  -8 222.816 15.4964   4
   0  -7  -8 234.825 14.6187   1
   0   7  -8 247.020 12.8189   1
   0   7  -8 231.031 12.4636   5
   0   7  -8 226.294 13.5591   2
   0   7   8 226.901 12.0523   1
   0   7  -8 233.554 12.5654   4
  -1  -7  -8 386.378 22.3170   1
  -1  -7  -8 389.272 23.7543   4
  -1  -7  -8 370.302 22.1460   5
  -1  -7  -8 402.767 22.1063   3
   1   7   8 427.570 22.7454   2
  -1   7  -8 387.209 19.8761   4
  -1   7  -8 392.839 19.8907   5
  -1   7  -8 395.878 20.0361   1
  -2  -7  -8 163.194 11.4274   5
  -2  -7  -8 157.501 10.8568   3
  -2  -7  -8 146.702 11.1218   1
  -2   7  -8 148.890 8.64767   1
  -2   7  -8 150.140 8.65355   5
  -3  -7  -8 -0.0163 2.12072   5
  -3  -7  -8 0.82557 1.92110   3
  -3  -7  -8 -0.6367 2.21236   1
  -3   7  -8 0.83996 0.96995   4
  -3  -8   8 11.8184 4.44976   1
  -3   8   8 8.40001 2.34534   1
  -3   8   8 6.67083 1.30241   5
  -2  -8   8 7.16750 2.53961   1
   2   8  -8 13.2464 2.17141   1
   2   8  -8 10.6355 3.04648   2
  -2   8   8 14.6981 2.28049   4
  -2   8   8 14.4300 2.10058   1
  -2   8   8 14.9376 1.83771   5
   1  -8  -8 339.991 20.5092   1
   1  -8  -8 361.908 19.1954   3
  -1  -8   8 374.309 20.2687   1
   1   8  -8 380.561 18.9652   1
   1   8  -8 337.502 18.5931   4
   1   8  -8 351.070 20.6609   2
  -1   8   8 375.597 18.3545   1
   1   8  -8 351.252 18.6819   5
   0  -8  -8 2.03281 1.97644   3
   0  -8  -8 -0.3182 3.04620   4
   0  -8  -8 1.17473 2.18120   1
   0   8  -8 1.06377 0.83179   5
   0   8  -8 0.88612 0.82902   1
   0   8  -8 0.01146 0.84348   4
   0   8   8 0.81446 1.02246   1
   0   8  -8 3.19951 2.05350   2
  -1  -8  -8 14.1858 3.83849   3
  -1  -8  -8 12.7448 3.70448   4
  -1  -8  -8 12.5601 3.30395   5
  -1  -8  -8 10.3527 3.17174   1
  -1   8  -8 9.68503 1.83117   5
   1   8   8 10.4470 3.10010   2
  -1   8  -8 9.65192 1.83816   4
  -1   8  -8 10.4660 1.85535   1
  -2  -8  -8 39.5751 5.57510   1
  -2  -8  -8 36.8071 4.48999   3
  -2  -8  -8 45.7865 6.30152   4
  -2  -8  -8 37.6821 5.47445   5
  -2   8  -8 36.3993 3.09909   4
  -2   8  -8 36.3576 3.24135   5
   2   8   8 33.4740 6.29877   2
  -2   8  -8 39.0519 3.20821   1
  -2  -9   8 42.5605 5.40233   1
   2   9  -8 47.7553 5.68232   2
  -2   9   8 49.2850 3.84235   1
   2   9  -8 44.6608 5.58917   1
  -2   9   8 41.9222 3.51092   5
   1  -9  -8 43.7232 4.19754   3
  -1  -9   8 43.5401 5.55098   1
   1  -9  -8 44.4138 5.45697   1
   1   9  -8 46.6644 5.46751   2
   1   9  -8 47.3487 4.11051   1
  -1   9   8 46.3507 3.77853   1
   0  -9  -8 45.6592 4.66455   3
   0  -9  -8 50.8116 5.93077   1
   0   9   8 51.4347 3.67211   1
   0   9  -8 46.2359 3.89604   5
   0   9  -8 40.4305 5.46717   2
   0   9  -8 49.0265 4.04810   4
   0   9  -8 49.7384 4.17814   1
  -1  -9  -8 224.674 16.8856   4
  -1  -9  -8 253.028 14.6594   3
  -1  -9  -8 233.507 15.9348   5
  -1   9  -8 234.842 13.1172   4
  -1   9  -8 244.620 13.1448   5
   1   9   8 265.813 15.9508   2
  -1   9  -8 255.491 13.3428   1
  -2  -9  -8 35.4445 4.02880   3
  -2  -9  -8 39.1169 5.26970   1
  -2  -9  -8 33.8981 5.51998   5
  -2   9  -8 33.9978 2.98941   1
  -2   9  -8 32.8841 2.86532   4
  -2   9  -8 35.8825 3.04593   5
   1 -10  -8 7.29095 3.09016   1
   1  10  -8 14.2038 2.04889   1
  -1  10   8 11.9574 1.93976   1
   0 -10  -8 11.6486 3.29898   1
   0 -10  -8 20.3141 2.94031   3
   0  10   8 27.2532 4.09893   2
   0  10   8 17.2920 2.27933   1
   0  10  -8 21.5435 3.28058   1
   0  10  -8 17.5905 2.46411   5
  -1 -10  -8 27.5975 5.05523   5
  -1 -10  -8 36.2375 3.94319   3
  -1 -10  -8 31.3447 4.99893   1
   1  10   8 41.4494 7.58273   2
  -1  10  -8 38.1507 3.15348   5
  -1  10  -8 37.0459 3.31173   1
   4   0  -9 0.43298 1.95689   2
  -4   0   9 -4.8062 2.77189   5
  -4   0   9 0.29631 2.30941   4
  -4   0   9 0.90097 1.40783   1
  -3   0   9 37.5003 6.69181   5
   3   0  -9 50.4515 4.67620   2
  -3   0   9 53.2668 5.81870   4
  -3   0   9 48.5354 4.58671   1
   2   0  -9 0.08294 1.10919   4
  -2   0   9 -0.0810 1.25279   4
   2   0  -9 -0.4978 0.68812   1
   2   0  -9 2.50416 1.28680   2
  -2   0   9 0.50472 1.16428   1
   2   0  -9 1.50075 1.02213   5
  -2   0   9 -2.0343 2.80972   5
  -1   0   9 885.004 39.5783   5
   1   0  -9 756.630 39.0077   1
   1   0  -9 829.153 38.8813   5
  -1   0   9 820.321 38.9095   1
  -1   0   9 813.551 39.4477   4
   1   0  -9 799.064 39.0198   4
   0   0  -9 0.60466 0.59283   5
   0   0  -9 0.23392 0.63210   4
   0   0  -9 0.16530 0.53852   1
   0   0   9 -0.0564 0.63349   1
  -1   0  -9 3.37821 1.06684   4
  -1   0  -9 4.16370 1.09417   5
  -1   0  -9 1.64698 0.81661   1
  -2   0  -9 0.74814 0.75938   1
  -2   0  -9 1.19045 0.82723   4
  -3   0  -9 843.091 39.9953   4
  -4   0  -9 22.3304 6.27310   3
  -4  -1   9 5.18010 2.68271   4
  -4  -1   9 -0.3628 3.37561   5
  -4  -1   9 -0.8739 1.20946   1
   4  -1  -9 -0.6254 1.84072   2
  -4   1   9 1.90980 2.12637   4
  -4   1   9 1.14879 1.21604   1
   4   1  -9 0.04116 2.07846   2
  -4   1   9 -1.1278 2.78745   5
  -3  -1   9 3.71976 1.84186   1
   3  -1  -9 3.09208 1.81273   2
  -3  -1   9 5.97252 3.60065   5
  -3  -1   9 4.92265 2.63494   4
  -3   1   9 6.51103 1.86105   1
   3   1  -9 5.60822 1.89151   2
  -3   1   9 1.26213 3.26231   5
  -3   1   9 4.15743 2.27109   4
  -2  -1   9 264.935 14.1233   1
  -2  -1   9 226.038 15.4991   5
  -2  -1   9 255.165 14.7064   4
   2  -1  -9 230.921 13.1134   2
   2  -1  -9 255.090 13.5819   1
  -2   1   9 256.899 14.8449   5
  -2   1   9 273.369 14.5766   4
   2   1  -9 224.214 13.2886   2
  -2   1   9 271.976 13.6129   1
   2   1  -9 255.879 13.2171   5
  -1  -1   9 137.179 7.99963   1
   1  -1  -9 126.736 7.98224   1
  -1  -1   9 136.135 8.51015   4
   1  -1  -9 136.176 7.85187   5
   1  -1  -9 140.913 8.12685   4
  -1   1   9 133.208 8.15236   4
   1   1  -9 144.654 7.81358   5
   1   1  -9 139.853 7.91287   4
  -1   1   9 134.845 7.65238   1
   1   1  -9 137.898 7.93896   1
  -1   1   9 141.288 8.25899   5
   0  -1  -9 585.923 27.5144   5
   0  -1   9 557.170 27.0571   1
   0  -1  -9 553.503 27.7016   1
   0  -1  -9 594.125 27.7618   4
   0   1   9 577.982 26.9624   1
   0   1  -9 535.307 27.2631   5
   0   1  -9 567.514 27.5463   1
   0   1  -9 583.752 27.5080   4
  -1  -1  -9 519.076 25.5260   5
  -1  -1  -9 503.037 25.7757   1
  -1  -1  -9 535.054 25.8038   4
  -1   1  -9 516.581 25.5837   1
  -1   1  -9 549.965 25.5658   4
  -1   1  -9 548.781 25.4514   5
  -2  -1  -9 89.5515 5.30709   5
  -2  -1  -9 81.8078 5.50559   1
  -2   1  -9 87.6943 5.97955   4
  -2   1  -9 77.8622 5.15017   1
  -3  -1  -9 52.7892 4.43816   4
  -3   1  -9 65.8625 4.06536   4
  -4  -1  -9 4.19029 4.10712   3
  -4  -2   9 -2.9605 2.27238   4
   4  -2  -9 3.18248 2.24530   2
  -4  -2   9 0.59556 3.02991   5
  -4  -2   9 0.32084 1.32931   1
   4   2  -9 5.00929 2.16816   2
  -4   2   9 -1.1855 2.27346   4
  -4   2   9 -0.1517 2.63913   5
  -4   2   9 0.19713 1.05102   1
  -3  -2   9 52.1279 7.19880   5
  -3  -2   9 52.9816 6.26570   4
  -3  -2   9 57.3210 5.52441   1
   3  -2  -9 54.0990 5.11716   2
  -3   2   9 53.9730 4.57678   1
  -3   2   9 64.6561 6.17742   4
  -3   2   9 59.1345 6.56464   5
   3   2  -9 54.1642 5.14922   2
   3   2  -9 56.5124 4.60584   1
  -2  -2   9 170.082 10.1303   1
   2  -2  -9 173.368 9.65216   1
  -2  -2   9 172.186 11.4003   5
  -2  -2   9 141.050 10.5083   4
   2  -2  -9 151.111 9.50525   2
   2   2  -9 146.442 8.92774   5
  -2   2   9 157.176 9.94941   4
   2   2  -9 153.243 9.38578   2
   2   2  -9 167.231 9.29381   1
  -2   2   9 170.006 9.20923   1
  -1  -2   9 280.826 15.8779   5
   1  -2  -9 228.678 12.6478   5
   1  -2  -9 235.454 13.0432   4
  -1  -2   9 235.601 13.4317   4
  -1  -2   9 236.892 13.0671   1
   1   2  -9 235.896 12.4762   5
  -1   2   9 220.493 12.7009   4
   1   2  -9 239.350 12.5996   4
   1   2  -9 237.220 12.6597   1
  -1   2   9 264.338 12.7283   5
  -1   2   9 230.519 12.2380   1
   0  -2  -9 157.482 9.06104   4
   0  -2   9 164.028 8.49334   1
   0  -2  -9 150.471 8.74152   5
   0  -2  -9 152.939 9.22392   1
   0   2  -9 153.394 8.80319   5
   0   2  -9 165.277 8.70725   4
   0   2  -9 156.870 8.71329   1
   0   2   9 156.090 8.17432   1
  -1  -2  -9 342.339 17.4537   4
  -1  -2  -9 330.649 17.4384   1
  -1  -2  -9 353.604 17.2037   5
  -1   2  -9 313.010 18.9538   1
  -1   2  -9 340.866 16.8105   5
  -1   2  -9 354.584 16.9674   4
  -2  -2  -9 503.090 24.3378   5
  -2  -2  -9 477.873 24.6978   1
  -2  -2  -9 482.565 24.7035   4
  -2   2  -9 526.235 24.0344   4
  -2   2  -9 484.485 24.0135   1
  -3  -2  -9 43.1367 4.23977   4
  -3   2  -9 40.4970 3.07296   4
  -4  -2  -9 123.312 8.60137   3
  -4  -3   9 11.6141 4.04453   5
   4  -3  -9 11.8783 3.82422   2
  -4  -3   9 10.7456 2.53691   1
  -4  -3   9 12.0349 3.56018   4
   4   3  -9 15.1873 2.75506   2
  -4   3   9 10.0491 3.26820   4
  -4   3   9 12.0722 2.40795   1
  -4   3   9 6.60474 2.96302   5
  -3  -3   9 156.579 10.9230   1
  -3  -3   9 163.280 12.5131   5
   3  -3  -9 161.067 11.0538   2
  -3  -3   9 154.113 11.9131   4
   3   3  -9 174.368 11.2066   2
  -3   3   9 183.628 11.3501   4
  -3   3   9 178.078 9.95961   1
   3   3  -9 191.664 10.1680   1
  -3   3   9 143.406 10.9477   5
   2  -3  -9 1.53329 1.23482   1
  -2  -3   9 -0.7746 1.27377   1
  -2  -3   9 0.46533 2.60354   5
  -2  -3   9 0.19628 1.87564   4
   2   3  -9 -1.7546 1.48507   2
  -2   3   9 -0.8067 1.54887   4
   2   3  -9 2.33345 1.15726   4
  -2   3   9 0.32134 0.91473   1
   2   3  -9 0.80633 0.83400   1
  -2   3   9 3.27455 1.79945   5
   2   3  -9 1.97325 1.06314   5
   1  -3  -9 972.584 47.1464   5
  -1  -3   9 1062.28 47.9000   1
   1  -3  -9 1002.56 47.4627   1
   1  -3  -9 958.864 47.7051   4
   1   3  -9 965.899 46.7463   4
   1   3  -9 956.107 46.8306   1
  -1   3   9 994.570 46.3971   1
   0  -3  -9 480.083 23.9508   5
   0  -3  -9 463.222 24.2199   1
   0  -3   9 505.746 23.6062   1
   0  -3  -9 488.368 24.4659   4
   0   3   9 461.252 23.0306   1
   0   3  -9 491.144 23.7370   1
   0   3  -9 502.133 23.6353   4
   0   3  -9 466.710 23.4491   5
  -1  -3  -9 89.7811 6.37926   1
  -1  -3  -9 89.9021 6.42249   4
  -1  -3  -9 91.9024 6.03213   5
  -1   3  -9 92.8776 5.65149   4
  -1   3  -9 97.1068 5.57335   5
  -1   3  -9 87.7669 5.63178   1
  -2  -3  -9 96.8175 7.04058   4
  -2  -3  -9 96.7138 6.41192   5
  -2  -3  -9 97.2338 6.88771   1
  -2   3  -9 102.417 5.92270   4
  -2   3  -9 99.9587 5.76567   5
  -2   3  -9 95.5337 5.85511   1
  -3  -3  -9 3.29137 2.41380   1
  -3  -3  -9 -0.5899 1.88923   4
  -3  -3  -9 2.89526 2.83159   3
  -3  -3  -9 1.51563 1.25067   5
  -3   3  -9 3.60727 0.97223   4
  -4  -3  -9 19.5072 4.29845   3
  -4  -4   9 26.1280 3.90018   1
  -4  -4   9 34.8599 5.61577   4
  -4   4   9 32.3067 3.22410   1
   4   4  -9 31.5565 4.39434   2
  -4   4   9 28.6207 4.29610   4
  -3  -4   9 357.325 21.8181   4
  -3  -4   9 373.581 22.1813   1
  -3  -4   9 367.731 22.0162   5
  -3   4   9 371.584 20.2673   4
   3   4  -9 394.554 19.5365   1
   3   4  -9 355.072 20.6627   2
  -3   4   9 377.001 19.9569   1
  -2  -4   9 56.6099 5.33631   1
   2  -4  -9 50.4851 4.83272   1
  -2  -4   9 50.3642 6.49694   5
  -2  -4   9 47.6557 6.25773   4
  -2   4   9 45.8520 3.80738   1
   2   4  -9 55.0391 4.20735   1
  -2   4   9 49.3217 4.63813   4
  -2   4   9 52.8668 4.48450   5
   1  -4  -9 23.2162 3.19285   1
  -1  -4   9 25.4137 3.31700   1
   1  -4  -9 15.6817 3.15446   5
   1  -4  -9 27.2571 3.64462   4
  -1   4   9 26.1432 2.46554   4
  -1   4   9 23.8347 2.19712   5
  -1   4   9 22.7238 2.23638   1
   1   4  -9 22.2398 2.43566   5
   1   4  -9 21.0689 2.50000   1
   1   4  -9 20.7412 2.42833   4
   0  -4  -9 594.193 30.2193   4
   0  -4  -9 591.709 29.9118   1
   0  -4   9 593.139 28.8291   1
   0  -4  -9 618.081 29.5754   5
   0   4  -9 597.993 28.7216   5
   0   4  -9 606.344 28.9680   1
   0   4  -9 571.865 28.7277   4
   0   4   9 577.110 28.2601   1
  -1  -4  -9 326.959 18.0853   1
  -1  -4  -9 347.548 17.7949   5
  -1   4  -9 337.546 16.8215   5
  -1   4  -9 328.116 16.9648   1
  -2  -4  -9 3.01697 1.39948   5
  -2  -4  -9 2.38993 2.35560   3
  -2  -4  -9 2.76397 1.65592   1
  -2  -4  -9 0.79513 1.44068   4
  -2   4  -9 3.88801 1.10819   1
  -2   4  -9 1.79326 0.90130   5
  -2   4  -9 2.45430 0.95547   4
  -3  -4  -9 44.0880 4.77669   5
  -3  -4  -9 39.6283 5.18948   1
  -3  -4  -9 45.5483 5.69477   4
  -3  -4  -9 46.6190 5.48946   3
  -3   4  -9 42.7862 3.21969   4
  -4  -5   9 38.2768 6.21484   5
  -4  -5   9 40.0712 6.82110   1
  -4  -5   9 25.0648 4.84754   4
  -4   5   9 47.2642 4.94188   1
  -4   5   9 33.2928 4.39421   4
   4   5  -9 40.8763 5.20460   2
  -3  -5   9 3.70257 3.57555   4
  -3  -5   9 11.1413 2.94432   1
  -3  -5   9 21.8560 4.38922   5
   3   5  -9 14.2040 2.62317   1
  -3   5   9 16.4733 2.35410   1
   3   5  -9 9.92433 3.10236   2
  -3   5   9 9.84610 2.29972   5
  -3   5   9 14.5534 2.76653   4
   2  -5  -9 342.260 18.6290   1
  -2  -5   9 313.332 19.5816   4
  -2  -5   9 344.114 19.1591   1
  -2  -5   9 318.933 19.7402   5
   2   5  -9 325.533 17.5442   1
  -2   5   9 349.498 17.2565   1
  -2   5   9 348.305 17.6565   4
  -2   5   9 353.166 17.1636   5
   2   5  -9 319.825 18.5117   2
   1  -5  -9 265.805 15.4085   5
   1  -5  -9 264.715 15.4574   3
   1  -5  -9 279.449 15.8708   1
  -1  -5   9 306.381 15.9885   1
   1  -5  -9 256.091 16.3440   4
   1   5  -9 275.590 14.6060   4
  -1   5   9 282.349 14.1515   1
  -1   5   9 268.910 13.6874   5
   1   5  -9 287.949 14.7972   1
   1   5  -9 278.823 14.5345   5
   0  -5  -9 255.418 15.7407   3
   0  -5  -9 259.549 15.3789   1
   0  -5  -9 273.782 16.1066   4
   0  -5  -9 283.092 15.2077   5
   0   5   9 262.088 13.5620   1
   0   5  -9 270.249 14.1791   1
   0   5  -9 265.286 16.4535   4
   0   5  -9 269.396 13.9850   5
  -1  -5  -9 79.0597 7.14109   4
  -1  -5  -9 68.3553 6.32124   1
  -1  -5  -9 79.2274 6.20789   5
  -1  -5  -9 79.0515 7.20925   3
  -1   5  -9 80.9873 5.22860   4
  -1   5  -9 75.2072 5.17890   1
  -1   5  -9 80.6146 5.17942   5
  -2  -5  -9 15.7984 3.62659   4
  -2  -5  -9 13.7835 4.19828   3
  -2  -5  -9 10.5679 2.76001   1
  -2   5  -9 15.5510 1.97503   4
  -2   5  -9 13.5815 2.00558   1
  -2   5  -9 15.6746 2.00684   5
  -3  -5  -9 39.2479 5.05173   5
  -3  -5  -9 46.3825 5.27209   3
  -3  -5  -9 55.2344 6.30907   4
  -3  -5  -9 52.2367 5.76067   1
  -3   5  -9 39.4864 3.20079   4
  -4  -6   9 119.770 8.07088   1
  -4   6   9 125.854 7.05216   1
   4   6  -9 111.911 9.10297   2
  -4   6   9 94.1248 6.65463   5
  -3  -6   9 46.5291 8.24931   4
  -3  -6   9 43.6143 5.07579   1
  -3  -6   9 32.6749 5.38530   5
  -3   6   9 40.0507 3.60394   5
  -3   6   9 40.0507 4.05829   4
  -3   6   9 44.4294 3.77653   1
   3   6  -9 44.0644 5.35450   2
  -2  -6   9 231.517 14.1766   1
   2  -6  -9 220.536 13.4692   1
   2   6  -9 207.247 13.4363   2
   2   6  -9 219.863 12.4780   1
  -2   6   9 236.046 11.7267   5
  -2   6   9 218.659 12.0628   4
  -2   6   9 222.092 12.6499   1
  -1  -6   9 256.745 14.6111   1
   1  -6  -9 240.738 14.7979   1
   1  -6  -9 243.158 13.9891   3
   1   6  -9 246.383 13.3383   4
  -1   6   9 255.091 12.9017   1
   1   6  -9 251.148 13.2492   5
   1   6  -9 225.686 14.6933   2
   1   6  -9 242.352 13.4315   1
   0  -6  -9 193.383 13.2140   4
   0  -6  -9 187.179 12.0534   5
   0  -6  -9 200.422 12.5283   1
   0  -6  -9 176.585 12.1367   3
   0   6   9 191.525 10.1551   1
   0   6  -9 193.461 10.7419   4
   0   6  -9 194.916 10.6427   5
   0   6  -9 186.725 10.7717   1
  -1  -6  -9 2.62560 2.05112   3
  -1  -6  -9 0.97317 1.65236   1
  -1  -6  -9 3.06721 1.87287   5
  -1  -6  -9 6.69396 2.74585   4
  -1   6  -9 4.25473 1.28107   5
  -1   6  -9 2.61215 1.04918   4
  -1   6  -9 3.40645 1.13709   1
  -2  -6  -9 24.0944 4.15591   1
  -2  -6  -9 17.4078 4.30661   4
  -2  -6  -9 23.5503 3.99233   5
  -2  -6  -9 27.4148 4.31426   3
  -2   6  -9 19.0606 2.34569   4
  -2   6  -9 24.4364 2.52374   5
  -2   6  -9 22.8982 2.50801   1
  -3  -6  -9 3.26496 2.30287   4
  -3  -6  -9 0.34477 3.14243   1
  -3  -6  -9 -1.3152 1.78229   5
  -3  -6  -9 1.22592 2.35234   3
  -3   6  -9 1.13168 0.96475   5
  -3   6  -9 0.77804 0.90942   4
  -3  -7   9 56.4092 5.65498   1
   3   7  -9 37.4325 5.41890   2
  -3   7   9 58.8342 4.22889   1
  -3   7   9 48.6255 3.72848   5
  -3   7   9 48.0151 4.31873   4
   2  -7  -9 37.1758 5.03759   1
  -2  -7   9 42.6785 5.07464   1
  -2   7   9 38.9186 3.63680   4
  -2   7   9 43.8869 3.59185   1
  -2   7   9 33.9875 2.95516   5
   2   7  -9 35.8871 5.07050   2
   2   7  -9 39.0610 3.63128   1
  -1  -7   9 3.06298 1.79773   1
   1  -7  -9 1.67031 1.79113   1
   1  -7  -9 9.34781 2.69427   3
   1   7  -9 3.60938 1.22607   5
   1   7  -9 5.85805 1.53466   4
   1   7  -9 3.55573 1.51922   1
  -1   7   9 5.67361 1.44499   1
   0  -7  -9 66.3258 6.66143   1
   0  -7  -9 68.2394 6.32689   5
   0  -7  -9 47.1201 6.83380   4
   0  -7  -9 65.2244 5.99945   3
   0   7  -9 65.0615 4.94338   4
   0   7  -9 65.7871 5.12068   1
   0   7  -9 67.5245 4.87259   5
   0   7   9 64.0347 4.32926   1
  -1  -7  -9 150.764 10.7659   3
  -1  -7  -9 149.738 12.4304   4
  -1  -7  -9 163.509 11.3940   5
  -1  -7  -9 158.013 11.2929   1
  -1   7  -9 149.468 8.98980   1
  -1   7  -9 149.928 8.96867   4
  -1   7  -9 158.992 9.02072   5
  -2  -7  -9 19.5059 4.51308   4
  -2  -7  -9 13.3793 3.53773   1
  -2  -7  -9 15.9184 3.74848   5
  -2  -7  -9 21.0778 3.70630   3
  -2   7  -9 18.2579 2.26161   1
  -2   7  -9 17.9028 2.23962   5
  -2   7  -9 18.3701 2.18366   4
  -3  -7  -9 23.3132 3.29548   3
  -3  -7  -9 23.1078 4.33500   5
  -3  -7  -9 24.6981 4.38092   1
  -3   7  -9 21.4801 2.19292   5
  -3  -8   9 52.4226 5.33466   1
  -3   8   9 51.7510 3.85281   1
  -3   8   9 39.2879 3.23810   5
  -2  -8   9 177.354 11.2005   1
  -2   8   9 140.322 8.47881   5
   2   8  -9 168.173 9.57587   1
   2   8  -9 148.983 12.4491   2
  -2   8   9 161.045 9.13232   1
   1  -8  -9 15.4012 3.13697   3
   1  -8  -9 8.17169 2.79068   1
  -1  -8   9 13.4746 3.28911   1
   1   8  -9 16.8954 2.38335   1
   1   8  -9 13.1473 2.52262   4
   1   8  -9 12.3738 2.29844   5
  -1   8   9 15.5284 2.10199   1
   0  -8  -9 1.48084 2.20614   1
   0  -8  -9 5.50407 2.44804   5
   0  -8  -9 8.26881 3.30075   4
   0  -8  -9 7.22620 2.35216   3
   0   8   9 6.83510 1.32455   1
   0   8  -9 5.45711 1.45478   5
   0   8  -9 6.19752 1.80648   1
  -1  -8  -9 -2.1286 2.14068   4
  -1  -8  -9 3.03895 2.10584   5
  -1  -8  -9 3.25151 2.20562   1
  -1  -8  -9 1.59001 1.86310   3
  -1   8  -9 0.74952 0.86955   5
  -1   8  -9 0.34070 0.74826   1
  -1   8  -9 1.03191 0.91507   4
  -2  -8  -9 2.57294 1.98825   5
  -2  -8  -9 0.19663 3.24711   4
  -2  -8  -9 2.55420 2.32901   1
  -2  -8  -9 3.61146 2.20440   3
  -2   8  -9 1.75051 1.04890   4
  -2   8  -9 2.34879 0.97978   5
  -2   8  -9 2.42481 1.12121   1
  -2  -9   9 7.77538 2.46939   1
  -2   9   9 0.36267 1.03299   1
   2   9  -9 1.71677 1.23325   1
   1  -9  -9 4.22632 2.00815   3
   1  -9  -9 -0.3984 2.64702   1
  -1   9   9 1.35658 0.93656   1
   1   9  -9 2.57256 1.08796   1
   0  -9  -9 1.87022 2.23445   1
   0  -9  -9 4.91062 2.01944   3
   0   9  -9 4.98917 1.48100   4
   0   9  -9 3.99480 1.28363   1
   0   9   9 3.57927 1.27435   1
   0   9  -9 4.02488 1.29541   5
  -1  -9  -9 1.05209 1.87101   3
  -1  -9  -9 -0.6471 1.98646   5
  -1   9  -9 1.11236 0.94724   5
  -1   9  -9 0.29343 0.74834   1
  -1   9  -9 1.66971 1.04883   4
   1 -10  -9 20.7412 5.71004   1
   1  10  -9 34.8230 3.20030   1
  -1  10   9 30.7106 2.69158   1
   0 -10  -9 70.4279 5.33889   3
   0 -10  -9 64.0190 6.68171   1
   0  10  -9 73.6129 5.08749   1
   0  10  -9 71.2322 4.88218   5
  -4   0  10 64.2039 6.84927   4
  -4   0  10 64.8101 5.45967   1
   4   0 -10 77.4305 6.02406   2
   3   0 -10 -2.7012 1.41960   1
  -3   0  10 -1.6919 3.07261   5
   3   0 -10 -0.7695 1.53773   2
  -3   0  10 0.77226 1.40332   1
  -3   0  10 1.64325 1.74571   4
  -2   0  10 2534.93 112.095   1
  -2   0  10 2259.10 112.697   4
   2   0 -10 2376.04 111.959   1
  -2   0  10 2445.38 113.042   5
  -1   0  10 3.24162 2.70216   5
  -1   0  10 2.64257 1.56253   4
   0   0 -10 151.363 8.90161   4
   0   0  10 158.781 8.20856   1
   0   0 -10 150.133 8.99890   1
   0   0 -10 164.026 8.83437   5
  -1   0 -10 0.88697 0.78499   5
  -1   0 -10 -0.0950 0.69675   4
  -1   0 -10 0.39012 0.65467   1
  -2   0 -10 449.313 21.8296   4
  -2   0 -10 415.113 21.7385   1
  -2   0 -10 445.466 21.5582   5
  -3   0 -10 1.79309 1.06410   4
   4  -1 -10 204.765 12.3107   2
  -4  -1  10 209.599 13.6291   4
  -4  -1  10 212.453 12.3442   1
  -4   1  10 184.408 13.5345   5
   4   1 -10 215.199 12.5410   2
  -4   1  10 216.953 12.0633   1
  -4   1  10 220.366 13.5415   4
   3  -1 -10 115.549 7.67252   2
  -3  -1  10 104.412 9.96096   5
  -3  -1  10 103.639 10.7941   4
  -3  -1  10 122.021 8.14466   1
   3   1 -10 123.059 7.83305   2
  -3   1  10 118.555 7.76265   1
   3   1 -10 126.618 7.66492   1
  -3   1  10 102.348 8.60952   4
  -3   1  10 102.851 9.29141   5
   2  -1 -10 -0.9915 1.45571   4
   2  -1 -10 1.47836 1.12251   1
   2  -1 -10 1.62302 1.44536   5
  -2  -1  10 3.81600 1.76151   4
  -2  -1  10 1.77488 1.33725   1
  -2  -1  10 1.26532 3.19284   5
   2   1 -10 0.03761 0.94943   5
   2   1 -10 1.24562 1.18126   4
  -2   1  10 4.59605 1.89720   4
  -2   1  10 1.72176 1.10088   1
   2   1 -10 2.77317 1.08656   1
  -2   1  10 2.48225 2.48977   5
   1  -1 -10 73.4239 5.19252   4
  -1  -1  10 62.1854 6.62156   1
   1  -1 -10 70.8756 5.17279   1
   1   1 -10 69.6690 4.99004   1
   1   1 -10 68.9899 4.93638   4
  -1   1  10 70.4547 4.63285   1
   1   1 -10 67.6805 4.77884   5
  -1   1  10 71.6674 5.11193   5
   0  -1 -10 685.883 33.4730   1
   0  -1 -10 699.949 33.4451   4
   0  -1  10 709.200 32.5154   1
   0  -1 -10 664.144 33.0678   5
   0   1 -10 656.468 33.1584   1
   0   1 -10 683.146 33.1275   4
   0   1 -10 691.967 33.0031   5
   0   1  10 701.569 32.4264   1
  -1  -1 -10 47.4203 3.63729   5
  -1  -1 -10 40.8685 3.71560   1
  -1  -1 -10 46.3110 3.82226   4
  -1   1 -10 47.0049 3.64005   4
  -1   1 -10 42.8957 3.57297   1
  -1   1 -10 42.9647 3.42467   5
  -2  -1 -10 1.17366 0.92151   5
  -2  -1 -10 2.88537 1.17093   4
  -2  -1 -10 1.55756 1.34015   1
  -2   1 -10 1.75731 0.88238   4
  -2   1 -10 1.98448 1.03358   1
  -2   1 -10 0.57152 0.70842   5
  -3  -1 -10 -0.6081 1.61254   4
  -3   1 -10 4.09686 1.89289   4
  -4  -2  10 9.20179 2.28672   1
   4  -2 -10 5.41698 3.09742   2
  -4  -2  10 10.4591 3.50714   4
  -4  -2  10 6.26217 4.08740   5
  -4   2  10 9.87097 1.81087   1
  -4   2  10 8.88327 2.98057   4
   4   2 -10 9.40833 2.61157   2
  -4   2  10 7.89300 3.16361   5
   3  -2 -10 570.154 28.1679   2
  -3  -2  10 527.402 29.4805   4
  -3  -2  10 565.523 28.6060   1
  -3  -2  10 460.217 29.4898   5
  -3   2  10 602.054 27.8069   1
   3   2 -10 562.559 28.3223   2
   3   2 -10 610.551 27.9069   1
  -3   2  10 488.665 28.5704   5
  -3   2  10 566.617 28.9440   4
  -2  -2  10 506.683 26.5461   5
  -2  -2  10 470.616 26.0429   4
  -2  -2  10 506.336 25.5703   1
   2  -2 -10 494.344 25.1605   1
   2   2 -10 492.544 24.9042   1
  -2   2  10 511.049 24.6077   1
  -2   2  10 478.286 25.3327   4
   1  -2 -10 969.576 46.1724   5
   1  -2 -10 941.670 46.5740   4
   1  -2 -10 1006.03 46.5912   1
  -1  -2  10 1008.08 46.2954   1
  -1   2  10 1015.41 45.6090   1
   1   2 -10 973.296 45.8843   5
   1   2 -10 978.287 46.1496   1
   1   2 -10 948.064 45.9858   4
  -1   2  10 853.250 45.3387   5
   0  -2  10 146.233 7.89827   1
   0  -2 -10 139.981 8.79001   1
   0  -2 -10 141.402 8.79514   4
   0  -2 -10 143.910 8.53123   5
   0   2 -10 146.027 8.26473   5
   0   2 -10 153.251 8.45262   4
   0   2  10 139.211 7.69242   1
   0   2 -10 155.864 8.56736   1
  -1  -2 -10 41.6837 3.89740   4
  -1  -2 -10 45.2712 3.65829   5
  -1  -2 -10 40.9651 3.82122   1
  -1   2 -10 37.4589 3.29992   4
  -1   2 -10 40.0837 3.28755   5
  -1   2 -10 40.8849 3.42076   1
  -2  -2 -10 480.662 25.2345   4
  -2  -2 -10 505.111 25.2929   1
  -2  -2 -10 508.475 24.8577   5
  -2   2 -10 505.428 24.4343   4
  -2   2 -10 497.944 24.2969   5
  -2   2 -10 494.977 24.5883   1
  -3  -2 -10 7.82575 2.29997   4
  -3  -2 -10 1.66122 2.77028   1
  -3   2 -10 8.07766 1.62433   4
  -4  -2 -10 7.73579 4.97102   3
  -4  -3  10 3.58795 3.11746   5
  -4  -3  10 3.59150 1.83162   1
  -4  -3  10 4.37162 2.91998   4
   4   3 -10 2.62184 2.94789   2
  -4   3  10 0.89313 2.70786   4
  -4   3  10 0.16080 2.25014   5
  -4   3  10 2.13643 1.37823   1
  -3  -3  10 11.3472 3.31302   4
  -3  -3  10 18.0535 3.50057   1
  -3   3  10 17.5053 2.57619   1
  -3   3  10 16.1781 3.68957   4
   3   3 -10 20.8008 3.82449   2
   3   3 -10 13.8933 2.67615   1
  -2  -3  10 42.0455 4.56185   1
  -2  -3  10 41.3126 5.20304   4
   2  -3 -10 40.9008 4.08165   1
  -2  -3  10 39.8973 5.47980   5
  -2   3  10 40.2538 4.26651   5
  -2   3  10 33.0630 4.26499   4
  -2   3  10 40.9181 3.49242   1
   2   3 -10 43.0781 3.76266   1
   1  -3 -10 180.245 11.0483   4
   1  -3 -10 177.265 10.4100   5
  -1  -3  10 185.580 10.6855   1
   1  -3 -10 183.752 10.7853   1
   1   3 -10 174.625 9.95560   5
   1   3 -10 172.605 10.0627   4
  -1   3  10 183.615 9.64713   1
   1   3 -10 176.464 10.1587   1
   0  -3 -10 64.5668 5.38892   4
   0  -3 -10 66.7720 4.98805   5
   0  -3 -10 64.2374 5.20123   1
   0   3  10 65.7023 4.08075   1
   0   3 -10 60.7044 4.47724   5
   0   3 -10 65.7791 4.71716   1
   0   3 -10 69.6660 4.72721   4
  -1  -3 -10 191.748 11.2867   4
  -1  -3 -10 189.725 10.7055   5
  -1  -3 -10 183.849 11.0947   1
  -1   3 -10 183.833 10.0869   5
  -1   3 -10 178.436 10.2077   1
  -1   3 -10 185.497 10.1867   4
  -2  -3 -10 16.0916 2.54381   5
  -2  -3 -10 17.8417 3.04524   4
  -2  -3 -10 12.5537 2.56040   1
  -2   3 -10 13.3895 1.93486   5
  -2   3 -10 13.8676 2.05740   4
  -2   3 -10 19.1178 2.20185   1
  -3  -3 -10 -1.4149 2.64567   1
  -3  -3 -10 1.44952 2.72060   3
  -3  -3 -10 4.10863 2.04404   4
  -3  -3 -10 1.86318 1.37500   5
  -3   3 -10 4.58720 1.11095   4
  -4  -4  10 37.8245 4.71893   1
  -4  -4  10 31.1791 5.33417   5
  -4  -4  10 24.3143 4.85329   4
  -4   4  10 26.3361 4.28721   4
  -3  -4  10 71.6902 7.89863   4
  -3  -4  10 71.4431 8.12037   5
  -3  -4  10 85.3167 7.04303   1
   3   4 -10 86.1967 7.23995   2
   3   4 -10 101.172 6.38189   1
  -3   4  10 89.1744 5.91278   1
  -3   4  10 70.6609 6.16747   5
  -3   4  10 79.1587 6.54246   4
   2  -4 -10 136.098 9.10976   1
  -2  -4  10 109.973 10.1019   5
  -2  -4  10 134.885 9.36007   1
  -2   4  10 138.586 8.53966   4
  -2   4  10 144.017 8.27592   5
   2   4 -10 131.639 8.36120   1
  -2   4  10 145.197 8.10833   1
   1  -4 -10 69.7684 5.80174   1
   1  -4 -10 64.7816 5.38558   5
  -1  -4  10 70.6090 5.64033   1
   1  -4 -10 66.2932 5.77619   3
   1  -4 -10 70.9941 6.13861   4
   1   4 -10 68.6077 5.06033   1
   1   4 -10 74.4180 4.98335   5
   1   4 -10 65.2802 4.89337   4
  -1   4  10 66.6072 4.52179   1
   0  -4 -10 117.539 8.24642   1
   0  -4 -10 121.438 8.57089   4
   0  -4 -10 125.377 7.95851   5
   0   4 -10 116.728 7.33184   1
   0   4 -10 118.436 7.16816   5
   0   4  10 112.726 6.57770   1
   0   4 -10 118.850 7.70949   4
  -1  -4 -10 807.597 40.4721   1
  -1  -4 -10 840.277 41.0496   4
  -1  -4 -10 842.450 40.1234   5
  -1   4 -10 821.273 39.1341   4
  -1   4 -10 790.998 39.1746   1
  -1   4 -10 798.897 38.9978   5
  -2  -4 -10 30.9234 4.54671   4
  -2  -4 -10 26.5184 3.97697   1
  -2  -4 -10 35.2079 9.35204   3
  -2   4 -10 28.6300 2.89445   1
  -2   4 -10 30.0321 2.81374   4
  -3  -4 -10 57.4642 5.44473   5
  -3  -4 -10 47.7304 5.93817   3
  -3  -4 -10 48.7786 6.25741   4
  -3  -4 -10 59.7577 6.02268   1
  -3   4 -10 56.3733 3.85977   4
  -4  -5  10 6.57315 3.50881   5
  -4  -5  10 4.44091 1.90679   1
  -4   5  10 5.57409 1.47443   1
  -4   5  10 3.79810 1.66648   5
  -3  -5  10 4.49066 3.13256   5
  -3  -5  10 5.31452 2.16229   1
  -3  -5  10 6.74924 3.76428   4
  -3   5  10 -2.3126 1.76872   4
  -3   5  10 1.88329 1.11336   1
   3   5 -10 3.17086 2.01918   1
  -3   5  10 1.94019 1.37134   5
   2  -5 -10 16.3661 3.38378   1
  -2   5  10 22.6732 2.47046   1
  -2   5  10 16.1074 2.22352   5
  -2   5  10 13.1790 2.25472   4
   2   5 -10 19.8040 2.59292   1
   1  -5 -10 167.112 10.9043   1
   1  -5 -10 143.641 11.3168   4
   1  -5 -10 163.938 10.5286   3
  -1  -5  10 184.217 10.6883   1
   1  -5 -10 165.066 10.4764   5
   1   5 -10 160.485 9.60736   4
   1   5 -10 172.679 9.90140   1
   1   5 -10 170.454 9.62674   5
  -1   5  10 169.686 9.21857   1
   0  -5 -10 5.80410 2.13504   4
   0  -5 -10 4.95515 1.81720   1
   0  -5 -10 6.17139 1.93457   5
   0  -5 -10 2.78909 2.18663   3
   0   5 -10 5.00164 1.40045   1
   0   5  10 5.94552 1.17447   1
   0   5 -10 5.20507 1.36272   5
   0   5 -10 4.73354 1.41642   4
  -1  -5 -10 1.88752 1.42657   5
  -1  -5 -10 2.91795 2.60602   3
  -1  -5 -10 2.68305 1.89305   4
  -1  -5 -10 0.62039 1.69932   1
  -1   5 -10 1.54806 0.88874   1
  -1   5 -10 2.64361 1.11338   4
  -1   5 -10 2.25766 0.98330   5
  -2  -5 -10 81.9817 7.79568   3
  -2  -5 -10 82.3839 6.75506   5
  -2  -5 -10 74.4594 7.55289   4
  -2  -5 -10 82.0309 6.92445   1
  -2   5 -10 76.3167 5.13237   5
  -2   5 -10 75.9131 5.25902   1
  -2   5 -10 74.2278 5.13370   4
  -3  -5 -10 25.7429 4.34650   4
  -3  -5 -10 24.7947 3.76321   1
  -3  -5 -10 28.4576 4.34436   3
  -3  -5 -10 28.0535 4.32351   5
  -3   5 -10 25.8087 2.97972   4
  -3  -6  10 4.27437 2.16025   1
  -3  -6  10 -0.6305 6.73010   5
  -3   6  10 0.75495 1.61124   4
  -3   6  10 4.12638 1.41382   1
  -3   6  10 4.05886 1.35552   5
   3   6 -10 3.75454 3.17615   1
   2  -6 -10 1.10789 1.93770   1
  -2  -6  10 2.26371 1.90248   1
  -2   6  10 1.49763 1.08245   1
  -2   6  10 1.90127 1.41284   4
  -2   6  10 1.51654 0.93497   5
   2   6 -10 1.64359 1.07670   1
   1  -6 -10 2.39762 2.64023   4
  -1  -6  10 9.64589 2.24191   1
   1  -6 -10 8.46344 2.67615   1
   1  -6 -10 0.52345 1.94977   5
   1  -6 -10 9.57478 2.73606   3
   1   6 -10 6.02379 1.48610   1
   1   6 -10 3.78906 1.45641   4
  -1   6  10 5.36377 1.22547   1
   1   6 -10 4.93812 1.35863   5
   0  -6 -10 73.7740 6.74899   1
   0  -6 -10 68.2385 6.21928   5
   0  -6 -10 65.1639 8.69760   4
   0  -6 -10 69.6850 6.43766   3
   0   6 -10 70.3340 5.24875   1
   0   6 -10 67.8817 5.07495   4
   0   6  10 70.0515 4.54437   1
   0   6 -10 68.9252 5.06446   5
  -1  -6 -10 146.077 9.78986   5
  -1  -6 -10 126.334 10.6341   4
  -1  -6 -10 123.185 9.81174   3
  -1  -6 -10 118.308 9.41551   1
  -1   6 -10 128.909 7.73868   5
  -1   6 -10 126.866 7.80744   1
  -1   6 -10 121.281 7.74462   4
  -2  -6 -10 112.635 9.03797   1
  -2  -6 -10 119.115 10.2812   4
  -2  -6 -10 114.422 9.36772   3
  -2  -6 -10 114.897 9.06602   5
  -2   6 -10 115.991 6.99622   5
  -2   6 -10 122.329 7.12775   1
  -2   6 -10 109.402 7.00547   4
  -3  -6 -10 3.84217 2.29180   3
  -3  -6 -10 5.97036 2.93686   4
  -3  -6 -10 -2.7261 2.66485   1
  -3   6 -10 2.19841 0.88045   5
  -3  -7  10 27.3732 4.02880   1
  -3   7  10 21.8061 2.50482   5
   2  -7 -10 31.3198 5.32298   1
  -2  -7  10 43.6743 4.84648   1
  -2   7  10 42.6475 3.58399   1
   2   7 -10 38.6974 3.77307   1
   1  -7 -10 4.84347 2.19547   3
  -1  -7  10 6.15850 2.32884   1
   1   7 -10 4.28891 1.57798   1
   1   7 -10 5.40259 1.34469   5
   1   7 -10 3.95625 1.52429   4
  -1   7  10 4.41225 1.20147   1
   0  -7 -10 0.02736 1.61133   3
   0  -7 -10 1.31971 1.75576   1
   0  -7 -10 -1.7671 2.44642   4
   0  -7 -10 0.08749 1.57117   5
   0   7 -10 0.53328 0.77138   5
   0   7  10 1.77515 1.03261   1
   0   7 -10 -0.0200 0.90847   4
   0   7 -10 0.07372 0.82716   1
  -1  -7 -10 32.7557 4.77875   1
  -1  -7 -10 26.5745 5.64534   4
  -1  -7 -10 28.2710 4.65239   5
  -1  -7 -10 32.1450 4.38096   3
  -1   7 -10 26.2223 2.87753   1
  -1   7 -10 23.9914 2.78549   4
  -1   7 -10 27.4107 2.87500   5
  -2  -7 -10 0.06638 1.98276   1
  -2  -7 -10 1.50655 2.02513   5
  -2  -7 -10 2.83327 1.98103   3
  -2   7 -10 2.24542 1.11241   1
  -2   7 -10 2.24349 1.01260   4
  -2   7 -10 1.15200 0.83940   5
  -2  -8  10 0.36229 2.36969   1
   2   8 -10 2.70322 1.78021   1
  -2   8  10 1.79300 0.93098   1
   1  -8 -10 70.6215 6.80467   1
   1  -8 -10 65.9656 5.38154   3
   1   8 -10 68.4851 5.29895   1
  -1   8  10 69.2161 4.74676   1
   1   8 -10 65.6667 5.76531   4
   1   8 -10 71.1995 5.17404   5
   0  -8 -10 18.0598 3.23870   3
   0  -8 -10 18.7747 5.24610   4
   0  -8 -10 12.8821 3.77886   5
   0  -8 -10 16.5034 3.52790   1
   0   8 -10 16.9309 2.46258   5
   0   8 -10 16.4521 2.60144   4
   0   8 -10 19.4316 2.50472   1
   0   8  10 15.1499 2.40787   1
  -1  -8 -10 1.71515 1.99178   3
  -1  -8 -10 1.73409 2.37597   4
  -1  -8 -10 1.86847 2.14272   1
  -1  -8 -10 -0.1825 1.95089   5
  -1   8 -10 2.20158 1.04617   1
  -1   8 -10 1.13433 0.93752   4
  -1   8 -10 0.74629 0.79871   5
  -2  -8 -10 0.86165 1.83983   5
  -2  -8 -10 -0.1573 2.11804   1
  -2  -8 -10 -2.6600 1.85355   3
  -2   8 -10 0.32762 0.70781   5
  -2   8 -10 0.74765 0.96823   1
   1  -9 -10 16.8162 3.10732   3
  -1   9  10 13.2655 1.95342   1
   1   9 -10 11.6209 2.11269   1
   0  -9 -10 88.2976 10.8260   1
   0  -9 -10 111.259 7.92191   3
   0   9 -10 115.435 7.04585   5
   0   9 -10 125.641 7.86978   1
   0   9 -10 107.445 7.08260   4
  -1  -9 -10 5.90290 2.91342   5
  -1  -9 -10 1.55607 2.87106   1
  -1  -9 -10 2.27744 1.61555   3
  -1   9 -10 2.52730 1.09912   1
  -1   9 -10 1.41818 1.08100   5
  -4   0  11 -0.3317 1.11426   1
  -4   0  11 1.60663 2.39532   4
  -4   0  11 -2.3207 2.43111   5
   3   0 -11 97.8743 7.05399   1
  -3   0  11 85.9383 7.94042   4
  -3   0  11 111.125 7.25791   1
  -2   0  11 0.02776 1.86043   4
   2   0 -11 0.21456 0.89317   1
   2   0 -11 -0.7192 1.54412   4
  -2   0  11 -0.7948 0.94565   1
  -1   0  11 1391.02 63.6297   1
   1   0 -11 1324.07 63.9248   5
   1   0 -11 1356.41 64.3110   4
   1   0 -11 1351.79 64.3499   1
   0   0 -11 0.83106 0.84426   1
   0   0  11 1.97302 0.99568   1
   0   0 -11 1.04883 0.97203   4
   0   0 -11 0.21558 0.78867   5
  -1   0 -11 812.685 39.2459   4
  -1   0 -11 833.406 39.0388   5
  -1   0 -11 788.024 39.2962   1
  -2   0 -11 -0.4044 0.88506   4
  -2   0 -11 0.58969 1.18077   1
  -2   0 -11 -0.0761 0.77036   5
  -4  -1  11 -0.4488 2.71271   5
  -4  -1  11 5.37130 1.76961   1
  -4  -1  11 4.18518 3.36235   4
  -4   1  11 5.50924 2.76701   4
  -4   1  11 6.12854 1.59259   1
  -4   1  11 9.11235 3.06904   5
  -3  -1  11 92.3700 7.89914   4
  -3  -1  11 105.956 7.31201   1
  -3  -1  11 85.9509 9.23256   5
  -3   1  11 96.0358 8.21961   5
  -3   1  11 106.301 7.02463   1
  -3   1  11 90.0292 7.91041   4
   3   1 -11 112.551 7.18671   1
   2  -1 -11 26.3595 3.22060   1
  -2  -1  11 24.5686 3.11965   1
  -2  -1  11 16.6265 3.95532   5
  -2  -1  11 23.8418 4.05344   4
  -2   1  11 25.7696 3.94631   4
  -2   1  11 30.0809 4.10516   5
  -2   1  11 25.6452 2.89864   1
   2   1 -11 23.4726 2.96253   1
   1  -1 -11 267.804 14.7813   1
   1  -1 -11 255.779 14.3367   5
   1  -1 -11 270.938 14.8026   4
  -1  -1  11 285.232 14.2764   1
  -1   1  11 275.581 13.9319   1
   1   1 -11 266.299 14.5219   4
   1   1 -11 260.660 14.2325   5
   0  -1 -11 130.009 7.70453   5
   0  -1 -11 119.767 7.88721   1
   0  -1 -11 127.077 7.97668   4
   0   1 -11 121.940 7.46459   5
   0   1  11 127.616 6.80038   1
   0   1 -11 121.927 7.67172   4
   0   1 -11 117.046 7.64591   1
  -1  -1 -11 15.1367 2.40938   1
  -1  -1 -11 18.1986 2.39835   5
  -1  -1 -11 18.6625 2.60971   4
  -1   1 -11 19.0925 2.43409   4
  -1   1 -11 15.7830 2.17484   5
  -1   1 -11 13.2819 2.24229   1
  -2  -1 -11 10.8194 2.03006   5
  -2  -1 -11 8.37058 2.02353   4
  -2  -1 -11 9.67543 2.33476   1
  -2   1 -11 9.07226 1.94489   4
  -2   1 -11 14.4073 2.22604   1
  -2   1 -11 7.73975 1.64849   5
  -3  -1 -11 21.7207 3.33043   4
  -3   1 -11 29.7774 2.94770   4
  -4  -2  11 18.0039 2.67342   1
  -4   2  11 19.8607 4.41503   4
  -4   2  11 17.1500 2.43325   1
  -3  -2  11 102.363 9.55372   5
  -3  -2  11 101.732 8.98327   4
  -3  -2  11 124.787 8.27667   1
   3   2 -11 133.343 8.10199   1
  -3   2  11 131.306 7.76169   1
  -3   2  11 104.444 8.54309   4
  -3   2  11 102.772 8.35623   5
   2  -2 -11 29.6148 3.42279   1
  -2  -2  11 36.7255 5.49235   5
  -2  -2  11 30.5166 3.57286   1
  -2   2  11 24.5082 3.66380   4
   2   2 -11 26.4331 3.07301   1
  -2   2  11 25.4505 3.73648   5
  -2   2  11 25.5021 2.88816   1
   1  -2 -11 108.402 7.69963   4
   1  -2 -11 117.205 7.41226   5
  -1  -2  11 127.096 7.40372   1
   1  -2 -11 106.623 7.62287   1
  -1   2  11 116.016 6.75634   1
   1   2 -11 113.198 7.30219   4
   1   2 -11 107.794 7.05730   5
   1   2 -11 120.948 7.50374   1
   0  -2 -11 897.710 42.0636   5
   0  -2 -11 832.587 42.2691   1
   0  -2 -11 870.473 42.9611   4
   0   2 -11 876.018 41.9193   1
   0   2 -11 865.291 41.6206   5
   0   2  11 872.110 40.8322   1
  -1  -2 -11 10.5339 2.03331   5
  -1  -2 -11 6.69784 1.82883   4
  -1  -2 -11 8.31601 2.08134   1
  -1   2 -11 11.5605 2.04329   4
  -1   2 -11 10.9935 1.90690   5
  -1   2 -11 11.6412 1.97361   1
  -2  -2 -11 211.492 12.6514   4
  -2  -2 -11 204.655 12.4239   1
  -2   2 -11 218.383 11.9950   5
  -2   2 -11 224.569 12.0135   1
  -2   2 -11 220.501 11.8326   4
  -3  -2 -11 158.181 9.44565   5
  -3  -2 -11 153.438 10.0863   4
  -3   2 -11 156.120 8.79937   4
  -4  -3  11 -1.6437 1.23193   1
  -4  -3  11 1.92408 3.06047   5
  -4   3  11 -1.5175 1.72480   5
  -4   3  11 -0.0672 3.53663   4
  -4   3  11 -0.0841 1.02975   1
  -3  -3  11 19.5506 4.18800   4
  -3  -3  11 29.2942 3.70719   1
  -3  -3  11 27.6722 4.88377   5
  -3   3  11 16.4696 3.65244   4
  -3   3  11 23.4330 3.94639   5
   3   3 -11 25.6059 3.37448   1
  -3   3  11 27.2269 3.09865   1
  -2  -3  11 212.415 11.9767   1
   2  -3 -11 186.410 11.6827   1
  -2   3  11 180.846 11.2596   4
  -2   3  11 192.525 10.7276   1
   2   3 -11 199.210 11.3106   1
  -2   3  11 183.846 10.7394   5
  -1  -3  11 6.12137 1.74674   1
   1  -3 -11 10.5945 2.32201   4
   1  -3 -11 6.87774 1.86906   5
   1  -3 -11 11.0682 2.60772   1
   1   3 -11 6.66018 1.73018   1
   1   3 -11 9.14319 1.75180   5
  -1   3  11 11.3955 1.70351   1
   0  -3 -11 96.4098 7.10619   1
   0  -3 -11 96.4557 7.28770   4
   0  -3 -11 98.6017 6.80794   5
   0   3 -11 94.8479 6.49510   1
   0   3 -11 103.495 6.42110   5
   0   3  11 95.0150 5.65289   1
   0   3 -11 104.473 6.57420   4
  -1  -3 -11 214.240 12.0308   5
  -1  -3 -11 203.781 12.4065   1
  -1  -3 -11 207.694 12.6140   4
  -1   3 -11 197.353 11.2680   5
  -1   3 -11 204.474 11.4943   1
  -1   3 -11 213.615 11.4972   4
  -2  -3 -11 1.93747 1.26912   5
  -2  -3 -11 3.53451 1.76858   1
  -2  -3 -11 2.03944 1.55687   4
  -2   3 -11 1.72328 0.87025   4
  -2   3 -11 0.07867 0.79009   5
  -3  -3 -11 39.9285 5.46024   3
  -3  -3 -11 36.0376 4.89822   4
  -3  -3 -11 33.7440 5.23158   1
  -3  -3 -11 39.6404 4.34340   5
  -3   3 -11 37.7868 3.21248   4
  -4  -4  11 96.4703 8.80311   5
  -4   4  11 110.045 7.09305   5
  -3  -4  11 16.4318 3.23966   1
  -3  -4  11 9.51078 4.09113   5
  -3  -4  11 7.00992 4.25502   4
  -3   4  11 13.8644 2.31527   1
  -3   4  11 10.4205 2.36687   5
  -3   4  11 14.7753 2.94583   4
  -2  -4  11 54.2858 5.31457   1
   2  -4 -11 57.6905 5.32858   1
   2   4 -11 56.0425 4.62122   1
  -2   4  11 51.5567 3.99900   5
  -2   4  11 44.0310 4.66498   4
  -2   4  11 54.6038 4.20343   1
   1  -4 -11 34.0026 4.08474   1
   1  -4 -11 35.8196 4.18456   3
   1  -4 -11 31.4880 4.20992   4
   1  -4 -11 32.0953 3.67249   5
  -1  -4  11 36.7872 3.69343   1
  -1   4  11 31.7674 2.82893   1
   1   4 -11 30.2674 3.27043   1
   1   4 -11 31.5282 3.11739   5
   1   4 -11 32.9022 3.29783   4
   0  -4 -11 54.6911 5.45080   1
   0  -4 -11 59.1102 5.26340   5
   0  -4 -11 58.8139 5.83083   4
   0   4 -11 62.8347 4.79203   4
   0   4 -11 67.7138 4.97325   1
   0   4  11 63.2423 4.11687   1
   0   4 -11 65.0056 4.70367   5
  -1  -4 -11 363.239 20.9316   4
  -1  -4 -11 378.532 20.1277   5
  -1  -4 -11 375.136 20.5643   1
  -1   4 -11 380.886 19.2373   4
  -1   4 -11 373.174 19.1019   5
  -1   4 -11 374.420 19.2769   1
  -2  -4 -11 62.4292 7.26981   3
  -2  -4 -11 76.4114 6.06737   5
  -2  -4 -11 68.1014 6.07046   1
  -2  -4 -11 68.6075 7.07731   4
  -2   4 -11 67.8020 4.80679   5
  -2   4 -11 65.0836 5.07895   4
  -2   4 -11 66.0342 4.89077   1
  -3  -4 -11 307.167 17.0381   1
  -3  -4 -11 271.956 21.0393   3
  -3   4 -11 328.402 15.6464   4
  -3  -5  11 11.2193 2.76677   1
   3   5 -11 10.7246 2.67016   1
  -3   5  11 13.8690 2.20340   1
  -3   5  11 13.4351 2.62773   4
   2  -5 -11 5.79624 2.03957   1
  -2  -5  11 0.75952 1.75390   1
  -2   5  11 1.59328 1.44011   5
  -2   5  11 -1.5241 1.83873   4
   2   5 -11 2.70364 1.20663   1
  -2   5  11 1.65090 1.08691   1
   1  -5 -11 103.868 8.12982   1
   1  -5 -11 103.872 7.70348   3
   1  -5 -11 100.869 8.95786   4
  -1  -5  11 116.714 7.56293   1
   1  -5 -11 99.6354 7.70784   5
  -1   5  11 108.428 6.45677   1
   1   5 -11 111.929 7.28547   1
   1   5 -11 108.465 6.93772   5
   1   5 -11 107.779 7.06846   4
   0  -5 -11 37.4402 5.05938   4
   0  -5 -11 43.1264 5.05203   3
   0  -5 -11 42.2309 4.52737   5
   0  -5 -11 40.4918 4.75621   1
   0   5 -11 35.5268 3.63822   1
   0   5  11 36.7062 3.04410   1
   0   5 -11 37.8245 3.61198   4
   0   5 -11 39.1247 3.57691   5
  -1  -5 -11 368.163 21.1920   4
  -1  -5 -11 374.170 19.8881   5
  -1  -5 -11 313.620 19.7726   1
  -1  -5 -11 368.898 21.2465   3
  -1   5 -11 364.439 18.3769   4
  -1   5 -11 348.581 18.2176   5
  -1   5 -11 340.704 18.3358   1
  -2  -5 -11 5.22375 3.61557   3
  -2  -5 -11 4.05781 2.51903   4
  -2  -5 -11 7.88908 2.40992   1
  -2  -5 -11 2.59322 1.76170   5
  -2   5 -11 5.81550 1.44886   4
  -2   5 -11 7.63134 1.67048   1
  -2   5 -11 4.19671 1.24896   5
  -3  -5 -11 1.51729 1.53200   5
  -3  -5 -11 6.40534 2.79496   1
  -3  -5 -11 2.44292 2.64808   3
  -3   6  11 111.086 6.55306   5
   2  -6 -11 25.6479 4.23431   1
  -2  -6  11 35.5393 4.26802   1
  -2   6  11 31.3080 3.01607   1
   2   6 -11 27.4674 3.23636   1
   1  -6 -11 119.438 9.13815   1
  -1  -6  11 126.352 8.39194   1
   1  -6 -11 126.608 8.31805   3
   1   6 -11 129.018 8.07853   1
   1   6 -11 110.854 7.77627   4
   1   6 -11 120.308 7.67598   5
  -1   6  11 128.887 7.37113   1
   0  -6 -11 22.7931 3.74844   3
   0  -6 -11 25.0268 4.83472   4
   0  -6 -11 26.0394 3.81641   5
   0  -6 -11 14.4326 3.43525   1
   0   6 -11 22.5163 2.74876   5
   0   6 -11 22.8452 2.88765   1
   0   6 -11 21.1862 2.75101   4
  -1  -6 -11 8.75102 4.35020   4
  -1  -6 -11 4.41697 2.16839   1
  -1  -6 -11 10.3321 3.49286   3
  -1  -6 -11 9.19680 2.66627   5
  -1   6 -11 6.89927 1.78707   1
  -1   6 -11 5.81869 1.72640   4
  -1   6 -11 5.15212 1.52649   5
  -2  -6 -11 490.124 27.1777   3
  -2  -6 -11 489.666 27.9645   4
  -2  -6 -11 516.918 26.9734   5
  -2  -6 -11 492.249 26.7903   1
  -2   6 -11 486.865 24.3412   5
  -2   6 -11 488.148 24.3664   1
  -2   6 -11 485.965 24.3774   4
   2  -7 -11 3.40494 6.04837   1
  -2  -7  11 13.9735 3.13369   1
   2   7 -11 8.84633 2.09793   1
  -2   7  11 13.2482 2.15161   1
   1  -7 -11 19.0738 3.52419   3
   1   7 -11 10.8809 2.32473   4
   1   7 -11 15.4987 2.50321   5
  -1   7  11 15.8727 2.11123   1
   1   7 -11 18.7417 2.52418   1
   0  -7 -11 368.006 20.5836   3
   0  -7 -11 359.162 21.3464   1
   0  -7 -11 374.979 21.1698   5
   0  -7 -11 365.520 22.6887   4
   0   7 -11 367.376 19.3084   4
   0   7 -11 382.576 19.4744   1
   0   7 -11 372.733 19.2099   5
  -1  -7 -11 45.5566 5.26665   3
  -1  -7 -11 44.5493 5.54576   1
  -1  -7 -11 50.0906 5.74776   5
  -1  -7 -11 40.3940 6.98825   4
  -1   7 -11 46.3860 3.94630   4
  -1   7 -11 47.6692 3.96912   5
  -1   7 -11 47.1792 3.94730   1
  -2  -7 -11 115.003 9.28155   1
  -2  -7 -11 112.575 9.21211   5
  -2  -7 -11 130.137 10.5386   4
  -2  -7 -11 124.143 8.96072   3
  -2   7 -11 113.997 7.10872   4
  -2   7 -11 122.466 7.06012   1
  -2   7 -11 122.920 7.20026   5
  -2  -8  11 207.835 12.0493   1
   2   8 -11 200.680 11.3058   1
  -2   8  11 194.854 10.9071   1
   1  -8 -11 7.12954 2.54367   1
   1  -8 -11 3.61867 2.54291   3
   1   8 -11 5.45109 1.97600   5
   1   8 -11 6.08459 1.56834   1
   0  -8 -11 151.969 9.53885   3
   0  -8 -11 128.660 10.9901   5
   0  -8 -11 127.910 10.3228   1
   0   8 -11 131.216 8.47638   4
   0   8 -11 145.587 8.68131   1
   0   8 -11 146.576 8.49302   5
  -1  -8 -11 40.4003 4.86768   3
  -1  -8 -11 33.0857 5.20408   1
  -1  -8 -11 28.9504 6.56171   4
  -1  -8 -11 38.5541 5.45269   5
  -1   8 -11 39.1729 3.61270   5
  -1   8 -11 43.4536 3.56198   1
  -1   8 -11 43.2990 3.50130   4
   1  -9 -11 43.9145 5.60837   1
   1   9 -11 63.7312 4.53418   1
   0  -9 -11 25.6207 3.26855   3
   0   9 -11 26.9674 2.74253   1
   0   9 -11 25.3731 2.66860   5
  -3   0  12 0.58296 2.35815   5
   3   0 -12 -3.4392 1.99513   1
  -3   0  12 -0.1879 1.08926   1
  -2   0  12 42.9421 3.90865   1
   2   0 -12 42.3502 4.23781   1
  -1   0  12 1.30349 1.00532   1
   1   0 -12 0.77386 0.90894   5
   1   0 -12 0.14225 0.91445   4
   1   0 -12 -0.6612 0.80936   1
   0   0 -12 252.759 13.5410   5
   0   0 -12 241.990 13.7721   4
   0   0 -12 241.861 13.8392   1
  -1   0 -12 1.04173 1.05510   4
  -1   0 -12 1.17997 1.04814   1
  -1   0 -12 0.04563 0.80733   5
  -2   0 -12 3.78709 1.37071   5
  -2   0 -12 4.99118 1.64926   1
  -2   0 -12 2.00264 1.35118   4
  -4  -1  12 6.38536 2.71499   5
  -4  -1  12 -0.5448 0.96967   1
  -4   1  12 1.56182 1.08278   1
  -4   1  12 1.84785 2.47314   5
   3  -1 -12 0.31740 2.50874   1
  -3  -1  12 3.11944 3.23715   4
  -3  -1  12 3.59512 2.89680   5
  -3  -1  12 0.90453 1.42336   1
  -3   1  12 0.87121 1.21477   1
  -3   1  12 4.04355 3.15056   4
   3   1 -12 7.44085 2.25844   1
  -2  -1  12 0.05230 1.10877   1
  -2  -1  12 2.12317 3.94209   5
   2  -1 -12 -0.3853 1.03862   1
  -2   1  12 -0.2216 2.19368   5
   2   1 -12 0.09456 1.15710   1
  -2   1  12 -3.7072 2.76675   4
  -2   1  12 0.44981 1.07621   1
   1  -1 -12 83.4935 6.28153   4
   1  -1 -12 80.3145 5.78602   5
  -1  -1  12 78.5936 5.34535   1
   1  -1 -12 80.0176 6.20199   1
   1   1 -12 77.3191 5.90279   4
  -1   1  12 85.5964 5.26808   1
   1   1 -12 74.5608 5.88268   1
   1   1 -12 78.8182 5.65061   5
   0  -1 -12 59.9049 5.07579   4
   0  -1 -12 56.7117 4.98576   1
   0  -1 -12 59.9395 4.76157   5
   0   1 -12 55.2763 4.52716   5
   0   1 -12 62.2104 4.91994   4
   0   1 -12 52.6698 4.72165   1
  -1  -1 -12 187.837 10.8663   5
  -1  -1 -12 176.252 11.0526   1
  -1  -1 -12 194.166 11.2540   4
  -1   1 -12 189.524 10.9848   1
  -1   1 -12 185.074 10.6390   5
  -1   1 -12 186.825 10.8737   4
  -2  -1 -12 128.558 8.56273   1
  -2  -1 -12 141.803 8.38889   5
  -2  -1 -12 128.251 8.65253   4
  -2   1 -12 133.461 8.04735   5
  -2   1 -12 126.076 8.16343   4
  -2   1 -12 129.124 8.26243   1
  -4  -2  12 10.6083 3.65836   5
  -4   2  12 11.2364 2.57514   5
  -3  -2  12 71.5668 8.13425   4
  -3  -2  12 67.8070 7.82257   5
  -3  -2  12 99.0389 6.71372   1
  -3   2  12 97.8852 6.17572   1
   3   2 -12 98.6711 6.68313   1
  -3   2  12 68.6220 6.42524   5
  -3   2  12 76.7593 7.11893   4
  -2  -2  12 231.236 12.9251   1
   2  -2 -12 223.488 13.3008   1
  -2   2  12 212.997 12.1676   1
   2   2 -12 228.970 12.9507   1
   1  -2 -12 98.7515 7.51895   1
   1  -2 -12 110.288 7.36965   5
  -1  -2  12 115.161 6.99945   1
   1  -2 -12 110.452 7.85098   4
   1   2 -12 106.713 7.24021   4
   1   2 -12 107.264 7.04612   5
  -1   2  12 113.721 6.58859   1
   0  -2 -12 154.597 10.1293   1
   0  -2 -12 158.313 10.2175   4
   0  -2 -12 161.156 9.80652   5
   0   2 -12 166.292 9.52068   5
   0   2 -12 165.224 9.70444   4
   0   2 -12 155.166 9.68728   1
  -1  -2 -12 4.14815 1.94133   1
  -1  -2 -12 6.43215 1.83574   5
  -1  -2 -12 6.06379 1.95931   4
  -1   2 -12 6.32201 1.80592   1
  -1   2 -12 7.93809 1.78974   4
  -1   2 -12 3.95334 1.32874   5
  -2  -2 -12 5.12778 1.65287   5
  -2  -2 -12 10.2778 2.48135   1
  -2   2 -12 6.53094 1.55281   5
  -2   2 -12 5.29012 1.69379   1
  -3  -2 -12 41.6618 4.26680   5
  -3  -2 -12 42.9464 5.86875   3
  -3  -2 -12 43.8890 5.16436   4
  -3   2 -12 42.1405 3.60460   4
  -3  -3  12 5.88820 4.01421   5
  -3  -3  12 9.90283 2.36721   1
  -3   3  12 8.48009 2.51167   5
   3   3 -12 10.1283 2.60008   1
  -3   3  12 10.8440 2.01179   1
  -3   3  12 8.95913 3.13156   4
  -2  -3  12 149.870 9.55852   1
   2  -3 -12 145.056 11.1379   1
  -2   3  12 145.132 8.52876   1
   2   3 -12 138.125 9.14293   1
   1  -3 -12 78.9941 6.24896   5
  -1  -3  12 89.3264 5.85623   1
   1  -3 -12 84.0457 6.67725   1
   1  -3 -12 79.8328 6.62842   4
  -1   3  12 85.1362 5.30499   1
   1   3 -12 78.1205 5.69657   5
   1   3 -12 85.5133 6.16675   1
   1   3 -12 78.2015 5.88943   4
   0  -3 -12 296.936 18.8071   1
   0  -3 -12 344.208 19.2542   4
   0  -3 -12 365.612 18.6330   5
   0   3 -12 351.520 17.9086   5
   0   3 -12 347.037 18.1743   1
   0   3 -12 342.835 18.0580   4
  -1  -3 -12 42.8659 5.37936   1
  -1  -3 -12 55.0155 5.41148   4
  -1   3 -12 45.1542 4.08175   4
  -1   3 -12 43.3537 4.05448   1
  -2  -3 -12 3.57224 1.85250   4
  -2  -3 -12 2.52934 1.82633   1
  -2  -3 -12 0.89281 1.21131   5
  -2   3 -12 2.14821 1.07407   4
  -2   3 -12 1.64192 1.15512   1
  -2   3 -12 1.20792 1.00495   5
  -3  -3 -12 5.89768 3.34288   3
  -3  -3 -12 9.83835 2.54622   4
  -3  -4  12 152.471 9.13200   1
  -3   4  12 149.222 8.26366   1
   3   4 -12 143.597 9.39690   1
  -3   4  12 105.288 9.06768   4
  -3   4  12 114.166 7.77217   5
   2  -4 -12 253.903 15.2898   1
  -2  -4  12 273.628 14.8798   1
   2   4 -12 255.161 14.5556   1
  -2   4  12 261.774 13.8819   1
  -1  -4  12 24.3269 3.13477   1
   1  -4 -12 22.0628 3.76586   1
   1  -4 -12 25.1580 4.56967   3
   1  -4 -12 29.8699 4.34898   4
   1  -4 -12 18.5189 3.33390   5
  -1   4  12 25.7627 2.45264   1
   1   4 -12 20.2714 2.89819   4
   1   4 -12 23.2146 2.75289   5
   1   4 -12 22.9905 4.50886   1
   0  -4 -12 27.2088 3.73446   5
   0  -4 -12 19.7786 4.07153   3
   0  -4 -12 21.6484 3.68406   1
   0  -4 -12 27.8273 4.29404   4
   0   4 -12 26.5684 3.14197   4
   0   4 -12 26.1874 2.99398   5
   0   4 -12 28.7890 3.21275   1
  -1  -4 -12 52.3543 5.06223   5
  -1  -4 -12 46.4166 5.63892   4
  -1  -4 -12 47.1642 5.20228   1
  -1   4 -12 46.8407 4.08587   5
  -1   4 -12 51.6525 4.26062   1
  -1   4 -12 49.0834 4.17781   4
  -2  -4 -12 117.888 8.88984   4
  -2  -4 -12 110.995 8.01752   5
  -2  -4 -12 93.3946 7.93326   1
  -2  -4 -12 105.556 9.43817   3
  -2   4 -12 103.531 6.72907   4
  -2   4 -12 105.465 6.88043   1
  -2   4 -12 100.509 6.59045   5
  -3  -4 -12 47.6432 5.63035   3
  -3  -4 -12 58.7815 5.46210   5
   3   5 -12 0.54349 2.55648   1
  -3   5  12 1.67880 1.22696   1
  -2  -5  12 57.4150 5.13435   1
   2  -5 -12 52.4581 5.58136   1
  -2   5  12 56.6046 4.26734   1
   2   5 -12 62.1920 4.91746   1
  -1  -5  12 234.096 13.0937   1
   1  -5 -12 257.294 14.0016   3
   1  -5 -12 219.841 13.9043   5
   1  -5 -12 215.564 15.4946   4
   1  -5 -12 217.463 14.2582   1
  -1   5  12 247.599 12.3983   1
   1   5 -12 231.501 12.8754   5
   1   5 -12 228.476 13.0822   4
   1   5 -12 235.628 13.2528   1
   0  -5 -12 217.955 12.8993   5
   0  -5 -12 194.332 13.7346   4
   0  -5 -12 205.669 13.4549   3
   0  -5 -12 181.160 12.7909   1
   0   5 -12 204.648 11.4782   5
   0   5 -12 197.812 11.5265   4
   0   5 -12 203.454 11.7278   1
  -1  -5 -12 19.4000 4.03104   1
  -1  -5 -12 12.7658 3.67458   4
  -1  -5 -12 15.4304 4.65090   3
  -1  -5 -12 18.1214 3.52048   5
  -1   5 -12 19.2932 2.45448   5
  -1   5 -12 17.1529 2.63346   4
  -1   5 -12 19.1216 2.49927   1
  -2  -5 -12 70.4140 6.73915   1
  -2  -5 -12 68.2239 7.47709   4
  -2  -5 -12 87.6628 7.04917   5
  -2  -5 -12 70.2012 7.42303   3
  -2   5 -12 78.2537 5.27110   5
  -2   5 -12 75.5454 5.26645   4
  -3  -6  12 200.883 12.0180   1
  -3   6  12 210.115 11.2805   1
   2  -6 -12 8.68742 2.88732   1
  -2  -6  12 6.16215 2.09200   1
  -2   6  12 8.42605 1.73143   1
   2   6 -12 7.26338 1.63864   1
   1  -6 -12 25.7541 4.04229   1
   1  -6 -12 20.1053 3.36862   3
  -1   6  12 23.3979 2.54245   1
   1   6 -12 28.8280 3.19599   1
   1   6 -12 24.9376 3.31744   4
   1   6 -12 24.2925 2.76327   5
   0  -6 -12 112.266 9.93423   5
   0  -6 -12 93.3334 8.07893   1
   0  -6 -12 94.6219 9.27842   4
   0  -6 -12 100.779 8.19740   3
   0   6 -12 111.361 6.99426   5
   0   6 -12 103.982 7.06689   1
   0   6 -12 103.862 6.97523   4
  -1  -6 -12 203.011 13.4255   3
  -1  -6 -12 191.589 14.3474   4
  -1  -6 -12 208.014 13.0978   5
  -1  -6 -12 190.650 13.0094   1
  -1   6 -12 187.767 11.0216   5
  -1   6 -12 191.273 11.0913   4
  -1   6 -12 202.096 11.2090   1
  -2  -6 -12 34.8288 4.84013   5
  -2  -6 -12 29.8777 4.90063   1
  -2  -6 -12 34.5355 4.78051   3
  -2  -6 -12 43.5738 6.18111   4
  -2   6 -12 32.4087 3.04169   4
  -2   6 -12 27.1817 2.86060   5
  -2   6 -12 29.9951 2.97394   1
  -2  -7  12 0.40394 2.06485   1
   2  -7 -12 -3.3994 2.98753   1
   2   7 -12 2.92297 1.33350   1
  -2   7  12 1.98392 1.03960   1
   1  -7 -12 116.056 9.31683   1
   1   7 -12 131.554 8.19181   1
  -1   7  12 128.060 7.34376   1
   0  -7 -12 4.08371 2.64724   3
   0  -7 -12 1.64905 3.69394   4
   0  -7 -12 2.02776 2.30656   1
   0  -7 -12 -0.8460 2.18451   5
   0   7 -12 3.90282 1.34452   1
   0   7 -12 4.00190 1.28798   5
   0   7 -12 3.34627 1.38955   4
  -1  -7 -12 -0.4875 1.86948   1
  -1  -7 -12 -1.9320 1.99270   3
  -1  -7 -12 -0.7331 2.95916   4
  -1   7 -12 1.29917 1.63934   1
  -1   7 -12 1.29459 0.91449   5
   1  -8 -12 31.1075 4.77820   1
   1   8 -12 40.1082 3.57980   1
  -1   8  12 33.4036 2.99994   1
   0  -8 -12 11.3252 3.01607   3
   0  -8 -12 4.78889 2.38639   1
   0   8 -12 6.27864 1.59215   5
   0   8 -12 8.35790 1.74132   1
   3   0 -13 14.1361 3.34602   1
  -3   0  13 17.5046 2.64360   1
  -2   0  13 0.52125 1.08917   1
   2   0 -13 -0.4887 1.07797   1
   1   0 -13 230.025 13.3441   1
   1   0 -13 218.396 12.7558   5
  -1   0  13 230.263 12.0615   1
   1   0 -13 224.125 13.2304   4
   0   0 -13 0.13684 0.86932   5
   0   0 -13 0.41714 1.20381   1
   0   0 -13 0.56675 1.13695   4
  -1   0 -13 433.228 21.8517   5
  -1   0 -13 428.529 22.2019   4
  -1   0 -13 399.548 22.0444   1
  -2   0 -13 1.53353 1.33154   4
  -2   0 -13 0.61326 0.94146   5
  -2   0 -13 -0.6848 1.77792   1
  -3  -1  13 66.9421 5.10174   1
   3  -1 -13 46.9771 6.78331   1
  -3   1  13 64.7561 4.85731   1
   3   1 -13 58.2105 5.63495   1
   2  -1 -13 2.66615 1.46458   1
  -2  -1  13 3.71201 1.48425   1
  -2   1  13 0.32319 0.99197   1
   2   1 -13 1.30742 1.14783   1
  -1  -1  13 69.2781 4.72009   1
   1  -1 -13 63.3677 5.73930   4
   1  -1 -13 67.5755 5.69250   1
   1  -1 -13 66.5809 5.34116   5
  -1   1  13 64.5120 4.43968   1
   1   1 -13 65.5327 5.48797   1
   1   1 -13 63.4555 5.42439   4
   1   1 -13 61.1251 4.99624   5
   0  -1 -13 20.0957 3.20862   1
   0  -1 -13 19.6076 2.90788   5
   0  -1 -13 20.7251 3.24901   4
   0   1 -13 20.0538 2.86958   1
   0   1 -13 21.9174 2.87056   5
   0   1 -13 18.8382 2.96638   4
  -1  -1 -13 16.5633 2.94687   4
  -1  -1 -13 14.1489 2.54089   5
  -1  -1 -13 13.9105 2.85760   1
  -1   1 -13 11.5742 2.38478   5
  -1   1 -13 14.9363 2.74540   4
  -1   1 -13 14.2142 2.79676   1
  -2  -1 -13 54.7666 4.68177   5
  -2  -1 -13 60.3551 5.28141   4
  -2  -1 -13 49.7150 5.04863   1
  -2   1 -13 52.9641 4.65998   1
  -2   1 -13 47.4501 4.29840   5
  -2   1 -13 50.2254 4.57528   4
  -3  -1 -13 128.016 8.02333   5
  -3  -2  13 46.3358 4.23688   1
  -3   2  13 39.7093 3.69227   1
   3   2 -13 36.9637 5.03308   1
   2  -2 -13 53.2589 5.06744   1
  -2  -2  13 53.0721 4.44458   1
   2   2 -13 53.7233 4.88529   1
  -2   2  13 54.9511 4.20962   1
   1  -2 -13 106.747 8.16299   4
  -1  -2  13 114.724 6.94672   1
   1  -2 -13 110.960 7.69204   5
   1   2 -13 108.891 7.57868   4
   1   2 -13 105.096 7.21298   5
  -1   2  13 118.006 6.71373   1
   0  -2 -13 20.8972 3.04032   5
   0  -2 -13 23.0592 4.64808   1
   0  -2 -13 17.9147 3.27149   4
   0   2 -13 19.5144 2.75120   5
   0   2 -13 16.3439 2.94236   1
   0   2 -13 22.3154 3.05891   4
  -1  -2 -13 47.7802 4.97326   4
  -1  -2 -13 44.8564 4.42075   5
  -1  -2 -13 42.8821 4.82015   1
  -1   2 -13 45.3519 4.34471   1
  -1   2 -13 46.9869 4.30182   4
  -1   2 -13 49.3574 4.22573   5
  -2  -2 -13 170.186 11.1575   4
  -2  -2 -13 165.409 10.8227   1
  -2  -2 -13 182.394 10.6649   5
  -2   2 -13 166.912 9.94351   5
  -2   2 -13 170.846 10.1646   1
  -2   2 -13 172.538 10.1979   4
  -3  -3  13 -0.1721 1.20150   1
  -3   3  13 1.89513 1.17157   1
   3   3 -13 2.65500 2.39546   1
   2  -3 -13 5.82458 2.17913   1
  -2  -3  13 7.03524 1.94393   1
   2   3 -13 5.22574 1.61541   1
  -2   3  13 5.39970 1.30551   1
   1  -3 -13 99.3374 8.37343   5
  -1  -3  13 109.990 6.57018   1
   1  -3 -13 85.1329 7.87326   4
   1  -3 -13 94.8210 7.62042   1
   1   3 -13 96.5976 7.02757   1
   1   3 -13 106.653 6.89043   5
   1   3 -13 94.9427 6.98557   4
   0  -3 -13 127.494 9.21653   1
   0  -3 -13 134.024 9.58690   4
   0  -3 -13 137.868 8.93318   5
   0   3 -13 128.964 8.17401   5
   0   3 -13 126.983 8.35652   4
   0   3 -13 120.250 8.34968   1
  -1  -3 -13 201.925 13.1908   1
  -1  -3 -13 218.375 17.0491   4
  -1  -3 -13 222.142 12.9511   5
  -1   3 -13 221.024 12.4690   1
  -1   3 -13 209.368 12.0516   5
  -2  -3 -13 37.2993 4.63651   1
  -2  -3 -13 45.3519 4.87004   4
  -2  -3 -13 31.8998 4.06793   5
  -2   3 -13 36.2530 3.49815   4
  -2   3 -13 40.4952 3.66249   1
  -2   3 -13 31.3487 3.29227   5
  -3  -4  13 0.81366 1.41990   1
  -3   4  13 -1.1516 0.89232   1
   3   4 -13 -2.6968 2.96230   1
   2  -4 -13 120.003 9.04001   1
  -2  -4  13 129.141 8.35390   1
  -2   4  13 129.941 7.65096   1
   2   4 -13 129.202 8.44697   1
   1  -4 -13 68.4560 7.81506   4
   1  -4 -13 72.3366 6.59809   1
   1  -4 -13 82.1896 6.52920   3
   1  -4 -13 79.5694 6.54027   5
   1   4 -13 76.3497 5.57664   5
   1   4 -13 69.4486 5.77154   4
   1   4 -13 77.4263 5.92485   1
  -1   4  13 78.5165 4.94341   1
   0  -4 -13 6.84134 2.13844   5
   0  -4 -13 7.91799 2.47098   1
   0  -4 -13 7.66004 3.55852   3
   0  -4 -13 4.80732 2.54760   4
   0   4 -13 6.69716 1.74583   1
   0   4 -13 6.98025 1.65667   5
   0   4 -13 5.97595 1.78350   4
  -1  -4 -13 1.28467 1.37585   5
  -1  -4 -13 0.29161 1.85136   4
  -1  -4 -13 0.92264 2.63626   3
  -1  -4 -13 2.52964 2.00133   1
  -1   4 -13 1.10621 1.19528   1
  -1   4 -13 1.44036 1.21667   4
  -1   4 -13 1.94360 1.07363   5
  -2  -4 -13 96.1138 8.87825   1
  -2  -4 -13 114.014 8.01095   5
  -2  -4 -13 101.807 8.78655   4
  -2  -4 -13 104.867 9.16555   3
  -2   4 -13 100.663 6.78505   4
  -2   4 -13 102.046 6.71397   1
  -2   4 -13 105.043 6.67446   5
  -3  -5  13 5.82447 1.85833   1
  -3   5  13 7.92663 1.56761   1
   2  -5 -13 34.7494 4.67040   1
  -2  -5  13 41.0088 4.10909   1
  -2   5  13 44.5107 3.57673   1
   2   5 -13 47.9353 4.25116   1
   1  -5 -13 49.7128 4.84928   3
   1  -5 -13 50.1509 5.47611   1
   1   5 -13 45.9464 4.36227   1
   1   5 -13 46.9992 4.07540   5
  -1   5  13 50.0884 3.76493   1
   1   5 -13 42.5887 4.43454   4
   0  -5 -13 112.268 9.59105   4
   0  -5 -13 101.889 8.53730   1
   0  -5 -13 103.571 8.65825   3
   0  -5 -13 112.887 8.28419   5
   0   5 -13 106.134 7.34947   4
   0   5 -13 110.125 7.21840   5
   0   5 -13 112.921 7.46864   1
  -1  -5 -13 0.46166 2.29684   4
  -1  -5 -13 0.78747 2.87805   3
  -1  -5 -13 0.15231 1.41872   5
  -1  -5 -13 2.50101 1.95915   1
  -1   5 -13 0.95610 1.02777   4
  -1   5 -13 0.25769 1.05855   1
  -1   5 -13 1.10217 0.88021   5
  -2  -5 -13 72.7940 7.04024   3
  -2  -5 -13 74.1522 7.66466   4
  -2  -5 -13 66.9432 6.34753   1
  -2  -5 -13 76.9586 6.59797   5
  -2   5 -13 69.4186 4.98262   5
  -2   5 -13 69.5328 5.55992   4
  -2   5 -13 76.7289 5.09391   1
  -2  -6  13 57.1963 4.86501   1
   2   6 -13 50.0788 4.47384   1
  -2   6  13 48.1725 3.80782   1
   1  -6 -13 8.32228 3.23471   1
   1   6 -13 11.8691 2.91163   4
   1   6 -13 15.0080 2.55429   5
  -1   6  13 16.5307 2.29318   1
   1   6 -13 17.5696 2.58978   1
   0  -6 -13 33.5604 4.43813   3
   0  -6 -13 26.0778 4.82448   1
   0  -6 -13 39.1050 4.86655   5
   0  -6 -13 33.6116 5.57749   4
   0   6 -13 41.1922 3.70070   5
   0   6 -13 38.1769 3.68129   1
   0   6 -13 32.4217 3.54608   4
  -1  -6 -13 4.41248 2.68171   1
  -1  -6 -13 1.89428 2.87460   4
  -1  -6 -13 -1.4647 2.42175   3
  -1   6 -13 1.70984 1.17412   1
  -1   6 -13 2.23629 1.09754   5
   1  -7 -13 9.10048 2.57825   1
   1   7 -13 7.74129 2.07393   5
   1   7 -13 7.77421 1.64014   1
  -1   7  13 4.26362 1.44005   1
   0  -7 -13 9.01994 2.64428   3
   0  -7 -13 1.40354 2.66931   5
   0  -7 -13 5.00366 2.55177   1
   0   7 -13 6.06540 1.45442   5
   0   7 -13 6.91025 1.76405   1
  -1  -7 -13 0.48655 2.00943   5
  -3   0  14 0.51603 2.05497   1
   2   0 -14 29.3896 3.65569   1
  -2   0  14 24.2219 2.78017   1
   1   0 -14 -0.4852 1.60735   4
   1   0 -14 0.10647 1.23920   1
   1   0 -14 0.58530 1.16290   5
  -1   0  14 4.14440 1.48681   1
   0   0 -14 216.053 13.0964   4
   0   0 -14 211.859 13.0520   1
   0   0 -14 225.990 12.7770   5
  -1   0 -14 0.91399 1.00242   5
  -1   0 -14 -0.2773 1.29890   4
  -1   0 -14 0.71273 1.36142   1
  -2   0 -14 79.5606 6.19281   4
  -2   0 -14 77.8318 5.75780   5
  -2   0 -14 74.2247 6.12601   1
  -3  -1  14 75.2845 5.53081   1
   3   1 -14 55.6311 6.84263   1
  -3   1  14 80.5295 5.53118   1
   2  -1 -14 314.013 17.9753   1
  -2  -1  14 333.820 17.0364   1
  -2   1  14 325.932 16.7947   1
   2   1 -14 325.195 17.9051   1
   1  -1 -14 293.146 16.8712   1
   1  -1 -14 290.578 16.2281   5
   1  -1 -14 273.216 16.7927   4
   1   1 -14 289.080 16.5496   4
  -1   1  14 310.203 15.1820   1
   1   1 -14 299.737 16.1225   5
   1   1 -14 308.570 16.7918   1
   0  -1 -14 70.1502 6.30271   4
   0  -1 -14 73.4549 6.24672   1
   0  -1 -14 71.0968 5.78093   5
   0   1 -14 81.2711 5.88250   5
   0   1 -14 72.7232 6.03099   4
   0   1 -14 66.0119 5.88337   1
  -1  -1 -14 31.2596 3.95209   4
  -1  -1 -14 24.4160 3.75302   1
  -1  -1 -14 29.3240 3.47999   5
  -1   1 -14 28.3770 3.32140   5
  -1   1 -14 27.1475 3.53387   4
  -1   1 -14 25.4581 3.32482   1
  -2  -1 -14 3.53866 1.77355   4
  -2  -1 -14 8.11911 2.00707   5
  -2  -1 -14 4.97652 2.23080   1
  -2   1 -14 8.29107 1.77351   5
  -2   1 -14 8.82324 2.21860   1
  -3  -2  14 129.445 7.68228   1
   3   2 -14 102.836 9.19608   1
  -3   2  14 126.307 7.44169   1
   2  -2 -14 -0.0669 1.83145   1
  -2  -2  14 -0.6538 1.20271   1
   2   2 -14 -0.1465 1.13934   1
  -2   2  14 2.32074 1.03977   1
   1  -2 -14 0.92217 1.50895   1
  -1  -2  14 1.15951 2.10196   1
  -1   2  14 0.43598 1.17161   1
   1   2 -14 0.64985 0.98536   5
   1   2 -14 0.87664 1.08976   1
   0  -2 -14 119.047 8.09742   5
   0  -2 -14 105.456 8.23955   1
   0   2 -14 117.984 7.71543   5
   0   2 -14 113.126 7.95943   1
  -1  -2 -14 140.386 10.0242   4
  -1  -2 -14 152.518 9.60890   5
  -1  -2 -14 135.998 9.78974   1
  -1   2 -14 142.829 9.30732   1
  -1   2 -14 146.740 9.05650   5
  -1   2 -14 149.184 9.39309   4
  -2  -2 -14 24.8177 3.92499   1
  -2   2 -14 23.4317 4.58912   4
  -3  -3  14 54.2277 4.30297   1
  -3   3  14 52.5134 4.03078   1
  -2  -3  14 47.4051 4.22283   1
   2  -3 -14 51.7997 5.15147   1
  -2   3  14 52.4307 3.98644   1
   2   3 -14 51.5511 4.74354   1
   1  -3 -14 89.7300 7.23116   3
   1  -3 -14 82.6417 7.21715   1
   1  -3 -14 93.4977 6.97022   5
   1   3 -14 94.1449 6.40433   5
   1   3 -14 93.0377 6.82681   1
  -1   3  14 92.0337 5.64694   1
   1   3 -14 79.0752 6.56080   4
   0  -3 -14 249.790 14.1326   5
   0  -3 -14 229.160 14.6836   4
   0  -3 -14 220.976 14.2744   1
   0   3 -14 242.018 13.7702   1
   0   3 -14 226.641 13.4226   4
   0   3 -14 239.289 13.2955   5
  -1  -3 -14 23.2869 4.16311   4
  -1  -3 -14 20.6731 3.66897   1
  -1  -3 -14 22.5060 3.59077   5
  -1   3 -14 23.7827 3.16067   1
  -1   3 -14 23.4768 3.14267   4
  -1   3 -14 26.9619 3.01066   5
  -2  -3 -14 60.3552 5.80892   1
  -2  -3 -14 67.5537 5.73898   5
  -2  -3 -14 59.7551 6.77950   3
  -2  -3 -14 69.0275 6.41783   4
  -2   3 -14 61.1828 4.78270   1
  -2   3 -14 61.5970 4.76663   5
  -2   3 -14 59.3988 4.75506   4
  -2  -4  14 135.969 8.21369   1
   2   4 -14 131.599 8.50287   1
  -2   4  14 125.042 7.85316   1
   1  -4 -14 14.7709 3.80372   3
   1  -4 -14 7.55457 2.72944   5
   1  -4 -14 10.3887 2.62647   1
   1   4 -14 6.81176 1.96946   4
   1   4 -14 7.40366 1.86147   1
  -1   4  14 10.8984 1.83982   1
   1   4 -14 9.27146 1.88451   5
   0  -4 -14 -1.0858 1.47425   5
   0  -4 -14 -2.5507 1.62719   1
   0  -4 -14 3.05875 2.09769   4
   0  -4 -14 1.46947 2.75333   3
   0   4 -14 -0.1027 1.18557   1
   0   4 -14 0.49119 0.95518   5
   0   4 -14 2.10277 1.21738   4
  -1  -4 -14 -3.2678 2.34770   3
  -1  -4 -14 -0.7943 1.99659   1
  -1  -4 -14 1.07764 1.60865   5
  -1  -4 -14 5.00153 2.45829   4
  -1   4 -14 1.95925 1.09624   5
  -1   4 -14 2.09098 1.21178   4
  -1   4 -14 3.06629 1.50306   1
  -2  -4 -14 110.292 7.63096   5
  -2  -4 -14 83.9988 7.24019   1
  -2  -5  14 2.93735 2.10480   1
   2  -5 -14 -0.6254 2.13731   1
  -2   5  14 1.04977 0.99472   1
   2   5 -14 0.66985 1.29396   1
   1  -5 -14 89.7316 7.41631   1
   1  -5 -14 86.4716 6.54682   3
   1   5 -14 66.7250 6.45082   4
   1   5 -14 92.7843 6.49792   1
  -1   5  14 85.4647 5.46204   1
   0  -5 -14 78.6394 8.40458   4
   0  -5 -14 84.7028 7.09154   5
   0  -5 -14 84.4304 7.39313   3
   0  -5 -14 82.6994 7.34567   1
   0   5 -14 92.3977 6.20298   5
   0   5 -14 89.8170 6.25166   4
   0   5 -14 84.7351 6.25329   1
  -1  -5 -14 145.742 9.81254   5
  -1  -5 -14 138.484 10.9560   4
  -1  -5 -14 139.549 10.3779   3
  -1  -5 -14 127.176 9.59640   1
  -1   5 -14 129.070 8.12201   4
  -1   5 -14 128.019 8.17126   5
  -1   5 -14 127.396 8.21478   1
   1  -6 -14 56.5914 6.18273   1
   1   6 -14 70.2645 5.22028   1
   1   6 -14 62.3765 5.09682   5
   0  -6 -14 38.0400 4.19562   3
   0  -6 -14 29.1130 4.46295   1
   0  -6 -14 25.1350 4.35816   5
   0   6 -14 28.2586 3.14396   5
   0   6 -14 29.2585 3.17434   1
   2   0 -15 -2.6825 1.26148   1
  -2   0  15 -1.1431 2.43366   1
   1   0 -15 32.3219 4.89058   4
   1   0 -15 35.1076 3.76968   5
   1   0 -15 37.5864 4.16561   1
   0   0 -15 0.08812 1.50160   4
   0   0 -15 1.12292 1.19580   5
   0   0 -15 1.25890 1.37357   1
  -1   0 -15 52.6654 5.05850   4
  -1   0 -15 47.5239 4.96486   1
  -1   0 -15 51.2069 4.69535   5
  -2   0 -15 0.35455 1.06703   5
  -2   0 -15 0.94263 2.56751   1
   2  -1 -15 -1.3311 1.45531   1
  -2  -1  15 2.87123 1.59123   1
   2   1 -15 1.92310 1.56876   1
   1  -1 -15 10.2642 2.68681   1
   1  -1 -15 9.77245 2.27954   5
   1  -1 -15 4.16585 2.65684   4
   1   1 -15 7.69764 2.07504   1
   1   1 -15 12.5454 2.69057   4
   1   1 -15 8.04516 1.82026   5
   0  -1 -15 19.5021 3.38030   4
   0  -1 -15 17.0793 3.00481   5
   0  -1 -15 15.7694 3.08252   1
   0   1 -15 23.6331 3.02423   5
   0   1 -15 16.9713 3.21155   4
   0   1 -15 19.1951 3.12762   1
  -1  -1 -15 26.8235 3.85572   4
  -1  -1 -15 32.5396 4.08141   1
  -1  -1 -15 31.1095 3.66285   5
  -1   1 -15 31.4067 3.73251   1
  -1   1 -15 31.1238 3.57147   4
  -1   1 -15 31.6154 3.47519   5
  -2  -2  15 26.8636 3.24001   1
   2  -2 -15 35.9684 4.49084   1
  -2   2  15 31.8608 2.85696   1
   1  -2 -15 -2.3982 2.85665   4
   1  -2 -15 4.04164 2.11020   5
   1  -2 -15 2.47496 1.88564   1
   1  -2 -15 -4.5017 3.27641   3
   1   2 -15 1.58613 1.25084   5
   1   2 -15 2.72957 1.53748   1
   1   2 -15 5.68319 2.13084   4
   0  -2 -15 5.11765 1.95258   1
   0  -2 -15 5.36850 2.25575   4
   0  -2 -15 8.34166 2.38587   5
   0   2 -15 4.57639 1.55725   5
   0   2 -15 5.78151 2.07294   1
   0   2 -15 4.16488 1.56110   4
  -1  -2 -15 4.91625 2.19536   4
  -1  -2 -15 2.99231 1.55984   5
  -1  -2 -15 5.59893 1.96509   1
  -1   2 -15 4.59015 1.50391   5
  -1   2 -15 4.71306 1.62600   4
  -1   2 -15 4.01281 2.16435   1
  -2  -3  15 0.34398 1.80571   1
   2  -3 -15 -1.3529 1.74845   1
  -2   3  15 1.40130 1.04466   1
   2   3 -15 -1.4078 1.29847   1
   1  -3 -15 67.6289 6.37937   3
   1  -3 -15 61.2520 6.07530   1
   1  -3 -15 69.1989 6.79952   5
   1   3 -15 66.0354 5.64585   1
   1   3 -15 70.1391 5.97085   5
   0  -3 -15 17.3626 3.21303   5
   0  -3 -15 22.3940 5.12000   3
   0  -3 -15 15.0045 3.08561   1
   0  -3 -15 15.4406 3.56513   4
   0   3 -15 17.6136 2.85996   1
   0   3 -15 15.7706 2.80088   4
   0   3 -15 18.2971 2.71142   5
  -1  -3 -15 17.9199 3.48193   4
  -1  -3 -15 8.12541 2.64151   1
  -1  -3 -15 13.8317 4.07154   3
  -1  -3 -15 12.8244 2.74074   5
  -1   3 -15 12.3861 2.35795   1
  -1   3 -15 9.94785 2.16421   5
  -1   3 -15 17.6246 2.59931   4
   2  -4 -15 6.66402 2.40107   1
  -2   4  15 6.94866 1.46089   1
   1  -4 -15 0.33796 2.88723   1
   1   4 -15 3.11228 1.48966   5
   1   4 -15 2.74656 1.86501   1
   0  -4 -15 0.23008 1.83427   1
   0  -4 -15 0.63255 2.75608   3
   0  -4 -15 -0.5653 1.60521   5
   0  -4 -15 3.39088 2.73104   4
   0   4 -15 2.63866 1.58648   1
   0   4 -15 1.73561 1.50955   4
  -1  -4 -15 164.898 10.5940   5
  -1  -4 -15 146.378 11.0864   3
  -1  -4 -15 155.223 10.7674   1
  -1   4 -15 160.403 9.54842   1
  -1   4 -15 158.724 9.34482   5
   1  -5 -15 116.698 9.26792   1
   1   5 -15 148.257 8.77692   1
   1   5 -15 137.160 9.31865   5
   0  -5 -15 -1.8584 1.95456   5
   0  -5 -15 3.74294 2.31309   1
   0  -5 -15 3.16996 2.82761   3
   0   5 -15 1.10438 1.16857   5
   0   5 -15 3.30584 1.30701   1
   2   0 -16 31.8684 3.89653   1
   1   0 -16 2.42574 2.44914   1
   1   0 -16 -0.2725 1.70782   5
   0   0 -16 342.261 20.5277   1
   0   0 -16 293.163 17.6749   4
   0   0 -16 310.854 18.4595   5
  -1   0 -16 -0.7684 1.33153   1
  -1   0 -16 1.42603 1.15669   5
   2  -1 -16 23.2220 3.41676   1
   2   1 -16 21.2197 3.15344   1
  -2   1  16 21.0915 3.03813   1
   1  -1 -16 53.3519 7.07020   1
   1  -1 -16 54.3530 5.49765   5
   1   1 -16 58.3424 6.90493   1
   1   1 -16 61.0015 5.10371   5
   0  -1 -16 286.829 19.4366   1
   0  -1 -16 275.388 16.8080   4
   0  -1 -16 301.330 16.1988   5
   0   1 -16 289.318 19.0395   1
   0   1 -16 296.311 16.0357   5
   0   1 -16 279.284 16.3210   4
  -1  -1 -16 5.82129 1.86627   5
  -1  -1 -16 11.1720 2.83605   1
  -1   1 -16 11.5844 2.49692   1
  -1   1 -16 9.46578 2.08353   5
   1  -2 -16 62.2386 5.62828   1
   1  -2 -16 56.0838 6.08396   5
   1   2 -16 57.6329 5.10748   1
   1   2 -16 50.1755 4.77292   5
   0  -2 -16 7.11169 2.37487   1
   0  -2 -16 4.67718 1.79907   5
   0   2 -16 5.11911 1.82140   1
   0   2 -16 8.28509 2.14461   4
   0   2 -16 5.12656 1.57916   5
   1  -3 -16 169.477 11.1338   1
   1   3 -16 183.789 10.7918   1
   1   3 -16 168.513 10.3031   5
   0  -3 -16 17.5188 3.45936   1
   0  -3 -16 28.2433 5.09740   3
   0  -3 -16 11.3379 2.73083   5
   0   3 -16 20.4508 2.82812   1
   0   3 -16 18.9922 2.62818   5
   0   0   0    0.00    0.00   0

 _exptl_absorpt_process_details
)
 SADABS 2016/2: Krause, L., Herbst-Irmer, R., Sheldrick G.M. & Stalke D.,
 J. Appl. Cryst. 48 (2015) 3-10
)
 _exptl_absorpt_correction_type   multi-scan
 _exptl_absorpt_correction_T_max  0.7508
 _exptl_absorpt_correction_T_min  0.5305
 _exptl_special_details
)
 The following wavelength and cell were deduced by SADABS from the
 direction cosines etc. They are given here for emergency use only:
 CELL 1.34178    4.519    9.889   13.773   89.990   95.373   89.997
)
;
_shelx_hkl_checksum              64156
_olex2_submission_special_instructions 'No special instructions were received'
loop_
_space_group_symop_operation_xyz
'x, y, z'
'-x+1/2, y+1/2, -z+1/2'
'-x, -y, -z'
'x-1/2, -y-1/2, z-1/2'
loop_
_atom_site_label
_atom_site_type_symbol
_atom_site_fract_x
_atom_site_fract_y
_atom_site_fract_z
_atom_site_U_iso_or_equiv
_atom_site_adp_type
_atom_site_occupancy
_atom_site_site_symmetry_order
_atom_site_calc_flag
_atom_site_refinement_flags_posn
_atom_site_refinement_flags_adp
_atom_site_refinement_flags_occupancy
_atom_site_disorder_assembly
_atom_site_disorder_group
Cl1 Cl 0.6494(2) 0.35787(9) 0.22546(6) 0.0431(3) Uani 1 1 d . . . . .
Cl2 Cl 0.2241(2) 0.09779(8) 0.15702(6) 0.0405(3) Uani 1 1 d . . . . .
S1 S 0.6146(2) 0.28084(8) -0.07684(6) 0.0347(3) Uani 1 1 d . . . . .
C1 C 0.9376(7) 0.4728(3) 0.0374(2) 0.0302(7) Uani 1 1 d . . . . .
H1 H 0.990162 0.510715 0.100011 0.036 Uiso 1 1 calc R . . . .
C2 C 0.7300(7) 0.3618(3) 0.0321(2) 0.0307(7) Uani 1 1 d . . . . .
C3 C 0.5976(8) 0.3029(3) 0.1071(2) 0.0320(7) Uani 1 1 d . . . . .
C4 C 0.4105(7) 0.1931(3) 0.0776(2) 0.0312(7) Uani 1 1 d . . . . .
C5 C 0.3975(8) 0.1694(3) -0.0203(2) 0.0347(7) Uani 1 1 d . . . . .
H5 H 0.282402 0.099821 -0.052869 0.042 Uiso 1 1 calc R . . . .
loop_
_atom_site_aniso_label
_atom_site_aniso_U_11
_atom_site_aniso_U_22
_atom_site_aniso_U_33
_atom_site_aniso_U_23
_atom_site_aniso_U_13
_atom_site_aniso_U_12
Cl1 0.0582(6) 0.0453(5) 0.0256(4) -0.0052(3) 0.0026(4) 0.0033(4)
Cl2 0.0461(5) 0.0360(5) 0.0403(5) 0.0095(3) 0.0093(4) 0.0000(3)
S1 0.0431(5) 0.0350(5) 0.0258(4) -0.0028(3) 0.0031(4) -0.0042(3)
C1 0.0265(16) 0.0309(16) 0.0319(16) -0.0001(12) -0.0049(13) 0.0029(12)
C2 0.0324(17) 0.0272(15) 0.0325(17) 0.0001(13) 0.0028(14) 0.0052(13)
C3 0.0386(19) 0.0282(15) 0.0295(16) 0.0010(12) 0.0045(14) 0.0079(13)
C4 0.0341(17) 0.0269(15) 0.0324(17) 0.0060(12) 0.0018(14) 0.0061(13)
C5 0.0359(19) 0.0301(16) 0.0359(18) -0.0028(14) -0.0082(14) -0.0013(13)
loop_
_atom_type_symbol
_atom_type_description
_atom_type_scat_dispersion_real
_atom_type_scat_dispersion_imag
_atom_type_scat_source
C C 0.0148 0.0070 'International Tables Vol C Tables 4.2.6.8 and 6.1.1.4'
H H 0.0000 0.0000 'International Tables Vol C Tables 4.2.6.8 and 6.1.1.4'
Cl Cl 0.3294 0.5404 'International Tables Vol C Tables 4.2.6.8 and 6.1.1.4'
S S 0.2924 0.4247 'International Tables Vol C Tables 4.2.6.8 and 6.1.1.4'
loop_
_geom_angle_atom_site_label_1
_geom_angle_atom_site_label_2
_geom_angle_atom_site_label_3
_geom_angle
_geom_angle_site_symmetry_1
_geom_angle_site_symmetry_3
_geom_angle_publ_flag
C5 S1 C2 92.48(16) . . ?
C1 C1 H1 117.0 3_765 . ?
C1 C1 C2 126.0(4) 3_765 . ?
C2 C1 H1 117.0 . . ?
C1 C2 S1 122.5(2) . . ?
C3 C2 S1 109.7(3) . . ?
C3 C2 C1 127.7(3) . . ?
C2 C3 Cl1 123.4(3) . . ?
C2 C3 C4 113.7(3) . . ?
C4 C3 Cl1 122.9(3) . . ?
C3 C4 Cl2 123.6(3) . . ?
C5 C4 Cl2 123.7(3) . . ?
C5 C4 C3 112.7(3) . . ?
S1 C5 H5 124.3 . . ?
C4 C5 S1 111.4(3) . . ?
C4 C5 H5 124.3 . . ?
loop_
_geom_bond_atom_site_label_1
_geom_bond_atom_site_label_2
_geom_bond_distance
_geom_bond_site_symmetry_2
_geom_bond_publ_flag
Cl1 C3 1.714(3) . ?
Cl2 C4 1.721(3) . ?
S1 C2 1.737(3) . ?
S1 C5 1.710(4) . ?
C1 C1 1.333(7) 3_765 ?
C1 H1 0.9500 . ?
C1 C2 1.442(5) . ?
C2 C3 1.370(5) . ?
C3 C4 1.413(5) . ?
C4 C5 1.364(5) . ?
C5 H5 0.9500 . ?
loop_
_geom_torsion_atom_site_label_1
_geom_torsion_atom_site_label_2
_geom_torsion_atom_site_label_3
_geom_torsion_atom_site_label_4
_geom_torsion
_geom_torsion_site_symmetry_1
_geom_torsion_site_symmetry_2
_geom_torsion_site_symmetry_3
_geom_torsion_site_symmetry_4
_geom_torsion_publ_flag
Cl1 C3 C4 Cl2 -2.5(4) . . . . ?
Cl1 C3 C4 C5 178.5(2) . . . . ?
Cl2 C4 C5 S1 -178.81(19) . . . . ?
S1 C2 C3 Cl1 -178.28(19) . . . . ?
S1 C2 C3 C4 1.0(4) . . . . ?
C1 C1 C2 S1 0.6(6) 3_765 . . . ?
C1 C1 C2 C3 179.8(4) 3_765 . . . ?
C1 C2 C3 Cl1 2.4(5) . . . . ?
C1 C2 C3 C4 -178.3(3) . . . . ?
C2 S1 C5 C4 0.3(3) . . . . ?
C2 C3 C4 Cl2 178.2(2) . . . . ?
C2 C3 C4 C5 -0.8(4) . . . . ?
C3 C4 C5 S1 0.2(4) . . . . ?
C5 S1 C2 C1 178.6(3) . . . . ?
C5 S1 C2 C3 -0.8(3) . . . . ?
