#------------------------------------------------------------------------------
#$Date: 2021-07-05 19:49:32 +0300 (Mon, 05 Jul 2021) $
#$Revision: 267065 $
#$URL: file:///home/coder/svn-repositories/cod/cif/1/55/96/1559616.cif $
#------------------------------------------------------------------------------
#
# This file is available in the Crystallography Open Database (COD),
# http://www.crystallography.net/
#
# All data on this site have been placed in the public domain by the
# contributors.
#
data_1559616
loop_
_publ_author_name
'McClain, Rebecca'
'Malliakas, Christos D.'
'Shen, Jiahong'
'He, Jiangang'
'Wolverton, Chris'
'Gonz\'alez, Gabriela B'
'Kanatzidis, Mercouri G.'
_publ_section_title
;
 Mechanistic insight of KBiQ<sub>2</sub> (Q = S, Se) using panoramic
 synthesis towards synthesis-by-design.
;
_journal_issue                   4
_journal_name_full               'Chemical science'
_journal_page_first              1378
_journal_page_last               1391
_journal_paper_doi               10.1039/d0sc04562d
_journal_volume                  12
_journal_year                    2020
_chemical_formula_sum            'Bi K3 S3'
_chemical_formula_weight         422.5
_space_group_IT_number           198
_space_group_name_Hall           'P 2ac 2ab 3'
_space_group_name_H-M_alt        'P 21 3'
_symmetry_cell_setting           cubic
_symmetry_Int_Tables_number      198
_symmetry_space_group_name_Hall  'P 2ac 2ab 3'
_symmetry_space_group_name_H-M   'P 21 3'
_audit_update_record
;
2020-08-19 deposited with the CCDC.	2020-11-23 downloaded from the CCDC.
;
_cell_angle_alpha                90
_cell_angle_beta                 90
_cell_angle_gamma                90
_cell_formula_units_Z            4
_cell_length_a                   9.44906(12)
_cell_length_b                   9.44906(12)
_cell_length_c                   9.44906(12)
_cell_measurement_temperature    298
_cell_volume                     843.657(19)
_diffrn_ambient_temperature      298
_diffrn_measurement_device       'STOE Stadi P'
_diffrn_radiation_probe          x-ray
_diffrn_radiation_type           'Cu K\a'
_diffrn_radiation_wavelength     1.54056
_diffrn_source                   Cu
_exptl_absorpt_coefficient_mu    60.552
_exptl_crystal_density_diffrn    3.326
_exptl_crystal_description       powder
_exptl_crystal_F_000             268
_pd_instr_location               ' ?'
_pd_meas_2theta_range_inc        0.015
_pd_meas_2theta_range_max        124.680
_pd_meas_2theta_range_min        3.000
_pd_meas_number_of_points        8113
_pd_proc_2theta_range_inc        0.015
_pd_proc_2theta_range_max        124.68
_pd_proc_2theta_range_min        7.515
_pd_proc_ls_background_function  '17 Legendre polynoms'
_pd_proc_ls_pref_orient_corr     none
_pd_proc_ls_profile_function     Pseudo-Voigt
_pd_proc_ls_prof_R_factor        0.0792
_pd_proc_ls_prof_wR_expected     0.0779
_pd_proc_ls_prof_wR_factor       0.1194
_refine_diff_density_max         2.33
_refine_diff_density_min         -4.72
_refine_ls_goodness_of_fit_all   1.53
_refine_ls_number_constraints    4
_refine_ls_number_parameters     38
_refine_ls_number_restraints     0
_refine_ls_R_factor_all          0.0635
_refine_ls_R_factor_gt           0.0624
_refine_ls_shift/su_max          0.0485
_refine_ls_shift/su_mean         0.0044
_refine_ls_weighting_scheme      sigma
_refine_ls_wR_factor_all         0.0833
_refine_ls_wR_factor_gt          0.0832
_cod_data_source_file            d0sc04562d2.cif
_cod_data_source_block           I
_cod_depositor_comments
;
The following automatic conversions were performed:

data item '_diffrn_radiation_probe' value 'X-ray' was changed to
'x-ray' in accordance with the
/home/data/users/saulius/crontab/automatic-downloads/rss-feeds/RSC/lib/dictionaries/cif_core.dic
dictionary named 'cif_core.dic' version 2.4.2 last updated on
2011-04-26.

Automatic conversion script
Id: cif_fix_values 7556 2019-12-06 15:28:31Z antanas 

 Adding full bibliography for 1559616--1559618.cif.

 Adding full bibliography for 1559616--1559618.cif.
;
_cod_original_cell_volume        843.656(19)
_cod_original_sg_symbol_Hall     'P 2ac;2ab;3'
_cod_original_formula_sum        'K3 Bi S3'
_cod_database_code               1559616
loop_
_space_group_symop_id
_space_group_symop_operation_xyz
1 x,y,z
2 -x+1/2,-y,z+1/2
3 -x,y+1/2,-z+1/2
4 x+1/2,-y+1/2,-z
5 z,x,y
6 z+1/2,-x+1/2,-y
7 -z+1/2,-x,y+1/2
8 -z,x+1/2,-y+1/2
9 y,z,x
10 -y,z+1/2,-x+1/2
11 y+1/2,-z+1/2,-x
12 -y+1/2,-z,x+1/2
loop_
_atom_site_label
_atom_site_type_symbol
_atom_site_fract_x
_atom_site_fract_y
_atom_site_fract_z
_atom_site_adp_type
_atom_site_U_iso_or_equiv
_atom_site_site_symmetry_multiplicity
_atom_site_occupancy
_atom_site_calc_flag
_atom_site_refinement_flags
_atom_site_disorder_assembly
_atom_site_disorder_group
K1 K 0.0601(6) 0.0601(6) 0.0601(6) Uiso 0.022(4) 4 1 d . . .
K2 K 0.5762(9) 0.5762(9) 0.5762(9) Uiso 0.055(6) 4 1 d . . .
K3 K 0.8216(7) 0.8216(7) 0.8216(7) Uiso 0.064(5) 4 1 d . . .
Bi1 Bi 0.28560(11) 0.28560(11) 0.28560(11) Uiso 0.0368(5) 4 1 d . . .
S1 S 0.0234(7) 0.2492(11) 0.3581(8) Uiso 0.037(3) 12 1 d . . .
loop_
_atom_site_aniso_label
_atom_site_aniso_type_symbol
_atom_site_aniso_U_11
_atom_site_aniso_U_22
_atom_site_aniso_U_33
_atom_site_aniso_U_12
_atom_site_aniso_U_13
_atom_site_aniso_U_23
? ? ? ? ? ? ? ?
loop_
_atom_type_symbol
_atom_type_scat_dispersion_real
_atom_type_scat_dispersion_imag
_atom_type_scat_source
Bi -4.0164 9.1181 'International Tables Vol C tables 4.2.6.8 and 6.1.1.1'
K 0.3858 1.0718 'International Tables Vol C tables 4.2.6.8 and 6.1.1.1'
S 0.3357 0.5642 'International Tables Vol C tables 4.2.6.8 and 6.1.1.1'
loop_
_exptl_crystal_face_index_h
_exptl_crystal_face_index_k
_exptl_crystal_face_index_l
_exptl_crystal_face_perp_dist
? ? ? ?
loop_
_geom_angle_atom_site_label_1
_geom_angle_atom_site_label_2
_geom_angle_atom_site_label_3
_geom_angle_site_symmetry_1
_geom_angle_site_symmetry_2
_geom_angle_site_symmetry_3
_geom_angle
_geom_angle_publ_flag
K2 K1 K2 2_564 . 3_645 107.7(2) ?
K2 K1 K2 2_564 . 4_456 107.7(2) ?
K2 K1 K3 2_564 . 1_444 111.2(2) ?
K2 K1 K3 2_564 . 2_564 57.68(17) ?
K2 K1 K3 2_564 . 3_645 66.90(18) ?
K2 K1 K3 2_564 . 4_456 158.4(2) ?
K2 K1 Bi1 2_564 . . 68.80(17) ?
K2 K1 Bi1 2_564 . 2_554 146.3(2) ?
K2 K1 Bi1 2_564 . 3_545 106.04(19) ?
K2 K1 Bi1 2_564 . 4_455 61.06(16) ?
K2 K1 S1 2_564 . . 55.3(2) ?
K2 K1 S1 2_564 . 3_545 141.0(3) ?
K2 K1 S1 2_564 . 5_555 111.7(2) ?
K2 K1 S1 2_564 . 7_554 111.1(3) ?
K2 K1 S1 2_564 . 9_555 53.5(2) ?
K2 K1 S1 2_564 . 11_455 56.8(2) ?
K2 K1 K2 3_645 . 4_456 107.7(2) ?
K2 K1 K3 3_645 . 1_444 111.2(2) ?
K2 K1 K3 3_645 . 2_564 158.4(2) ?
K2 K1 K3 3_645 . 3_645 57.68(17) ?
K2 K1 K3 3_645 . 4_456 66.90(18) ?
K2 K1 Bi1 3_645 . . 68.80(17) ?
K2 K1 Bi1 3_645 . 2_554 61.06(16) ?
K2 K1 Bi1 3_645 . 3_545 146.3(2) ?
K2 K1 Bi1 3_645 . 4_455 106.04(19) ?
K2 K1 S1 3_645 . . 111.7(2) ?
K2 K1 S1 3_645 . 3_545 111.1(3) ?
K2 K1 S1 3_645 . 5_555 53.5(2) ?
K2 K1 S1 3_645 . 7_554 56.8(2) ?
K2 K1 S1 3_645 . 9_555 55.3(2) ?
K2 K1 S1 3_645 . 11_455 141.0(3) ?
K2 K1 K3 4_456 . 1_444 111.2(2) ?
K2 K1 K3 4_456 . 2_564 66.90(18) ?
K2 K1 K3 4_456 . 3_645 158.4(2) ?
K2 K1 K3 4_456 . 4_456 57.68(17) ?
K2 K1 Bi1 4_456 . . 68.80(17) ?
K2 K1 Bi1 4_456 . 2_554 106.04(19) ?
K2 K1 Bi1 4_456 . 3_545 61.06(16) ?
K2 K1 Bi1 4_456 . 4_455 146.3(2) ?
K2 K1 S1 4_456 . . 53.5(2) ?
K2 K1 S1 4_456 . 3_545 56.8(2) ?
K2 K1 S1 4_456 . 5_555 55.3(2) ?
K2 K1 S1 4_456 . 7_554 141.0(3) ?
K2 K1 S1 4_456 . 9_555 111.7(2) ?
K2 K1 S1 4_456 . 11_455 111.1(3) ?
K3 K1 K3 1_444 . 2_564 89.87(17) ?
K3 K1 K3 1_444 . 3_645 89.87(17) ?
K3 K1 K3 1_444 . 4_456 89.87(17) ?
K3 K1 Bi1 1_444 . . 180 ?
K3 K1 Bi1 1_444 . 2_554 54.88(12) ?
K3 K1 Bi1 1_444 . 3_545 54.88(12) ?
K3 K1 Bi1 1_444 . 4_455 54.88(12) ?
K3 K1 S1 1_444 . . 137.1(2) ?
K3 K1 S1 1_444 . 3_545 57.08(19) ?
K3 K1 S1 1_444 . 5_555 137.1(2) ?
K3 K1 S1 1_444 . 7_554 57.08(19) ?
K3 K1 S1 1_444 . 9_555 137.1(2) ?
K3 K1 S1 1_444 . 11_455 57.08(19) ?
K3 K1 K3 2_564 . 3_645 120.00(17) ?
K3 K1 K3 2_564 . 4_456 120.00(17) ?
K3 K1 Bi1 2_564 . . 90.13(15) ?
K3 K1 Bi1 2_564 . 2_554 140.20(17) ?
K3 K1 Bi1 2_564 . 3_545 51.23(10) ?
K3 K1 Bi1 2_564 . 4_455 81.60(13) ?
K3 K1 S1 2_564 . . 47.58(16) ?
K3 K1 S1 2_564 . 3_545 84.0(2) ?
K3 K1 S1 2_564 . 5_555 113.9(2) ?
K3 K1 S1 2_564 . 7_554 140.5(2) ?
K3 K1 S1 2_564 . 9_555 105.9(2) ?
K3 K1 S1 2_564 . 11_455 47.82(17) ?
K3 K1 K3 3_645 . 4_456 120.00(17) ?
K3 K1 Bi1 3_645 . . 90.13(15) ?
K3 K1 Bi1 3_645 . 2_554 81.60(13) ?
K3 K1 Bi1 3_645 . 3_545 140.20(17) ?
K3 K1 Bi1 3_645 . 4_455 51.23(10) ?
K3 K1 S1 3_645 . . 113.9(2) ?
K3 K1 S1 3_645 . 3_545 140.5(2) ?
K3 K1 S1 3_645 . 5_555 105.9(2) ?
K3 K1 S1 3_645 . 7_554 47.82(17) ?
K3 K1 S1 3_645 . 9_555 47.58(16) ?
K3 K1 S1 3_645 . 11_455 84.0(2) ?
K3 K1 Bi1 4_456 . . 90.13(15) ?
K3 K1 Bi1 4_456 . 2_554 51.23(10) ?
K3 K1 Bi1 4_456 . 3_545 81.60(13) ?
K3 K1 Bi1 4_456 . 4_455 140.20(17) ?
K3 K1 S1 4_456 . . 105.9(2) ?
K3 K1 S1 4_456 . 3_545 47.82(17) ?
K3 K1 S1 4_456 . 5_555 47.58(16) ?
K3 K1 S1 4_456 . 7_554 84.0(2) ?
K3 K1 S1 4_456 . 9_555 113.9(2) ?
K3 K1 S1 4_456 . 11_455 140.5(2) ?
Bi1 K1 Bi1 . . 2_554 125.12(16) ?
Bi1 K1 Bi1 . . 3_545 125.12(16) ?
Bi1 K1 Bi1 . . 4_455 125.12(16) ?
Bi1 K1 S1 . . . 42.88(14) ?
Bi1 K1 S1 . . 3_545 122.9(2) ?
Bi1 K1 S1 . . 5_555 42.88(14) ?
Bi1 K1 S1 . . 7_554 122.9(2) ?
Bi1 K1 S1 . . 9_555 42.88(14) ?
Bi1 K1 S1 . . 11_455 122.9(2) ?
Bi1 K1 Bi1 2_554 . 3_545 90.21(11) ?
Bi1 K1 Bi1 2_554 . 4_455 90.21(11) ?
Bi1 K1 S1 2_554 . . 157.1(2) ?
Bi1 K1 S1 2_554 . 3_545 62.32(17) ?
Bi1 K1 S1 2_554 . 5_555 87.67(19) ?
Bi1 K1 S1 2_554 . 7_554 35.25(15) ?
Bi1 K1 S1 2_554 . 9_555 112.6(2) ?
Bi1 K1 S1 2_554 . 11_455 110.1(2) ?
Bi1 K1 Bi1 3_545 . 4_455 90.21(11) ?
Bi1 K1 S1 3_545 . . 87.67(19) ?
Bi1 K1 S1 3_545 . 3_545 35.25(15) ?
Bi1 K1 S1 3_545 . 5_555 112.6(2) ?
Bi1 K1 S1 3_545 . 7_554 110.1(2) ?
Bi1 K1 S1 3_545 . 9_555 157.1(2) ?
Bi1 K1 S1 3_545 . 11_455 62.32(17) ?
Bi1 K1 S1 4_455 . . 112.6(2) ?
Bi1 K1 S1 4_455 . 3_545 110.1(2) ?
Bi1 K1 S1 4_455 . 5_555 157.1(2) ?
Bi1 K1 S1 4_455 . 7_554 62.32(17) ?
Bi1 K1 S1 4_455 . 9_555 87.67(19) ?
Bi1 K1 S1 4_455 . 11_455 35.25(15) ?
S1 K1 S1 . . 3_545 105.4(3) ?
S1 K1 S1 . . 5_555 72.2(2) ?
S1 K1 S1 . . 7_554 161.0(3) ?
S1 K1 S1 . . 9_555 72.2(2) ?
S1 K1 S1 . . 11_455 89.0(2) ?
S1 K1 S1 3_545 . 5_555 89.0(2) ?
S1 K1 S1 3_545 . 7_554 93.3(3) ?
S1 K1 S1 3_545 . 9_555 161.0(3) ?
S1 K1 S1 3_545 . 11_455 93.3(3) ?
S1 K1 S1 5_555 . 7_554 105.4(3) ?
S1 K1 S1 5_555 . 9_555 72.2(2) ?
S1 K1 S1 5_555 . 11_455 161.0(3) ?
S1 K1 S1 7_554 . 9_555 89.0(2) ?
S1 K1 S1 7_554 . 11_455 93.3(3) ?
S1 K1 S1 9_555 . 11_455 105.4(3) ?
K1 K2 K1 2_565 . 3_655 110.6(2) ?
K1 K2 K1 2_565 . 4_556 110.6(2) ?
K1 K2 K3 2_565 . . 71.71(19) ?
K1 K2 K3 2_565 . 2_664 145.3(3) ?
K1 K2 K3 2_565 . 3_646 102.3(2) ?
K1 K2 K3 2_565 . 4_466 65.38(18) ?
K1 K2 Bi1 2_565 . 2_565 55.80(15) ?
K1 K2 Bi1 2_565 . 3_655 68.35(17) ?
K1 K2 Bi1 2_565 . 4_556 161.5(3) ?
K1 K2 S1 2_565 . 2_565 57.4(2) ?
K1 K2 S1 2_565 . 4_556 149.2(3) ?
K1 K2 S1 2_565 . 6_556 125.1(3) ?
K1 K2 S1 2_565 . 8_655 100.1(3) ?
K1 K2 S1 2_565 . 10_655 53.3(2) ?
K1 K2 S1 2_565 . 12_565 58.1(2) ?
K1 K2 K1 3_655 . 4_556 110.6(2) ?
K1 K2 K3 3_655 . . 71.71(19) ?
K1 K2 K3 3_655 . 2_664 65.38(18) ?
K1 K2 K3 3_655 . 3_646 145.3(3) ?
K1 K2 K3 3_655 . 4_466 102.3(2) ?
K1 K2 Bi1 3_655 . 2_565 161.5(3) ?
K1 K2 Bi1 3_655 . 3_655 55.80(15) ?
K1 K2 Bi1 3_655 . 4_556 68.35(17) ?
K1 K2 S1 3_655 . 2_565 125.1(3) ?
K1 K2 S1 3_655 . 4_556 100.1(3) ?
K1 K2 S1 3_655 . 6_556 53.3(2) ?
K1 K2 S1 3_655 . 8_655 58.1(2) ?
K1 K2 S1 3_655 . 10_655 57.4(2) ?
K1 K2 S1 3_655 . 12_565 149.2(3) ?
K1 K2 K3 4_556 . . 71.71(19) ?
K1 K2 K3 4_556 . 2_664 102.3(2) ?
K1 K2 K3 4_556 . 3_646 65.38(18) ?
K1 K2 K3 4_556 . 4_466 145.3(3) ?
K1 K2 Bi1 4_556 . 2_565 68.35(17) ?
K1 K2 Bi1 4_556 . 3_655 161.5(3) ?
K1 K2 Bi1 4_556 . 4_556 55.80(15) ?
K1 K2 S1 4_556 . 2_565 53.3(2) ?
K1 K2 S1 4_556 . 4_556 58.1(2) ?
K1 K2 S1 4_556 . 6_556 57.4(2) ?
K1 K2 S1 4_556 . 8_655 149.2(3) ?
K1 K2 S1 4_556 . 10_655 125.1(3) ?
K1 K2 S1 4_556 . 12_565 100.1(3) ?
K3 K2 K3 . . 2_664 131.1(2) ?
K3 K2 K3 . . 3_646 131.1(2) ?
K3 K2 K3 . . 4_466 131.1(2) ?
K3 K2 Bi1 . . 2_565 91.06(19) ?
K3 K2 Bi1 . . 3_655 91.06(19) ?
K3 K2 Bi1 . . 4_556 91.06(19) ?
K3 K2 S1 . . 2_565 53.5(2) ?
K3 K2 S1 . . 4_556 122.5(3) ?
K3 K2 S1 . . 6_556 53.5(2) ?
K3 K2 S1 . . 8_655 122.5(3) ?
K3 K2 S1 . . 10_655 53.5(2) ?
K3 K2 S1 . . 12_565 122.5(3) ?
K3 K2 K3 2_664 . 3_646 81.48(17) ?
K3 K2 K3 2_664 . 4_466 81.48(17) ?
K3 K2 Bi1 2_664 . 2_565 133.1(2) ?
K3 K2 Bi1 2_664 . 3_655 83.81(16) ?
K3 K2 Bi1 2_664 . 4_556 52.29(12) ?
K3 K2 S1 2_664 . 2_565 154.8(3) ?
K3 K2 S1 2_664 . 4_556 48.64(19) ?
K3 K2 S1 2_664 . 6_556 81.8(2) ?
K3 K2 S1 2_664 . 8_655 47.11(18) ?
K3 K2 S1 2_664 . 10_655 114.3(3) ?
K3 K2 S1 2_664 . 12_565 106.4(3) ?
K3 K2 K3 3_646 . 4_466 81.48(17) ?
K3 K2 Bi1 3_646 . 2_565 52.29(12) ?
K3 K2 Bi1 3_646 . 3_655 133.1(2) ?
K3 K2 Bi1 3_646 . 4_556 83.81(16) ?
K3 K2 S1 3_646 . 2_565 81.8(2) ?
K3 K2 S1 3_646 . 4_556 47.11(18) ?
K3 K2 S1 3_646 . 6_556 114.3(3) ?
K3 K2 S1 3_646 . 8_655 106.4(3) ?
K3 K2 S1 3_646 . 10_655 154.8(3) ?
K3 K2 S1 3_646 . 12_565 48.64(19) ?
K3 K2 Bi1 4_466 . 2_565 83.81(16) ?
K3 K2 Bi1 4_466 . 3_655 52.29(12) ?
K3 K2 Bi1 4_466 . 4_556 133.1(2) ?
K3 K2 S1 4_466 . 2_565 114.3(3) ?
K3 K2 S1 4_466 . 4_556 106.4(3) ?
K3 K2 S1 4_466 . 6_556 154.8(3) ?
K3 K2 S1 4_466 . 8_655 48.64(19) ?
K3 K2 S1 4_466 . 10_655 81.8(2) ?
K3 K2 S1 4_466 . 12_565 47.11(18) ?
Bi1 K2 Bi1 2_565 . 3_655 120.0(2) ?
Bi1 K2 Bi1 2_565 . 4_556 120.0(2) ?
Bi1 K2 S1 2_565 . 2_565 38.56(15) ?
Bi1 K2 S1 2_565 . 4_556 94.7(2) ?
Bi1 K2 S1 2_565 . 6_556 121.3(3) ?
Bi1 K2 S1 2_565 . 8_655 132.1(3) ?
Bi1 K2 S1 2_565 . 10_655 107.2(3) ?
Bi1 K2 S1 2_565 . 12_565 38.54(16) ?
Bi1 K2 Bi1 3_655 . 4_556 120.0(2) ?
Bi1 K2 S1 3_655 . 2_565 121.3(3) ?
Bi1 K2 S1 3_655 . 4_556 132.1(3) ?
Bi1 K2 S1 3_655 . 6_556 107.2(3) ?
Bi1 K2 S1 3_655 . 8_655 38.54(16) ?
Bi1 K2 S1 3_655 . 10_655 38.56(15) ?
Bi1 K2 S1 3_655 . 12_565 94.7(2) ?
Bi1 K2 S1 4_556 . 2_565 107.2(3) ?
Bi1 K2 S1 4_556 . 4_556 38.54(16) ?
Bi1 K2 S1 4_556 . 6_556 38.56(15) ?
Bi1 K2 S1 4_556 . 8_655 94.7(2) ?
Bi1 K2 S1 4_556 . 10_655 121.3(3) ?
Bi1 K2 S1 4_556 . 12_565 132.1(3) ?
S1 K2 S1 2_565 . 4_556 106.5(3) ?
S1 K2 S1 2_565 . 6_556 88.2(3) ?
S1 K2 S1 2_565 . 8_655 157.5(4) ?
S1 K2 S1 2_565 . 10_655 88.2(3) ?
S1 K2 S1 2_565 . 12_565 75.6(3) ?
S1 K2 S1 4_556 . 6_556 75.6(3) ?
S1 K2 S1 4_556 . 8_655 93.9(3) ?
S1 K2 S1 4_556 . 10_655 157.5(4) ?
S1 K2 S1 4_556 . 12_565 93.9(3) ?
S1 K2 S1 6_556 . 8_655 106.5(3) ?
S1 K2 S1 6_556 . 10_655 88.2(3) ?
S1 K2 S1 6_556 . 12_565 157.5(4) ?
S1 K2 S1 8_655 . 10_655 75.6(3) ?
S1 K2 S1 8_655 . 12_565 93.9(3) ?
S1 K2 S1 10_655 . 12_565 106.5(3) ?
K1 K3 K1 1_666 . 2_565 129.39(19) ?
K1 K3 K1 1_666 . 3_655 129.39(19) ?
K1 K3 K1 1_666 . 4_556 129.39(19) ?
K1 K3 K2 1_666 . . 180 ?
K1 K3 K2 1_666 . 2_665 92.81(18) ?
K1 K3 K2 1_666 . 3_656 92.81(18) ?
K1 K3 K2 1_666 . 4_566 92.81(18) ?
K1 K3 Bi1 1_666 . 2_665 69.36(14) ?
K1 K3 Bi1 1_666 . 3_656 69.36(14) ?
K1 K3 Bi1 1_666 . 4_566 69.36(14) ?
K1 K3 S1 1_666 . 2_565 128.2(2) ?
K1 K3 S1 1_666 . 3_656 50.2(2) ?
K1 K3 S1 1_666 . 6_556 128.2(2) ?
K1 K3 S1 1_666 . 7_665 50.2(2) ?
K1 K3 S1 1_666 . 10_655 128.2(2) ?
K1 K3 S1 1_666 . 11_566 50.2(2) ?
K1 K3 K1 2_565 . 3_655 84.03(15) ?
K1 K3 K1 2_565 . 4_556 84.03(15) ?
K1 K3 K2 2_565 . . 50.61(16) ?
K1 K3 K2 2_565 . 2_665 131.41(19) ?
K1 K3 K2 2_565 . 3_656 47.73(14) ?
K1 K3 K2 2_565 . 4_566 85.29(17) ?
K1 K3 Bi1 2_565 . 2_665 141.70(18) ?
K1 K3 Bi1 2_565 . 3_656 109.78(16) ?
K1 K3 Bi1 2_565 . 4_566 63.13(12) ?
K1 K3 S1 2_565 . 2_565 47.72(18) ?
K1 K3 S1 2_565 . 3_656 150.9(2) ?
K1 K3 S1 2_565 . 6_556 102.4(2) ?
K1 K3 S1 2_565 . 7_665 119.3(2) ?
K1 K3 S1 2_565 . 10_655 44.0(2) ?
K1 K3 S1 2_565 . 11_566 81.7(2) ?
K1 K3 K1 3_655 . 4_556 84.03(15) ?
K1 K3 K2 3_655 . . 50.61(16) ?
K1 K3 K2 3_655 . 2_665 85.29(17) ?
K1 K3 K2 3_655 . 3_656 131.41(19) ?
K1 K3 K2 3_655 . 4_566 47.73(14) ?
K1 K3 Bi1 3_655 . 2_665 63.13(12) ?
K1 K3 Bi1 3_655 . 3_656 141.70(18) ?
K1 K3 Bi1 3_655 . 4_566 109.78(16) ?
K1 K3 S1 3_655 . 2_565 102.4(2) ?
K1 K3 S1 3_655 . 3_656 119.3(2) ?
K1 K3 S1 3_655 . 6_556 44.0(2) ?
K1 K3 S1 3_655 . 7_665 81.7(2) ?
K1 K3 S1 3_655 . 10_655 47.72(18) ?
K1 K3 S1 3_655 . 11_566 150.9(2) ?
K1 K3 K2 4_556 . . 50.61(16) ?
K1 K3 K2 4_556 . 2_665 47.73(14) ?
K1 K3 K2 4_556 . 3_656 85.29(17) ?
K1 K3 K2 4_556 . 4_566 131.41(19) ?
K1 K3 Bi1 4_556 . 2_665 109.78(16) ?
K1 K3 Bi1 4_556 . 3_656 63.13(12) ?
K1 K3 Bi1 4_556 . 4_566 141.70(18) ?
K1 K3 S1 4_556 . 2_565 44.0(2) ?
K1 K3 S1 4_556 . 3_656 81.7(2) ?
K1 K3 S1 4_556 . 6_556 47.72(18) ?
K1 K3 S1 4_556 . 7_665 150.9(2) ?
K1 K3 S1 4_556 . 10_655 102.4(2) ?
K1 K3 S1 4_556 . 11_566 119.3(2) ?
K2 K3 K2 . . 2_665 87.19(19) ?
K2 K3 K2 . . 3_656 87.19(19) ?
K2 K3 K2 . . 4_566 87.19(19) ?
K2 K3 Bi1 . . 2_665 110.64(19) ?
K2 K3 Bi1 . . 3_656 110.64(19) ?
K2 K3 Bi1 . . 4_566 110.64(19) ?
K2 K3 S1 . . 2_565 51.8(2) ?
K2 K3 S1 . . 3_656 129.8(3) ?
K2 K3 S1 . . 6_556 51.8(2) ?
K2 K3 S1 . . 7_665 129.8(3) ?
K2 K3 S1 . . 10_655 51.8(2) ?
K2 K3 S1 . . 11_566 129.8(3) ?
K2 K3 K2 2_665 . 3_656 119.8(2) ?
K2 K3 K2 2_665 . 4_566 119.8(2) ?
K2 K3 Bi1 2_665 . 2_665 68.11(14) ?
K2 K3 Bi1 2_665 . 3_656 58.44(13) ?
K2 K3 Bi1 2_665 . 4_566 161.4(2) ?
K2 K3 S1 2_665 . 2_565 89.3(2) ?
K2 K3 S1 2_665 . 3_656 44.0(2) ?
K2 K3 S1 2_665 . 6_556 44.1(2) ?
K2 K3 S1 2_665 . 7_665 105.7(2) ?
K2 K3 S1 2_665 . 10_655 129.8(2) ?
K2 K3 S1 2_665 . 11_566 122.9(2) ?
K2 K3 K2 3_656 . 4_566 119.8(2) ?
K2 K3 Bi1 3_656 . 2_665 161.4(2) ?
K2 K3 Bi1 3_656 . 3_656 68.11(14) ?
K2 K3 Bi1 3_656 . 4_566 58.44(13) ?
K2 K3 S1 3_656 . 2_565 44.1(2) ?
K2 K3 S1 3_656 . 3_656 105.7(2) ?
K2 K3 S1 3_656 . 6_556 129.8(2) ?
K2 K3 S1 3_656 . 7_665 122.9(2) ?
K2 K3 S1 3_656 . 10_655 89.3(2) ?
K2 K3 S1 3_656 . 11_566 44.0(2) ?
K2 K3 Bi1 4_566 . 2_665 58.44(13) ?
K2 K3 Bi1 4_566 . 3_656 161.4(2) ?
K2 K3 Bi1 4_566 . 4_566 68.11(14) ?
K2 K3 S1 4_566 . 2_565 129.8(2) ?
K2 K3 S1 4_566 . 3_656 122.9(2) ?
K2 K3 S1 4_566 . 6_556 89.3(2) ?
K2 K3 S1 4_566 . 7_665 44.0(2) ?
K2 K3 S1 4_566 . 10_655 44.1(2) ?
K2 K3 S1 4_566 . 11_566 105.7(2) ?
Bi1 K3 Bi1 2_665 . 3_656 108.28(15) ?
Bi1 K3 Bi1 2_665 . 4_566 108.28(15) ?
Bi1 K3 S1 2_665 . 2_565 153.2(3) ?
Bi1 K3 S1 2_665 . 3_656 67.37(16) ?
Bi1 K3 S1 2_665 . 6_556 68.14(17) ?
Bi1 K3 S1 2_665 . 7_665 41.13(14) ?
Bi1 K3 S1 2_665 . 10_655 97.7(2) ?
Bi1 K3 S1 2_665 . 11_566 117.4(2) ?
Bi1 K3 Bi1 3_656 . 4_566 108.28(15) ?
Bi1 K3 S1 3_656 . 2_565 68.14(17) ?
Bi1 K3 S1 3_656 . 3_656 41.13(14) ?
Bi1 K3 S1 3_656 . 6_556 97.7(2) ?
Bi1 K3 S1 3_656 . 7_665 117.4(2) ?
Bi1 K3 S1 3_656 . 10_655 153.2(3) ?
Bi1 K3 S1 3_656 . 11_566 67.37(16) ?
Bi1 K3 S1 4_566 . 2_565 97.7(2) ?
Bi1 K3 S1 4_566 . 3_656 117.4(2) ?
Bi1 K3 S1 4_566 . 6_556 153.2(3) ?
Bi1 K3 S1 4_566 . 7_665 67.37(16) ?
Bi1 K3 S1 4_566 . 10_655 68.14(17) ?
Bi1 K3 S1 4_566 . 11_566 41.13(14) ?
S1 K3 S1 2_565 . 3_656 106.6(2) ?
S1 K3 S1 2_565 . 6_556 85.8(3) ?
S1 K3 S1 2_565 . 7_665 164.9(3) ?
S1 K3 S1 2_565 . 10_655 85.8(3) ?
S1 K3 S1 2_565 . 11_566 86.5(3) ?
S1 K3 S1 3_656 . 6_556 86.5(3) ?
S1 K3 S1 3_656 . 7_665 83.4(2) ?
S1 K3 S1 3_656 . 10_655 164.9(3) ?
S1 K3 S1 3_656 . 11_566 83.4(2) ?
S1 K3 S1 6_556 . 7_665 106.6(2) ?
S1 K3 S1 6_556 . 10_655 85.8(3) ?
S1 K3 S1 6_556 . 11_566 164.9(3) ?
S1 K3 S1 7_665 . 10_655 86.5(3) ?
S1 K3 S1 7_665 . 11_566 83.4(2) ?
S1 K3 S1 10_655 . 11_566 106.6(2) ?
K1 Bi1 K1 . . 2_555 95.89(13) ?
K1 Bi1 K1 . . 3_555 95.89(13) ?
K1 Bi1 K1 . . 4_555 95.89(13) ?
K1 Bi1 K2 . . 2_564 55.40(15) ?
K1 Bi1 K2 . . 3_645 55.40(15) ?
K1 Bi1 K2 . . 4_456 55.40(15) ?
K1 Bi1 K3 . . 2_664 117.02(13) ?
K1 Bi1 K3 . . 3_646 117.02(13) ?
K1 Bi1 K3 . . 4_466 117.02(13) ?
K1 Bi1 S1 . . . 61.6(2) ?
K1 Bi1 S1 . . 5_555 61.6(2) ?
K1 Bi1 S1 . . 9_555 61.6(2) ?
K1 Bi1 K1 2_555 . 3_555 118.96(11) ?
K1 Bi1 K1 2_555 . 4_555 118.96(11) ?
K1 Bi1 K2 2_555 . 2_564 141.48(14) ?
K1 Bi1 K2 2_555 . 3_645 91.56(14) ?
K1 Bi1 K2 2_555 . 4_456 50.59(14) ?
K1 Bi1 K3 2_555 . 2_664 55.76(12) ?
K1 Bi1 K3 2_555 . 3_646 65.64(12) ?
K1 Bi1 K3 2_555 . 4_466 146.65(12) ?
K1 Bi1 S1 2_555 . . 93.6(2) ?
K1 Bi1 S1 2_555 . 5_555 44.3(2) ?
K1 Bi1 S1 2_555 . 9_555 143.12(19) ?
K1 Bi1 K1 3_555 . 4_555 118.96(11) ?
K1 Bi1 K2 3_555 . 2_564 50.59(14) ?
K1 Bi1 K2 3_555 . 3_645 141.48(14) ?
K1 Bi1 K2 3_555 . 4_456 91.56(14) ?
K1 Bi1 K3 3_555 . 2_664 146.65(12) ?
K1 Bi1 K3 3_555 . 3_646 55.76(12) ?
K1 Bi1 K3 3_555 . 4_466 65.64(12) ?
K1 Bi1 S1 3_555 . . 44.3(2) ?
K1 Bi1 S1 3_555 . 5_555 143.12(19) ?
K1 Bi1 S1 3_555 . 9_555 93.6(2) ?
K1 Bi1 K2 4_555 . 2_564 91.56(14) ?
K1 Bi1 K2 4_555 . 3_645 50.59(14) ?
K1 Bi1 K2 4_555 . 4_456 141.48(14) ?
K1 Bi1 K3 4_555 . 2_664 65.64(12) ?
K1 Bi1 K3 4_555 . 3_646 146.65(12) ?
K1 Bi1 K3 4_555 . 4_466 55.76(12) ?
K1 Bi1 S1 4_555 . . 143.12(19) ?
K1 Bi1 S1 4_555 . 5_555 93.6(2) ?
K1 Bi1 S1 4_555 . 9_555 44.3(2) ?
K2 Bi1 K2 2_564 . 3_645 90.94(16) ?
K2 Bi1 K2 2_564 . 4_456 90.94(16) ?
K2 Bi1 K3 2_564 . 2_664 156.05(15) ?
K2 Bi1 K3 2_564 . 3_646 102.35(15) ?
K2 Bi1 K3 2_564 . 4_466 69.27(15) ?
K2 Bi1 S1 2_564 . . 51.9(2) ?
K2 Bi1 S1 2_564 . 5_555 117.0(2) ?
K2 Bi1 S1 2_564 . 9_555 49.7(2) ?
K2 Bi1 K2 3_645 . 4_456 90.94(16) ?
K2 Bi1 K3 3_645 . 2_664 69.27(15) ?
K2 Bi1 K3 3_645 . 3_646 156.05(15) ?
K2 Bi1 K3 3_645 . 4_466 102.35(15) ?
K2 Bi1 S1 3_645 . . 117.0(2) ?
K2 Bi1 S1 3_645 . 5_555 49.7(2) ?
K2 Bi1 S1 3_645 . 9_555 51.9(2) ?
K2 Bi1 K3 4_456 . 2_664 102.35(15) ?
K2 Bi1 K3 4_456 . 3_646 69.27(15) ?
K2 Bi1 K3 4_456 . 4_466 156.05(15) ?
K2 Bi1 S1 4_456 . . 49.7(2) ?
K2 Bi1 S1 4_456 . 5_555 51.9(2) ?
K2 Bi1 S1 4_456 . 9_555 117.0(2) ?
K3 Bi1 K3 2_664 . 3_646 100.98(13) ?
K3 Bi1 K3 2_664 . 4_466 100.98(13) ?
K3 Bi1 S1 2_664 . . 149.3(2) ?
K3 Bi1 S1 2_664 . 5_555 60.47(19) ?
K3 Bi1 S1 2_664 . 9_555 106.3(2) ?
K3 Bi1 K3 3_646 . 4_466 100.98(13) ?
K3 Bi1 S1 3_646 . . 60.47(19) ?
K3 Bi1 S1 3_646 . 5_555 106.3(2) ?
K3 Bi1 S1 3_646 . 9_555 149.3(2) ?
K3 Bi1 S1 4_466 . . 106.3(2) ?
K3 Bi1 S1 4_466 . 5_555 149.3(2) ?
K3 Bi1 S1 4_466 . 9_555 60.47(19) ?
S1 Bi1 S1 . . 5_555 99.3(3) ?
S1 Bi1 S1 . . 9_555 99.3(3) ?
S1 Bi1 S1 5_555 . 9_555 99.3(3) ?
K1 S1 K1 . . 3_555 137.0(3) ?
K1 S1 K2 . . 2_564 67.3(2) ?
K1 S1 K2 . . 4_456 68.4(3) ?
K1 S1 K3 . . 2_564 84.7(2) ?
K1 S1 K3 . . 3_646 143.4(3) ?
K1 S1 Bi1 . . . 75.5(2) ?
K1 S1 K2 3_555 . 2_564 69.9(3) ?
K1 S1 K2 3_555 . 4_456 153.8(3) ?
K1 S1 K3 3_555 . 2_564 88.1(2) ?
K1 S1 K3 3_555 . 3_646 72.8(2) ?
K1 S1 Bi1 3_555 . . 100.4(3) ?
K2 S1 K2 2_564 . 4_456 133.8(3) ?
K2 S1 K3 2_564 . 2_564 74.7(2) ?
K2 S1 K3 2_564 . 3_646 137.8(4) ?
K2 S1 Bi1 2_564 . . 89.6(3) ?
K2 S1 K3 4_456 . 2_564 88.8(3) ?
K2 S1 K3 4_456 . 3_646 87.3(3) ?
K2 S1 Bi1 4_456 . . 91.7(3) ?
K3 S1 K3 2_564 . 3_646 123.1(3) ?
K3 S1 Bi1 2_564 . . 158.4(3) ?
K3 S1 Bi1 3_646 . . 78.4(2) ?
loop_
_geom_bond_atom_site_label_1
_geom_bond_atom_site_label_2
_geom_bond_site_symmetry_1
_geom_bond_site_symmetry_2
_geom_bond_distance
_geom_bond_publ_flag
K1 K2 . 2_564 3.673(10) ?
K1 K2 . 3_645 3.673(10) ?
K1 K2 . 4_456 3.673(10) ?
K1 K3 . 1_444 3.903(9) ?
K1 K3 . 2_564 4.513(9) ?
K1 K3 . 3_645 4.513(9) ?
K1 K3 . 4_456 4.513(9) ?
K1 Bi1 . . 3.690(6) ?
K1 Bi1 . 2_554 4.419(6) ?
K1 Bi1 . 3_545 4.419(6) ?
K1 Bi1 . 4_455 4.419(6) ?
K1 S1 . . 3.353(10) ?
K1 S1 . 3_545 3.138(11) ?
K1 S1 . 5_555 3.353(10) ?
K1 S1 . 7_554 3.138(11) ?
K1 S1 . 9_555 3.353(10) ?
K1 S1 . 11_455 3.138(11) ?
K2 K3 . . 4.017(10) ?
K2 K3 . 2_664 4.566(10) ?
K2 K3 . 3_646 4.566(10) ?
K2 K3 . 4_466 4.566(10) ?
K2 Bi1 . 2_565 4.160(8) ?
K2 Bi1 . 3_655 4.160(8) ?
K2 Bi1 . 4_556 4.160(8) ?
K2 S1 . 2_565 3.272(12) ?
K2 S1 . 4_556 3.176(13) ?
K2 S1 . 6_556 3.272(12) ?
K2 S1 . 8_655 3.176(13) ?
K2 S1 . 10_655 3.272(12) ?
K2 S1 . 12_565 3.176(13) ?
K3 Bi1 . 2_665 3.862(6) ?
K3 Bi1 . 3_656 3.862(6) ?
K3 Bi1 . 4_566 3.862(6) ?
K3 S1 . 2_565 3.346(9) ?
K3 S1 . 3_656 3.431(10) ?
K3 S1 . 6_556 3.346(9) ?
K3 S1 . 7_665 3.431(10) ?
K3 S1 . 10_655 3.346(9) ?
K3 S1 . 11_566 3.431(10) ?
Bi1 S1 . . 2.593(7) ?
Bi1 S1 . 5_555 2.593(7) ?
Bi1 S1 . 9_555 2.593(7) ?
loop_
_geom_hbond_atom_site_label_D
_geom_hbond_atom_site_label_H
_geom_hbond_atom_site_label_A
_geom_hbond_site_symmetry_D
_geom_hbond_site_symmetry_H
_geom_hbond_site_symmetry_A
_geom_hbond_distance_DH
_geom_hbond_distance_HA
_geom_hbond_distance_DA
_geom_hbond_angle_DHA
_geom_hbond_publ_flag
? ? ? ? ? ? ? ? ? ? ?
loop_
_geom_torsion_atom_site_label_1
_geom_torsion_atom_site_label_2
_geom_torsion_atom_site_label_3
_geom_torsion_atom_site_label_4
_geom_torsion_site_symmetry_1
_geom_torsion_site_symmetry_2
_geom_torsion_site_symmetry_3
_geom_torsion_site_symmetry_4
_geom_torsion
_geom_torsion_publ_flag
? ? ? ? ? ? ? ? ? ?
loop_
_pd_proc_point_id
_pd_proc_2theta_corrected
_pd_proc_d_spacing
_pd_proc_intensity_net
_pd_calc_intensity_net
_pd_proc_ls_weight
1 7.4740 11.818331 588.00 563.10 24.25
2 7.4890 11.794692 596.00 562.29 24.41
3 7.5040 11.771149 561.00 561.50 23.69
4 7.5190 11.747700 578.00 560.71 24.04
5 7.5340 11.724344 553.00 559.93 23.52
6 7.5490 11.701081 548.00 559.16 23.41
7 7.5640 11.677911 593.00 558.39 24.35
8 7.5790 11.654832 599.00 557.63 24.47
9 7.5940 11.631845 561.00 556.88 23.69
10 7.6090 11.608947 552.00 556.13 23.49
11 7.6240 11.586141 588.00 555.39 24.25
12 7.6390 11.563424 556.00 554.65 23.58
13 7.6540 11.540796 543.00 553.92 23.30
14 7.6690 11.518256 520.00 553.20 22.80
15 7.6840 11.495806 560.00 552.49 23.66
16 7.6990 11.473442 561.00 551.78 23.69
17 7.7140 11.451165 564.00 551.08 23.75
18 7.7290 11.428975 558.00 550.38 23.62
19 7.7440 11.406872 575.00 549.69 23.98
20 7.7590 11.384852 549.00 549.01 23.43
21 7.7740 11.362919 530.00 548.33 23.02
22 7.7890 11.341069 551.00 547.65 23.47
23 7.8040 11.319304 551.00 546.99 23.47
24 7.8190 11.297624 532.00 546.33 23.07
25 7.8340 11.276026 539.00 545.67 23.22
26 7.8490 11.254510 551.00 545.02 23.47
27 7.8640 11.233076 578.00 544.38 24.04
28 7.8790 11.211723 540.00 543.74 23.24
29 7.8940 11.190454 524.00 543.11 22.89
30 7.9090 11.169264 516.00 542.48 22.72
31 7.9240 11.148154 528.00 541.86 22.98
32 7.9390 11.127124 553.00 541.24 23.52
33 7.9540 11.106174 569.00 540.63 23.85
34 7.9690 11.085302 516.00 540.03 22.72
35 7.9840 11.064508 546.00 539.42 23.37
36 7.9990 11.043795 541.00 538.83 23.26
37 8.0140 11.023157 545.00 538.24 23.35
38 8.0290 11.002597 568.00 537.65 23.83
39 8.0440 10.982114 525.00 537.07 22.91
40 8.0590 10.961706 521.00 536.50 22.83
41 8.0740 10.941375 552.00 535.93 23.49
42 8.0890 10.921121 515.00 535.36 22.69
43 8.1040 10.900939 564.00 534.80 23.75
44 8.1190 10.880833 541.00 534.25 23.26
45 8.1340 10.860801 497.00 533.70 22.29
46 8.1490 10.840842 527.00 533.15 22.96
47 8.1640 10.820958 515.00 532.61 22.69
48 8.1790 10.801147 544.00 532.07 23.32
49 8.1940 10.781407 535.00 531.54 23.13
50 8.2090 10.761742 525.00 531.01 22.91
51 8.2240 10.742146 532.00 530.49 23.07
52 8.2390 10.722621 523.00 529.97 22.87
53 8.2540 10.703170 542.00 529.46 23.28
54 8.2690 10.683786 524.00 528.95 22.89
55 8.2840 10.664475 535.00 528.44 23.13
56 8.2990 10.645234 525.00 527.94 22.91
57 8.3140 10.626061 544.00 527.44 23.32
58 8.3290 10.606957 504.00 526.95 22.45
59 8.3440 10.587924 500.00 526.46 22.36
60 8.3590 10.568957 530.00 525.97 23.02
61 8.3740 10.550060 530.00 525.49 23.02
62 8.3890 10.531229 492.00 525.02 22.18
63 8.4040 10.512465 481.00 524.54 21.93
64 8.4190 10.493771 533.00 524.07 23.09
65 8.4340 10.475140 536.00 523.61 23.15
66 8.4490 10.456575 523.00 523.15 22.87
67 8.4640 10.438079 525.00 522.69 22.91
68 8.4790 10.419646 522.00 522.24 22.85
69 8.4940 10.401279 514.00 521.79 22.67
70 8.5090 10.382977 518.00 521.34 22.76
71 8.5240 10.364739 527.00 520.90 22.96
72 8.5390 10.346566 524.00 520.46 22.89
73 8.5540 10.328456 522.00 520.02 22.85
74 8.5690 10.310410 506.00 519.59 22.49
75 8.5840 10.292427 533.00 519.16 23.09
76 8.5990 10.274507 532.00 518.74 23.07
77 8.6140 10.256648 533.00 518.32 23.09
78 8.6290 10.238853 535.00 517.90 23.13
79 8.6440 10.221119 532.00 517.49 23.07
80 8.6590 10.203445 523.00 517.08 22.87
81 8.6740 10.185836 532.00 516.67 23.07
82 8.6890 10.168284 540.00 516.26 23.24
83 8.7040 10.150794 510.00 515.86 22.58
84 8.7190 10.133365 501.00 515.46 22.38
85 8.7340 10.115995 483.00 515.07 21.98
86 8.7490 10.098686 487.00 514.68 22.07
87 8.7640 10.081434 507.00 514.29 22.52
88 8.7790 10.064242 495.00 513.90 22.25
89 8.7940 10.047111 496.00 513.52 22.27
90 8.8090 10.030035 498.00 513.14 22.32
91 8.8240 10.013019 506.00 512.76 22.49
92 8.8390 9.996060 549.00 512.39 23.43
93 8.8540 9.979158 547.00 512.02 23.39
94 8.8690 9.962315 537.00 511.65 23.17
95 8.8840 9.945529 526.00 511.29 22.93
96 8.8990 9.928798 487.00 510.92 22.07
97 8.9140 9.912125 515.00 510.56 22.69
98 8.9290 9.895506 519.00 510.21 22.78
99 8.9440 9.878942 511.00 509.85 22.61
100 8.9590 9.862437 514.00 509.50 22.67
101 8.9740 9.845985 517.00 509.15 22.74
102 8.9890 9.829588 523.00 508.81 22.87
103 9.0040 9.813248 499.00 508.46 22.34
104 9.0190 9.796960 507.00 508.12 22.52
105 9.0340 9.780726 481.00 507.79 21.93
106 9.0490 9.764547 487.00 507.45 22.07
107 9.0640 9.748422 526.00 507.12 22.93
108 9.0790 9.732348 531.00 506.79 23.04
109 9.0940 9.716331 509.00 506.46 22.56
110 9.1090 9.700363 522.00 506.13 22.85
111 9.1240 9.684450 523.00 505.81 22.87
112 9.1390 9.668589 495.00 505.49 22.25
113 9.1540 9.652779 528.00 505.17 22.98
114 9.1690 9.637021 526.00 504.85 22.93
115 9.1840 9.621315 477.00 504.54 21.84
116 9.1990 9.605659 513.00 504.22 22.65
117 9.2140 9.590055 525.00 503.91 22.91
118 9.2290 9.574502 489.00 503.61 22.11
119 9.2440 9.558999 499.00 503.30 22.34
120 9.2590 9.543548 513.00 503.00 22.65
121 9.2740 9.528145 538.00 502.70 23.19
122 9.2890 9.512793 498.00 502.40 22.32
123 9.3040 9.497489 492.00 502.10 22.18
124 9.3190 9.482236 504.00 501.81 22.45
125 9.3340 9.467031 481.00 501.51 21.93
126 9.3490 9.451876 473.00 501.22 21.75
127 9.3640 9.436769 469.00 500.93 21.66
128 9.3790 9.421710 462.00 500.65 21.49
129 9.3940 9.406699 468.00 500.36 21.63
130 9.4090 9.391736 501.00 500.08 22.38
131 9.4240 9.376822 480.00 499.80 21.91
132 9.4390 9.361954 446.00 499.52 21.12
133 9.4540 9.347133 448.00 499.24 21.17
134 9.4690 9.332360 465.00 498.96 21.56
135 9.4840 9.317633 487.00 498.69 22.07
136 9.4990 9.302954 495.00 498.42 22.25
137 9.5140 9.288320 503.00 498.15 22.43
138 9.5290 9.273732 472.00 497.88 21.73
139 9.5440 9.259192 468.00 497.61 21.63
140 9.5590 9.244695 487.00 497.35 22.07
141 9.5740 9.230244 485.00 497.08 22.02
142 9.5890 9.215839 504.00 496.82 22.45
143 9.6040 9.201479 456.00 496.56 21.35
144 9.6190 9.187164 461.00 496.30 21.47
145 9.6340 9.172894 485.00 496.05 22.02
146 9.6490 9.158667 469.00 495.79 21.66
147 9.6640 9.144485 494.00 495.54 22.23
148 9.6790 9.130347 505.00 495.28 22.47
149 9.6940 9.116253 508.00 495.03 22.54
150 9.7090 9.102202 472.00 494.78 21.73
151 9.7240 9.088196 505.00 494.53 22.47
152 9.7390 9.074230 545.00 494.29 23.35
153 9.7540 9.060311 488.00 494.04 22.09
154 9.7690 9.046432 488.00 493.80 22.09
155 9.7840 9.032596 485.00 493.56 22.02
156 9.7990 9.018804 495.00 493.32 22.25
157 9.8140 9.005053 497.00 493.08 22.29
158 9.8290 8.991343 469.00 492.84 21.66
159 9.8440 8.977676 478.00 492.60 21.86
160 9.8590 8.964051 487.00 492.37 22.07
161 9.8740 8.950467 503.00 492.13 22.43
162 9.8890 8.936924 475.00 491.90 21.79
163 9.9040 8.923422 463.00 491.67 21.52
164 9.9190 8.909963 488.00 491.44 22.09
165 9.9340 8.896542 521.00 491.21 22.83
166 9.9490 8.883162 481.00 490.98 21.93
167 9.9640 8.869823 462.00 490.75 21.49
168 9.9790 8.856524 454.00 490.53 21.31
169 9.9940 8.843265 458.00 490.30 21.40
170 10.0090 8.830045 453.00 490.08 21.28
171 10.0240 8.816865 480.00 489.86 21.91
172 10.0390 8.803725 471.00 489.64 21.70
173 10.0540 8.790625 494.00 489.42 22.23
174 10.0690 8.777562 475.00 489.20 21.79
175 10.0840 8.764540 462.00 488.98 21.49
176 10.0990 8.751554 475.00 488.76 21.79
177 10.1140 8.738609 462.00 488.55 21.49
178 10.1290 8.725702 472.00 488.33 21.73
179 10.1440 8.712832 468.00 488.12 21.63
180 10.1590 8.700002 493.00 487.90 22.20
181 10.1740 8.687209 465.00 487.69 21.56
182 10.1890 8.674453 457.00 487.48 21.38
183 10.2040 8.661735 486.00 487.27 22.05
184 10.2190 8.649055 479.00 487.06 21.89
185 10.2340 8.636411 487.00 486.86 22.07
186 10.2490 8.623805 494.00 486.65 22.23
187 10.2640 8.611236 490.00 486.44 22.14
188 10.2790 8.598703 463.00 486.24 21.52
189 10.2940 8.586207 486.00 486.03 22.05
190 10.3090 8.573748 485.00 485.83 22.02
191 10.3240 8.561324 484.00 485.63 22.00
192 10.3390 8.548938 507.00 485.42 22.52
193 10.3540 8.536586 499.00 485.22 22.34
194 10.3690 8.524270 482.00 485.02 21.95
195 10.3840 8.511991 494.00 484.82 22.23
196 10.3990 8.499745 499.00 484.63 22.34
197 10.4140 8.487536 476.00 484.43 21.82
198 10.4290 8.475363 471.00 484.23 21.70
199 10.4440 8.463223 515.00 484.03 22.69
200 10.4590 8.451120 481.00 483.84 21.93
201 10.4740 8.439050 504.00 483.64 22.45
202 10.4890 8.427015 511.00 483.45 22.61
203 10.5040 8.415015 515.00 483.26 22.69
204 10.5190 8.403049 508.00 483.06 22.54
205 10.5340 8.391117 512.00 482.87 22.63
206 10.5490 8.379219 484.00 482.68 22.00
207 10.5640 8.367355 470.00 482.49 21.68
208 10.5790 8.355524 482.00 482.30 21.95
209 10.5940 8.343727 490.00 482.11 22.14
210 10.6090 8.331964 490.00 481.92 22.14
211 10.6240 8.320234 492.00 481.73 22.18
212 10.6390 8.308537 465.00 481.54 21.56
213 10.6540 8.296873 487.00 481.36 22.07
214 10.6690 8.285241 502.00 481.17 22.41
215 10.6840 8.273643 447.00 480.98 21.14
216 10.6990 8.262076 511.00 480.80 22.61
217 10.7140 8.250544 513.00 480.61 22.65
218 10.7290 8.239042 492.00 480.43 22.18
219 10.7440 8.227572 526.00 480.25 22.93
220 10.7590 8.216136 537.00 480.06 23.17
221 10.7740 8.204730 509.00 479.88 22.56
222 10.7890 8.193357 499.00 479.70 22.34
223 10.8040 8.182015 486.00 479.52 22.05
224 10.8190 8.170705 470.00 479.33 21.68
225 10.8340 8.159427 502.00 479.15 22.41
226 10.8490 8.148179 490.00 478.97 22.14
227 10.8640 8.136962 483.00 478.79 21.98
228 10.8790 8.125776 510.00 478.61 22.58
229 10.8940 8.114621 486.00 478.43 22.05
230 10.9090 8.103497 494.00 478.26 22.23
231 10.9240 8.092404 487.00 478.08 22.07
232 10.9390 8.081341 469.00 477.90 21.66
233 10.9540 8.070308 490.00 477.72 22.14
234 10.9690 8.059306 481.00 477.55 21.93
235 10.9840 8.048333 465.00 477.37 21.56
236 10.9990 8.037392 517.00 477.19 22.74
237 11.0140 8.026479 492.00 477.02 22.18
238 11.0290 8.015596 498.00 476.84 22.32
239 11.0440 8.004744 470.00 476.67 21.68
240 11.0590 7.993919 502.00 476.49 22.41
241 11.0740 7.983125 513.00 476.32 22.65
242 11.0890 7.972360 478.00 476.14 21.86
243 11.1040 7.961624 502.00 475.97 22.41
244 11.1190 7.950917 525.00 475.80 22.91
245 11.1340 7.940239 482.00 475.62 21.95
246 11.1490 7.929590 477.00 475.45 21.84
247 11.1640 7.918970 498.00 475.28 22.32
248 11.1790 7.908378 493.00 475.11 22.20
249 11.1940 7.897814 481.00 474.93 21.93
250 11.2090 7.887279 505.00 474.76 22.47
251 11.2240 7.876771 493.00 474.59 22.20
252 11.2390 7.866292 481.00 474.42 21.93
253 11.2540 7.855842 487.00 474.25 22.07
254 11.2690 7.845418 489.00 474.08 22.11
255 11.2840 7.835023 494.00 473.91 22.23
256 11.2990 7.824656 482.00 473.74 21.95
257 11.3140 7.814315 482.00 473.57 21.95
258 11.3290 7.804002 467.00 473.40 21.61
259 11.3440 7.793717 472.00 473.23 21.73
260 11.3590 7.783458 499.00 473.06 22.34
261 11.3740 7.773228 479.00 472.89 21.89
262 11.3890 7.763023 480.00 472.72 21.91
263 11.4040 7.752846 503.00 472.55 22.43
264 11.4190 7.742695 478.00 472.39 21.86
265 11.4340 7.732572 482.00 472.22 21.95
266 11.4490 7.722474 478.00 472.05 21.86
267 11.4640 7.712404 506.00 471.88 22.49
268 11.4790 7.702359 498.00 471.71 22.32
269 11.4940 7.692341 485.00 471.55 22.02
270 11.5090 7.682349 528.00 471.38 22.98
271 11.5240 7.672383 468.00 471.21 21.63
272 11.5390 7.662444 492.00 471.04 22.18
273 11.5540 7.652529 486.00 470.88 22.05
274 11.5690 7.642641 478.00 470.71 21.86
275 11.5840 7.632778 467.00 470.54 21.61
276 11.5990 7.622941 488.00 470.38 22.09
277 11.6140 7.613129 488.00 470.21 22.09
278 11.6290 7.603343 447.00 470.04 21.14
279 11.6440 7.593582 486.00 469.88 22.05
280 11.6590 7.583846 457.00 469.71 21.38
281 11.6740 7.574135 462.00 469.54 21.49
282 11.6890 7.564449 472.00 469.38 21.73
283 11.7040 7.554788 472.00 469.21 21.73
284 11.7190 7.545152 475.00 469.05 21.79
285 11.7340 7.535540 498.00 468.88 22.32
286 11.7490 7.525954 506.00 468.71 22.49
287 11.7640 7.516391 503.00 468.55 22.43
288 11.7790 7.506853 473.00 468.38 21.75
289 11.7940 7.497339 482.00 468.22 21.95
290 11.8090 7.487850 480.00 468.05 21.91
291 11.8240 7.478384 489.00 467.89 22.11
292 11.8390 7.468943 489.00 467.72 22.11
293 11.8540 7.459525 490.00 467.56 22.14
294 11.8690 7.450131 491.00 467.39 22.16
295 11.8840 7.440762 482.00 467.23 21.95
296 11.8990 7.431415 455.00 467.06 21.33
297 11.9140 7.422093 468.00 466.90 21.63
298 11.9290 7.412794 479.00 466.73 21.89
299 11.9440 7.403517 499.00 466.57 22.34
300 11.9590 7.394266 483.00 466.40 21.98
301 11.9740 7.385036 520.00 466.24 22.80
302 11.9890 7.375830 479.00 466.07 21.89
303 12.0040 7.366647 485.00 465.91 22.02
304 12.0190 7.357487 469.00 465.74 21.66
305 12.0340 7.348349 458.00 465.58 21.40
306 12.0490 7.339235 479.00 465.41 21.89
307 12.0640 7.330143 463.00 465.25 21.52
308 12.0790 7.321074 470.00 465.08 21.68
309 12.0940 7.312028 446.00 464.92 21.12
310 12.1090 7.303003 461.00 464.75 21.47
311 12.1240 7.294002 473.00 464.59 21.75
312 12.1390 7.285023 450.00 464.42 21.21
313 12.1540 7.276065 467.00 464.26 21.61
314 12.1690 7.267131 452.00 464.09 21.26
315 12.1840 7.258217 459.00 463.92 21.42
316 12.1990 7.249326 483.00 463.76 21.98
317 12.2140 7.240457 452.00 463.60 21.26
318 12.2290 7.231610 477.00 463.43 21.84
319 12.2440 7.222784 449.00 463.26 21.19
320 12.2590 7.213980 498.00 463.10 22.32
321 12.2740 7.205197 480.00 462.93 21.91
322 12.2890 7.196436 468.00 462.77 21.63
323 12.3040 7.187696 481.00 462.60 21.93
324 12.3190 7.178978 478.00 462.44 21.86
325 12.3340 7.170281 455.00 462.27 21.33
326 12.3490 7.161605 441.00 462.11 21.00
327 12.3640 7.152950 471.00 461.94 21.70
328 12.3790 7.144317 471.00 461.77 21.70
329 12.3940 7.135704 470.00 461.61 21.68
330 12.4090 7.127112 471.00 461.44 21.70
331 12.4240 7.118541 454.00 461.28 21.31
332 12.4390 7.109990 452.00 461.11 21.26
333 12.4540 7.101460 451.00 460.94 21.24
334 12.4690 7.092952 474.00 460.78 21.77
335 12.4840 7.084463 442.00 460.61 21.02
336 12.4990 7.075994 468.00 460.44 21.63
337 12.5140 7.067546 503.00 460.28 22.43
338 12.5290 7.059119 477.00 460.11 21.84
339 12.5440 7.050711 481.00 459.94 21.93
340 12.5590 7.042324 469.00 459.78 21.66
341 12.5740 7.033956 452.00 459.61 21.26
342 12.5890 7.025609 482.00 459.44 21.95
343 12.6040 7.017281 466.00 459.28 21.59
344 12.6190 7.008974 452.00 459.11 21.26
345 12.6340 7.000686 456.00 458.94 21.35
346 12.6490 6.992418 471.00 458.77 21.70
347 12.6640 6.984169 469.00 458.61 21.66
348 12.6790 6.975940 481.00 458.44 21.93
349 12.6940 6.967731 452.00 458.27 21.26
350 12.7090 6.959541 488.00 458.10 22.09
351 12.7240 6.951370 473.00 457.93 21.75
352 12.7390 6.943218 461.00 457.77 21.47
353 12.7540 6.935087 446.00 457.60 21.12
354 12.7690 6.926973 474.00 457.43 21.77
355 12.7840 6.918879 423.00 457.26 20.57
356 12.7990 6.910804 441.00 457.09 21.00
357 12.8140 6.902748 454.00 456.92 21.31
358 12.8290 6.894711 499.00 456.76 22.34
359 12.8440 6.886693 447.00 456.59 21.14
360 12.8590 6.878693 451.00 456.42 21.24
361 12.8740 6.870712 460.00 456.25 21.45
362 12.8890 6.862749 471.00 456.08 21.70
363 12.9040 6.854805 467.00 455.91 21.61
364 12.9190 6.846880 453.00 455.74 21.28
365 12.9340 6.838974 451.00 455.57 21.24
366 12.9490 6.831085 471.00 455.40 21.70
367 12.9640 6.823215 449.00 455.23 21.19
368 12.9790 6.815363 420.00 455.08 20.49
369 12.9940 6.807529 440.00 454.98 20.98
370 13.0090 6.799714 441.00 455.13 21.00
371 13.0240 6.791915 464.00 456.03 21.54
372 13.0390 6.784136 489.00 458.73 22.11
373 13.0540 6.776374 487.00 464.80 22.07
374 13.0690 6.768630 502.00 475.70 22.41
375 13.0840 6.760904 487.00 491.50 22.07
376 13.0990 6.753196 500.00 509.96 22.36
377 13.1140 6.745505 506.00 527.57 22.49
378 13.1290 6.737832 531.00 542.22 23.04
379 13.1440 6.730176 542.00 554.96 23.28
380 13.1590 6.722538 537.00 568.79 23.17
381 13.1740 6.714918 611.00 586.18 24.72
382 13.1890 6.707314 657.00 606.88 25.63
383 13.2040 6.699728 662.00 625.56 25.73
384 13.2190 6.692160 625.00 631.67 25.00
385 13.2340 6.684608 635.00 615.71 25.20
386 13.2490 6.677074 592.00 578.45 24.33
387 13.2640 6.669557 543.00 532.64 23.30
388 13.2790 6.662056 495.00 493.65 22.25
389 13.2940 6.654573 505.00 469.03 22.47
390 13.3090 6.647107 459.00 457.15 21.42
391 13.3240 6.639657 450.00 452.66 21.21
392 13.3390 6.632225 444.00 451.26 21.07
393 13.3540 6.624809 446.00 450.81 21.12
394 13.3690 6.617409 444.00 450.58 21.07
395 13.3840 6.610027 439.00 450.40 20.95
396 13.3990 6.602660 436.00 450.23 20.88
397 13.4140 6.595311 449.00 450.05 21.19
398 13.4290 6.587977 431.00 449.88 20.76
399 13.4440 6.580661 413.00 449.70 20.32
400 13.4590 6.573360 410.00 449.53 20.25
401 13.4740 6.566076 413.00 449.35 20.32
402 13.4890 6.558808 463.00 449.18 21.52
403 13.5040 6.551557 452.00 449.00 21.26
404 13.5190 6.544321 454.00 448.83 21.31
405 13.5340 6.537101 438.00 448.65 20.93
406 13.5490 6.529898 433.00 448.47 20.81
407 13.5640 6.522710 395.00 448.30 19.87
408 13.5790 6.515539 429.00 448.12 20.71
409 13.5940 6.508383 438.00 447.94 20.93
410 13.6090 6.501243 436.00 447.77 20.88
411 13.6240 6.494120 450.00 447.59 21.21
412 13.6390 6.487010 441.00 447.41 21.00
413 13.6540 6.479918 446.00 447.23 21.12
414 13.6690 6.472841 416.00 447.05 20.40
415 13.6840 6.465779 413.00 446.88 20.32
416 13.6990 6.458733 445.00 446.70 21.09
417 13.7140 6.451702 433.00 446.52 20.81
418 13.7290 6.444687 433.00 446.34 20.81
419 13.7440 6.437687 433.00 446.16 20.81
420 13.7590 6.430702 422.00 445.98 20.54
421 13.7740 6.423733 436.00 445.80 20.88
422 13.7890 6.416779 422.00 445.63 20.54
423 13.8040 6.409840 409.00 445.45 20.22
424 13.8190 6.402916 423.00 445.27 20.57
425 13.8340 6.396007 418.00 445.09 20.44
426 13.8490 6.389113 435.00 444.91 20.86
427 13.8640 6.382234 447.00 444.73 21.14
428 13.8790 6.375371 436.00 444.55 20.88
429 13.8940 6.368521 441.00 444.36 21.00
430 13.9090 6.361687 421.00 444.18 20.52
431 13.9240 6.354867 456.00 444.00 21.35
432 13.9390 6.348062 444.00 443.82 21.07
433 13.9540 6.341271 400.00 443.64 20.00
434 13.9690 6.334496 420.00 443.46 20.49
435 13.9840 6.327735 429.00 443.28 20.71
436 13.9990 6.320989 440.00 443.10 20.98
437 14.0140 6.314257 444.00 442.91 21.07
438 14.0290 6.307539 408.00 442.73 20.20
439 14.0440 6.300837 439.00 442.55 20.95
440 14.0590 6.294147 457.00 442.37 21.38
441 14.0740 6.287473 436.00 442.18 20.88
442 14.0890 6.280812 444.00 442.00 21.07
443 14.1040 6.274166 413.00 441.82 20.32
444 14.1190 6.267534 403.00 441.63 20.07
445 14.1340 6.260917 416.00 441.45 20.40
446 14.1490 6.254313 430.00 441.27 20.74
447 14.1640 6.247723 410.00 441.08 20.25
448 14.1790 6.241147 408.00 440.90 20.20
449 14.1940 6.234585 417.00 440.71 20.42
450 14.2090 6.228038 448.00 440.53 21.17
451 14.2240 6.221503 444.00 440.35 21.07
452 14.2390 6.214983 403.00 440.16 20.07
453 14.2540 6.208477 443.00 439.98 21.05
454 14.2690 6.201983 440.00 439.79 20.98
455 14.2840 6.195504 429.00 439.61 20.71
456 14.2990 6.189039 435.00 439.42 20.86
457 14.3140 6.182587 440.00 439.23 20.98
458 14.3290 6.176148 446.00 439.05 21.12
459 14.3440 6.169724 438.00 438.86 20.93
460 14.3590 6.163312 413.00 438.67 20.32
461 14.3740 6.156914 422.00 438.49 20.54
462 14.3890 6.150529 395.00 438.30 19.87
463 14.4040 6.144158 437.00 438.11 20.90
464 14.4190 6.137800 421.00 437.93 20.52
465 14.4340 6.131455 432.00 437.74 20.78
466 14.4490 6.125124 418.00 437.55 20.44
467 14.4640 6.118805 409.00 437.36 20.22
468 14.4790 6.112501 411.00 437.18 20.27
469 14.4940 6.106208 440.00 436.99 20.98
470 14.5090 6.099929 442.00 436.80 21.02
471 14.5240 6.093663 423.00 436.61 20.57
472 14.5390 6.087410 432.00 436.42 20.78
473 14.5540 6.081170 454.00 436.23 21.31
474 14.5690 6.074942 457.00 436.05 21.38
475 14.5840 6.068728 450.00 435.86 21.21
476 14.5990 6.062526 471.00 435.67 21.70
477 14.6140 6.056337 459.00 435.48 21.42
478 14.6290 6.050161 403.00 435.29 20.07
479 14.6440 6.043997 417.00 435.10 20.42
480 14.6590 6.037846 410.00 434.91 20.25
481 14.6740 6.031708 416.00 434.72 20.40
482 14.6890 6.025582 423.00 434.52 20.57
483 14.7040 6.019469 428.00 434.33 20.69
484 14.7190 6.013368 414.00 434.14 20.35
485 14.7340 6.007280 420.00 433.95 20.49
486 14.7490 6.001205 422.00 433.76 20.54
487 14.7640 5.995142 410.00 433.57 20.25
488 14.7790 5.989090 402.00 433.38 20.05
489 14.7940 5.983052 418.00 433.19 20.44
490 14.8090 5.977025 445.00 432.99 21.09
491 14.8240 5.971011 429.00 432.80 20.71
492 14.8390 5.965009 422.00 432.61 20.54
493 14.8540 5.959019 413.00 432.42 20.32
494 14.8690 5.953041 431.00 432.22 20.76
495 14.8840 5.947075 459.00 432.03 21.42
496 14.8990 5.941122 452.00 431.84 21.26
497 14.9140 5.935180 416.00 431.64 20.40
498 14.9290 5.929250 386.00 431.45 19.65
499 14.9440 5.923332 405.00 431.26 20.12
500 14.9590 5.917427 410.00 431.06 20.25
501 14.9740 5.911532 415.00 430.87 20.37
502 14.9890 5.905650 425.00 430.67 20.62
503 15.0040 5.899780 397.00 430.48 19.92
504 15.0190 5.893922 454.00 430.29 21.31
505 15.0340 5.888074 439.00 430.09 20.95
506 15.0490 5.882240 439.00 429.89 20.95
507 15.0640 5.876416 423.00 429.70 20.57
508 15.0790 5.870604 412.00 429.51 20.30
509 15.0940 5.864804 424.00 429.31 20.59
510 15.1090 5.859015 412.00 429.11 20.30
511 15.1240 5.853238 428.00 428.92 20.69
512 15.1390 5.847472 448.00 428.72 21.17
513 15.1540 5.841717 417.00 428.52 20.42
514 15.1690 5.835975 422.00 428.33 20.54
515 15.1840 5.830243 427.00 428.13 20.66
516 15.1990 5.824523 457.00 427.93 21.38
517 15.2140 5.818814 409.00 427.74 20.22
518 15.2290 5.813117 435.00 427.54 20.86
519 15.2440 5.807430 442.00 427.34 21.02
520 15.2590 5.801755 414.00 427.14 20.35
521 15.2740 5.796091 420.00 426.95 20.49
522 15.2890 5.790438 405.00 426.75 20.12
523 15.3040 5.784797 421.00 426.55 20.52
524 15.3190 5.779166 420.00 426.35 20.49
525 15.3340 5.773546 422.00 426.15 20.54
526 15.3490 5.767938 449.00 425.96 21.19
527 15.3640 5.762340 414.00 425.76 20.35
528 15.3790 5.756754 396.00 425.56 19.90
529 15.3940 5.751178 429.00 425.36 20.71
530 15.4090 5.745613 417.00 425.16 20.42
531 15.4240 5.740059 432.00 424.96 20.78
532 15.4390 5.734516 395.00 424.76 19.87
533 15.4540 5.728984 419.00 424.56 20.47
534 15.4690 5.723463 400.00 424.36 20.00
535 15.4840 5.717952 432.00 424.16 20.78
536 15.4990 5.712452 440.00 423.96 20.98
537 15.5140 5.706962 439.00 423.76 20.95
538 15.5290 5.701483 427.00 423.56 20.66
539 15.5440 5.696015 418.00 423.36 20.44
540 15.5590 5.690557 407.00 423.15 20.17
541 15.5740 5.685110 422.00 422.95 20.54
542 15.5890 5.679674 409.00 422.75 20.22
543 15.6040 5.674247 419.00 422.55 20.47
544 15.6190 5.668832 417.00 422.35 20.42
545 15.6340 5.663427 412.00 422.14 20.30
546 15.6490 5.658032 416.00 421.94 20.40
547 15.6640 5.652648 429.00 421.74 20.71
548 15.6790 5.647274 403.00 421.54 20.07
549 15.6940 5.641910 400.00 421.33 20.00
550 15.7090 5.636556 408.00 421.13 20.20
551 15.7240 5.631213 418.00 420.93 20.44
552 15.7390 5.625880 427.00 420.73 20.66
553 15.7540 5.620557 414.00 420.52 20.35
554 15.7690 5.615244 431.00 420.32 20.76
555 15.7840 5.609941 410.00 420.11 20.25
556 15.7990 5.604649 406.00 419.91 20.15
557 15.8140 5.599367 412.00 419.71 20.30
558 15.8290 5.594094 444.00 419.50 21.07
559 15.8440 5.588832 429.00 419.30 20.71
560 15.8590 5.583580 411.00 419.09 20.27
561 15.8740 5.578337 412.00 418.89 20.30
562 15.8890 5.573105 425.00 418.68 20.62
563 15.9040 5.567882 426.00 418.48 20.64
564 15.9190 5.562670 407.00 418.27 20.17
565 15.9340 5.557467 436.00 418.07 20.88
566 15.9490 5.552274 418.00 417.86 20.44
567 15.9640 5.547091 421.00 417.66 20.52
568 15.9790 5.541917 462.00 417.51 21.49
569 15.9940 5.536753 502.00 417.65 22.41
570 16.0090 5.531599 501.00 419.18 22.38
571 16.0240 5.526454 527.00 426.17 22.96
572 16.0390 5.521320 613.00 450.14 24.76
573 16.0540 5.516194 675.00 516.53 25.98
574 16.0690 5.511079 752.00 667.84 27.42
575 16.0840 5.505973 960.00 953.19 30.98
576 16.0990 5.500877 1202.00 1399.86 34.67
577 16.1140 5.495790 1507.00 1981.84 38.82
578 16.1290 5.490713 2113.00 2623.37 45.97
579 16.1440 5.485646 2633.00 3254.67 51.31
580 16.1590 5.480587 3394.00 3868.75 58.26
581 16.1740 5.475537 4281.00 4496.90 65.43
582 16.1890 5.470499 5186.00 5101.02 72.01
583 16.2040 5.465467 5651.00 5492.18 75.17
584 16.2190 5.460447 5720.00 5402.48 75.63
585 16.2340 5.455435 4881.00 4699.25 69.86
586 16.2490 5.450432 3531.00 3547.13 59.42
587 16.2640 5.445440 2159.00 2328.18 46.47
588 16.2790 5.440456 1158.00 1379.01 34.03
589 16.2940 5.435481 631.00 811.88 25.12
590 16.3090 5.430516 462.00 546.94 21.49
591 16.3240 5.425560 432.00 449.23 20.78
592 16.3390 5.420612 407.00 420.52 20.17
593 16.3540 5.415674 424.00 413.68 20.59
594 16.3690 5.410745 416.00 412.23 20.40
595 16.3840 5.405825 398.00 411.84 19.95
596 16.3990 5.400914 387.00 411.61 19.67
597 16.4140 5.396013 426.00 411.39 20.64
598 16.4290 5.391119 404.00 411.18 20.10
599 16.4440 5.386235 420.00 410.97 20.49
600 16.4590 5.381361 402.00 410.76 20.05
601 16.4740 5.376494 402.00 410.55 20.05
602 16.4890 5.371637 412.00 410.34 20.30
603 16.5040 5.366789 419.00 410.12 20.47
604 16.5190 5.361950 388.00 409.91 19.70
605 16.5340 5.357119 434.00 409.70 20.83
606 16.5490 5.352297 430.00 409.49 20.74
607 16.5640 5.347484 401.00 409.27 20.02
608 16.5790 5.342679 407.00 409.06 20.17
609 16.5940 5.337884 407.00 408.85 20.17
610 16.6090 5.333097 435.00 408.64 20.86
611 16.6240 5.328318 436.00 408.42 20.88
612 16.6390 5.323548 440.00 408.21 20.98
613 16.6540 5.318788 407.00 407.99 20.17
614 16.6690 5.314034 424.00 407.78 20.59
615 16.6840 5.309291 407.00 407.57 20.17
616 16.6990 5.304556 435.00 407.35 20.86
617 16.7140 5.299829 436.00 407.14 20.88
618 16.7290 5.295111 407.00 406.92 20.17
619 16.7440 5.290401 440.00 406.71 20.98
620 16.7590 5.285699 407.00 406.49 20.17
621 16.7740 5.281006 406.00 406.28 20.15
622 16.7890 5.276322 414.00 406.06 20.35
623 16.8040 5.271646 432.00 405.85 20.78
624 16.8190 5.266978 423.00 405.63 20.57
625 16.8340 5.262319 417.00 405.42 20.42
626 16.8490 5.257667 402.00 405.20 20.05
627 16.8640 5.253025 414.00 404.98 20.35
628 16.8790 5.248391 417.00 404.77 20.42
629 16.8940 5.243764 412.00 404.55 20.30
630 16.9090 5.239146 392.00 404.34 19.80
631 16.9240 5.234536 404.00 404.12 20.10
632 16.9390 5.229935 398.00 403.90 19.95
633 16.9540 5.225341 382.00 403.69 19.54
634 16.9690 5.220756 406.00 403.47 20.15
635 16.9840 5.216179 417.00 403.25 20.42
636 16.9990 5.211609 411.00 403.03 20.27
637 17.0140 5.207049 384.00 402.82 19.60
638 17.0290 5.202496 403.00 402.60 20.07
639 17.0440 5.197951 418.00 402.38 20.44
640 17.0590 5.193415 416.00 402.16 20.40
641 17.0740 5.188886 425.00 401.94 20.62
642 17.0890 5.184365 426.00 401.73 20.64
643 17.1040 5.179852 405.00 401.51 20.12
644 17.1190 5.175347 416.00 401.29 20.40
645 17.1340 5.170850 404.00 401.07 20.10
646 17.1490 5.166361 393.00 400.85 19.82
647 17.1640 5.161880 401.00 400.63 20.02
648 17.1790 5.157406 413.00 400.41 20.32
649 17.1940 5.152941 427.00 400.19 20.66
650 17.2090 5.148483 392.00 399.97 19.80
651 17.2240 5.144033 407.00 399.75 20.17
652 17.2390 5.139591 412.00 399.53 20.30
653 17.2540 5.135157 409.00 399.31 20.22
654 17.2690 5.130730 401.00 399.09 20.02
655 17.2840 5.126311 398.00 398.87 19.95
656 17.2990 5.121900 393.00 398.65 19.82
657 17.3140 5.117496 396.00 398.43 19.90
658 17.3290 5.113101 393.00 398.21 19.82
659 17.3440 5.108712 398.00 397.99 19.95
660 17.3590 5.104331 419.00 397.77 20.47
661 17.3740 5.099958 460.00 397.55 21.45
662 17.3890 5.095592 411.00 397.32 20.27
663 17.4040 5.091235 411.00 397.10 20.27
664 17.4190 5.086884 401.00 396.88 20.02
665 17.4340 5.082541 415.00 396.66 20.37
666 17.4490 5.078207 413.00 396.44 20.32
667 17.4640 5.073878 404.00 396.21 20.10
668 17.4790 5.069558 420.00 395.99 20.49
669 17.4940 5.065245 415.00 395.77 20.37
670 17.5090 5.060939 399.00 395.55 19.98
671 17.5240 5.056641 381.00 395.32 19.52
672 17.5390 5.052350 413.00 395.10 20.32
673 17.5540 5.048066 410.00 394.88 20.25
674 17.5690 5.043790 382.00 394.65 19.54
675 17.5840 5.039522 381.00 394.43 19.52
676 17.5990 5.035260 373.00 394.20 19.31
677 17.6140 5.031005 387.00 393.98 19.67
678 17.6290 5.026759 389.00 393.76 19.72
679 17.6440 5.022519 399.00 393.53 19.98
680 17.6590 5.018286 425.00 393.31 20.62
681 17.6740 5.014061 393.00 393.08 19.82
682 17.6890 5.009843 415.00 392.86 20.37
683 17.7040 5.005632 393.00 392.63 19.82
684 17.7190 5.001429 423.00 392.41 20.57
685 17.7340 4.997232 416.00 392.18 20.40
686 17.7490 4.993042 388.00 391.96 19.70
687 17.7640 4.988860 411.00 391.73 20.27
688 17.7790 4.984685 386.00 391.51 19.65
689 17.7940 4.980516 393.00 391.28 19.82
690 17.8090 4.976356 382.00 391.06 19.54
691 17.8240 4.972201 378.00 390.83 19.44
692 17.8390 4.968054 389.00 390.60 19.72
693 17.8540 4.963914 379.00 390.38 19.47
694 17.8690 4.959781 387.00 390.15 19.67
695 17.8840 4.955655 405.00 389.92 20.12
696 17.8990 4.951536 390.00 389.70 19.75
697 17.9140 4.947423 392.00 389.47 19.80
698 17.9290 4.943318 401.00 389.24 20.02
699 17.9440 4.939219 396.00 389.02 19.90
700 17.9590 4.935128 378.00 388.79 19.44
701 17.9740 4.931043 391.00 388.56 19.77
702 17.9890 4.926965 391.00 388.33 19.77
703 18.0040 4.922894 380.00 388.10 19.49
704 18.0190 4.918830 392.00 387.88 19.80
705 18.0340 4.914772 385.00 387.65 19.62
706 18.0490 4.910721 387.00 387.42 19.67
707 18.0640 4.906678 396.00 387.19 19.90
708 18.0790 4.902640 386.00 386.96 19.65
709 18.0940 4.898610 395.00 386.73 19.87
710 18.1090 4.894586 380.00 386.51 19.49
711 18.1240 4.890569 399.00 386.27 19.98
712 18.1390 4.886559 415.00 386.05 20.37
713 18.1540 4.882555 377.00 385.82 19.42
714 18.1690 4.878557 397.00 385.59 19.92
715 18.1840 4.874567 388.00 385.36 19.70
716 18.1990 4.870583 391.00 385.13 19.77
717 18.2140 4.866605 393.00 384.90 19.82
718 18.2290 4.862635 402.00 384.67 20.05
719 18.2440 4.858671 405.00 384.44 20.12
720 18.2590 4.854712 419.00 384.21 20.47
721 18.2740 4.850761 393.00 383.98 19.82
722 18.2890 4.846817 398.00 383.74 19.95
723 18.3040 4.842879 385.00 383.51 19.62
724 18.3190 4.838947 376.00 383.28 19.39
725 18.3340 4.835022 375.00 383.05 19.36
726 18.3490 4.831103 430.00 382.82 20.74
727 18.3640 4.827191 394.00 382.59 19.85
728 18.3790 4.823286 380.00 382.36 19.49
729 18.3940 4.819386 369.00 382.12 19.21
730 18.4090 4.815493 374.00 381.89 19.34
731 18.4240 4.811606 361.00 381.66 19.00
732 18.4390 4.807725 388.00 381.43 19.70
733 18.4540 4.803851 390.00 381.20 19.75
734 18.4690 4.799984 388.00 380.96 19.70
735 18.4840 4.796123 392.00 380.73 19.80
736 18.4990 4.792267 413.00 380.50 20.32
737 18.5140 4.788418 393.00 380.28 19.82
738 18.5290 4.784575 412.00 380.11 20.30
739 18.5440 4.780739 440.00 380.24 20.98
740 18.5590 4.776909 438.00 381.63 20.93
741 18.5740 4.773085 452.00 387.27 21.26
742 18.5890 4.769267 531.00 404.77 23.04
743 18.6040 4.765456 582.00 449.29 24.12
744 18.6190 4.761651 638.00 544.23 25.26
745 18.6340 4.757851 825.00 715.88 28.72
746 18.6490 4.754058 1005.00 980.73 31.70
747 18.6640 4.750271 1338.00 1331.82 36.58
748 18.6790 4.746490 1732.00 1737.93 41.62
749 18.6940 4.742715 2156.00 2159.42 46.43
750 18.7090 4.738947 2488.00 2560.17 49.88
751 18.7240 4.735184 2810.00 2889.33 53.01
752 18.7390 4.731428 2965.00 3055.02 54.45
753 18.7540 4.727677 2746.00 2952.12 52.40
754 18.7690 4.723933 2233.00 2550.61 47.25
755 18.7840 4.720194 1981.00 1953.00 44.51
756 18.7990 4.716462 1111.00 1343.82 33.33
757 18.8140 4.712735 710.00 873.45 26.65
758 18.8290 4.709014 489.00 588.46 22.11
759 18.8440 4.705300 414.00 450.69 20.35
760 18.8590 4.701591 412.00 397.00 20.30
761 18.8740 4.697888 417.00 379.96 20.42
762 18.8890 4.694191 387.00 375.45 19.67
763 18.9040 4.690501 376.00 374.33 19.39
764 18.9190 4.686815 394.00 373.94 19.85
765 18.9340 4.683136 384.00 373.68 19.60
766 18.9490 4.679463 388.00 373.44 19.70
767 18.9640 4.675796 379.00 373.20 19.47
768 18.9790 4.672134 408.00 372.97 20.20
769 18.9940 4.668478 370.00 372.73 19.24
770 19.0090 4.664828 378.00 372.49 19.44
771 19.0240 4.661183 391.00 372.25 19.77
772 19.0390 4.657545 391.00 372.02 19.77
773 19.0540 4.653912 390.00 371.78 19.75
774 19.0690 4.650285 394.00 371.54 19.85
775 19.0840 4.646664 385.00 371.30 19.62
776 19.0990 4.643048 414.00 371.06 20.35
777 19.1140 4.639438 382.00 370.82 19.54
778 19.1290 4.635834 406.00 370.58 20.15
779 19.1440 4.632236 434.00 370.34 20.83
780 19.1590 4.628643 410.00 370.10 20.25
781 19.1740 4.625056 389.00 369.86 19.72
782 19.1890 4.621474 402.00 369.62 20.05
783 19.2040 4.617898 365.00 369.39 19.10
784 19.2190 4.614328 391.00 369.14 19.77
785 19.2340 4.610763 412.00 368.90 20.30
786 19.2490 4.607203 353.00 368.67 18.79
787 19.2640 4.603650 385.00 368.42 19.62
788 19.2790 4.600102 399.00 368.18 19.98
789 19.2940 4.596560 373.00 367.94 19.31
790 19.3090 4.593023 355.00 367.70 18.84
791 19.3240 4.589491 372.00 367.46 19.29
792 19.3390 4.585965 357.00 367.22 18.89
793 19.3540 4.582445 361.00 366.98 19.00
794 19.3690 4.578930 402.00 366.74 20.05
795 19.3840 4.575420 391.00 366.50 19.77
796 19.3990 4.571916 390.00 366.26 19.75
797 19.4140 4.568418 373.00 366.01 19.31
798 19.4290 4.564924 347.00 365.77 18.63
799 19.4440 4.561437 372.00 365.53 19.29
800 19.4590 4.557954 374.00 365.29 19.34
801 19.4740 4.554477 368.00 365.05 19.18
802 19.4890 4.551006 364.00 364.80 19.08
803 19.5040 4.547540 385.00 364.56 19.62
804 19.5190 4.544079 409.00 364.32 20.22
805 19.5340 4.540623 397.00 364.07 19.92
806 19.5490 4.537173 356.00 363.83 18.87
807 19.5640 4.533728 346.00 363.59 18.60
808 19.5790 4.530288 357.00 363.34 18.89
809 19.5940 4.526855 381.00 363.10 19.52
810 19.6090 4.523426 384.00 362.86 19.60
811 19.6240 4.520001 358.00 362.61 18.92
812 19.6390 4.516583 363.00 362.37 19.05
813 19.6540 4.513170 346.00 362.13 18.60
814 19.6690 4.509761 395.00 361.88 19.87
815 19.6840 4.506359 391.00 361.64 19.77
816 19.6990 4.502962 369.00 361.39 19.21
817 19.7140 4.499569 376.00 361.15 19.39
818 19.7290 4.496182 374.00 360.90 19.34
819 19.7440 4.492800 378.00 360.66 19.44
820 19.7590 4.489422 349.00 360.41 18.68
821 19.7740 4.486051 375.00 360.17 19.36
822 19.7890 4.482685 395.00 359.92 19.87
823 19.8040 4.479323 393.00 359.68 19.82
824 19.8190 4.475966 364.00 359.43 19.08
825 19.8340 4.472616 359.00 359.19 18.95
826 19.8490 4.469269 338.00 358.94 18.38
827 19.8640 4.465929 357.00 358.70 18.89
828 19.8790 4.462592 369.00 358.45 19.21
829 19.8940 4.459261 357.00 358.20 18.89
830 19.9090 4.455935 364.00 357.96 19.08
831 19.9240 4.452615 349.00 357.71 18.68
832 19.9390 4.449299 351.00 357.46 18.74
833 19.9540 4.445988 357.00 357.22 18.89
834 19.9690 4.442682 332.00 356.97 18.22
835 19.9840 4.439382 350.00 356.72 18.71
836 19.9990 4.436085 373.00 356.48 19.31
837 20.0140 4.432795 350.00 356.23 18.71
838 20.0290 4.429509 352.00 355.98 18.76
839 20.0440 4.426227 365.00 355.73 19.10
840 20.0590 4.422951 357.00 355.48 18.89
841 20.0740 4.419680 371.00 355.24 19.26
842 20.0890 4.416414 363.00 354.99 19.05
843 20.1040 4.413153 368.00 354.74 19.18
844 20.1190 4.409896 342.00 354.49 18.49
845 20.1340 4.406645 376.00 354.24 19.39
846 20.1490 4.403398 366.00 354.00 19.13
847 20.1640 4.400156 382.00 353.75 19.54
848 20.1790 4.396919 353.00 353.50 18.79
849 20.1940 4.393687 356.00 353.25 18.87
850 20.2090 4.390460 337.00 353.00 18.36
851 20.2240 4.387237 335.00 352.75 18.30
852 20.2390 4.384019 377.00 352.50 19.42
853 20.2540 4.380806 335.00 352.25 18.30
854 20.2690 4.377598 338.00 352.00 18.38
855 20.2840 4.374395 365.00 351.75 19.10
856 20.2990 4.371196 314.00 351.50 17.72
857 20.3140 4.368002 348.00 351.25 18.65
858 20.3290 4.364813 352.00 351.00 18.76
859 20.3440 4.361629 344.00 350.75 18.55
860 20.3590 4.358449 360.00 350.50 18.97
861 20.3740 4.355274 334.00 350.25 18.28
862 20.3890 4.352104 359.00 350.00 18.95
863 20.4040 4.348938 317.00 349.75 17.80
864 20.4190 4.345777 337.00 349.50 18.36
865 20.4340 4.342621 331.00 349.25 18.19
866 20.4490 4.339469 389.00 349.00 19.72
867 20.4640 4.336322 327.00 348.75 18.08
868 20.4790 4.333180 367.00 348.50 19.16
869 20.4940 4.330043 335.00 348.24 18.30
870 20.5090 4.326909 352.00 347.99 18.76
871 20.5240 4.323781 317.00 347.74 17.80
872 20.5390 4.320657 344.00 347.49 18.55
873 20.5540 4.317537 330.00 347.24 18.17
874 20.5690 4.314423 318.00 346.98 17.83
875 20.5840 4.311313 327.00 346.73 18.08
876 20.5990 4.308207 332.00 346.48 18.22
877 20.6140 4.305106 344.00 346.23 18.55
878 20.6290 4.302010 348.00 345.98 18.65
879 20.6440 4.298918 353.00 345.72 18.79
880 20.6590 4.295830 352.00 345.47 18.76
881 20.6740 4.292747 343.00 345.22 18.52
882 20.6890 4.289669 351.00 344.96 18.74
883 20.7040 4.286595 335.00 344.71 18.30
884 20.7190 4.283525 311.00 344.46 17.64
885 20.7340 4.280460 300.00 344.20 17.32
886 20.7490 4.277400 328.00 343.95 18.11
887 20.7640 4.274343 335.00 343.70 18.30
888 20.7790 4.271292 329.00 343.47 18.14
889 20.7940 4.268244 346.00 343.34 18.60
890 20.8090 4.265202 353.00 343.57 18.79
891 20.8240 4.262163 351.00 344.87 18.74
892 20.8390 4.259129 343.00 348.81 18.52
893 20.8540 4.256099 367.00 358.17 19.16
894 20.8690 4.253074 411.00 376.87 20.27
895 20.8840 4.250053 402.00 409.33 20.05
896 20.8990 4.247036 449.00 459.25 21.19
897 20.9140 4.244024 478.00 527.61 21.86
898 20.9290 4.241016 632.00 610.34 25.14
899 20.9440 4.238013 756.00 696.68 27.50
900 20.9590 4.235014 806.00 770.04 28.39
901 20.9740 4.232018 792.00 811.37 28.14
902 20.9890 4.229028 775.00 805.15 27.84
903 21.0040 4.226042 745.00 747.44 27.29
904 21.0190 4.223060 681.00 651.86 26.10
905 21.0340 4.220082 567.00 545.47 23.81
906 21.0490 4.217109 482.00 455.01 21.95
907 21.0640 4.214139 427.00 393.87 20.66
908 21.0790 4.211174 369.00 360.45 19.21
909 21.0940 4.208214 377.00 345.49 19.42
910 21.1090 4.205257 341.00 339.90 18.47
911 21.1240 4.202305 375.00 338.05 19.36
912 21.1390 4.199357 341.00 337.41 18.47
913 21.1540 4.196414 347.00 337.07 18.63
914 21.1690 4.193473 333.00 336.80 18.25
915 21.1840 4.190538 355.00 336.54 18.84
916 21.1990 4.187607 342.00 336.29 18.49
917 21.2140 4.184680 361.00 336.03 19.00
918 21.2290 4.181757 352.00 335.77 18.76
919 21.2440 4.178838 348.00 335.51 18.65
920 21.2590 4.175923 338.00 335.26 18.38
921 21.2740 4.173013 358.00 335.00 18.92
922 21.2890 4.170106 373.00 334.74 19.31
923 21.3040 4.167204 339.00 334.48 18.41
924 21.3190 4.164306 312.00 334.22 17.66
925 21.3340 4.161412 326.00 333.96 18.06
926 21.3490 4.158522 315.00 333.71 17.75
927 21.3640 4.155636 333.00 333.45 18.25
928 21.3790 4.152754 323.00 333.19 17.97
929 21.3940 4.149877 326.00 332.93 18.06
930 21.4090 4.147003 298.00 332.67 17.26
931 21.4240 4.144133 315.00 332.41 17.75
932 21.4390 4.141268 328.00 332.15 18.11
933 21.4540 4.138406 319.00 331.90 17.86
934 21.4690 4.135549 341.00 331.64 18.47
935 21.4840 4.132695 322.00 331.38 17.94
936 21.4990 4.129845 310.00 331.12 17.61
937 21.5140 4.127000 330.00 330.86 18.17
938 21.5290 4.124158 321.00 330.60 17.92
939 21.5440 4.121321 318.00 330.34 17.83
940 21.5590 4.118487 330.00 330.08 18.17
941 21.5740 4.115657 320.00 329.82 17.89
942 21.5890 4.112832 313.00 329.56 17.69
943 21.6040 4.110010 323.00 329.30 17.97
944 21.6190 4.107192 329.00 329.04 18.14
945 21.6340 4.104378 342.00 328.78 18.49
946 21.6490 4.101568 310.00 328.52 17.61
947 21.6640 4.098763 344.00 328.26 18.55
948 21.6790 4.095960 331.00 328.00 18.19
949 21.6940 4.093162 317.00 327.74 17.80
950 21.7090 4.090368 321.00 327.48 17.92
951 21.7240 4.087577 313.00 327.22 17.69
952 21.7390 4.084791 322.00 326.95 17.94
953 21.7540 4.082008 331.00 326.69 18.19
954 21.7690 4.079229 335.00 326.43 18.30
955 21.7840 4.076454 344.00 326.17 18.55
956 21.7990 4.073683 306.00 325.91 17.49
957 21.8140 4.070916 328.00 325.65 18.11
958 21.8290 4.068152 298.00 325.39 17.26
959 21.8440 4.065393 303.00 325.13 17.41
960 21.8590 4.062637 327.00 324.86 18.08
961 21.8740 4.059885 322.00 324.60 17.94
962 21.8890 4.057137 337.00 324.34 18.36
963 21.9040 4.054392 321.00 324.08 17.92
964 21.9190 4.051651 315.00 323.82 17.75
965 21.9340 4.048914 315.00 323.55 17.75
966 21.9490 4.046181 359.00 323.29 18.95
967 21.9640 4.043452 320.00 323.03 17.89
968 21.9790 4.040726 312.00 322.77 17.66
969 21.9940 4.038004 305.00 322.50 17.46
970 22.0090 4.035286 331.00 322.24 18.19
971 22.0240 4.032572 311.00 321.98 17.64
972 22.0390 4.029861 335.00 321.72 18.30
973 22.0540 4.027154 313.00 321.45 17.69
974 22.0690 4.024451 311.00 321.19 17.64
975 22.0840 4.021751 356.00 320.93 18.87
976 22.0990 4.019055 354.00 320.66 18.81
977 22.1140 4.016363 325.00 320.40 18.03
978 22.1290 4.013675 305.00 320.14 17.46
979 22.1440 4.010990 304.00 319.87 17.44
980 22.1590 4.008308 293.00 319.61 17.12
981 22.1740 4.005630 325.00 319.35 18.03
982 22.1890 4.002957 282.00 319.08 16.79
983 22.2040 4.000286 303.00 318.82 17.41
984 22.2190 3.997620 305.00 318.55 17.46
985 22.2340 3.994957 329.00 318.29 18.14
986 22.2490 3.992297 306.00 318.03 17.49
987 22.2640 3.989641 339.00 317.76 18.41
988 22.2790 3.986989 324.00 317.50 18.00
989 22.2940 3.984340 333.00 317.23 18.25
990 22.3090 3.981695 320.00 316.97 17.89
991 22.3240 3.979054 332.00 316.71 18.22
992 22.3390 3.976416 318.00 316.44 17.83
993 22.3540 3.973782 298.00 316.18 17.26
994 22.3690 3.971151 286.00 315.91 16.91
995 22.3840 3.968523 322.00 315.65 17.94
996 22.3990 3.965900 336.00 315.38 18.33
997 22.4140 3.963280 310.00 315.12 17.61
998 22.4290 3.960663 303.00 314.85 17.41
999 22.4440 3.958050 273.00 314.59 16.52
1000 22.4590 3.955440 285.00 314.32 16.88
1001 22.4740 3.952834 314.00 314.06 17.72
1002 22.4890 3.950231 325.00 313.79 18.03
1003 22.5040 3.947632 320.00 313.53 17.89
1004 22.5190 3.945037 319.00 313.26 17.86
1005 22.5340 3.942445 303.00 313.00 17.41
1006 22.5490 3.939856 292.00 312.73 17.09
1007 22.5640 3.937271 321.00 312.46 17.92
1008 22.5790 3.934689 302.00 312.20 17.38
1009 22.5940 3.932111 301.00 311.93 17.35
1010 22.6090 3.929536 285.00 311.67 16.88
1011 22.6240 3.926964 317.00 311.40 17.80
1012 22.6390 3.924396 309.00 311.14 17.58
1013 22.6540 3.921832 328.00 310.87 18.11
1014 22.6690 3.919270 302.00 310.60 17.38
1015 22.6840 3.916713 333.00 310.34 18.25
1016 22.6990 3.914159 285.00 310.07 16.88
1017 22.7140 3.911608 292.00 309.80 17.09
1018 22.7290 3.909060 288.00 309.54 16.97
1019 22.7440 3.906516 306.00 309.27 17.49
1020 22.7590 3.903975 308.00 309.01 17.55
1021 22.7740 3.901438 303.00 308.74 17.41
1022 22.7890 3.898904 316.00 308.47 17.78
1023 22.8040 3.896373 307.00 308.21 17.52
1024 22.8190 3.893845 315.00 307.97 17.75
1025 22.8340 3.891322 303.00 307.79 17.41
1026 22.8490 3.888801 292.00 307.84 17.09
1027 22.8640 3.886283 301.00 308.55 17.35
1028 22.8790 3.883769 330.00 310.80 18.17
1029 22.8940 3.881259 305.00 316.18 17.46
1030 22.9090 3.878751 310.00 326.94 17.61
1031 22.9240 3.876247 337.00 345.56 18.36
1032 22.9390 3.873746 350.00 373.92 18.71
1033 22.9540 3.871249 378.00 411.86 19.44
1034 22.9690 3.868755 440.00 455.81 20.98
1035 22.9840 3.866264 486.00 498.34 22.05
1036 22.9990 3.863776 549.00 529.24 23.43
1037 23.0140 3.861292 559.00 538.74 23.64
1038 23.0290 3.858811 527.00 522.02 22.96
1039 23.0440 3.856332 484.00 482.54 22.00
1040 23.0590 3.853858 407.00 431.53 20.17
1041 23.0740 3.851387 356.00 382.60 18.87
1042 23.0890 3.848918 322.00 345.27 17.94
1043 23.1040 3.846453 313.00 322.01 17.69
1044 23.1190 3.843992 298.00 309.99 17.26
1045 23.1340 3.841533 300.00 304.75 17.32
1046 23.1490 3.839078 298.00 302.73 17.26
1047 23.1640 3.836626 287.00 301.95 16.94
1048 23.1790 3.834177 289.00 301.55 17.00
1049 23.1940 3.831731 286.00 301.26 16.91
1050 23.2090 3.829288 312.00 300.99 17.66
1051 23.2240 3.826849 318.00 300.72 17.83
1052 23.2390 3.824413 295.00 300.45 17.18
1053 23.2540 3.821980 294.00 300.18 17.15
1054 23.2690 3.819551 329.00 299.91 18.14
1055 23.2840 3.817123 294.00 299.64 17.15
1056 23.2990 3.814700 272.00 299.38 16.49
1057 23.3140 3.812280 284.00 299.11 16.85
1058 23.3290 3.809862 300.00 298.84 17.32
1059 23.3440 3.807448 292.00 298.57 17.09
1060 23.3590 3.805037 298.00 298.30 17.26
1061 23.3740 3.802629 306.00 298.04 17.49
1062 23.3890 3.800224 302.00 297.77 17.38
1063 23.4040 3.797823 307.00 297.50 17.52
1064 23.4190 3.795424 280.00 297.23 16.73
1065 23.4340 3.793029 295.00 296.96 17.18
1066 23.4490 3.790636 293.00 296.69 17.12
1067 23.4640 3.788247 294.00 296.42 17.15
1068 23.4790 3.785861 286.00 296.15 16.91
1069 23.4940 3.783478 272.00 295.89 16.49
1070 23.5090 3.781097 271.00 295.62 16.46
1071 23.5240 3.778720 289.00 295.35 17.00
1072 23.5390 3.776346 299.00 295.08 17.29
1073 23.5540 3.773975 284.00 294.81 16.85
1074 23.5690 3.771607 276.00 294.54 16.61
1075 23.5840 3.769243 281.00 294.27 16.76
1076 23.5990 3.766880 287.00 294.00 16.94
1077 23.6140 3.764522 279.00 293.73 16.70
1078 23.6290 3.762166 282.00 293.47 16.79
1079 23.6440 3.759813 272.00 293.20 16.49
1080 23.6590 3.757463 283.00 292.93 16.82
1081 23.6740 3.755116 275.00 292.66 16.58
1082 23.6890 3.752773 301.00 292.39 17.35
1083 23.7040 3.750432 292.00 292.12 17.09
1084 23.7190 3.748094 284.00 291.85 16.85
1085 23.7340 3.745759 287.00 291.58 16.94
1086 23.7490 3.743427 290.00 291.31 17.03
1087 23.7640 3.741098 280.00 291.04 16.73
1088 23.7790 3.738772 274.00 291.07 16.55
1089 23.7940 3.736449 257.00 290.81 16.03
1090 23.8090 3.734129 272.00 290.55 16.49
1091 23.8240 3.731812 268.00 290.28 16.37
1092 23.8390 3.729498 266.00 290.02 16.31
1093 23.8540 3.727186 302.00 289.76 17.38
1094 23.8690 3.724878 286.00 289.49 16.91
1095 23.8840 3.722573 280.00 289.23 16.73
1096 23.8990 3.720270 269.00 288.97 16.40
1097 23.9140 3.717971 273.00 288.70 16.52
1098 23.9290 3.715674 264.00 288.44 16.25
1099 23.9440 3.713380 275.00 288.18 16.58
1100 23.9590 3.711089 282.00 287.92 16.79
1101 23.9740 3.708801 289.00 287.66 17.00
1102 23.9890 3.706516 266.00 287.39 16.31
1103 24.0040 3.704234 271.00 287.13 16.46
1104 24.0190 3.701955 272.00 286.87 16.49
1105 24.0340 3.699678 272.00 286.61 16.49
1106 24.0490 3.697404 273.00 286.35 16.52
1107 24.0640 3.695134 282.00 286.09 16.79
1108 24.0790 3.692866 276.00 285.83 16.61
1109 24.0940 3.690601 272.00 285.57 16.49
1110 24.1090 3.688339 263.00 285.31 16.22
1111 24.1240 3.686079 288.00 285.05 16.97
1112 24.1390 3.683822 287.00 284.79 16.94
1113 24.1540 3.681569 305.00 284.54 17.46
1114 24.1690 3.679317 295.00 284.28 17.18
1115 24.1840 3.677070 280.00 284.02 16.73
1116 24.1990 3.674824 261.00 283.76 16.16
1117 24.2140 3.672581 279.00 283.51 16.70
1118 24.2290 3.670342 288.00 283.25 16.97
1119 24.2440 3.668105 293.00 282.99 17.12
1120 24.2590 3.665871 297.00 282.74 17.23
1121 24.2740 3.663640 297.00 282.48 17.23
1122 24.2890 3.661411 305.00 282.23 17.46
1123 24.3040 3.659185 275.00 281.98 16.58
1124 24.3190 3.656962 256.00 281.72 16.00
1125 24.3340 3.654742 256.00 281.47 16.00
1126 24.3490 3.652524 265.00 281.22 16.28
1127 24.3640 3.650309 287.00 280.97 16.94
1128 24.3790 3.648098 260.00 280.72 16.12
1129 24.3940 3.645888 291.00 280.47 17.06
1130 24.4090 3.643682 278.00 280.22 16.67
1131 24.4240 3.641478 311.00 279.97 17.64
1132 24.4390 3.639277 290.00 279.72 17.03
1133 24.4540 3.637078 272.00 279.48 16.49
1134 24.4690 3.634883 269.00 279.23 16.40
1135 24.4840 3.632690 289.00 278.99 17.00
1136 24.4990 3.630500 283.00 278.75 16.82
1137 24.5140 3.628312 285.00 278.51 16.88
1138 24.5290 3.626127 296.00 278.27 17.20
1139 24.5440 3.623945 265.00 278.03 16.28
1140 24.5590 3.621766 272.00 277.79 16.49
1141 24.5740 3.619589 253.00 277.56 15.91
1142 24.5890 3.617415 251.00 277.32 15.84
1143 24.6040 3.615243 263.00 277.09 16.22
1144 24.6190 3.613075 289.00 276.86 17.00
1145 24.6340 3.610909 250.00 276.64 15.81
1146 24.6490 3.608745 274.00 276.41 16.55
1147 24.6640 3.606585 256.00 276.19 16.00
1148 24.6790 3.604426 281.00 275.97 16.76
1149 24.6940 3.602271 296.00 275.75 17.20
1150 24.7090 3.600118 290.00 275.54 17.03
1151 24.7240 3.597968 259.00 275.33 16.09
1152 24.7390 3.595820 288.00 275.12 16.97
1153 24.7540 3.593675 271.00 274.92 16.46
1154 24.7690 3.591533 261.00 274.72 16.16
1155 24.7840 3.589393 247.00 274.52 15.72
1156 24.7990 3.587256 287.00 274.33 16.94
1157 24.8140 3.585122 285.00 274.15 16.88
1158 24.8290 3.582989 273.00 273.97 16.52
1159 24.8440 3.580860 254.00 273.80 15.94
1160 24.8590 3.578733 279.00 273.63 16.70
1161 24.8740 3.576609 276.00 273.48 16.61
1162 24.8890 3.574488 287.00 273.33 16.94
1163 24.9040 3.572369 275.00 273.19 16.58
1164 24.9190 3.570252 271.00 273.06 16.46
1165 24.9340 3.568139 279.00 272.94 16.70
1166 24.9490 3.566027 253.00 272.84 15.91
1167 24.9640 3.563918 275.00 272.75 16.58
1168 24.9790 3.561812 275.00 272.67 16.58
1169 24.9940 3.559709 249.00 272.61 15.78
1170 25.0090 3.557607 262.00 272.58 16.19
1171 25.0240 3.555509 269.00 272.57 16.40
1172 25.0390 3.553413 277.00 272.58 16.64
1173 25.0540 3.551320 287.00 272.62 16.94
1174 25.0690 3.549229 256.00 272.70 16.00
1175 25.0840 3.547140 287.00 272.81 16.94
1176 25.0990 3.545054 313.00 272.97 17.69
1177 25.1140 3.542971 296.00 273.18 17.20
1178 25.1290 3.540890 268.00 273.46 16.37
1179 25.1440 3.538812 271.00 273.80 16.46
1180 25.1590 3.536736 296.00 274.23 17.20
1181 25.1740 3.534662 298.00 274.76 17.26
1182 25.1890 3.532592 263.00 275.41 16.22
1183 25.2040 3.530523 281.00 276.21 16.76
1184 25.2190 3.528457 278.00 277.19 16.67
1185 25.2340 3.526394 272.00 278.41 16.49
1186 25.2490 3.524333 292.00 279.93 17.09
1187 25.2640 3.522274 293.00 281.85 17.12
1188 25.2790 3.520218 302.00 284.31 17.38
1189 25.2940 3.518164 281.00 287.52 16.76
1190 25.3090 3.516114 307.00 291.77 17.52
1191 25.3240 3.514065 326.00 297.44 18.06
1192 25.3390 3.512018 318.00 305.02 17.83
1193 25.3540 3.509974 328.00 315.10 18.11
1194 25.3690 3.507933 353.00 328.30 18.79
1195 25.3840 3.505894 369.00 345.11 19.21
1196 25.3990 3.503858 365.00 365.64 19.10
1197 25.4140 3.501824 391.00 389.24 19.77
1198 25.4290 3.499792 425.00 414.46 20.62
1199 25.4440 3.497763 437.00 439.45 20.90
1200 25.4590 3.495736 460.00 461.69 21.45
1201 25.4740 3.493711 476.00 476.86 21.82
1202 25.4890 3.491689 434.00 479.54 20.83
1203 25.5040 3.489670 419.00 467.21 20.47
1204 25.5190 3.487653 378.00 443.05 19.44
1205 25.5340 3.485638 364.00 413.48 19.08
1206 25.5490 3.483625 388.00 384.13 19.70
1207 25.5640 3.481615 391.00 358.17 19.77
1208 25.5790 3.479608 330.00 336.70 18.17
1209 25.5940 3.477602 329.00 319.73 18.14
1210 25.6090 3.475600 327.00 306.67 18.08
1211 25.6240 3.473599 309.00 296.81 17.58
1212 25.6390 3.471601 292.00 289.41 17.09
1213 25.6540 3.469605 281.00 283.81 16.76
1214 25.6690 3.467611 276.00 279.51 16.61
1215 25.6840 3.465620 269.00 276.11 16.40
1216 25.6990 3.463631 275.00 273.37 16.58
1217 25.7140 3.461645 253.00 271.10 15.91
1218 25.7290 3.459661 280.00 269.18 16.73
1219 25.7440 3.457679 233.00 267.52 15.26
1220 25.7590 3.455699 242.00 266.07 15.56
1221 25.7740 3.453722 246.00 264.78 15.68
1222 25.7890 3.451747 260.00 263.64 16.12
1223 25.8040 3.449775 239.00 262.61 15.46
1224 25.8190 3.447804 254.00 261.67 15.94
1225 25.8340 3.445837 260.00 260.82 16.12
1226 25.8490 3.443871 257.00 260.03 16.03
1227 25.8640 3.441908 233.00 259.30 15.26
1228 25.8790 3.439947 241.00 258.63 15.52
1229 25.8940 3.437988 242.00 257.99 15.56
1230 25.9090 3.436032 262.00 257.39 16.19
1231 25.9240 3.434078 245.00 256.83 15.65
1232 25.9390 3.432126 226.00 256.29 15.03
1233 25.9540 3.430176 251.00 255.78 15.84
1234 25.9690 3.428229 253.00 255.29 15.91
1235 25.9840 3.426284 257.00 254.82 16.03
1236 25.9990 3.424341 252.00 254.37 15.87
1237 26.0140 3.422400 256.00 253.93 16.00
1238 26.0290 3.420462 236.00 253.51 15.36
1239 26.0440 3.418526 234.00 253.10 15.30
1240 26.0590 3.416592 275.00 252.70 16.58
1241 26.0740 3.414661 254.00 252.31 15.94
1242 26.0890 3.412732 232.00 251.93 15.23
1243 26.1040 3.410805 245.00 251.56 15.65
1244 26.1190 3.408880 233.00 251.19 15.26
1245 26.1340 3.406957 243.00 250.84 15.59
1246 26.1490 3.405037 260.00 250.49 16.12
1247 26.1640 3.403119 260.00 250.14 16.12
1248 26.1790 3.401203 241.00 249.80 15.52
1249 26.1940 3.399289 263.00 249.47 16.22
1250 26.2090 3.397378 239.00 249.14 15.46
1251 26.2240 3.395468 224.00 248.81 14.97
1252 26.2390 3.393562 240.00 248.49 15.49
1253 26.2540 3.391657 271.00 248.17 16.46
1254 26.2690 3.389754 255.00 247.86 15.97
1255 26.2840 3.387853 268.00 247.55 16.37
1256 26.2990 3.385955 255.00 247.24 15.97
1257 26.3140 3.384059 258.00 246.93 16.06
1258 26.3290 3.382165 238.00 246.63 15.43
1259 26.3440 3.380274 253.00 246.33 15.91
1260 26.3590 3.378384 262.00 246.03 16.19
1261 26.3740 3.376496 272.00 245.73 16.49
1262 26.3890 3.374611 252.00 245.44 15.87
1263 26.4040 3.372728 270.00 245.15 16.43
1264 26.4190 3.370847 270.00 244.88 16.43
1265 26.4340 3.368968 246.00 244.73 15.68
1266 26.4490 3.367092 254.00 245.02 15.94
1267 26.4640 3.365217 279.00 246.87 16.70
1268 26.4790 3.363345 308.00 253.34 17.55
1269 26.4940 3.361475 361.00 271.34 19.00
1270 26.5090 3.359607 372.00 313.72 19.29
1271 26.5240 3.357741 428.00 399.80 20.69
1272 26.5390 3.355877 575.00 553.30 23.98
1273 26.5540 3.354015 852.00 798.32 29.19
1274 26.5690 3.352156 1194.00 1155.06 34.55
1275 26.5840 3.350298 1507.00 1631.10 38.82
1276 26.5990 3.348443 2021.00 2201.27 44.96
1277 26.6140 3.346590 2669.00 2780.29 51.66
1278 26.6290 3.344739 2998.00 3219.12 54.75
1279 26.6440 3.342890 3278.00 3358.79 57.25
1280 26.6590 3.341043 3074.00 3121.95 55.44
1281 26.6740 3.339198 2598.00 2572.63 50.97
1282 26.6890 3.337355 1835.00 1885.70 42.84
1283 26.7040 3.335515 1287.00 1249.17 35.87
1284 26.7190 3.333676 848.00 776.93 29.12
1285 26.7340 3.331840 405.00 487.38 20.12
1286 26.7490 3.330005 272.00 338.21 16.49
1287 26.7640 3.328173 268.00 273.01 16.37
1288 26.7790 3.326343 253.00 248.60 15.91
1289 26.7940 3.324515 239.00 240.64 15.46
1290 26.8090 3.322689 234.00 238.27 15.30
1291 26.8240 3.320865 253.00 237.51 15.91
1292 26.8390 3.319043 284.00 237.15 16.85
1293 26.8540 3.317223 252.00 236.87 15.87
1294 26.8690 3.315405 232.00 236.60 15.23
1295 26.8840 3.313589 231.00 236.33 15.20
1296 26.8990 3.311775 231.00 236.07 15.20
1297 26.9140 3.309964 233.00 235.80 15.26
1298 26.9290 3.308154 264.00 235.54 16.25
1299 26.9440 3.306346 264.00 235.28 16.25
1300 26.9590 3.304541 239.00 235.01 15.46
1301 26.9740 3.302737 219.00 234.75 14.80
1302 26.9890 3.300936 235.00 234.49 15.33
1303 27.0040 3.299136 275.00 234.23 16.58
1304 27.0190 3.297339 257.00 233.97 16.03
1305 27.0340 3.295543 285.00 233.71 16.88
1306 27.0490 3.293750 246.00 233.45 15.68
1307 27.0640 3.291958 251.00 233.19 15.84
1308 27.0790 3.290169 222.00 232.93 14.90
1309 27.0940 3.288381 224.00 232.67 14.97
1310 27.1090 3.286596 261.00 232.41 16.16
1311 27.1240 3.284812 247.00 232.15 15.72
1312 27.1390 3.283031 239.00 231.89 15.46
1313 27.1540 3.281251 246.00 231.64 15.68
1314 27.1690 3.279474 244.00 231.38 15.62
1315 27.1840 3.277698 245.00 230.82 15.65
1316 27.1990 3.275925 243.00 230.57 15.59
1317 27.2140 3.274153 242.00 230.32 15.56
1318 27.2290 3.272383 254.00 230.07 15.94
1319 27.2440 3.270616 256.00 229.82 16.00
1320 27.2590 3.268850 264.00 229.57 16.25
1321 27.2740 3.267086 265.00 229.31 16.28
1322 27.2890 3.265324 225.00 229.06 15.00
1323 27.3040 3.263565 262.00 228.81 16.19
1324 27.3190 3.261807 277.00 228.56 16.64
1325 27.3340 3.260051 278.00 228.31 16.67
1326 27.3490 3.258297 275.00 228.06 16.58
1327 27.3640 3.256545 291.00 227.81 17.06
1328 27.3790 3.254795 312.00 227.56 17.66
1329 27.3940 3.253047 299.00 227.31 17.29
1330 27.4090 3.251300 310.00 227.07 17.61
1331 27.4240 3.249556 313.00 226.82 17.69
1332 27.4390 3.247814 300.00 226.57 17.32
1333 27.4540 3.246073 308.00 226.32 17.55
1334 27.4690 3.244335 302.00 226.07 17.38
1335 27.4840 3.242598 277.00 225.82 16.64
1336 27.4990 3.240863 261.00 225.57 16.16
1337 27.5140 3.239130 254.00 225.32 15.94
1338 27.5290 3.237400 223.00 225.08 14.93
1339 27.5440 3.235671 244.00 224.83 15.62
1340 27.5590 3.233944 239.00 224.58 15.46
1341 27.5740 3.232219 218.00 224.34 14.76
1342 27.5890 3.230495 219.00 224.09 14.80
1343 27.6040 3.228774 198.00 223.84 14.07
1344 27.6190 3.227054 216.00 223.60 14.70
1345 27.6340 3.225337 226.00 223.83 15.03
1346 27.6490 3.223621 210.00 223.59 14.49
1347 27.6640 3.221907 220.00 223.36 14.83
1348 27.6790 3.220195 222.00 223.12 14.90
1349 27.6940 3.218485 254.00 222.88 15.94
1350 27.7090 3.216777 228.00 222.65 15.10
1351 27.7240 3.215070 223.00 222.41 14.93
1352 27.7390 3.213366 218.00 222.17 14.76
1353 27.7540 3.211663 222.00 221.94 14.90
1354 27.7690 3.209962 229.00 221.70 15.13
1355 27.7840 3.208263 217.00 221.47 14.73
1356 27.7990 3.206567 207.00 221.23 14.39
1357 27.8140 3.204871 214.00 221.00 14.63
1358 27.8290 3.203178 232.00 220.77 15.23
1359 27.8440 3.201486 225.00 220.53 15.00
1360 27.8590 3.199797 219.00 220.30 14.80
1361 27.8740 3.198109 213.00 220.07 14.59
1362 27.8890 3.196423 218.00 219.84 14.76
1363 27.9040 3.194739 219.00 219.61 14.80
1364 27.9190 3.193056 216.00 219.38 14.70
1365 27.9340 3.191375 210.00 219.15 14.49
1366 27.9490 3.189697 193.00 218.92 13.89
1367 27.9640 3.188020 195.00 218.69 13.96
1368 27.9790 3.186345 219.00 218.46 14.80
1369 27.9940 3.184672 218.00 218.24 14.76
1370 28.0090 3.183000 217.00 218.01 14.73
1371 28.0240 3.181330 222.00 217.78 14.90
1372 28.0390 3.179663 210.00 217.56 14.49
1373 28.0540 3.177997 204.00 217.34 14.28
1374 28.0690 3.176332 221.00 217.12 14.87
1375 28.0840 3.174670 203.00 216.92 14.25
1376 28.0990 3.173009 212.00 216.80 14.56
1377 28.1140 3.171350 229.00 216.94 15.13
1378 28.1290 3.169693 197.00 217.84 14.04
1379 28.1440 3.168038 200.00 220.65 14.14
1380 28.1590 3.166385 245.00 227.53 15.65
1381 28.1740 3.164733 254.00 241.97 15.94
1382 28.1890 3.163083 279.00 268.64 16.70
1383 28.2040 3.161435 343.00 312.71 18.52
1384 28.2190 3.159788 416.00 378.50 20.40
1385 28.2340 3.158144 497.00 467.05 22.29
1386 28.2490 3.156501 605.00 572.38 24.60
1387 28.2640 3.154860 704.00 677.78 26.53
1388 28.2790 3.153220 771.00 757.06 27.77
1389 28.2940 3.151583 710.00 783.63 26.65
1390 28.3090 3.149947 665.00 744.73 25.79
1391 28.3240 3.148313 581.00 650.44 24.10
1392 28.3390 3.146681 479.00 529.34 21.89
1393 28.3540 3.145050 428.00 413.49 20.69
1394 28.3690 3.143421 325.00 324.10 18.03
1395 28.3840 3.141794 228.00 266.63 15.10
1396 28.3990 3.140169 224.00 235.34 14.97
1397 28.4140 3.138545 200.00 220.72 14.14
1398 28.4290 3.136923 224.00 214.79 14.97
1399 28.4440 3.135303 205.00 212.62 14.32
1400 28.4590 3.133685 234.00 211.85 15.30
1401 28.4740 3.132068 226.00 211.51 15.03
1402 28.4890 3.130453 212.00 211.29 14.56
1403 28.5040 3.128839 225.00 211.09 15.00
1404 28.5190 3.127228 213.00 210.91 14.59
1405 28.5340 3.125618 207.00 210.73 14.39
1406 28.5490 3.124010 191.00 210.55 13.82
1407 28.5640 3.122404 208.00 210.38 14.42
1408 28.5790 3.120799 225.00 210.21 15.00
1409 28.5940 3.119196 213.00 210.04 14.59
1410 28.6090 3.117594 217.00 209.87 14.73
1411 28.6240 3.115995 229.00 209.71 15.13
1412 28.6390 3.114397 203.00 209.55 14.25
1413 28.6540 3.112801 215.00 209.40 14.66
1414 28.6690 3.111206 204.00 209.25 14.28
1415 28.6840 3.109613 218.00 209.11 14.76
1416 28.6990 3.108022 182.00 208.97 13.49
1417 28.7140 3.106432 219.00 208.83 14.80
1418 28.7290 3.104845 203.00 208.71 14.25
1419 28.7440 3.103259 209.00 208.58 14.46
1420 28.7590 3.101674 218.00 208.47 14.76
1421 28.7740 3.100091 195.00 208.36 13.96
1422 28.7890 3.098510 219.00 208.26 14.80
1423 28.8040 3.096931 208.00 208.17 14.42
1424 28.8190 3.095353 212.00 208.09 14.56
1425 28.8340 3.093776 222.00 208.01 14.90
1426 28.8490 3.092202 206.00 207.95 14.35
1427 28.8640 3.090629 212.00 207.90 14.56
1428 28.8790 3.089058 207.00 207.87 14.39
1429 28.8940 3.087488 211.00 207.84 14.53
1430 28.9090 3.085921 206.00 207.84 14.35
1431 28.9240 3.084354 194.00 207.85 13.93
1432 28.9390 3.082790 187.00 207.87 13.67
1433 28.9540 3.081227 201.00 207.92 14.18
1434 28.9690 3.079665 230.00 207.99 15.17
1435 28.9840 3.078106 236.00 208.09 15.36
1436 28.9990 3.076548 237.00 208.22 15.39
1437 29.0140 3.074991 219.00 208.37 14.80
1438 29.0290 3.073436 216.00 208.57 14.70
1439 29.0440 3.071883 217.00 208.80 14.73
1440 29.0590 3.070331 199.00 209.07 14.11
1441 29.0740 3.068782 199.00 209.40 14.11
1442 29.0890 3.067233 205.00 209.79 14.32
1443 29.1040 3.065687 204.00 210.24 14.28
1444 29.1190 3.064142 220.00 210.77 14.83
1445 29.1340 3.062598 217.00 211.39 14.73
1446 29.1490 3.061056 200.00 212.10 14.14
1447 29.1640 3.059516 216.00 212.94 14.70
1448 29.1790 3.057977 194.00 213.91 13.93
1449 29.1940 3.056440 197.00 215.05 14.04
1450 29.2090 3.054905 206.00 216.38 14.35
1451 29.2240 3.053370 223.00 217.95 14.93
1452 29.2390 3.051838 205.00 219.80 14.32
1453 29.2540 3.050308 221.00 222.01 14.87
1454 29.2690 3.048779 212.00 224.67 14.56
1455 29.2840 3.047251 201.00 227.91 14.18
1456 29.2990 3.045725 227.00 231.90 15.07
1457 29.3140 3.044201 213.00 236.91 14.59
1458 29.3290 3.042678 232.00 243.29 15.23
1459 29.3440 3.041157 226.00 251.47 15.03
1460 29.3590 3.039637 236.00 262.07 15.36
1461 29.3740 3.038119 239.00 275.77 15.46
1462 29.3890 3.036602 276.00 293.39 16.61
1463 29.4040 3.035088 298.00 315.69 17.26
1464 29.4190 3.033574 363.00 343.25 19.05
1465 29.4340 3.032062 396.00 376.11 19.90
1466 29.4490 3.030552 424.00 413.26 20.59
1467 29.4640 3.029043 510.00 452.39 22.58
1468 29.4790 3.027536 559.00 489.78 23.64
1469 29.4940 3.026030 609.00 520.34 24.68
1470 29.5090 3.024526 637.00 537.63 25.24
1471 29.5240 3.023024 586.00 535.96 24.21
1472 29.5390 3.021523 571.00 514.43 23.90
1473 29.5540 3.020023 532.00 478.42 23.07
1474 29.5690 3.018525 472.00 436.11 21.73
1475 29.5840 3.017029 415.00 394.34 20.37
1476 29.5990 3.015534 376.00 356.94 19.39
1477 29.6140 3.014041 308.00 325.37 17.55
1478 29.6290 3.012549 281.00 299.71 16.76
1479 29.6440 3.011059 275.00 279.45 16.58
1480 29.6590 3.009570 243.00 264.03 15.59
1481 29.6740 3.008083 261.00 253.54 16.16
1482 29.6890 3.006598 276.00 249.94 16.61
1483 29.7040 3.005113 283.00 259.19 16.82
1484 29.7190 3.003631 334.00 294.61 18.28
1485 29.7340 3.002150 429.00 380.19 20.71
1486 29.7490 3.000670 603.00 552.37 24.56
1487 29.7640 2.999192 942.00 857.00 30.69
1488 29.7790 2.997715 1508.00 1339.10 38.83
1489 29.7940 2.996240 2241.00 2022.61 47.34
1490 29.8090 2.994767 2916.00 2879.32 54.00
1491 29.8240 2.993294 3520.00 3799.96 59.33
1492 29.8390 2.991824 4392.00 4591.02 66.27
1493 29.8540 2.990355 4611.00 5026.97 67.90
1494 29.8690 2.988887 4443.00 4950.21 66.66
1495 29.8840 2.987421 3701.00 4362.17 60.84
1496 29.8990 2.985956 3115.00 3433.41 55.81
1497 29.9140 2.984493 2588.00 2420.57 50.87
1498 29.9290 2.983032 1655.00 1544.99 40.68
1499 29.9440 2.981572 867.00 916.79 29.44
1500 29.9590 2.980113 481.00 534.98 21.93
1501 29.9740 2.978656 251.00 335.87 15.84
1502 29.9890 2.977200 227.00 246.06 15.07
1503 30.0040 2.975746 208.00 210.69 14.42
1504 30.0190 2.974293 233.00 198.32 15.26
1505 30.0340 2.972842 219.00 194.27 14.80
1506 30.0490 2.971392 196.00 192.84 14.00
1507 30.0640 2.969944 199.00 192.12 14.11
1508 30.0790 2.968497 197.00 191.59 14.04
1509 30.0940 2.967051 215.00 191.11 14.66
1510 30.1090 2.965607 194.00 190.66 13.93
1511 30.1240 2.964164 195.00 190.23 13.96
1512 30.1390 2.962723 182.00 189.81 13.49
1513 30.1540 2.961284 185.00 189.41 13.60
1514 30.1690 2.959845 184.00 189.02 13.56
1515 30.1840 2.958409 198.00 188.65 14.07
1516 30.1990 2.956974 186.00 188.28 13.64
1517 30.2140 2.955539 168.00 187.93 12.96
1518 30.2290 2.954107 188.00 187.58 13.71
1519 30.2440 2.952676 170.00 187.25 13.04
1520 30.2590 2.951247 196.00 186.92 14.00
1521 30.2740 2.949819 201.00 186.60 14.18
1522 30.2890 2.948392 186.00 186.29 13.64
1523 30.3040 2.946966 193.00 185.98 13.89
1524 30.3190 2.945543 189.00 185.68 13.75
1525 30.3340 2.944121 184.00 185.39 13.56
1526 30.3490 2.942699 162.00 185.10 12.73
1527 30.3640 2.941280 176.00 184.81 13.27
1528 30.3790 2.939862 188.00 184.53 13.71
1529 30.3940 2.938445 179.00 184.26 13.38
1530 30.4090 2.937030 191.00 183.99 13.82
1531 30.4240 2.935616 199.00 183.72 14.11
1532 30.4390 2.934203 159.00 183.46 12.61
1533 30.4540 2.932792 168.00 183.20 12.96
1534 30.4690 2.931383 204.00 182.94 14.28
1535 30.4840 2.929974 195.00 182.68 13.96
1536 30.4990 2.928567 170.00 182.43 13.04
1537 30.5140 2.927162 171.00 182.18 13.08
1538 30.5290 2.925758 165.00 181.94 12.85
1539 30.5440 2.924355 192.00 181.69 13.86
1540 30.5590 2.922954 181.00 181.45 13.45
1541 30.5740 2.921554 185.00 181.21 13.60
1542 30.5890 2.920156 194.00 180.98 13.93
1543 30.6040 2.918759 164.00 180.74 12.81
1544 30.6190 2.917363 176.00 180.51 13.27
1545 30.6340 2.915968 204.00 180.28 14.28
1546 30.6490 2.914576 186.00 180.05 13.64
1547 30.6640 2.913184 191.00 179.82 13.82
1548 30.6790 2.911794 187.00 179.59 13.67
1549 30.6940 2.910405 173.00 179.37 13.15
1550 30.7090 2.909018 170.00 179.15 13.04
1551 30.7240 2.907631 193.00 178.92 13.89
1552 30.7390 2.906247 166.00 178.70 12.88
1553 30.7540 2.904864 179.00 178.48 13.38
1554 30.7690 2.903481 175.00 178.27 13.23
1555 30.7840 2.902101 206.00 178.05 14.35
1556 30.7990 2.900722 187.00 177.83 13.67
1557 30.8140 2.899344 166.00 177.62 12.88
1558 30.8290 2.897967 171.00 177.41 13.08
1559 30.8440 2.896592 187.00 177.20 13.67
1560 30.8590 2.895219 169.00 176.98 13.00
1561 30.8740 2.893846 182.00 176.77 13.49
1562 30.8890 2.892475 190.00 176.57 13.78
1563 30.9040 2.891105 168.00 176.36 12.96
1564 30.9190 2.889737 154.00 176.15 12.41
1565 30.9340 2.888370 163.00 175.94 12.77
1566 30.9490 2.887004 159.00 175.74 12.61
1567 30.9640 2.885639 182.00 175.53 13.49
1568 30.9790 2.884277 160.00 175.33 12.65
1569 30.9940 2.882915 171.00 175.13 13.08
1570 31.0090 2.881554 189.00 174.93 13.75
1571 31.0240 2.880195 199.00 174.72 14.11
1572 31.0390 2.878838 181.00 174.52 13.45
1573 31.0540 2.877481 171.00 174.32 13.08
1574 31.0690 2.876126 171.00 174.12 13.08
1575 31.0840 2.874773 185.00 173.93 13.60
1576 31.0990 2.873420 164.00 173.73 12.81
1577 31.1140 2.872069 169.00 173.54 13.00
1578 31.1290 2.870719 180.00 173.36 13.42
1579 31.1440 2.869371 172.00 173.27 13.11
1580 31.1590 2.868024 176.00 173.45 13.27
1581 31.1740 2.866678 185.00 174.51 13.60
1582 31.1890 2.865334 169.00 178.07 13.00
1583 31.2040 2.863990 199.00 187.77 14.11
1584 31.2190 2.862648 231.00 210.84 15.20
1585 31.2340 2.861308 285.00 259.54 16.88
1586 31.2490 2.859968 397.00 351.64 19.92
1587 31.2640 2.858630 570.00 508.12 23.87
1588 31.2790 2.857294 879.00 746.86 29.65
1589 31.2940 2.855958 1260.00 1071.36 35.50
1590 31.3090 2.854624 1538.00 1457.14 39.22
1591 31.3240 2.853292 1809.00 1843.18 42.53
1592 31.3390 2.851960 2017.00 2140.69 44.91
1593 31.3540 2.850630 2095.00 2262.62 45.77
1594 31.3690 2.849301 2031.00 2164.22 45.07
1595 31.3840 2.847973 1730.00 1868.63 41.59
1596 31.3990 2.846647 1528.00 1459.99 39.09
1597 31.4140 2.845322 1404.00 1041.20 37.47
1598 31.4290 2.843998 976.00 692.27 31.24
1599 31.4440 2.842675 468.00 447.35 21.63
1600 31.4590 2.841354 274.00 300.11 16.55
1601 31.4740 2.840034 202.00 223.48 14.21
1602 31.4890 2.838716 165.00 188.71 12.85
1603 31.5040 2.837399 176.00 174.86 13.27
1604 31.5190 2.836082 184.00 169.95 13.56
1605 31.5340 2.834767 188.00 168.33 13.71
1606 31.5490 2.833454 177.00 167.77 13.30
1607 31.5640 2.832142 167.00 167.51 12.92
1608 31.5790 2.830830 147.00 167.32 12.12
1609 31.5940 2.829521 155.00 167.14 12.45
1610 31.6090 2.828212 162.00 166.96 12.73
1611 31.6240 2.826905 175.00 166.79 13.23
1612 31.6390 2.825599 153.00 166.62 12.37
1613 31.6540 2.824294 193.00 166.45 13.89
1614 31.6690 2.822990 170.00 166.27 13.04
1615 31.6840 2.821688 159.00 166.10 12.61
1616 31.6990 2.820387 167.00 165.93 12.92
1617 31.7140 2.819087 158.00 165.76 12.57
1618 31.7290 2.817789 176.00 165.59 13.27
1619 31.7440 2.816492 163.00 165.42 12.77
1620 31.7590 2.815196 167.00 165.25 12.92
1621 31.7740 2.813901 157.00 165.08 12.53
1622 31.7890 2.812607 146.00 164.91 12.08
1623 31.8040 2.811315 166.00 164.74 12.88
1624 31.8190 2.810024 166.00 164.57 12.88
1625 31.8340 2.808734 153.00 164.40 12.37
1626 31.8490 2.807445 170.00 164.23 13.04
1627 31.8640 2.806158 153.00 164.06 12.37
1628 31.8790 2.804872 162.00 163.90 12.73
1629 31.8940 2.803587 165.00 163.73 12.85
1630 31.9090 2.802303 156.00 163.56 12.49
1631 31.9240 2.801021 137.00 163.39 11.70
1632 31.9390 2.799740 159.00 163.23 12.61
1633 31.9540 2.798459 160.00 163.06 12.65
1634 31.9690 2.797180 156.00 162.90 12.49
1635 31.9840 2.795903 156.00 162.73 12.49
1636 31.9990 2.794626 137.00 162.56 11.70
1637 32.0140 2.793351 173.00 162.40 13.15
1638 32.0290 2.792077 170.00 162.24 13.04
1639 32.0440 2.790805 165.00 162.07 12.85
1640 32.0590 2.789533 167.00 161.91 12.92
1641 32.0740 2.788263 157.00 161.74 12.53
1642 32.0890 2.786994 172.00 161.58 13.11
1643 32.1040 2.785726 167.00 161.42 12.92
1644 32.1190 2.784459 169.00 161.26 13.00
1645 32.1340 2.783193 155.00 161.09 12.45
1646 32.1490 2.781929 168.00 160.93 12.96
1647 32.1640 2.780665 160.00 160.77 12.65
1648 32.1790 2.779404 165.00 160.61 12.85
1649 32.1940 2.778143 166.00 160.45 12.88
1650 32.2090 2.776884 167.00 160.29 12.92
1651 32.2240 2.775625 168.00 160.13 12.96
1652 32.2390 2.774368 166.00 159.97 12.88
1653 32.2540 2.773112 171.00 159.81 13.08
1654 32.2690 2.771857 163.00 159.65 12.77
1655 32.2840 2.770603 143.00 159.49 11.96
1656 32.2990 2.769351 158.00 159.33 12.57
1657 32.3140 2.768100 166.00 159.17 12.88
1658 32.3290 2.766850 157.00 159.01 12.53
1659 32.3440 2.765600 172.00 158.86 13.11
1660 32.3590 2.764353 159.00 158.70 12.61
1661 32.3740 2.763106 161.00 158.54 12.69
1662 32.3890 2.761861 158.00 158.39 12.57
1663 32.4040 2.760617 153.00 158.23 12.37
1664 32.4190 2.759374 151.00 158.07 12.29
1665 32.4340 2.758132 144.00 157.92 12.00
1666 32.4490 2.756891 162.00 157.76 12.73
1667 32.4640 2.755651 176.00 157.61 13.27
1668 32.4790 2.754413 144.00 157.45 12.00
1669 32.4940 2.753175 147.00 157.30 12.12
1670 32.5090 2.751940 146.00 157.15 12.08
1671 32.5240 2.750705 159.00 156.99 12.61
1672 32.5390 2.749471 133.00 156.84 11.53
1673 32.5540 2.748238 169.00 156.69 13.00
1674 32.5690 2.747007 160.00 156.55 12.65
1675 32.5840 2.745776 164.00 156.43 12.81
1676 32.5990 2.744547 155.00 156.41 12.45
1677 32.6140 2.743319 165.00 156.68 12.85
1678 32.6290 2.742092 164.00 157.67 12.81
1679 32.6440 2.740866 153.00 160.36 12.37
1680 32.6590 2.739642 175.00 166.50 13.23
1681 32.6740 2.738419 169.00 178.91 13.00
1682 32.6890 2.737196 197.00 201.38 14.04
1683 32.7040 2.735975 231.00 237.85 15.20
1684 32.7190 2.734755 285.00 290.74 16.88
1685 32.7340 2.733536 362.00 358.47 19.03
1686 32.7490 2.732318 486.00 433.24 22.05
1687 32.7640 2.731102 520.00 500.98 22.80
1688 32.7790 2.729886 512.00 544.78 22.63
1689 32.7940 2.728672 522.00 551.44 22.85
1690 32.8090 2.727458 473.00 517.82 21.75
1691 32.8240 2.726246 442.00 452.92 21.02
1692 32.8390 2.725035 422.00 373.94 20.54
1693 32.8540 2.723825 367.00 298.62 19.16
1694 32.8690 2.722616 234.00 238.79 15.30
1695 32.8840 2.721409 192.00 198.15 13.86
1696 32.8990 2.720202 169.00 174.21 13.00
1697 32.9140 2.718997 181.00 161.85 13.45
1698 32.9290 2.717792 163.00 156.22 12.77
1699 32.9440 2.716589 160.00 153.90 12.65
1700 32.9590 2.715387 144.00 153.00 12.00
1701 32.9740 2.714186 164.00 152.62 12.81
1702 32.9890 2.712986 140.00 152.41 11.83
1703 33.0040 2.711787 142.00 152.25 11.92
1704 33.0190 2.710590 171.00 152.11 13.08
1705 33.0340 2.709393 163.00 151.96 12.77
1706 33.0490 2.708198 145.00 151.82 12.04
1707 33.0640 2.707004 155.00 151.68 12.45
1708 33.0790 2.705810 147.00 151.54 12.12
1709 33.0940 2.704618 142.00 151.40 11.92
1710 33.1090 2.703427 133.00 151.26 11.53
1711 33.1240 2.702237 137.00 151.12 11.70
1712 33.1390 2.701048 163.00 150.98 12.77
1713 33.1540 2.699860 143.00 150.84 11.96
1714 33.1690 2.698674 143.00 150.70 11.96
1715 33.1840 2.697488 140.00 150.56 11.83
1716 33.1990 2.696303 149.00 150.42 12.21
1717 33.2140 2.695120 143.00 150.28 11.96
1718 33.2290 2.693938 138.00 150.14 11.75
1719 33.2440 2.692757 132.00 150.00 11.49
1720 33.2590 2.691576 132.00 149.87 11.49
1721 33.2740 2.690397 150.00 149.73 12.25
1722 33.2890 2.689219 169.00 149.59 13.00
1723 33.3040 2.688042 141.00 149.46 11.87
1724 33.3190 2.686866 136.00 149.32 11.66
1725 33.3340 2.685692 132.00 149.18 11.49
1726 33.3490 2.684518 137.00 149.05 11.70
1727 33.3640 2.683346 144.00 148.91 12.00
1728 33.3790 2.682174 150.00 148.78 12.25
1729 33.3940 2.681003 154.00 148.64 12.41
1730 33.4090 2.679834 154.00 148.51 12.41
1731 33.4240 2.678665 137.00 148.37 11.70
1732 33.4390 2.677498 125.00 148.24 11.18
1733 33.4540 2.676332 132.00 148.11 11.49
1734 33.4690 2.675166 138.00 147.97 11.75
1735 33.4840 2.674002 139.00 147.84 11.79
1736 33.4990 2.672839 141.00 147.71 11.87
1737 33.5140 2.671678 140.00 147.58 11.83
1738 33.5290 2.670516 142.00 147.44 11.92
1739 33.5440 2.669357 142.00 147.31 11.92
1740 33.5590 2.668198 150.00 147.18 12.25
1741 33.5740 2.667040 153.00 147.05 12.37
1742 33.5890 2.665883 133.00 146.92 11.53
1743 33.6040 2.664727 128.00 146.79 11.31
1744 33.6190 2.663573 132.00 146.66 11.49
1745 33.6340 2.662419 151.00 146.53 12.29
1746 33.6490 2.661267 125.00 146.40 11.18
1747 33.6640 2.660115 130.00 146.27 11.40
1748 33.6790 2.658965 148.00 146.14 12.17
1749 33.6940 2.657815 159.00 146.01 12.61
1750 33.7090 2.656667 154.00 145.89 12.41
1751 33.7240 2.655520 152.00 145.76 12.33
1752 33.7390 2.654373 157.00 145.63 12.53
1753 33.7540 2.653228 145.00 145.51 12.04
1754 33.7690 2.652083 132.00 145.38 11.49
1755 33.7840 2.650940 139.00 145.25 11.79
1756 33.7990 2.649798 143.00 145.13 11.96
1757 33.8140 2.648657 133.00 145.00 11.53
1758 33.8290 2.647517 141.00 144.88 11.87
1759 33.8440 2.646378 153.00 144.75 12.37
1760 33.8590 2.645240 119.00 144.62 10.91
1761 33.8740 2.644103 135.00 144.50 11.62
1762 33.8890 2.642967 163.00 144.38 12.77
1763 33.9040 2.641831 149.00 144.25 12.21
1764 33.9190 2.640697 148.00 144.13 12.17
1765 33.9340 2.639565 130.00 144.01 11.40
1766 33.9490 2.638433 126.00 143.88 11.23
1767 33.9640 2.637302 134.00 143.77 11.58
1768 33.9790 2.636172 140.00 143.66 11.83
1769 33.9940 2.635043 145.00 143.59 12.04
1770 34.0090 2.633915 125.00 143.61 11.18
1771 34.0240 2.632788 143.00 143.82 11.96
1772 34.0390 2.631662 163.00 144.43 12.77
1773 34.0540 2.630537 152.00 145.77 12.33
1774 34.0690 2.629413 137.00 148.24 11.70
1775 34.0840 2.628290 134.00 152.29 11.58
1776 34.0990 2.627169 155.00 158.17 12.45
1777 34.1140 2.626048 145.00 165.66 12.04
1778 34.1290 2.624928 156.00 173.88 12.49
1779 34.1440 2.623809 169.00 181.30 13.00
1780 34.1590 2.622691 166.00 186.08 12.88
1781 34.1740 2.621574 176.00 186.84 13.27
1782 34.1890 2.620459 173.00 183.22 13.15
1783 34.2040 2.619344 178.00 176.15 13.34
1784 34.2190 2.618229 175.00 167.42 13.23
1785 34.2340 2.617116 145.00 158.90 12.04
1786 34.2490 2.616005 151.00 151.95 12.29
1787 34.2640 2.614894 149.00 147.05 12.21
1788 34.2790 2.613784 145.00 144.02 12.04
1789 34.2940 2.612675 136.00 142.35 11.66
1790 34.3090 2.611567 135.00 141.50 11.62
1791 34.3240 2.610460 141.00 141.08 11.87
1792 34.3390 2.609354 135.00 140.85 11.62
1793 34.3540 2.608249 138.00 140.70 11.75
1794 34.3690 2.607145 136.00 140.57 11.66
1795 34.3840 2.606042 154.00 140.45 12.41
1796 34.3990 2.604940 133.00 140.34 11.53
1797 34.4140 2.603839 135.00 140.23 11.62
1798 34.4290 2.602739 128.00 140.11 11.31
1799 34.4440 2.601640 132.00 140.00 11.49
1800 34.4590 2.600541 148.00 139.89 12.17
1801 34.4740 2.599444 127.00 139.77 11.27
1802 34.4890 2.598348 120.00 139.66 10.95
1803 34.5040 2.597253 155.00 139.55 12.45
1804 34.5190 2.596159 146.00 139.44 12.08
1805 34.5340 2.595065 147.00 139.33 12.12
1806 34.5490 2.593973 153.00 139.22 12.37
1807 34.5640 2.592881 143.00 139.11 11.96
1808 34.5790 2.591791 127.00 139.00 11.27
1809 34.5940 2.590701 112.00 138.89 10.58
1810 34.6090 2.589613 148.00 138.78 12.17
1811 34.6240 2.588525 143.00 138.67 11.96
1812 34.6390 2.587439 146.00 138.56 12.08
1813 34.6540 2.586353 132.00 138.45 11.49
1814 34.6690 2.585268 120.00 138.35 10.95
1815 34.6840 2.584185 138.00 138.24 11.75
1816 34.6990 2.583102 131.00 138.13 11.45
1817 34.7140 2.582020 136.00 138.02 11.66
1818 34.7290 2.580939 140.00 137.91 11.83
1819 34.7440 2.579859 146.00 137.81 12.08
1820 34.7590 2.578780 122.00 137.70 11.05
1821 34.7740 2.577703 152.00 137.60 12.33
1822 34.7890 2.576625 141.00 137.49 11.87
1823 34.8040 2.575549 152.00 137.38 12.33
1824 34.8190 2.574474 149.00 137.28 12.21
1825 34.8340 2.573400 142.00 137.17 11.92
1826 34.8490 2.572326 133.00 137.07 11.53
1827 34.8640 2.571254 129.00 136.96 11.36
1828 34.8790 2.570182 127.00 136.86 11.27
1829 34.8940 2.569112 129.00 136.76 11.36
1830 34.9090 2.568042 138.00 136.65 11.75
1831 34.9240 2.566974 132.00 136.55 11.49
1832 34.9390 2.565906 138.00 136.45 11.75
1833 34.9540 2.564839 139.00 136.35 11.79
1834 34.9690 2.563773 124.00 136.24 11.14
1835 34.9840 2.562708 138.00 136.14 11.75
1836 34.9990 2.561644 142.00 136.04 11.92
1837 35.0140 2.560581 133.00 135.94 11.53
1838 35.0290 2.559519 147.00 135.84 12.12
1839 35.0440 2.558458 148.00 135.74 12.17
1840 35.0590 2.557398 142.00 135.63 11.92
1841 35.0740 2.556338 129.00 135.53 11.36
1842 35.0890 2.555280 137.00 135.43 11.70
1843 35.1040 2.554222 140.00 135.33 11.83
1844 35.1190 2.553166 147.00 135.24 12.12
1845 35.1340 2.552110 156.00 135.14 12.49
1846 35.1490 2.551055 129.00 135.04 11.36
1847 35.1640 2.550001 127.00 134.94 11.27
1848 35.1790 2.548948 162.00 134.84 12.73
1849 35.1940 2.547896 156.00 134.74 12.49
1850 35.2090 2.546845 127.00 134.64 11.27
1851 35.2240 2.545795 144.00 134.55 12.00
1852 35.2390 2.544746 133.00 134.45 11.53
1853 35.2540 2.543697 144.00 134.36 12.00
1854 35.2690 2.542650 149.00 134.29 12.21
1855 35.2840 2.541603 139.00 134.30 11.79
1856 35.2990 2.540558 125.00 134.57 11.18
1857 35.3140 2.539513 137.00 135.65 11.70
1858 35.3290 2.538469 145.00 138.90 12.04
1859 35.3440 2.537426 145.00 147.48 12.04
1860 35.3590 2.536384 182.00 167.71 13.49
1861 35.3740 2.535343 228.00 210.78 15.10
1862 35.3890 2.534302 272.00 293.66 16.49
1863 35.4040 2.533263 418.00 437.79 20.44
1864 35.4190 2.532225 691.00 663.36 26.29
1865 35.4340 2.531187 1041.00 978.72 32.26
1866 35.4490 2.530150 1429.00 1367.55 37.80
1867 35.4640 2.529115 1912.00 1779.94 43.73
1868 35.4790 2.528080 2204.00 2137.43 46.95
1869 35.4940 2.527046 2389.00 2354.31 48.88
1870 35.5090 2.526013 2203.00 2370.22 46.94
1871 35.5240 2.524980 1932.00 2177.12 43.95
1872 35.5390 2.523949 1720.00 1824.68 41.47
1873 35.5540 2.522918 1615.00 1399.47 40.19
1874 35.5690 2.521889 1239.00 989.67 35.20
1875 35.5840 2.520860 756.00 656.03 27.50
1876 35.5990 2.519833 416.00 420.90 20.40
1877 35.6140 2.518806 228.00 275.62 15.10
1878 35.6290 2.517779 154.00 196.33 12.41
1879 35.6440 2.516754 149.00 157.89 12.21
1880 35.6590 2.515730 140.00 141.28 11.83
1881 35.6740 2.514707 122.00 134.85 11.05
1882 35.6890 2.513684 131.00 132.58 11.45
1883 35.7040 2.512662 133.00 131.82 11.53
1884 35.7190 2.511642 137.00 131.54 11.70
1885 35.7340 2.510622 132.00 131.41 11.49
1886 35.7490 2.509603 132.00 131.31 11.49
1887 35.7640 2.508584 135.00 131.22 11.62
1888 35.7790 2.507567 130.00 131.13 11.40
1889 35.7940 2.506551 140.00 131.05 11.83
1890 35.8090 2.505535 132.00 130.96 11.49
1891 35.8240 2.504520 126.00 130.87 11.23
1892 35.8390 2.503506 129.00 130.79 11.36
1893 35.8540 2.502493 130.00 130.70 11.40
1894 35.8690 2.501481 131.00 130.62 11.45
1895 35.8840 2.500470 141.00 130.53 11.87
1896 35.8990 2.499460 143.00 130.45 11.96
1897 35.9140 2.498450 147.00 130.36 12.12
1898 35.9290 2.497441 141.00 130.28 11.87
1899 35.9440 2.496433 141.00 130.19 11.87
1900 35.9590 2.495427 141.00 130.11 11.87
1901 35.9740 2.494421 136.00 130.02 11.66
1902 35.9890 2.493415 140.00 129.94 11.83
1903 36.0040 2.492411 141.00 129.86 11.87
1904 36.0190 2.491407 132.00 129.77 11.49
1905 36.0340 2.490404 138.00 129.69 11.75
1906 36.0490 2.489403 135.00 129.61 11.62
1907 36.0640 2.488402 136.00 129.52 11.66
1908 36.0790 2.487401 146.00 129.44 12.08
1909 36.0940 2.486402 136.00 129.36 11.66
1910 36.1090 2.485404 124.00 129.28 11.14
1911 36.1240 2.484406 123.00 129.20 11.09
1912 36.1390 2.483409 138.00 129.12 11.75
1913 36.1540 2.482413 152.00 129.04 12.33
1914 36.1690 2.481418 130.00 128.96 11.40
1915 36.1840 2.480424 122.00 128.88 11.05
1916 36.1990 2.479430 138.00 128.79 11.75
1917 36.2140 2.478438 157.00 128.71 12.53
1918 36.2290 2.477446 125.00 128.64 11.18
1919 36.2440 2.476455 139.00 128.56 11.79
1920 36.2590 2.475465 162.00 128.48 12.73
1921 36.2740 2.474476 160.00 128.40 12.65
1922 36.2890 2.473487 135.00 128.32 11.62
1923 36.3040 2.472500 145.00 128.24 12.04
1924 36.3190 2.471513 149.00 128.16 12.21
1925 36.3340 2.470527 133.00 128.09 11.53
1926 36.3490 2.469542 132.00 128.01 11.49
1927 36.3640 2.468558 147.00 127.93 12.12
1928 36.3790 2.467574 125.00 127.85 11.18
1929 36.3940 2.466592 130.00 127.78 11.40
1930 36.4090 2.465610 127.00 127.70 11.27
1931 36.4240 2.464629 144.00 127.62 12.00
1932 36.4390 2.463649 142.00 127.55 11.92
1933 36.4540 2.462670 128.00 127.47 11.31
1934 36.4690 2.461691 115.00 127.39 10.72
1935 36.4840 2.460713 144.00 127.32 12.00
1936 36.4990 2.459736 123.00 127.25 11.09
1937 36.5140 2.458760 110.00 127.17 10.49
1938 36.5290 2.457785 124.00 127.10 11.14
1939 36.5440 2.456811 139.00 127.02 11.79
1940 36.5590 2.455837 117.00 126.95 10.82
1941 36.5740 2.454864 113.00 126.87 10.63
1942 36.5890 2.453892 112.00 126.80 10.58
1943 36.6040 2.452921 132.00 126.72 11.49
1944 36.6190 2.451951 126.00 126.65 11.23
1945 36.6340 2.450981 125.00 126.58 11.18
1946 36.6490 2.450013 115.00 126.51 10.72
1947 36.6640 2.449044 124.00 126.43 11.14
1948 36.6790 2.448077 120.00 126.36 10.95
1949 36.6940 2.447111 119.00 126.29 10.91
1950 36.7090 2.446146 130.00 126.22 11.40
1951 36.7240 2.445181 135.00 126.14 11.62
1952 36.7390 2.444217 118.00 126.07 10.86
1953 36.7540 2.443254 119.00 126.00 10.91
1954 36.7690 2.442291 132.00 125.93 11.49
1955 36.7840 2.441330 125.00 125.86 11.18
1956 36.7990 2.440369 123.00 125.79 11.09
1957 36.8140 2.439409 119.00 125.72 10.91
1958 36.8290 2.438450 137.00 125.65 11.70
1959 36.8440 2.437492 119.00 125.58 10.91
1960 36.8590 2.436534 127.00 125.51 11.27
1961 36.8740 2.435578 125.00 125.44 11.18
1962 36.8890 2.434622 101.00 125.37 10.05
1963 36.9040 2.433666 150.00 125.30 12.25
1964 36.9190 2.432712 126.00 125.23 11.23
1965 36.9340 2.431759 111.00 125.17 10.54
1966 36.9490 2.430806 110.00 125.10 10.49
1967 36.9640 2.429854 141.00 125.03 11.87
1968 36.9790 2.428903 141.00 124.96 11.87
1969 36.9940 2.427952 129.00 124.89 11.36
1970 37.0090 2.427003 126.00 124.83 11.23
1971 37.0240 2.426054 138.00 124.76 11.75
1972 37.0390 2.425106 125.00 124.69 11.18
1973 37.0540 2.424158 130.00 124.62 11.40
1974 37.0690 2.423212 122.00 124.56 11.05
1975 37.0840 2.422266 134.00 124.49 11.58
1976 37.0990 2.421321 136.00 124.43 11.66
1977 37.1140 2.420377 128.00 124.36 11.31
1978 37.1290 2.419434 121.00 124.29 11.00
1979 37.1440 2.418491 134.00 124.23 11.58
1980 37.1590 2.417549 139.00 124.16 11.79
1981 37.1740 2.416608 144.00 124.10 12.00
1982 37.1890 2.415668 130.00 124.03 11.40
1983 37.2040 2.414729 124.00 123.97 11.14
1984 37.2190 2.413790 120.00 123.90 10.95
1985 37.2340 2.412852 115.00 123.84 10.72
1986 37.2490 2.411915 113.00 123.78 10.63
1987 37.2640 2.410978 117.00 123.71 10.82
1988 37.2790 2.410043 135.00 123.65 11.62
1989 37.2940 2.409107 135.00 123.59 11.62
1990 37.3090 2.408174 123.00 123.52 11.09
1991 37.3240 2.407240 118.00 123.46 10.86
1992 37.3390 2.406307 104.00 123.40 10.20
1993 37.3540 2.405376 120.00 123.33 10.95
1994 37.3690 2.404445 118.00 123.27 10.86
1995 37.3840 2.403514 117.00 123.21 10.82
1996 37.3990 2.402585 115.00 123.15 10.72
1997 37.4140 2.401656 138.00 123.09 11.75
1998 37.4290 2.400728 127.00 123.03 11.27
1999 37.4440 2.399801 129.00 122.96 11.36
2000 37.4590 2.398874 129.00 122.90 11.36
2001 37.4740 2.397948 110.00 122.84 10.49
2002 37.4890 2.397023 104.00 122.78 10.20
2003 37.5040 2.396099 113.00 122.72 10.63
2004 37.5190 2.395175 131.00 122.66 11.45
2005 37.5340 2.394253 114.00 122.60 10.68
2006 37.5490 2.393331 113.00 122.54 10.63
2007 37.5640 2.392410 113.00 122.48 10.63
2008 37.5790 2.391489 120.00 122.42 10.95
2009 37.5940 2.390569 116.00 122.36 10.77
2010 37.6090 2.389650 120.00 122.30 10.95
2011 37.6240 2.388732 130.00 122.24 11.40
2012 37.6390 2.387815 129.00 122.18 11.36
2013 37.6540 2.386898 115.00 122.13 10.72
2014 37.6690 2.385982 115.00 122.07 10.72
2015 37.6840 2.385067 123.00 122.01 11.09
2016 37.6990 2.384152 110.00 121.95 10.49
2017 37.7140 2.383238 122.00 121.89 11.05
2018 37.7290 2.382325 112.00 121.84 10.58
2019 37.7440 2.381413 111.00 121.78 10.54
2020 37.7590 2.380501 131.00 121.72 11.45
2021 37.7740 2.379591 117.00 121.67 10.82
2022 37.7890 2.378680 122.00 121.61 11.05
2023 37.8040 2.377771 137.00 121.56 11.70
2024 37.8190 2.376863 109.00 121.51 10.44
2025 37.8340 2.375955 97.00 121.49 9.85
2026 37.8490 2.375048 119.00 121.54 10.91
2027 37.8640 2.374141 138.00 121.78 11.75
2028 37.8790 2.373235 129.00 122.51 11.36
2029 37.8940 2.372330 139.00 124.30 11.79
2030 37.9090 2.371426 128.00 128.23 11.31
2031 37.9240 2.370523 121.00 135.98 11.00
2032 37.9390 2.369620 129.00 149.87 11.36
2033 37.9540 2.368718 155.00 172.34 12.45
2034 37.9690 2.367816 209.00 205.06 14.46
2035 37.9840 2.366916 265.00 247.55 16.28
2036 37.9990 2.366016 269.00 295.97 16.40
2037 38.0140 2.365117 365.00 342.95 19.10
2038 38.0290 2.364219 368.00 379.02 19.18
2039 38.0440 2.363321 371.00 395.58 19.26
2040 38.0590 2.362424 394.00 388.18 19.85
2041 38.0740 2.361528 430.00 358.48 20.74
2042 38.0890 2.360632 384.00 313.61 19.60
2043 38.1040 2.359737 291.00 263.40 17.06
2044 38.1190 2.358844 287.00 216.85 16.94
2045 38.1340 2.357950 265.00 179.63 16.28
2046 38.1490 2.357057 180.00 153.48 13.42
2047 38.1640 2.356165 132.00 137.15 11.49
2048 38.1790 2.355274 132.00 128.03 11.49
2049 38.1940 2.354384 118.00 123.45 10.86
2050 38.2090 2.353494 120.00 121.36 10.95
2051 38.2240 2.352605 132.00 120.48 11.49
2052 38.2390 2.351717 114.00 120.13 10.68
2053 38.2540 2.350829 103.00 119.98 10.15
2054 38.2690 2.349942 101.00 119.90 10.05
2055 38.2840 2.349056 116.00 119.84 10.77
2056 38.2990 2.348170 134.00 119.79 11.58
2057 38.3140 2.347285 124.00 119.73 11.14
2058 38.3290 2.346401 117.00 119.68 10.82
2059 38.3440 2.345518 128.00 119.63 11.31
2060 38.3590 2.344635 124.00 119.58 11.14
2061 38.3740 2.343753 108.00 119.53 10.39
2062 38.3890 2.342872 110.00 119.48 10.49
2063 38.4040 2.341991 126.00 119.43 11.23
2064 38.4190 2.341111 128.00 119.39 11.31
2065 38.4340 2.340232 119.00 119.33 10.91
2066 38.4490 2.339354 118.00 119.29 10.86
2067 38.4640 2.338476 102.00 119.24 10.10
2068 38.4790 2.337599 118.00 119.19 10.86
2069 38.4940 2.336723 112.00 119.14 10.58
2070 38.5090 2.335847 129.00 119.09 11.36
2071 38.5240 2.334972 119.00 119.04 10.91
2072 38.5390 2.334097 140.00 119.00 11.83
2073 38.5540 2.333224 93.00 118.95 9.64
2074 38.5690 2.332351 99.00 118.90 9.95
2075 38.5840 2.331479 107.00 118.85 10.34
2076 38.5990 2.330607 124.00 118.80 11.14
2077 38.6140 2.329736 120.00 118.76 10.95
2078 38.6290 2.328866 108.00 118.71 10.39
2079 38.6440 2.327997 111.00 118.66 10.54
2080 38.6590 2.327128 113.00 118.61 10.63
2081 38.6740 2.326260 127.00 118.57 11.27
2082 38.6890 2.325392 115.00 118.52 10.72
2083 38.7040 2.324526 127.00 118.47 11.27
2084 38.7190 2.323660 102.00 118.43 10.10
2085 38.7340 2.322794 114.00 118.38 10.68
2086 38.7490 2.321930 120.00 118.34 10.95
2087 38.7640 2.321066 130.00 118.29 11.40
2088 38.7790 2.320202 121.00 118.24 11.00
2089 38.7940 2.319340 125.00 118.20 11.18
2090 38.8090 2.318478 123.00 118.15 11.09
2091 38.8240 2.317616 120.00 118.11 10.95
2092 38.8390 2.316756 120.00 118.06 10.95
2093 38.8540 2.315896 112.00 118.02 10.58
2094 38.8690 2.315037 108.00 117.97 10.39
2095 38.8840 2.314178 112.00 117.93 10.58
2096 38.8990 2.313321 118.00 117.88 10.86
2097 38.9140 2.312463 123.00 117.84 11.09
2098 38.9290 2.311607 114.00 117.79 10.68
2099 38.9440 2.310751 111.00 117.75 10.54
2100 38.9590 2.309896 114.00 117.71 10.68
2101 38.9740 2.309042 106.00 117.66 10.30
2102 38.9890 2.308188 131.00 117.62 11.45
2103 39.0040 2.307334 137.00 117.58 11.70
2104 39.0190 2.306482 130.00 117.54 11.40
2105 39.0340 2.305630 123.00 117.52 11.09
2106 39.0490 2.304779 120.00 117.55 10.95
2107 39.0640 2.303929 141.00 117.73 11.87
2108 39.0790 2.303079 120.00 118.32 10.95
2109 39.0940 2.302230 110.00 119.91 10.49
2110 39.1090 2.301381 131.00 123.72 11.45
2111 39.1240 2.300533 141.00 131.99 11.87
2112 39.1390 2.299686 148.00 148.32 12.17
2113 39.1540 2.298840 170.00 177.67 13.04
2114 39.1690 2.297994 215.00 225.58 14.66
2115 39.1840 2.297149 346.00 296.22 18.60
2116 39.1990 2.296304 441.00 389.63 21.00
2117 39.2140 2.295460 632.00 498.82 25.14
2118 39.2290 2.294617 683.00 608.97 26.13
2119 39.2440 2.293775 733.00 699.72 27.07
2120 39.2590 2.292933 844.00 750.89 29.05
2121 39.2740 2.292092 870.00 749.79 29.50
2122 39.2890 2.291251 796.00 696.21 28.21
2123 39.3040 2.290411 683.00 602.78 26.13
2124 39.3190 2.289572 621.00 490.05 24.92
2125 39.3340 2.288733 539.00 379.12 23.22
2126 39.3490 2.287895 401.00 285.40 20.02
2127 39.3640 2.287058 249.00 215.82 15.78
2128 39.3790 2.286222 151.00 169.88 12.29
2129 39.3940 2.285386 101.00 142.68 10.05
2130 39.4090 2.284550 125.00 128.20 11.18
2131 39.4240 2.283716 128.00 121.22 11.31
2132 39.4390 2.282882 124.00 118.17 11.14
2133 39.4540 2.282048 115.00 116.94 10.72
2134 39.4690 2.281215 107.00 116.48 10.34
2135 39.4840 2.280383 120.00 116.30 10.95
2136 39.4990 2.279552 106.00 116.22 10.30
2137 39.5140 2.278721 114.00 116.17 10.68
2138 39.5290 2.277891 104.00 116.13 10.20
2139 39.5440 2.277062 102.00 116.09 10.10
2140 39.5590 2.276233 116.00 116.05 10.77
2141 39.5740 2.275404 116.00 116.01 10.77
2142 39.5890 2.274577 104.00 115.97 10.20
2143 39.6040 2.273750 111.00 115.93 10.54
2144 39.6190 2.272924 129.00 115.90 11.36
2145 39.6340 2.272098 138.00 115.86 11.75
2146 39.6490 2.271273 118.00 115.82 10.86
2147 39.6640 2.270449 114.00 115.78 10.68
2148 39.6790 2.269625 110.00 115.74 10.49
2149 39.6940 2.268802 112.00 115.71 10.58
2150 39.7090 2.267979 108.00 115.67 10.39
2151 39.7240 2.267158 116.00 115.63 10.77
2152 39.7390 2.266336 111.00 115.59 10.54
2153 39.7540 2.265516 102.00 115.55 10.10
2154 39.7690 2.264696 112.00 115.77 10.58
2155 39.7840 2.263876 107.00 115.74 10.34
2156 39.7990 2.263058 109.00 115.70 10.44
2157 39.8140 2.262240 119.00 115.67 10.91
2158 39.8290 2.261422 123.00 115.64 11.09
2159 39.8440 2.260605 127.00 115.60 11.27
2160 39.8590 2.259789 120.00 115.57 10.95
2161 39.8740 2.258974 126.00 115.54 11.23
2162 39.8890 2.258159 112.00 115.50 10.58
2163 39.9040 2.257345 105.00 115.47 10.25
2164 39.9190 2.256531 96.00 115.44 9.80
2165 39.9340 2.255718 106.00 115.40 10.30
2166 39.9490 2.254905 118.00 115.37 10.86
2167 39.9640 2.254094 106.00 115.34 10.30
2168 39.9790 2.253283 107.00 115.31 10.34
2169 39.9940 2.252472 100.00 115.28 10.00
2170 40.0090 2.251662 109.00 115.24 10.44
2171 40.0240 2.250853 100.00 115.21 10.00
2172 40.0390 2.250044 120.00 115.18 10.95
2173 40.0540 2.249236 114.00 115.15 10.68
2174 40.0690 2.248429 125.00 115.12 11.18
2175 40.0840 2.247622 109.00 115.09 10.44
2176 40.0990 2.246816 121.00 115.06 11.00
2177 40.1140 2.246010 120.00 115.03 10.95
2178 40.1290 2.245205 126.00 115.00 11.23
2179 40.1440 2.244401 118.00 114.97 10.86
2180 40.1590 2.243597 115.00 114.94 10.72
2181 40.1740 2.242794 115.00 114.91 10.72
2182 40.1890 2.241992 105.00 114.88 10.25
2183 40.2040 2.241190 125.00 114.85 11.18
2184 40.2190 2.240388 129.00 114.83 11.36
2185 40.2340 2.239588 98.00 114.83 9.90
2186 40.2490 2.238788 118.00 114.89 10.86
2187 40.2640 2.237988 107.00 115.11 10.34
2188 40.2790 2.237189 114.00 115.69 10.68
2189 40.2940 2.236391 114.00 117.11 10.68
2190 40.3090 2.235594 118.00 120.16 10.86
2191 40.3240 2.234797 119.00 126.19 10.91
2192 40.3390 2.234000 147.00 137.01 12.12
2193 40.3540 2.233204 143.00 154.73 11.96
2194 40.3690 2.232409 183.00 180.98 13.53
2195 40.3840 2.231614 225.00 216.04 15.00
2196 40.3990 2.230820 280.00 257.63 16.73
2197 40.4140 2.230027 291.00 300.64 17.06
2198 40.4290 2.229234 367.00 337.65 19.16
2199 40.4440 2.228442 337.00 360.95 18.36
2200 40.4590 2.227650 370.00 365.07 19.24
2201 40.4740 2.226860 324.00 348.89 18.00
2202 40.4890 2.226069 297.00 316.11 17.23
2203 40.5040 2.225279 306.00 273.85 17.49
2204 40.5190 2.224490 267.00 230.15 16.34
2205 40.5340 2.223701 246.00 191.54 15.68
2206 40.5490 2.222914 181.00 161.56 13.45
2207 40.5640 2.222126 140.00 140.80 11.83
2208 40.5790 2.221339 125.00 127.90 11.18
2209 40.5940 2.220553 116.00 120.65 10.77
2210 40.6090 2.219767 122.00 116.96 11.05
2211 40.6240 2.218982 105.00 115.25 10.25
2212 40.6390 2.218198 111.00 114.52 10.54
2213 40.6540 2.217414 106.00 114.23 10.30
2214 40.6690 2.216631 109.00 114.11 10.44
2215 40.6840 2.215848 118.00 114.06 10.86
2216 40.6990 2.215066 110.00 114.03 10.49
2217 40.7140 2.214285 125.00 114.01 11.18
2218 40.7290 2.213504 121.00 113.99 11.00
2219 40.7440 2.212724 122.00 113.97 11.05
2220 40.7590 2.211944 112.00 113.96 10.58
2221 40.7740 2.211165 109.00 113.94 10.44
2222 40.7890 2.210386 122.00 113.92 11.05
2223 40.8040 2.209608 106.00 113.91 10.30
2224 40.8190 2.208831 112.00 113.89 10.58
2225 40.8340 2.208054 98.00 113.88 9.90
2226 40.8490 2.207278 104.00 113.86 10.20
2227 40.8640 2.206502 106.00 113.85 10.30
2228 40.8790 2.205727 117.00 113.83 10.82
2229 40.8940 2.204953 127.00 113.82 11.27
2230 40.9090 2.204179 111.00 113.81 10.54
2231 40.9240 2.203406 125.00 113.80 11.18
2232 40.9390 2.202633 127.00 113.79 11.27
2233 40.9540 2.201861 107.00 113.78 10.34
2234 40.9690 2.201089 123.00 113.77 11.09
2235 40.9840 2.200319 117.00 113.76 10.82
2236 40.9990 2.199548 124.00 113.76 11.14
2237 41.0140 2.198778 112.00 113.75 10.58
2238 41.0290 2.198009 111.00 113.75 10.54
2239 41.0440 2.197240 111.00 113.74 10.54
2240 41.0590 2.196472 131.00 113.74 11.45
2241 41.0740 2.195705 119.00 113.74 10.91
2242 41.0890 2.194938 109.00 113.74 10.44
2243 41.1040 2.194172 109.00 113.74 10.44
2244 41.1190 2.193406 109.00 113.74 10.44
2245 41.1340 2.192641 107.00 113.74 10.34
2246 41.1490 2.191876 117.00 113.74 10.82
2247 41.1640 2.191112 115.00 113.75 10.72
2248 41.1790 2.190348 106.00 113.76 10.30
2249 41.1940 2.189585 104.00 113.77 10.20
2250 41.2090 2.188823 102.00 113.78 10.10
2251 41.2240 2.188061 113.00 113.79 10.63
2252 41.2390 2.187300 130.00 113.81 11.40
2253 41.2540 2.186539 117.00 113.82 10.82
2254 41.2690 2.185779 117.00 113.84 10.82
2255 41.2840 2.185020 120.00 113.86 10.95
2256 41.2990 2.184261 119.00 113.89 10.91
2257 41.3140 2.183502 117.00 113.91 10.82
2258 41.3290 2.182745 105.00 113.94 10.25
2259 41.3440 2.181987 97.00 113.97 9.85
2260 41.3590 2.181230 107.00 114.01 10.34
2261 41.3740 2.180474 116.00 114.07 10.77
2262 41.3890 2.179719 122.00 114.16 11.05
2263 41.4040 2.178964 114.00 114.35 10.68
2264 41.4190 2.178209 108.00 114.81 10.39
2265 41.4340 2.177455 122.00 115.89 11.05
2266 41.4490 2.176702 120.00 118.35 10.95
2267 41.4640 2.175949 118.00 123.56 10.86
2268 41.4790 2.175197 123.00 133.78 11.09
2269 41.4940 2.174445 139.00 152.23 11.79
2270 41.5090 2.173694 171.00 182.67 13.08
2271 41.5240 2.172944 231.00 228.47 15.20
2272 41.5390 2.172194 309.00 290.84 17.58
2273 41.5540 2.171444 364.00 366.88 19.08
2274 41.5690 2.170695 411.00 448.58 20.27
2275 41.5840 2.169947 544.00 523.34 23.32
2276 41.5990 2.169199 586.00 576.81 24.21
2277 41.6140 2.168452 538.00 597.34 23.19
2278 41.6290 2.167705 569.00 580.07 23.85
2279 41.6440 2.166959 510.00 528.78 22.58
2280 41.6590 2.166214 511.00 454.65 22.61
2281 41.6740 2.165468 556.00 372.18 23.58
2282 41.6890 2.164724 464.00 294.73 21.54
2283 41.7040 2.163980 286.00 231.07 16.91
2284 41.7190 2.163236 184.00 184.52 13.56
2285 41.7340 2.162494 145.00 153.95 12.04
2286 41.7490 2.161751 118.00 135.89 10.86
2287 41.7640 2.161010 130.00 126.29 11.40
2288 41.7790 2.160269 116.00 121.77 10.77
2289 41.7940 2.159528 115.00 119.99 10.72
2290 41.8090 2.158788 135.00 119.55 11.62
2291 41.8240 2.158048 133.00 119.72 11.53
2292 41.8390 2.157309 136.00 120.18 11.66
2293 41.8540 2.156571 129.00 120.78 11.36
2294 41.8690 2.155833 119.00 121.48 10.91
2295 41.8840 2.155095 127.00 122.27 11.27
2296 41.8990 2.154358 135.00 123.16 11.62
2297 41.9140 2.153622 131.00 124.18 11.45
2298 41.9290 2.152886 119.00 125.33 10.91
2299 41.9440 2.152151 116.00 126.65 10.77
2300 41.9590 2.151417 136.00 128.17 11.66
2301 41.9740 2.150682 153.00 129.93 12.37
2302 41.9890 2.149949 165.00 131.99 12.85
2303 42.0040 2.149215 139.00 134.42 11.79
2304 42.0190 2.148483 140.00 137.30 11.83
2305 42.0340 2.147751 155.00 140.74 12.45
2306 42.0490 2.147019 147.00 144.87 12.12
2307 42.0640 2.146289 153.00 149.82 12.37
2308 42.0790 2.145558 167.00 155.78 12.92
2309 42.0940 2.144828 160.00 162.92 12.65
2310 42.1090 2.144099 190.00 171.43 13.78
2311 42.1240 2.143370 209.00 181.48 14.46
2312 42.1390 2.142642 196.00 193.17 14.00
2313 42.1540 2.141914 210.00 206.50 14.49
2314 42.1690 2.141187 214.00 221.21 14.63
2315 42.1840 2.140460 193.00 236.70 13.89
2316 42.1990 2.139734 228.00 251.83 15.10
2317 42.2140 2.139008 240.00 264.96 15.49
2318 42.2290 2.138283 238.00 274.15 15.43
2319 42.2440 2.137559 272.00 277.71 16.49
2320 42.2590 2.136835 274.00 274.85 16.55
2321 42.2740 2.136111 233.00 266.10 15.26
2322 42.2890 2.135388 228.00 253.08 15.10
2323 42.3040 2.134666 219.00 237.83 14.80
2324 42.3190 2.133944 227.00 222.12 15.07
2325 42.3340 2.133222 207.00 207.16 14.39
2326 42.3490 2.132502 187.00 193.61 13.67
2327 42.3640 2.131781 159.00 181.71 12.61
2328 42.3790 2.131061 166.00 171.49 12.88
2329 42.3940 2.130342 175.00 162.83 13.23
2330 42.4090 2.129623 144.00 155.55 12.00
2331 42.4240 2.128905 145.00 149.48 12.04
2332 42.4390 2.128187 141.00 144.41 11.87
2333 42.4540 2.127470 133.00 140.19 11.53
2334 42.4690 2.126753 120.00 136.66 10.95
2335 42.4840 2.126037 127.00 133.70 11.27
2336 42.4990 2.125321 134.00 131.21 11.58
2337 42.5140 2.124606 129.00 129.12 11.36
2338 42.5290 2.123892 135.00 127.42 11.62
2339 42.5440 2.123178 123.00 126.20 11.09
2340 42.5590 2.122464 125.00 125.76 11.18
2341 42.5740 2.121751 122.00 126.78 11.05
2342 42.5890 2.121038 140.00 130.63 11.83
2343 42.6040 2.120326 137.00 139.66 11.70
2344 42.6190 2.119615 144.00 157.42 12.00
2345 42.6340 2.118903 190.00 188.49 13.78
2346 42.6490 2.118193 275.00 237.64 16.58
2347 42.6640 2.117483 378.00 308.07 19.44
2348 42.6790 2.116773 472.00 398.97 21.73
2349 42.6940 2.116065 595.00 503.67 24.39
2350 42.7090 2.115356 602.00 608.96 24.54
2351 42.7240 2.114648 689.00 697.21 26.25
2352 42.7390 2.113940 844.00 750.92 29.05
2353 42.7540 2.113234 807.00 758.26 28.41
2354 42.7690 2.112527 752.00 717.28 27.42
2355 42.7840 2.111821 818.00 636.72 28.60
2356 42.7990 2.111116 759.00 532.90 27.55
2357 42.8140 2.110411 537.00 424.32 23.17
2358 42.8290 2.109707 367.00 326.41 19.16
2359 42.8440 2.109003 213.00 248.20 14.59
2360 42.8590 2.108299 174.00 192.10 13.19
2361 42.8740 2.107596 124.00 155.69 11.14
2362 42.8890 2.106894 114.00 134.16 10.68
2363 42.9040 2.106192 128.00 122.51 11.31
2364 42.9190 2.105491 120.00 116.70 10.95
2365 42.9340 2.104790 124.00 113.99 11.14
2366 42.9490 2.104089 102.00 112.79 10.10
2367 42.9640 2.103390 111.00 112.24 10.54
2368 42.9790 2.102690 118.00 111.95 10.86
2369 42.9940 2.101991 115.00 111.77 10.72
2370 43.0090 2.101293 103.00 111.63 10.15
2371 43.0240 2.100595 117.00 111.50 10.82
2372 43.0390 2.099898 128.00 111.37 11.31
2373 43.0540 2.099201 114.00 111.26 10.68
2374 43.0690 2.098505 116.00 111.15 10.77
2375 43.0840 2.097809 111.00 111.04 10.54
2376 43.0990 2.097113 109.00 110.94 10.44
2377 43.1140 2.096419 114.00 110.84 10.68
2378 43.1290 2.095724 100.00 110.74 10.00
2379 43.1440 2.095030 104.00 110.65 10.20
2380 43.1590 2.094337 116.00 110.56 10.77
2381 43.1740 2.093644 117.00 110.48 10.82
2382 43.1890 2.092952 105.00 110.39 10.25
2383 43.2040 2.092260 113.00 110.31 10.63
2384 43.2190 2.091568 122.00 110.23 11.05
2385 43.2340 2.090877 118.00 110.16 10.86
2386 43.2490 2.090187 103.00 110.08 10.15
2387 43.2640 2.089497 109.00 110.01 10.44
2388 43.2790 2.088807 117.00 109.94 10.82
2389 43.2940 2.088118 111.00 109.88 10.54
2390 43.3090 2.087430 106.00 109.81 10.30
2391 43.3240 2.086742 105.00 109.74 10.25
2392 43.3390 2.086054 105.00 109.68 10.25
2393 43.3540 2.085367 101.00 109.62 10.05
2394 43.3690 2.084681 99.00 109.56 9.95
2395 43.3840 2.083995 105.00 109.50 10.25
2396 43.3990 2.083309 106.00 109.44 10.30
2397 43.4140 2.082624 112.00 109.38 10.58
2398 43.4290 2.081940 108.00 109.33 10.39
2399 43.4440 2.081256 108.00 109.27 10.39
2400 43.4590 2.080572 107.00 109.22 10.34
2401 43.4740 2.079889 116.00 109.17 10.77
2402 43.4890 2.079206 116.00 109.11 10.77
2403 43.5040 2.078524 98.00 109.06 9.90
2404 43.5190 2.077842 107.00 109.01 10.34
2405 43.5340 2.077161 100.00 108.96 10.00
2406 43.5490 2.076481 102.00 108.92 10.10
2407 43.5640 2.075801 115.00 108.87 10.72
2408 43.5790 2.075121 103.00 108.82 10.15
2409 43.5940 2.074441 97.00 108.78 9.85
2410 43.6090 2.073763 106.00 108.75 10.30
2411 43.6240 2.073084 102.00 108.77 10.10
2412 43.6390 2.072407 100.00 108.91 10.00
2413 43.6540 2.071729 105.00 109.36 10.25
2414 43.6690 2.071053 106.00 110.55 10.30
2415 43.6840 2.070376 116.00 113.38 10.77
2416 43.6990 2.069700 102.00 119.49 10.10
2417 43.7140 2.069025 117.00 131.63 10.82
2418 43.7290 2.068350 130.00 153.84 11.40
2419 43.7440 2.067675 168.00 191.15 12.96
2420 43.7590 2.067001 256.00 248.64 16.00
2421 43.7740 2.066328 358.00 329.46 18.92
2422 43.7890 2.065655 493.00 432.41 22.20
2423 43.8040 2.064982 661.00 549.80 25.71
2424 43.8190 2.064310 787.00 667.22 28.05
2425 43.8340 2.063638 848.00 765.58 29.12
2426 43.8490 2.062967 889.00 826.15 29.82
2427 43.8640 2.062297 995.00 836.18 31.54
2428 43.8790 2.061626 911.00 793.32 30.18
2429 43.8940 2.060956 878.00 706.44 29.63
2430 43.9090 2.060287 814.00 592.77 28.53
2431 43.9240 2.059618 587.00 472.16 24.23
2432 43.9390 2.058950 460.00 361.62 21.45
2433 43.9540 2.058282 318.00 271.69 17.83
2434 43.9690 2.057615 183.00 205.85 13.53
2435 43.9840 2.056948 129.00 162.12 11.36
2436 43.9990 2.056282 97.00 135.64 9.85
2437 44.0140 2.055616 118.00 120.96 10.86
2438 44.0290 2.054950 113.00 113.48 10.63
2439 44.0440 2.054285 109.00 109.97 10.44
2440 44.0590 2.053621 125.00 108.44 11.18
2441 44.0740 2.052956 105.00 107.82 10.25
2442 44.0890 2.052293 108.00 107.57 10.39
2443 44.1040 2.051629 109.00 107.46 10.44
2444 44.1190 2.050967 119.00 107.40 10.91
2445 44.1340 2.050304 95.00 107.36 9.75
2446 44.1490 2.049643 100.00 107.32 10.00
2447 44.1640 2.048981 115.00 107.29 10.72
2448 44.1790 2.048320 109.00 107.25 10.44
2449 44.1940 2.047660 131.00 107.22 11.45
2450 44.2090 2.047000 107.00 107.19 10.34
2451 44.2240 2.046340 108.00 107.15 10.39
2452 44.2390 2.045681 90.00 107.12 9.49
2453 44.2540 2.045023 96.00 107.08 9.80
2454 44.2690 2.044365 94.00 107.05 9.70
2455 44.2840 2.043707 96.00 107.02 9.80
2456 44.2990 2.043050 103.00 106.98 10.15
2457 44.3140 2.042393 104.00 106.95 10.20
2458 44.3290 2.041737 99.00 106.92 9.95
2459 44.3440 2.041081 113.00 106.88 10.63
2460 44.3590 2.040426 106.00 106.85 10.30
2461 44.3740 2.039771 107.00 106.82 10.34
2462 44.3890 2.039116 104.00 106.78 10.20
2463 44.4040 2.038462 107.00 106.75 10.34
2464 44.4190 2.037809 128.00 106.72 11.31
2465 44.4340 2.037155 110.00 106.68 10.49
2466 44.4490 2.036503 105.00 106.65 10.25
2467 44.4640 2.035851 120.00 106.62 10.95
2468 44.4790 2.035199 103.00 106.58 10.15
2469 44.4940 2.034548 104.00 106.55 10.20
2470 44.5090 2.033897 103.00 106.52 10.15
2471 44.5240 2.033246 95.00 106.49 9.75
2472 44.5390 2.032596 96.00 106.46 9.80
2473 44.5540 2.031947 112.00 106.42 10.58
2474 44.5690 2.031298 112.00 106.39 10.58
2475 44.5840 2.030649 113.00 106.36 10.63
2476 44.5990 2.030001 108.00 106.32 10.39
2477 44.6140 2.029353 114.00 106.29 10.68
2478 44.6290 2.028706 122.00 106.26 11.05
2479 44.6440 2.028059 114.00 106.23 10.68
2480 44.6590 2.027413 117.00 106.20 10.82
2481 44.6740 2.026767 109.00 106.17 10.44
2482 44.6890 2.026122 125.00 106.14 11.18
2483 44.7040 2.025476 98.00 106.13 9.90
2484 44.7190 2.024832 96.00 105.92 9.80
2485 44.7340 2.024188 109.00 106.08 10.44
2486 44.7490 2.023544 104.00 106.54 10.20
2487 44.7640 2.022901 122.00 107.66 11.05
2488 44.7790 2.022258 107.00 110.14 10.34
2489 44.7940 2.021616 120.00 115.17 10.95
2490 44.8090 2.020974 129.00 124.58 11.36
2491 44.8240 2.020332 113.00 140.83 10.63
2492 44.8390 2.019691 161.00 166.63 12.69
2493 44.8540 2.019051 192.00 204.18 13.86
2494 44.8690 2.018411 246.00 254.06 15.68
2495 44.8840 2.017771 311.00 313.93 17.64
2496 44.8990 2.017132 404.00 377.96 20.10
2497 44.9140 2.016493 446.00 437.26 21.12
2498 44.9290 2.015854 520.00 481.65 22.80
2499 44.9440 2.015217 528.00 502.54 22.98
2500 44.9590 2.014579 492.00 495.55 22.18
2501 44.9740 2.013942 472.00 462.04 21.73
2502 44.9890 2.013305 459.00 408.69 21.42
2503 45.0040 2.012669 465.00 345.27 21.56
2504 45.0190 2.012033 395.00 281.79 19.87
2505 45.0340 2.011398 280.00 225.96 16.73
2506 45.0490 2.010763 195.00 181.96 13.96
2507 45.0640 2.010128 129.00 150.52 11.36
2508 45.0790 2.009495 112.00 130.04 10.58
2509 45.0940 2.008861 120.00 117.80 10.95
2510 45.1090 2.008228 123.00 111.08 11.09
2511 45.1240 2.007595 120.00 107.67 10.95
2512 45.1390 2.006963 104.00 106.07 10.20
2513 45.1540 2.006331 103.00 105.37 10.15
2514 45.1690 2.005700 98.00 105.07 9.90
2515 45.1840 2.005069 100.00 104.94 10.00
2516 45.1990 2.004438 106.00 104.88 10.30
2517 45.2140 2.003808 103.00 104.84 10.15
2518 45.2290 2.003178 107.00 104.81 10.34
2519 45.2440 2.002549 103.00 104.78 10.15
2520 45.2590 2.001920 109.00 104.75 10.44
2521 45.2740 2.001292 104.00 104.71 10.20
2522 45.2890 2.000664 100.00 104.68 10.00
2523 45.3040 2.000036 115.00 104.65 10.72
2524 45.3190 1.999409 106.00 104.62 10.30
2525 45.3340 1.998782 101.00 104.59 10.05
2526 45.3490 1.998156 99.00 104.56 9.95
2527 45.3640 1.997530 95.00 104.53 9.75
2528 45.3790 1.996905 98.00 104.50 9.90
2529 45.3940 1.996280 111.00 104.47 10.54
2530 45.4090 1.995655 125.00 104.44 11.18
2531 45.4240 1.995031 118.00 104.41 10.86
2532 45.4390 1.994407 109.00 104.38 10.44
2533 45.4540 1.993784 116.00 104.35 10.77
2534 45.4690 1.993161 100.00 104.32 10.00
2535 45.4840 1.992539 103.00 104.29 10.15
2536 45.4990 1.991917 112.00 104.26 10.58
2537 45.5140 1.991295 105.00 104.23 10.25
2538 45.5290 1.990674 105.00 104.20 10.25
2539 45.5440 1.990053 105.00 104.17 10.25
2540 45.5590 1.989433 107.00 104.14 10.34
2541 45.5740 1.988813 104.00 104.10 10.20
2542 45.5890 1.988193 94.00 104.07 9.70
2543 45.6040 1.987574 99.00 104.04 9.95
2544 45.6190 1.986956 92.00 104.01 9.59
2545 45.6340 1.986338 99.00 103.98 9.95
2546 45.6490 1.985720 109.00 103.95 10.44
2547 45.6640 1.985102 110.00 103.92 10.49
2548 45.6790 1.984485 101.00 103.89 10.05
2549 45.6940 1.983869 106.00 103.86 10.30
2550 45.7090 1.983253 107.00 103.82 10.34
2551 45.7240 1.982637 108.00 103.79 10.39
2552 45.7390 1.982022 101.00 103.76 10.05
2553 45.7540 1.981407 111.00 103.73 10.54
2554 45.7690 1.980792 96.00 103.70 9.80
2555 45.7840 1.980178 89.00 103.67 9.43
2556 45.7990 1.979564 87.00 103.64 9.33
2557 45.8140 1.978951 116.00 103.60 10.77
2558 45.8290 1.978338 111.00 103.57 10.54
2559 45.8440 1.977726 93.00 103.54 9.64
2560 45.8590 1.977114 108.00 103.51 10.39
2561 45.8740 1.976502 105.00 103.48 10.25
2562 45.8890 1.975891 109.00 103.44 10.44
2563 45.9040 1.975281 122.00 103.41 11.05
2564 45.9190 1.974670 104.00 103.38 10.20
2565 45.9340 1.974060 104.00 103.35 10.20
2566 45.9490 1.973451 117.00 103.32 10.82
2567 45.9640 1.972841 109.00 103.29 10.44
2568 45.9790 1.972233 97.00 103.25 9.85
2569 45.9940 1.971624 100.00 103.22 10.00
2570 46.0090 1.971017 118.00 103.19 10.86
2571 46.0240 1.970409 103.00 103.16 10.15
2572 46.0390 1.969802 96.00 103.13 9.80
2573 46.0540 1.969195 102.00 103.09 10.10
2574 46.0690 1.968589 99.00 103.06 9.95
2575 46.0840 1.967983 110.00 103.03 10.49
2576 46.0990 1.967378 114.00 103.00 10.68
2577 46.1140 1.966773 103.00 102.96 10.15
2578 46.1290 1.966168 119.00 102.93 10.91
2579 46.1440 1.965564 111.00 102.90 10.54
2580 46.1590 1.964960 109.00 102.87 10.44
2581 46.1740 1.964357 104.00 102.83 10.20
2582 46.1890 1.963754 92.00 102.80 9.59
2583 46.2040 1.963151 105.00 102.77 10.25
2584 46.2190 1.962549 110.00 102.74 10.49
2585 46.2340 1.961947 111.00 102.70 10.54
2586 46.2490 1.961345 105.00 102.67 10.25
2587 46.2640 1.960745 100.00 102.64 10.00
2588 46.2790 1.960144 101.00 102.61 10.05
2589 46.2940 1.959544 86.00 102.57 9.27
2590 46.3090 1.958944 103.00 102.54 10.15
2591 46.3240 1.958344 108.00 102.51 10.39
2592 46.3390 1.957745 118.00 102.47 10.86
2593 46.3540 1.957147 105.00 102.44 10.25
2594 46.3690 1.956549 92.00 102.41 9.59
2595 46.3840 1.955951 108.00 102.38 10.39
2596 46.3990 1.955354 102.00 102.34 10.10
2597 46.4140 1.954756 103.00 102.31 10.15
2598 46.4290 1.954160 111.00 102.28 10.54
2599 46.4440 1.953564 104.00 102.24 10.20
2600 46.4590 1.952968 99.00 102.21 9.95
2601 46.4740 1.952373 99.00 102.18 9.95
2602 46.4890 1.951777 98.00 102.14 9.90
2603 46.5040 1.951183 101.00 102.11 10.05
2604 46.5190 1.950588 90.00 102.08 9.49
2605 46.5340 1.949995 95.00 102.04 9.75
2606 46.5490 1.949401 108.00 102.01 10.39
2607 46.5640 1.948808 103.00 101.97 10.15
2608 46.5790 1.948216 114.00 101.94 10.68
2609 46.5940 1.947623 89.00 101.91 9.43
2610 46.6090 1.947031 97.00 101.87 9.85
2611 46.6240 1.946440 108.00 101.84 10.39
2612 46.6390 1.945849 107.00 101.81 10.34
2613 46.6540 1.945258 106.00 101.77 10.30
2614 46.6690 1.944668 101.00 101.74 10.05
2615 46.6840 1.944078 115.00 101.71 10.72
2616 46.6990 1.943488 101.00 101.67 10.05
2617 46.7140 1.942899 103.00 101.64 10.15
2618 46.7290 1.942311 102.00 101.60 10.10
2619 46.7440 1.941722 111.00 101.57 10.54
2620 46.7590 1.941134 120.00 101.54 10.95
2621 46.7740 1.940547 98.00 101.50 9.90
2622 46.7890 1.939960 96.00 101.47 9.80
2623 46.8040 1.939373 105.00 101.46 10.25
2624 46.8190 1.938787 109.00 101.48 10.44
2625 46.8340 1.938201 109.00 101.59 10.44
2626 46.8490 1.937615 98.00 101.95 9.90
2627 46.8640 1.937030 94.00 102.84 9.70
2628 46.8790 1.936445 106.00 104.89 10.30
2629 46.8940 1.935860 114.00 109.21 10.68
2630 46.9090 1.935276 92.00 117.62 9.59
2631 46.9240 1.934693 113.00 132.85 10.63
2632 46.9390 1.934109 125.00 158.37 11.18
2633 46.9540 1.933526 183.00 197.91 13.53
2634 46.9690 1.932944 256.00 254.38 16.00
2635 46.9840 1.932362 343.00 328.32 18.52
2636 46.9990 1.931780 413.00 416.35 20.32
2637 47.0140 1.931199 514.00 510.44 22.67
2638 47.0290 1.930618 576.00 598.45 24.00
2639 47.0440 1.930037 702.00 666.46 26.50
2640 47.0590 1.929457 741.00 702.27 27.22
2641 47.0740 1.928877 688.00 698.97 26.23
2642 47.0890 1.928297 653.00 657.11 25.55
2643 47.1040 1.927718 594.00 584.54 24.37
2644 47.1190 1.927140 563.00 494.12 23.73
2645 47.1340 1.926561 575.00 399.69 23.98
2646 47.1490 1.925983 419.00 313.07 20.47
2647 47.1640 1.925406 268.00 241.64 16.37
2648 47.1790 1.924829 161.00 188.09 12.69
2649 47.1940 1.924252 122.00 151.30 11.05
2650 47.2090 1.923675 99.00 128.03 9.95
2651 47.2240 1.923099 117.00 114.43 10.82
2652 47.2390 1.922524 101.00 107.07 10.05
2653 47.2540 1.921948 92.00 103.37 9.59
2654 47.2690 1.921373 103.00 101.64 10.15
2655 47.2840 1.920799 96.00 100.87 9.80
2656 47.2990 1.920225 105.00 100.54 10.25
2657 47.3140 1.919651 94.00 100.39 9.70
2658 47.3290 1.919078 97.00 100.32 9.85
2659 47.3440 1.918504 109.00 100.27 10.44
2660 47.3590 1.917932 95.00 100.24 9.75
2661 47.3740 1.917359 103.00 100.20 10.15
2662 47.3890 1.916788 108.00 100.17 10.39
2663 47.4040 1.916216 90.00 100.13 9.49
2664 47.4190 1.915645 85.00 100.10 9.22
2665 47.4340 1.915074 92.00 100.06 9.59
2666 47.4490 1.914504 106.00 100.03 10.30
2667 47.4640 1.913934 108.00 99.99 10.39
2668 47.4790 1.913364 97.00 99.96 9.85
2669 47.4940 1.912795 100.00 99.92 10.00
2670 47.5090 1.912226 103.00 99.89 10.15
2671 47.5240 1.911657 106.00 99.85 10.30
2672 47.5390 1.911089 91.00 99.82 9.54
2673 47.5540 1.910521 105.00 99.78 10.25
2674 47.5690 1.909954 97.00 99.75 9.85
2675 47.5840 1.909387 86.00 99.71 9.27
2676 47.5990 1.908820 99.00 99.68 9.95
2677 47.6140 1.908254 93.00 99.64 9.64
2678 47.6290 1.907687 98.00 99.61 9.90
2679 47.6440 1.907122 95.00 99.57 9.75
2680 47.6590 1.906557 108.00 99.54 10.39
2681 47.6740 1.905992 95.00 99.50 9.75
2682 47.6890 1.905427 103.00 99.47 10.15
2683 47.7040 1.904863 91.00 99.43 9.54
2684 47.7190 1.904299 110.00 99.40 10.49
2685 47.7340 1.903736 99.00 99.36 9.95
2686 47.7490 1.903173 113.00 99.33 10.63
2687 47.7640 1.902610 107.00 99.29 10.34
2688 47.7790 1.902048 90.00 99.26 9.49
2689 47.7940 1.901486 105.00 99.22 10.25
2690 47.8090 1.900924 95.00 99.19 9.75
2691 47.8240 1.900363 116.00 99.16 10.77
2692 47.8390 1.899802 95.00 99.14 9.75
2693 47.8540 1.899242 97.00 99.14 9.85
2694 47.8690 1.898682 107.00 99.21 10.34
2695 47.8840 1.898122 111.00 99.44 10.54
2696 47.8990 1.897563 106.00 99.99 10.30
2697 47.9140 1.897003 94.00 101.23 9.70
2698 47.9290 1.896445 89.00 103.75 9.43
2699 47.9440 1.895887 98.00 108.48 9.90
2700 47.9590 1.895329 107.00 116.73 10.34
2701 47.9740 1.894771 107.00 130.07 10.34
2702 47.9890 1.894214 139.00 150.03 11.79
2703 48.0040 1.893657 203.00 177.58 14.25
2704 48.0190 1.893100 268.00 212.48 16.37
2705 48.0340 1.892544 298.00 252.66 17.26
2706 48.0490 1.891988 318.00 294.10 17.83
2707 48.0640 1.891433 354.00 331.26 18.81
2708 48.0790 1.890878 365.00 358.23 19.10
2709 48.0940 1.890323 319.00 370.21 17.86
2710 48.1090 1.889769 318.00 364.95 17.83
2711 48.1240 1.889215 328.00 343.40 18.11
2712 48.1390 1.888661 336.00 309.45 18.33
2713 48.1540 1.888108 346.00 268.74 18.60
2714 48.1690 1.887555 297.00 227.21 17.23
2715 48.1840 1.887002 238.00 189.64 15.43
2716 48.1990 1.886450 155.00 158.90 12.45
2717 48.2140 1.885898 125.00 135.95 11.18
2718 48.2290 1.885347 107.00 120.17 10.34
2719 48.2440 1.884796 111.00 110.16 10.54
2720 48.2590 1.884245 104.00 104.27 10.20
2721 48.2740 1.883694 98.00 101.04 9.90
2722 48.2890 1.883144 83.00 99.39 9.11
2723 48.3040 1.882594 99.00 98.60 9.95
2724 48.3190 1.882045 89.00 98.23 9.43
2725 48.3340 1.881496 90.00 98.06 9.49
2726 48.3490 1.880947 103.00 97.97 10.15
2727 48.3640 1.880399 101.00 97.92 10.05
2728 48.3790 1.879851 94.00 97.88 9.70
2729 48.3940 1.879303 107.00 97.84 10.34
2730 48.4090 1.878756 109.00 97.81 10.44
2731 48.4240 1.878209 100.00 97.78 10.00
2732 48.4390 1.877663 99.00 97.74 9.95
2733 48.4540 1.877116 96.00 97.71 9.80
2734 48.4690 1.876571 99.00 97.68 9.95
2735 48.4840 1.876025 104.00 97.64 10.20
2736 48.4990 1.875480 114.00 97.61 10.68
2737 48.5140 1.874935 100.00 97.58 10.00
2738 48.5290 1.874390 108.00 97.55 10.39
2739 48.5440 1.873847 105.00 97.52 10.25
2740 48.5590 1.873303 101.00 97.48 10.05
2741 48.5740 1.872759 95.00 97.45 9.75
2742 48.5890 1.872216 106.00 97.42 10.30
2743 48.6040 1.871673 95.00 97.39 9.75
2744 48.6190 1.871131 95.00 97.36 9.75
2745 48.6340 1.870589 95.00 97.33 9.75
2746 48.6490 1.870047 112.00 97.30 10.58
2747 48.6640 1.869506 100.00 97.26 10.00
2748 48.6790 1.868965 92.00 97.23 9.59
2749 48.6940 1.868424 95.00 97.20 9.75
2750 48.7090 1.867884 112.00 97.17 10.58
2751 48.7240 1.867344 98.00 97.15 9.90
2752 48.7390 1.866804 98.00 97.12 9.90
2753 48.7540 1.866265 96.00 97.09 9.80
2754 48.7690 1.865726 100.00 97.06 10.00
2755 48.7840 1.865187 106.00 97.03 10.30
2756 48.7990 1.864649 94.00 97.00 9.70
2757 48.8140 1.864111 89.00 96.98 9.43
2758 48.8290 1.863574 77.00 96.97 8.77
2759 48.8440 1.863036 93.00 96.99 9.64
2760 48.8590 1.862499 95.00 97.08 9.75
2761 48.8740 1.861963 100.00 97.38 10.00
2762 48.8890 1.861427 99.00 98.17 9.95
2763 48.9040 1.860891 94.00 100.04 9.70
2764 48.9190 1.860355 109.00 104.18 10.44
2765 48.9340 1.859820 99.00 112.68 9.95
2766 48.9490 1.859285 114.00 128.96 10.68
2767 48.9640 1.858751 135.00 158.08 11.62
2768 48.9790 1.858217 141.00 206.56 11.87
2769 48.9940 1.857683 242.00 281.62 15.56
2770 49.0090 1.857149 351.00 389.35 18.74
2771 49.0240 1.856616 515.00 532.09 22.69
2772 49.0390 1.856083 742.00 705.59 27.24
2773 49.0540 1.855551 1030.00 896.95 32.09
2774 49.0690 1.855019 1242.00 1085.10 35.24
2775 49.0840 1.854487 1315.00 1243.84 36.26
2776 49.0990 1.853956 1373.00 1347.63 37.05
2777 49.1140 1.853424 1338.00 1378.26 36.58
2778 49.1290 1.852893 1215.00 1330.04 34.86
2779 49.1440 1.852363 1172.00 1211.56 34.23
2780 49.1590 1.851833 1296.00 1043.21 36.00
2781 49.1740 1.851303 1332.00 851.37 36.50
2782 49.1890 1.850774 1120.00 661.72 33.47
2783 49.2040 1.850245 738.00 493.90 27.17
2784 49.2190 1.849716 405.00 358.85 20.12
2785 49.2340 1.849187 185.00 259.08 13.60
2786 49.2490 1.848659 117.00 191.10 10.82
2787 49.2640 1.848131 115.00 148.19 10.72
2788 49.2790 1.847604 105.00 123.03 10.25
2789 49.2940 1.847077 97.00 109.30 9.85
2790 49.3090 1.846550 110.00 102.33 10.49
2791 49.3240 1.846024 107.00 99.03 10.34
2792 49.3390 1.845497 102.00 97.59 10.10
2793 49.3540 1.844972 101.00 97.01 10.05
2794 49.3690 1.844446 99.00 96.87 9.95
2795 49.3840 1.843921 90.00 96.83 9.49
2796 49.3990 1.843396 106.00 96.84 10.30
2797 49.4140 1.842872 120.00 96.88 10.95
2798 49.4290 1.842348 104.00 96.94 10.20
2799 49.4440 1.841824 97.00 97.00 9.85
2800 49.4590 1.841300 100.00 97.08 10.00
2801 49.4740 1.840777 105.00 97.16 10.25
2802 49.4890 1.840254 90.00 97.25 9.49
2803 49.5040 1.839732 97.00 97.36 9.85
2804 49.5190 1.839210 93.00 97.48 9.64
2805 49.5340 1.838688 97.00 97.61 9.85
2806 49.5490 1.838166 99.00 97.75 9.95
2807 49.5640 1.837645 105.00 97.92 10.25
2808 49.5790 1.837124 89.00 98.10 9.43
2809 49.5940 1.836604 84.00 98.31 9.17
2810 49.6090 1.836084 98.00 98.55 9.90
2811 49.6240 1.835564 97.00 98.81 9.85
2812 49.6390 1.835044 101.00 99.12 10.05
2813 49.6540 1.834525 100.00 99.46 10.00
2814 49.6690 1.834006 101.00 99.85 10.05
2815 49.6840 1.833488 99.00 100.29 9.95
2816 49.6990 1.832969 91.00 100.80 9.54
2817 49.7140 1.832451 102.00 101.39 10.10
2818 49.7290 1.831934 101.00 102.08 10.05
2819 49.7440 1.831416 109.00 102.88 10.44
2820 49.7590 1.830899 101.00 103.81 10.05
2821 49.7740 1.830383 95.00 104.90 9.75
2822 49.7890 1.829867 106.00 106.17 10.30
2823 49.8040 1.829350 109.00 107.66 10.44
2824 49.8190 1.828835 117.00 109.41 10.82
2825 49.8340 1.828320 113.00 111.46 10.63
2826 49.8490 1.827805 131.00 113.84 11.45
2827 49.8640 1.827290 103.00 116.62 10.15
2828 49.8790 1.826775 128.00 119.88 11.31
2829 49.8940 1.826261 142.00 123.71 11.92
2830 49.9090 1.825748 147.00 128.32 12.12
2831 49.9240 1.825234 148.00 134.03 12.17
2832 49.9390 1.824721 158.00 141.36 12.57
2833 49.9540 1.824208 151.00 151.12 12.29
2834 49.9690 1.823696 170.00 164.46 13.04
2835 49.9840 1.823184 182.00 182.84 13.49
2836 49.9990 1.822672 206.00 207.73 14.35
2837 50.0140 1.822160 255.00 240.25 15.97
2838 50.0290 1.821649 321.00 280.46 17.92
2839 50.0440 1.821138 361.00 326.62 19.00
2840 50.0590 1.820628 403.00 374.83 20.07
2841 50.0740 1.820118 497.00 419.30 22.29
2842 50.0890 1.819607 571.00 453.31 23.90
2843 50.1040 1.819098 501.00 470.91 22.38
2844 50.1190 1.818589 458.00 468.48 21.40
2845 50.1340 1.818080 456.00 445.84 21.35
2846 50.1490 1.817571 464.00 406.35 21.54
2847 50.1640 1.817063 475.00 355.93 21.79
2848 50.1790 1.816555 424.00 301.60 20.59
2849 50.1940 1.816047 356.00 249.70 18.87
2850 50.2090 1.815540 256.00 204.77 16.00
2851 50.2240 1.815033 163.00 169.09 12.77
2852 50.2390 1.814526 113.00 142.87 10.63
2853 50.2540 1.814019 95.00 124.92 9.75
2854 50.2690 1.813513 108.00 113.40 10.39
2855 50.2840 1.813007 119.00 106.42 10.91
2856 50.2990 1.812502 100.00 102.36 10.00
2857 50.3140 1.811997 96.00 100.04 9.80
2858 50.3290 1.811492 96.00 98.69 9.80
2859 50.3440 1.810987 100.00 97.86 10.00
2860 50.3590 1.810483 103.00 97.29 10.15
2861 50.3740 1.809979 104.00 96.85 10.20
2862 50.3890 1.809475 99.00 96.48 9.95
2863 50.4040 1.808972 82.00 96.17 9.06
2864 50.4190 1.808469 95.00 95.88 9.75
2865 50.4340 1.807966 87.00 95.62 9.33
2866 50.4490 1.807464 94.00 95.37 9.70
2867 50.4640 1.806962 89.00 95.15 9.43
2868 50.4790 1.806460 88.00 94.94 9.38
2869 50.4940 1.805959 102.00 94.75 10.10
2870 50.5090 1.805458 85.00 94.57 9.22
2871 50.5240 1.804957 82.00 94.39 9.06
2872 50.5390 1.804456 100.00 94.23 10.00
2873 50.5540 1.803956 100.00 94.08 10.00
2874 50.5690 1.803456 94.00 93.94 9.70
2875 50.5840 1.802956 77.00 93.81 8.77
2876 50.5990 1.802457 86.00 93.68 9.27
2877 50.6140 1.801958 89.00 93.56 9.43
2878 50.6290 1.801459 92.00 93.44 9.59
2879 50.6440 1.800961 92.00 93.33 9.59
2880 50.6590 1.800463 96.00 93.22 9.80
2881 50.6740 1.799965 90.00 93.12 9.49
2882 50.6890 1.799468 88.00 93.02 9.38
2883 50.7040 1.798971 95.00 92.93 9.75
2884 50.7190 1.798474 91.00 92.84 9.54
2885 50.7340 1.797977 82.00 92.75 9.06
2886 50.7490 1.797481 83.00 92.67 9.11
2887 50.7640 1.796985 96.00 92.59 9.80
2888 50.7790 1.796489 97.00 92.51 9.85
2889 50.7940 1.795994 94.00 92.43 9.70
2890 50.8090 1.795499 99.00 92.36 9.95
2891 50.8240 1.795004 90.00 92.28 9.49
2892 50.8390 1.794510 88.00 92.21 9.38
2893 50.8540 1.794016 97.00 92.14 9.85
2894 50.8690 1.793522 79.00 92.08 8.89
2895 50.8840 1.793028 84.00 92.01 9.17
2896 50.8990 1.792535 98.00 91.95 9.90
2897 50.9140 1.792042 90.00 91.89 9.49
2898 50.9290 1.791550 88.00 91.83 9.38
2899 50.9440 1.791057 83.00 91.77 9.11
2900 50.9590 1.790565 90.00 91.71 9.49
2901 50.9740 1.790074 89.00 91.65 9.43
2902 50.9890 1.789582 87.00 91.60 9.33
2903 51.0040 1.789091 96.00 91.54 9.80
2904 51.0190 1.788600 78.00 91.49 8.83
2905 51.0340 1.788110 85.00 91.43 9.22
2906 51.0490 1.787620 89.00 91.38 9.43
2907 51.0640 1.787130 86.00 91.33 9.27
2908 51.0790 1.786640 80.00 91.28 8.94
2909 51.0940 1.786151 91.00 91.23 9.54
2910 51.1090 1.785662 108.00 91.19 10.39
2911 51.1240 1.785173 107.00 91.14 10.34
2912 51.1390 1.784685 93.00 91.09 9.64
2913 51.1540 1.784197 88.00 91.05 9.38
2914 51.1690 1.783709 98.00 91.00 9.90
2915 51.1840 1.783221 100.00 90.96 10.00
2916 51.1990 1.782734 88.00 90.92 9.38
2917 51.2140 1.782247 105.00 90.87 10.25
2918 51.2290 1.781761 102.00 90.83 10.10
2919 51.2440 1.781274 90.00 90.79 9.49
2920 51.2590 1.780788 90.00 90.75 9.49
2921 51.2740 1.780303 83.00 90.71 9.11
2922 51.2890 1.779817 83.00 90.68 9.11
2923 51.3040 1.779332 94.00 90.64 9.70
2924 51.3190 1.778847 91.00 90.60 9.54
2925 51.3340 1.778363 91.00 90.57 9.54
2926 51.3490 1.777878 94.00 90.53 9.70
2927 51.3640 1.777394 91.00 90.50 9.54
2928 51.3790 1.776911 78.00 90.47 8.83
2929 51.3940 1.776427 83.00 90.44 9.11
2930 51.4090 1.775944 90.00 90.41 9.49
2931 51.4240 1.775461 89.00 90.38 9.43
2932 51.4390 1.774979 82.00 90.35 9.06
2933 51.4540 1.774497 89.00 90.32 9.43
2934 51.4690 1.774015 89.00 90.30 9.43
2935 51.4840 1.773533 83.00 90.27 9.11
2936 51.4990 1.773052 83.00 90.25 9.11
2937 51.5140 1.772571 83.00 90.23 9.11
2938 51.5290 1.772090 96.00 90.21 9.80
2939 51.5440 1.771610 83.00 90.19 9.11
2940 51.5590 1.771129 85.00 90.17 9.22
2941 51.5740 1.770649 93.00 90.16 9.64
2942 51.5890 1.770170 77.00 90.14 8.77
2943 51.6040 1.769691 91.00 90.13 9.54
2944 51.6190 1.769212 80.00 90.12 8.94
2945 51.6340 1.768733 71.00 90.12 8.43
2946 51.6490 1.768255 93.00 90.11 9.64
2947 51.6640 1.767776 80.00 90.11 8.94
2948 51.6790 1.767298 87.00 90.11 9.33
2949 51.6940 1.766821 85.00 90.11 9.22
2950 51.7090 1.766344 91.00 90.12 9.54
2951 51.7240 1.765867 89.00 90.13 9.43
2952 51.7390 1.765390 101.00 90.15 10.05
2953 51.7540 1.764914 86.00 90.17 9.27
2954 51.7690 1.764437 96.00 90.19 9.80
2955 51.7840 1.763962 99.00 90.23 9.95
2956 51.7990 1.763486 91.00 90.30 9.54
2957 51.8140 1.763011 86.00 90.41 9.27
2958 51.8290 1.762536 82.00 90.63 9.06
2959 51.8440 1.762061 85.00 91.10 9.22
2960 51.8590 1.761587 95.00 92.05 9.75
2961 51.8740 1.761113 105.00 93.94 10.25
2962 51.8890 1.760639 108.00 97.53 10.39
2963 51.9040 1.760165 90.00 103.96 9.49
2964 51.9190 1.759692 77.00 114.85 8.77
2965 51.9340 1.759219 87.00 132.13 9.33
2966 51.9490 1.758746 121.00 157.84 11.00
2967 51.9640 1.758274 174.00 193.52 13.19
2968 51.9790 1.757802 245.00 239.54 15.65
2969 51.9940 1.757330 342.00 294.39 18.49
2970 52.0090 1.756858 384.00 354.22 19.60
2971 52.0240 1.756387 440.00 412.99 20.98
2972 52.0390 1.755916 492.00 463.33 22.18
2973 52.0540 1.755445 528.00 497.96 22.98
2974 52.0690 1.754975 518.00 511.47 22.76
2975 52.0840 1.754505 447.00 501.70 21.14
2976 52.0990 1.754035 448.00 470.31 21.17
2977 52.1140 1.753565 477.00 422.36 21.84
2978 52.1290 1.753096 479.00 365.01 21.89
2979 52.1440 1.752627 386.00 305.76 19.65
2980 52.1590 1.752158 282.00 250.98 16.79
2981 52.1740 1.751690 222.00 204.85 14.90
2982 52.1890 1.751222 150.00 169.21 12.25
2983 52.2040 1.750754 117.00 143.90 10.82
2984 52.2190 1.750286 107.00 127.49 10.34
2985 52.2340 1.749819 97.00 117.98 9.85
2986 52.2490 1.749352 117.00 113.39 10.82
2987 52.2640 1.748885 106.00 112.10 10.30
2988 52.2790 1.748418 109.00 112.86 10.44
2989 52.2940 1.747952 114.00 114.86 10.68
2990 52.3090 1.747486 110.00 117.55 10.49
2991 52.3240 1.747021 122.00 120.51 11.05
2992 52.3390 1.746555 121.00 123.40 11.00
2993 52.3540 1.746090 114.00 125.89 10.68
2994 52.3690 1.745625 99.00 127.64 9.95
2995 52.3840 1.745161 119.00 128.42 10.91
2996 52.3990 1.744696 136.00 128.07 11.66
2997 52.4140 1.744232 115.00 126.65 10.72
2998 52.4290 1.743769 142.00 124.36 11.92
2999 52.4440 1.743305 118.00 121.47 10.86
3000 52.4590 1.742842 119.00 118.29 10.91
3001 52.4740 1.742379 106.00 115.05 10.30
3002 52.4890 1.741917 112.00 111.92 10.58
3003 52.5040 1.741454 101.00 109.02 10.05
3004 52.5190 1.740992 92.00 106.38 9.59
3005 52.5340 1.740530 106.00 104.03 10.30
3006 52.5490 1.740069 86.00 101.96 9.27
3007 52.5640 1.739608 102.00 100.15 10.10
3008 52.5790 1.739147 103.00 98.57 10.15
3009 52.5940 1.738686 96.00 97.19 9.80
3010 52.6090 1.738225 105.00 96.00 10.25
3011 52.6240 1.737765 87.00 94.96 9.33
3012 52.6390 1.737305 102.00 94.06 10.10
3013 52.6540 1.736846 100.00 93.27 10.00
3014 52.6690 1.736387 100.00 92.58 10.00
3015 52.6840 1.735927 88.00 91.98 9.38
3016 52.6990 1.735469 86.00 91.44 9.27
3017 52.7140 1.735010 94.00 90.96 9.70
3018 52.7290 1.734552 99.00 90.54 9.95
3019 52.7440 1.734094 91.00 90.17 9.54
3020 52.7590 1.733636 86.00 89.86 9.27
3021 52.7740 1.733179 99.00 89.65 9.95
3022 52.7890 1.732722 86.00 89.61 9.27
3023 52.8040 1.732265 75.00 89.89 8.66
3024 52.8190 1.731808 98.00 90.81 9.90
3025 52.8340 1.731352 80.00 92.90 8.94
3026 52.8490 1.730896 97.00 97.05 9.85
3027 52.8640 1.730440 113.00 104.54 10.63
3028 52.8790 1.729984 110.00 117.15 10.49
3029 52.8940 1.729529 115.00 136.87 10.72
3030 52.9090 1.729074 142.00 165.90 11.92
3031 52.9240 1.728619 182.00 205.61 13.49
3032 52.9390 1.728165 280.00 256.14 16.73
3033 52.9540 1.727711 390.00 315.57 19.75
3034 52.9690 1.727257 528.00 379.60 22.98
3035 52.9840 1.726803 636.00 441.75 25.22
3036 52.9990 1.726350 759.00 494.23 27.55
3037 53.0140 1.725897 685.00 529.60 26.17
3038 53.0290 1.725444 512.00 542.41 22.63
3039 53.0440 1.724991 462.00 530.59 21.49
3040 53.0590 1.724539 508.00 495.99 22.54
3041 53.0740 1.724087 524.00 443.90 22.89
3042 53.0890 1.723635 550.00 381.73 23.45
3043 53.1040 1.723184 598.00 317.27 24.45
3044 53.1190 1.722732 453.00 257.14 21.28
3045 53.1340 1.722281 295.00 205.83 17.18
3046 53.1490 1.721831 183.00 165.34 13.53
3047 53.1640 1.721380 97.00 135.62 9.85
3048 53.1790 1.720930 103.00 115.26 10.15
3049 53.1940 1.720480 87.00 102.19 9.33
3050 53.2090 1.720030 88.00 94.31 9.38
3051 53.2240 1.719581 94.00 89.83 9.70
3052 53.2390 1.719132 87.00 87.43 9.33
3053 53.2540 1.718683 91.00 86.19 9.54
3054 53.2690 1.718234 95.00 85.57 9.75
3055 53.2840 1.717786 91.00 85.26 9.54
3056 53.2990 1.717338 86.00 85.10 9.27
3057 53.3140 1.716890 81.00 85.00 9.00
3058 53.3290 1.716443 83.00 84.92 9.11
3059 53.3440 1.715995 87.00 84.85 9.33
3060 53.3590 1.715548 81.00 84.79 9.00
3061 53.3740 1.715101 78.00 84.73 8.83
3062 53.3890 1.714655 77.00 84.68 8.77
3063 53.4040 1.714209 85.00 84.62 9.22
3064 53.4190 1.713763 80.00 84.57 8.94
3065 53.4340 1.713317 88.00 84.51 9.38
3066 53.4490 1.712872 92.00 84.46 9.59
3067 53.4640 1.712426 91.00 84.40 9.54
3068 53.4790 1.711981 92.00 84.35 9.59
3069 53.4940 1.711537 83.00 84.30 9.11
3070 53.5090 1.711092 83.00 84.25 9.11
3071 53.5240 1.710648 80.00 84.19 8.94
3072 53.5390 1.710204 94.00 84.14 9.70
3073 53.5540 1.709761 75.00 84.09 8.66
3074 53.5690 1.709317 85.00 84.04 9.22
3075 53.5840 1.708874 74.00 83.99 8.60
3076 53.5990 1.708431 69.00 83.94 8.31
3077 53.6140 1.707989 72.00 83.90 8.49
3078 53.6290 1.707546 68.00 83.85 8.25
3079 53.6440 1.707104 85.00 83.80 9.22
3080 53.6590 1.706663 88.00 83.75 9.38
3081 53.6740 1.706221 83.00 83.70 9.11
3082 53.6890 1.705780 77.00 83.66 8.77
3083 53.7040 1.705339 88.00 83.61 9.38
3084 53.7190 1.704898 68.00 83.57 8.25
3085 53.7340 1.704457 89.00 83.52 9.43
3086 53.7490 1.704017 90.00 83.47 9.49
3087 53.7640 1.703577 86.00 83.43 9.27
3088 53.7790 1.703137 84.00 83.38 9.17
3089 53.7940 1.702698 73.00 83.34 8.54
3090 53.8090 1.702258 86.00 83.29 9.27
3091 53.8240 1.701819 87.00 83.25 9.33
3092 53.8390 1.701381 85.00 83.20 9.22
3093 53.8540 1.700942 84.00 83.16 9.17
3094 53.8690 1.700504 100.00 83.12 10.00
3095 53.8840 1.700066 75.00 83.07 8.66
3096 53.8990 1.699628 74.00 83.03 8.60
3097 53.9140 1.699191 73.00 82.99 8.54
3098 53.9290 1.698754 70.00 82.94 8.37
3099 53.9440 1.698317 77.00 82.90 8.77
3100 53.9590 1.697880 67.00 82.86 8.19
3101 53.9740 1.697443 87.00 82.82 9.33
3102 53.9890 1.697007 86.00 82.77 9.27
3103 54.0040 1.696571 85.00 82.73 9.22
3104 54.0190 1.696136 83.00 82.69 9.11
3105 54.0340 1.695700 73.00 82.65 8.54
3106 54.0490 1.695265 79.00 82.60 8.89
3107 54.0640 1.694830 76.00 82.56 8.72
3108 54.0790 1.694395 83.00 82.52 9.11
3109 54.0940 1.693961 66.00 82.48 8.12
3110 54.1090 1.693527 87.00 82.44 9.33
3111 54.1240 1.693093 84.00 82.40 9.17
3112 54.1390 1.692659 71.00 82.36 8.43
3113 54.1540 1.692226 84.00 82.32 9.17
3114 54.1690 1.691792 77.00 82.28 8.77
3115 54.1840 1.691360 89.00 82.23 9.43
3116 54.1990 1.690927 77.00 82.19 8.77
3117 54.2140 1.690494 82.00 82.15 9.06
3118 54.2290 1.690062 77.00 82.11 8.77
3119 54.2440 1.689630 75.00 82.07 8.66
3120 54.2590 1.689199 84.00 82.03 9.17
3121 54.2740 1.688767 84.00 81.99 9.17
3122 54.2890 1.688336 87.00 81.95 9.33
3123 54.3040 1.687905 84.00 81.91 9.17
3124 54.3190 1.687474 83.00 81.87 9.11
3125 54.3340 1.687044 71.00 81.83 8.43
3126 54.3490 1.686614 83.00 81.80 9.11
3127 54.3640 1.686184 90.00 81.76 9.49
3128 54.3790 1.685754 81.00 81.72 9.00
3129 54.3940 1.685325 102.00 81.68 10.10
3130 54.4090 1.684896 78.00 81.64 8.83
3131 54.4240 1.684467 73.00 81.60 8.54
3132 54.4390 1.684038 77.00 81.56 8.77
3133 54.4540 1.683610 78.00 81.52 8.83
3134 54.4690 1.683181 98.00 81.48 9.90
3135 54.4840 1.682753 91.00 81.44 9.54
3136 54.4990 1.682326 77.00 81.41 8.77
3137 54.5140 1.681898 92.00 81.37 9.59
3138 54.5290 1.681471 84.00 81.33 9.17
3139 54.5440 1.681044 93.00 81.29 9.64
3140 54.5590 1.680617 84.00 81.25 9.17
3141 54.5740 1.680191 63.00 81.21 7.94
3142 54.5890 1.679765 78.00 81.18 8.83
3143 54.6040 1.679339 89.00 81.14 9.43
3144 54.6190 1.678913 74.00 81.10 8.60
3145 54.6340 1.678487 77.00 81.07 8.77
3146 54.6490 1.678062 74.00 81.03 8.60
3147 54.6640 1.677637 79.00 81.01 8.89
3148 54.6790 1.677212 83.00 80.99 9.11
3149 54.6940 1.676788 73.00 81.00 8.54
3150 54.7090 1.676364 80.00 81.06 8.94
3151 54.7240 1.675940 77.00 81.20 8.77
3152 54.7390 1.675516 89.00 81.47 9.43
3153 54.7540 1.675092 67.00 81.95 8.19
3154 54.7690 1.674669 83.00 82.71 9.11
3155 54.7840 1.674246 88.00 83.86 9.38
3156 54.7990 1.673823 79.00 85.45 8.89
3157 54.8140 1.673401 82.00 87.52 9.06
3158 54.8290 1.672978 97.00 90.03 9.85
3159 54.8440 1.672556 103.00 92.82 10.15
3160 54.8590 1.672134 94.00 95.66 9.70
3161 54.8740 1.671713 109.00 98.25 10.44
3162 54.8890 1.671291 104.00 100.24 10.20
3163 54.9040 1.670870 94.00 101.36 9.70
3164 54.9190 1.670449 91.00 101.43 9.54
3165 54.9340 1.670028 94.00 100.44 9.70
3166 54.9490 1.669608 114.00 98.54 10.68
3167 54.9640 1.669188 117.00 95.97 10.82
3168 54.9790 1.668768 102.00 93.08 10.10
3169 54.9940 1.668348 103.00 90.18 10.15
3170 55.0090 1.667929 83.00 87.52 9.11
3171 55.0240 1.667510 85.00 85.28 9.22
3172 55.0390 1.667091 93.00 83.51 9.64
3173 55.0540 1.666672 89.00 82.21 9.43
3174 55.0690 1.666253 73.00 81.30 8.54
3175 55.0840 1.665835 70.00 80.71 8.37
3176 55.0990 1.665417 80.00 80.33 8.94
3177 55.1140 1.664999 69.00 80.10 8.31
3178 55.1290 1.664582 78.00 79.95 8.83
3179 55.1440 1.664164 75.00 79.86 8.66
3180 55.1590 1.663747 79.00 79.80 8.89
3181 55.1740 1.663331 84.00 79.75 9.17
3182 55.1890 1.662914 66.00 79.71 8.12
3183 55.2040 1.662498 81.00 79.68 9.00
3184 55.2190 1.662081 70.00 79.64 8.37
3185 55.2340 1.661666 82.00 79.60 9.06
3186 55.2490 1.661250 90.00 79.57 9.49
3187 55.2640 1.660835 83.00 79.53 9.11
3188 55.2790 1.660419 68.00 79.50 8.25
3189 55.2940 1.660005 82.00 79.46 9.06
3190 55.3090 1.659590 94.00 79.43 9.70
3191 55.3240 1.659175 93.00 79.39 9.64
3192 55.3390 1.658761 75.00 79.36 8.66
3193 55.3540 1.658347 79.00 79.32 8.89
3194 55.3690 1.657933 74.00 79.29 8.60
3195 55.3840 1.657520 70.00 79.26 8.37
3196 55.3990 1.657107 75.00 79.22 8.66
3197 55.4140 1.656693 83.00 79.12 9.11
3198 55.4290 1.656281 80.00 79.09 8.94
3199 55.4440 1.655868 74.00 79.05 8.60
3200 55.4590 1.655456 70.00 79.02 8.37
3201 55.4740 1.655044 88.00 78.98 9.38
3202 55.4890 1.654632 93.00 78.95 9.64
3203 55.5040 1.654220 91.00 78.92 9.54
3204 55.5190 1.653809 84.00 78.89 9.17
3205 55.5340 1.653397 75.00 78.86 8.66
3206 55.5490 1.652987 88.00 78.84 9.38
3207 55.5640 1.652576 85.00 78.83 9.22
3208 55.5790 1.652165 79.00 78.87 8.89
3209 55.5940 1.651755 84.00 79.00 9.17
3210 55.6090 1.651345 79.00 79.29 8.89
3211 55.6240 1.650935 84.00 79.92 9.17
3212 55.6390 1.650526 94.00 81.15 9.70
3213 55.6540 1.650116 84.00 83.36 9.17
3214 55.6690 1.649707 77.00 87.14 8.77
3215 55.6840 1.649298 85.00 93.22 9.22
3216 55.6990 1.648890 88.00 102.43 9.38
3217 55.7140 1.648481 94.00 115.55 9.70
3218 55.7290 1.648073 110.00 133.12 10.49
3219 55.7440 1.647665 146.00 155.14 12.08
3220 55.7590 1.647258 200.00 180.82 14.14
3221 55.7740 1.646850 252.00 208.49 15.87
3222 55.7890 1.646443 300.00 235.64 17.32
3223 55.8040 1.646036 296.00 259.22 17.20
3224 55.8190 1.645629 281.00 276.25 16.76
3225 55.8340 1.645222 284.00 284.35 16.85
3226 55.8490 1.644816 273.00 282.36 16.52
3227 55.8640 1.644410 274.00 270.56 16.55
3228 55.8790 1.644004 293.00 250.61 17.12
3229 55.8940 1.643598 325.00 225.20 18.03
3230 55.9090 1.643193 291.00 197.41 17.06
3231 55.9240 1.642788 284.00 170.15 16.85
3232 55.9390 1.642383 205.00 145.63 14.32
3233 55.9540 1.641978 97.00 125.20 9.85
3234 55.9690 1.641574 96.00 109.31 9.80
3235 55.9840 1.641169 90.00 97.71 9.49
3236 55.9990 1.640765 75.00 89.77 8.66
3237 56.0140 1.640361 78.00 84.63 8.83
3238 56.0290 1.639958 72.00 81.49 8.49
3239 56.0440 1.639555 74.00 79.66 8.60
3240 56.0590 1.639151 74.00 78.66 8.60
3241 56.0740 1.638748 79.00 78.12 8.89
3242 56.0890 1.638346 74.00 77.84 8.60
3243 56.1040 1.637943 77.00 77.70 8.77
3244 56.1190 1.637541 82.00 77.62 9.06
3245 56.1340 1.637139 90.00 77.57 9.49
3246 56.1490 1.636737 88.00 77.53 9.38
3247 56.1640 1.636336 88.00 77.49 9.38
3248 56.1790 1.635934 85.00 77.46 9.22
3249 56.1940 1.635533 88.00 77.43 9.38
3250 56.2090 1.635132 74.00 77.40 8.60
3251 56.2240 1.634732 78.00 77.37 8.83
3252 56.2390 1.634331 77.00 77.33 8.77
3253 56.2540 1.633931 69.00 77.30 8.31
3254 56.2690 1.633531 72.00 77.27 8.49
3255 56.2840 1.633131 74.00 77.24 8.60
3256 56.2990 1.632732 73.00 77.21 8.54
3257 56.3140 1.632332 78.00 77.18 8.83
3258 56.3290 1.631933 74.00 77.15 8.60
3259 56.3440 1.631534 75.00 77.12 8.66
3260 56.3590 1.631136 74.00 77.09 8.60
3261 56.3740 1.630737 81.00 77.06 9.00
3262 56.3890 1.630339 73.00 77.03 8.54
3263 56.4040 1.629941 77.00 77.00 8.77
3264 56.4190 1.629543 79.00 76.97 8.89
3265 56.4340 1.629146 68.00 76.94 8.25
3266 56.4490 1.628748 84.00 76.92 9.17
3267 56.4640 1.628351 81.00 76.90 9.00
3268 56.4790 1.627954 69.00 76.91 8.31
3269 56.4940 1.627558 65.00 76.96 8.06
3270 56.5090 1.627161 89.00 77.11 9.43
3271 56.5240 1.626765 77.00 77.44 8.77
3272 56.5390 1.626369 80.00 78.13 8.94
3273 56.5540 1.625973 73.00 79.43 8.54
3274 56.5690 1.625578 71.00 81.74 8.43
3275 56.5840 1.625182 96.00 85.62 9.80
3276 56.5990 1.624787 99.00 91.77 9.95
3277 56.6140 1.624393 92.00 100.95 9.59
3278 56.6290 1.623998 94.00 113.88 9.70
3279 56.6440 1.623603 134.00 131.03 11.58
3280 56.6590 1.623209 176.00 152.33 13.27
3281 56.6740 1.622815 215.00 177.01 14.66
3282 56.6890 1.622421 230.00 203.47 15.17
3283 56.7040 1.622028 262.00 229.35 16.19
3284 56.7190 1.621634 283.00 251.83 16.82
3285 56.7340 1.621241 294.00 268.15 17.15
3286 56.7490 1.620848 255.00 276.11 15.97
3287 56.7640 1.620455 245.00 274.59 15.65
3288 56.7790 1.620063 289.00 263.80 17.00
3289 56.7940 1.619671 327.00 245.22 18.08
3290 56.8090 1.619279 297.00 221.29 17.23
3291 56.8240 1.618887 283.00 194.85 16.82
3292 56.8390 1.618495 264.00 168.63 16.25
3293 56.8540 1.618104 205.00 144.79 14.32
3294 56.8690 1.617713 126.00 124.67 11.23
3295 56.8840 1.617322 98.00 108.80 9.90
3296 56.8990 1.616931 91.00 97.05 9.54
3297 56.9140 1.616540 95.00 88.86 9.75
3298 56.9290 1.616150 79.00 83.46 8.89
3299 56.9440 1.615760 74.00 80.10 8.60
3300 56.9590 1.615370 81.00 78.11 9.00
3301 56.9740 1.614980 85.00 76.99 9.22
3302 56.9890 1.614591 87.00 76.38 9.33
3303 57.0040 1.614202 67.00 76.07 8.19
3304 57.0190 1.613813 73.00 75.90 8.54
3305 57.0340 1.613424 84.00 75.81 9.17
3306 57.0490 1.613035 76.00 75.76 8.72
3307 57.0640 1.612647 64.00 75.72 8.00
3308 57.0790 1.612259 75.00 75.68 8.66
3309 57.0940 1.611871 85.00 75.66 9.22
3310 57.1090 1.611483 80.00 75.63 8.94
3311 57.1240 1.611096 71.00 75.60 8.43
3312 57.1390 1.610708 69.00 75.57 8.31
3313 57.1540 1.610321 60.00 75.54 7.75
3314 57.1690 1.609934 76.00 75.52 8.72
3315 57.1840 1.609548 71.00 75.49 8.43
3316 57.1990 1.609161 81.00 75.46 9.00
3317 57.2140 1.608775 77.00 75.43 8.77
3318 57.2290 1.608389 74.00 75.41 8.60
3319 57.2440 1.608003 74.00 75.38 8.60
3320 57.2590 1.607617 64.00 75.35 8.00
3321 57.2740 1.607232 74.00 75.32 8.60
3322 57.2890 1.606847 76.00 75.30 8.72
3323 57.3040 1.606462 72.00 75.27 8.49
3324 57.3190 1.606077 69.00 75.24 8.31
3325 57.3340 1.605693 73.00 75.22 8.54
3326 57.3490 1.605308 77.00 75.19 8.77
3327 57.3640 1.604924 76.00 75.17 8.72
3328 57.3790 1.604540 60.00 75.16 7.75
3329 57.3940 1.604156 71.00 75.18 8.43
3330 57.4090 1.603773 85.00 75.24 9.22
3331 57.4240 1.603390 77.00 75.39 8.77
3332 57.4390 1.603007 64.00 75.72 8.00
3333 57.4540 1.602624 69.00 76.35 8.31
3334 57.4690 1.602241 69.00 77.49 8.31
3335 57.4840 1.601859 83.00 79.41 9.11
3336 57.4990 1.601477 81.00 82.47 9.00
3337 57.5140 1.601095 83.00 87.09 9.11
3338 57.5290 1.600713 91.00 93.67 9.54
3339 57.5440 1.600331 98.00 102.49 9.90
3340 57.5590 1.599950 125.00 113.64 11.18
3341 57.5740 1.599569 145.00 126.81 12.04
3342 57.5890 1.599188 173.00 141.27 13.15
3343 57.6040 1.598807 199.00 155.88 14.11
3344 57.6190 1.598426 221.00 169.19 14.87
3345 57.6340 1.598046 234.00 179.66 15.30
3346 57.6490 1.597666 230.00 185.96 15.17
3347 57.6640 1.597286 188.00 187.24 13.71
3348 57.6790 1.596906 169.00 183.32 13.00
3349 57.6940 1.596527 192.00 174.72 13.86
3350 57.7090 1.596147 225.00 162.58 15.00
3351 57.7240 1.595768 235.00 148.36 15.33
3352 57.7390 1.595389 224.00 133.61 14.97
3353 57.7540 1.595011 195.00 119.62 13.96
3354 57.7690 1.594632 128.00 107.35 11.31
3355 57.7840 1.594254 86.00 97.30 9.27
3356 57.7990 1.593876 77.00 89.58 8.77
3357 57.8140 1.593498 79.00 83.99 8.89
3358 57.8290 1.593121 84.00 80.17 9.17
3359 57.8440 1.592743 73.00 77.69 8.54
3360 57.8590 1.592366 77.00 76.16 8.77
3361 57.8740 1.591989 72.00 75.26 8.49
3362 57.8890 1.591612 80.00 74.76 8.94
3363 57.9040 1.591235 76.00 74.48 8.72
3364 57.9190 1.590859 77.00 74.33 8.77
3365 57.9340 1.590483 75.00 74.25 8.66
3366 57.9490 1.590107 75.00 74.20 8.66
3367 57.9640 1.589731 71.00 74.16 8.43
3368 57.9790 1.589355 74.00 74.13 8.60
3369 57.9940 1.588980 71.00 74.11 8.43
3370 58.0090 1.588605 67.00 74.08 8.19
3371 58.0240 1.588230 80.00 74.06 8.94
3372 58.0390 1.587855 70.00 74.03 8.37
3373 58.0540 1.587481 71.00 74.01 8.43
3374 58.0690 1.587106 82.00 73.98 9.06
3375 58.0840 1.586732 69.00 73.96 8.31
3376 58.0990 1.586358 80.00 73.94 8.94
3377 58.1140 1.585984 72.00 73.91 8.49
3378 58.1290 1.585611 65.00 73.89 8.06
3379 58.1440 1.585237 72.00 73.87 8.49
3380 58.1590 1.584864 78.00 73.84 8.83
3381 58.1740 1.584491 73.00 73.82 8.54
3382 58.1890 1.584118 75.00 73.79 8.66
3383 58.2040 1.583746 72.00 73.77 8.49
3384 58.2190 1.583374 75.00 73.75 8.66
3385 58.2340 1.583001 74.00 73.73 8.60
3386 58.2490 1.582630 71.00 73.71 8.43
3387 58.2640 1.582258 79.00 73.69 8.89
3388 58.2790 1.581886 70.00 73.68 8.37
3389 58.2940 1.581515 62.00 73.70 7.87
3390 58.3090 1.581144 71.00 73.75 8.43
3391 58.3240 1.580773 72.00 73.89 8.49
3392 58.3390 1.580402 80.00 74.16 8.94
3393 58.3540 1.580032 70.00 74.68 8.37
3394 58.3690 1.579661 87.00 75.58 9.33
3395 58.3840 1.579291 83.00 77.06 9.11
3396 58.3990 1.578921 90.00 79.36 9.49
3397 58.4140 1.578552 82.00 82.75 9.06
3398 58.4290 1.578182 84.00 87.45 9.17
3399 58.4440 1.577813 104.00 93.62 10.20
3400 58.4590 1.577444 122.00 101.24 11.05
3401 58.4740 1.577075 124.00 110.03 11.14
3402 58.4890 1.576706 128.00 119.48 11.31
3403 58.5040 1.576338 154.00 128.79 12.41
3404 58.5190 1.575969 154.00 137.03 12.41
3405 58.5340 1.575601 157.00 143.24 12.53
3406 58.5490 1.575233 152.00 146.65 12.33
3407 58.5640 1.574865 152.00 146.81 12.33
3408 58.5790 1.574498 129.00 143.69 11.36
3409 58.5940 1.574131 158.00 137.70 12.57
3410 58.6090 1.573763 127.00 129.59 11.27
3411 58.6240 1.573397 148.00 120.29 12.17
3412 58.6390 1.573030 151.00 110.77 12.29
3413 58.6540 1.572663 112.00 101.82 10.58
3414 58.6690 1.572297 83.00 94.01 9.11
3415 58.6840 1.571931 75.00 87.64 8.66
3416 58.6990 1.571565 77.00 82.73 8.77
3417 58.7140 1.571199 73.00 79.18 8.54
3418 58.7290 1.570834 71.00 76.73 8.43
3419 58.7440 1.570468 74.00 75.14 8.60
3420 58.7590 1.570103 70.00 74.15 8.37
3421 58.7740 1.569738 79.00 73.56 8.89
3422 58.7890 1.569373 79.00 73.22 8.89
3423 58.8040 1.569009 76.00 73.03 8.72
3424 58.8190 1.568644 64.00 72.93 8.00
3425 58.8340 1.568280 76.00 72.87 8.72
3426 58.8490 1.567916 75.00 72.83 8.66
3427 58.8640 1.567553 64.00 72.80 8.00
3428 58.8790 1.567189 74.00 72.78 8.60
3429 58.8940 1.566826 64.00 72.75 8.00
3430 58.9090 1.566462 54.00 72.73 7.35
3431 58.9240 1.566099 65.00 72.71 8.06
3432 58.9390 1.565737 67.00 72.69 8.19
3433 58.9540 1.565374 69.00 72.67 8.31
3434 58.9690 1.565012 90.00 72.65 9.49
3435 58.9840 1.564649 80.00 72.63 8.94
3436 58.9990 1.564287 63.00 72.61 7.94
3437 59.0140 1.563925 71.00 72.59 8.43
3438 59.0290 1.563564 83.00 72.57 9.11
3439 59.0440 1.563202 66.00 72.55 8.12
3440 59.0590 1.562841 75.00 72.53 8.66
3441 59.0740 1.562480 82.00 72.51 9.06
3442 59.0890 1.562119 70.00 72.49 8.37
3443 59.1040 1.561759 63.00 72.47 7.94
3444 59.1190 1.561398 74.00 72.45 8.60
3445 59.1340 1.561038 79.00 72.44 8.89
3446 59.1490 1.560678 67.00 72.43 8.19
3447 59.1640 1.560318 68.00 72.43 8.25
3448 59.1790 1.559958 80.00 72.46 8.94
3449 59.1940 1.559599 64.00 72.55 8.00
3450 59.2090 1.559239 68.00 72.73 8.25
3451 59.2240 1.558880 75.00 73.10 8.66
3452 59.2390 1.558521 70.00 73.77 8.37
3453 59.2540 1.558162 71.00 74.92 8.43
3454 59.2690 1.557804 75.00 76.80 8.66
3455 59.2840 1.557446 66.00 79.71 8.12
3456 59.2990 1.557087 78.00 83.98 8.83
3457 59.3140 1.556729 86.00 89.91 9.27
3458 59.3290 1.556372 89.00 97.71 9.43
3459 59.3440 1.556014 128.00 107.37 11.31
3460 59.3590 1.555657 152.00 118.61 12.33
3461 59.3740 1.555299 158.00 130.80 12.57
3462 59.3890 1.554942 177.00 143.01 13.30
3463 59.4040 1.554586 199.00 154.07 14.11
3464 59.4190 1.554229 182.00 162.77 13.49
3465 59.4340 1.553872 141.00 168.07 11.87
3466 59.4490 1.553516 153.00 169.29 12.37
3467 59.4640 1.553160 152.00 166.28 12.33
3468 59.4790 1.552804 158.00 159.41 12.57
3469 59.4940 1.552449 152.00 149.54 12.33
3470 59.5090 1.552093 163.00 137.81 12.77
3471 59.5240 1.551738 165.00 125.43 12.85
3472 59.5390 1.551383 136.00 113.50 11.66
3473 59.5540 1.551028 112.00 102.82 10.58
3474 59.5690 1.550673 82.00 93.88 9.06
3475 59.5840 1.550318 76.00 86.84 8.72
3476 59.5990 1.549964 74.00 81.61 8.60
3477 59.6140 1.549610 75.00 77.92 8.66
3478 59.6290 1.549256 70.00 75.44 8.37
3479 59.6440 1.548902 73.00 73.87 8.54
3480 59.6590 1.548548 77.00 72.92 8.77
3481 59.6740 1.548195 79.00 72.36 8.89
3482 59.6890 1.547842 83.00 72.05 9.11
3483 59.7040 1.547489 75.00 71.88 8.66
3484 59.7190 1.547136 92.00 71.79 9.59
3485 59.7340 1.546783 77.00 71.74 8.77
3486 59.7490 1.546431 74.00 71.70 8.60
3487 59.7640 1.546078 71.00 71.68 8.43
3488 59.7790 1.545726 73.00 71.66 8.54
3489 59.7940 1.545374 77.00 71.64 8.77
3490 59.8090 1.545023 76.00 71.63 8.72
3491 59.8240 1.544671 80.00 71.61 8.94
3492 59.8390 1.544320 88.00 71.60 9.38
3493 59.8540 1.543968 88.00 71.58 9.38
3494 59.8690 1.543617 77.00 71.57 8.77
3495 59.8840 1.543267 84.00 71.55 9.17
3496 59.8990 1.542916 76.00 71.54 8.72
3497 59.9140 1.542566 81.00 71.52 9.00
3498 59.9290 1.542215 73.00 71.51 8.54
3499 59.9440 1.541865 67.00 71.49 8.19
3500 59.9590 1.541515 71.00 71.48 8.43
3501 59.9740 1.541166 70.00 71.47 8.37
3502 59.9890 1.540816 71.00 71.46 8.43
3503 60.0040 1.540467 65.00 71.46 8.06
3504 60.0190 1.540118 75.00 71.47 8.66
3505 60.0340 1.539769 71.00 71.52 8.43
3506 60.0490 1.539420 80.00 71.65 8.94
3507 60.0640 1.539072 80.00 71.93 8.94
3508 60.0790 1.538723 73.00 72.50 8.54
3509 60.0940 1.538375 78.00 73.60 8.83
3510 60.1090 1.538027 71.00 75.60 8.43
3511 60.1240 1.537679 70.00 79.07 8.37
3512 60.1390 1.537331 81.00 84.81 9.00
3513 60.1540 1.536984 96.00 93.84 9.80
3514 60.1690 1.536636 96.00 107.36 9.80
3515 60.1840 1.536289 92.00 126.59 9.59
3516 60.1990 1.535942 113.00 152.55 10.63
3517 60.2140 1.535596 178.00 185.69 13.34
3518 60.2290 1.535249 243.00 225.61 15.59
3519 60.2440 1.534903 319.00 270.74 17.86
3520 60.2590 1.534557 410.00 318.27 20.25
3521 60.2740 1.534211 471.00 364.32 21.70
3522 60.2890 1.533864 481.00 404.39 21.93
3523 60.3040 1.533519 453.00 434.05 21.28
3524 60.3190 1.533173 414.00 449.79 20.35
3525 60.3340 1.532828 340.00 449.64 18.44
3526 60.3490 1.532483 389.00 433.64 19.72
3527 60.3640 1.532138 446.00 403.75 21.12
3528 60.3790 1.531793 478.00 363.52 21.86
3529 60.3940 1.531449 488.00 317.36 22.09
3530 60.4090 1.531104 418.00 269.79 20.44
3531 60.4240 1.530760 295.00 224.69 17.18
3532 60.4390 1.530416 167.00 184.85 12.92
3533 60.4540 1.530072 125.00 151.81 11.18
3534 60.4690 1.529729 86.00 125.97 9.27
3535 60.4840 1.529385 67.00 106.83 8.19
3536 60.4990 1.529042 66.00 93.41 8.12
3537 60.5140 1.528699 72.00 84.45 8.49
3538 60.5290 1.528356 77.00 78.77 8.77
3539 60.5440 1.528013 73.00 75.34 8.54
3540 60.5590 1.527671 73.00 73.36 8.54
3541 60.5740 1.527328 68.00 72.28 8.25
3542 60.5890 1.526986 77.00 71.71 8.77
3543 60.6040 1.526644 62.00 71.43 7.87
3544 60.6190 1.526302 78.00 71.31 8.83
3545 60.6340 1.525960 70.00 71.25 8.37
3546 60.6490 1.525619 86.00 71.24 9.27
3547 60.6640 1.525277 91.00 71.24 9.54
3548 60.6790 1.524936 83.00 71.26 9.11
3549 60.6940 1.524595 83.00 71.28 9.11
3550 60.7090 1.524254 73.00 71.30 8.54
3551 60.7240 1.523914 72.00 71.32 8.49
3552 60.7390 1.523574 86.00 71.35 9.27
3553 60.7540 1.523233 69.00 71.38 8.31
3554 60.7690 1.522893 72.00 71.42 8.49
3555 60.7840 1.522553 68.00 71.46 8.25
3556 60.7990 1.522214 72.00 71.50 8.49
3557 60.8140 1.521874 95.00 71.55 9.75
3558 60.8290 1.521535 88.00 71.61 9.38
3559 60.8440 1.521195 84.00 71.67 9.17
3560 60.8590 1.520856 83.00 71.74 9.11
3561 60.8740 1.520518 64.00 71.82 8.00
3562 60.8890 1.520179 87.00 71.91 9.33
3563 60.9040 1.519841 73.00 72.00 8.54
3564 60.9190 1.519502 77.00 72.11 8.77
3565 60.9340 1.519164 81.00 72.24 9.00
3566 60.9490 1.518826 75.00 72.38 8.66
3567 60.9640 1.518488 64.00 72.53 8.00
3568 60.9790 1.518151 63.00 72.71 7.94
3569 60.9940 1.517813 71.00 72.91 8.43
3570 61.0090 1.517476 75.00 73.14 8.66
3571 61.0240 1.517139 80.00 73.40 8.94
3572 61.0390 1.516802 84.00 73.70 9.17
3573 61.0540 1.516465 77.00 74.04 8.77
3574 61.0690 1.516129 66.00 74.42 8.12
3575 61.0840 1.515792 68.00 74.85 8.25
3576 61.0990 1.515456 77.00 75.34 8.77
3577 61.1140 1.515120 89.00 75.90 9.43
3578 61.1290 1.514784 95.00 76.52 9.75
3579 61.1440 1.514449 83.00 77.21 9.11
3580 61.1590 1.514113 75.00 77.97 8.66
3581 61.1740 1.513778 79.00 78.80 8.89
3582 61.1890 1.513443 65.00 79.68 8.06
3583 61.2040 1.513108 79.00 80.60 8.89
3584 61.2190 1.512773 95.00 81.51 9.75
3585 61.2340 1.512438 83.00 82.38 9.11
3586 61.2490 1.512104 83.00 83.13 9.11
3587 61.2640 1.511770 82.00 83.71 9.06
3588 61.2790 1.511436 89.00 84.06 9.43
3589 61.2940 1.511102 84.00 84.14 9.17
3590 61.3090 1.510768 74.00 83.94 8.60
3591 61.3240 1.510434 85.00 83.47 9.22
3592 61.3390 1.510101 83.00 82.80 9.11
3593 61.3540 1.509768 83.00 81.97 9.11
3594 61.3690 1.509435 98.00 81.05 9.90
3595 61.3840 1.509102 89.00 80.10 9.43
3596 61.3990 1.508769 84.00 79.17 9.17
3597 61.4140 1.508436 71.00 78.27 8.43
3598 61.4290 1.508104 84.00 77.44 9.17
3599 61.4440 1.507772 82.00 76.67 9.06
3600 61.4590 1.507440 73.00 75.98 8.54
3601 61.4740 1.507108 68.00 75.35 8.25
3602 61.4890 1.506776 65.00 74.80 8.06
3603 61.5040 1.506445 66.00 74.30 8.12
3604 61.5190 1.506114 70.00 73.85 8.37
3605 61.5340 1.505782 65.00 73.46 8.06
3606 61.5490 1.505451 73.00 73.11 8.54
3607 61.5640 1.505121 72.00 72.80 8.49
3608 61.5790 1.504790 70.00 72.52 8.37
3609 61.5940 1.504459 70.00 72.27 8.37
3610 61.6090 1.504129 81.00 72.05 9.00
3611 61.6240 1.503799 80.00 71.85 8.94
3612 61.6390 1.503469 65.00 71.67 8.06
3613 61.6540 1.503139 75.00 71.51 8.66
3614 61.6690 1.502810 76.00 71.37 8.72
3615 61.6840 1.502480 81.00 71.23 9.00
3616 61.6990 1.502151 75.00 71.11 8.66
3617 61.7140 1.501822 79.00 71.00 8.89
3618 61.7290 1.501493 68.00 70.90 8.25
3619 61.7440 1.501164 60.00 70.80 7.75
3620 61.7590 1.500835 79.00 70.72 8.89
3621 61.7740 1.500507 73.00 70.64 8.54
3622 61.7890 1.500178 78.00 70.57 8.83
3623 61.8040 1.499851 84.00 70.52 9.17
3624 61.8190 1.499523 80.00 70.49 8.94
3625 61.8340 1.499195 77.00 70.49 8.77
3626 61.8490 1.498867 87.00 70.54 9.33
3627 61.8640 1.498540 69.00 70.67 8.31
3628 61.8790 1.498212 77.00 70.90 8.77
3629 61.8940 1.497885 70.00 71.30 8.37
3630 61.9090 1.497558 84.00 71.89 9.17
3631 61.9240 1.497232 78.00 72.74 8.83
3632 61.9390 1.496905 68.00 73.86 8.25
3633 61.9540 1.496579 69.00 75.27 8.31
3634 61.9690 1.496253 78.00 76.93 8.83
3635 61.9840 1.495926 81.00 78.78 9.00
3636 61.9990 1.495600 73.00 80.68 8.54
3637 62.0140 1.495275 84.00 82.50 9.17
3638 62.0290 1.494949 94.00 84.03 9.70
3639 62.0440 1.494624 89.00 85.13 9.43
3640 62.0590 1.494299 84.00 85.67 9.17
3641 62.0740 1.493973 81.00 85.56 9.00
3642 62.0890 1.493648 79.00 84.84 8.89
3643 62.1040 1.493324 82.00 83.57 9.06
3644 62.1190 1.492999 83.00 81.89 9.11
3645 62.1340 1.492675 81.00 79.98 9.00
3646 62.1490 1.492351 76.00 78.01 8.72
3647 62.1640 1.492026 72.00 76.14 8.49
3648 62.1790 1.491703 72.00 74.46 8.49
3649 62.1940 1.491379 63.00 73.05 7.94
3650 62.2090 1.491055 60.00 71.92 7.75
3651 62.2240 1.490732 75.00 71.07 8.66
3652 62.2390 1.490409 81.00 70.45 9.00
3653 62.2540 1.490085 67.00 70.02 8.19
3654 62.2690 1.489763 65.00 69.74 8.06
3655 62.2840 1.489440 80.00 69.55 8.94
3656 62.2990 1.489117 86.00 69.43 9.27
3657 62.3140 1.488795 69.00 69.36 8.31
3658 62.3290 1.488473 68.00 69.31 8.25
3659 62.3440 1.488150 66.00 69.27 8.12
3660 62.3590 1.487829 71.00 69.25 8.43
3661 62.3740 1.487507 65.00 69.22 8.06
3662 62.3890 1.487185 64.00 69.20 8.00
3663 62.4040 1.486864 61.00 69.18 7.81
3664 62.4190 1.486543 66.00 69.17 8.12
3665 62.4340 1.486222 80.00 69.15 8.94
3666 62.4490 1.485900 70.00 69.13 8.37
3667 62.4640 1.485580 73.00 69.11 8.54
3668 62.4790 1.485259 71.00 69.10 8.43
3669 62.4940 1.484939 82.00 69.08 9.06
3670 62.5090 1.484618 68.00 69.06 8.25
3671 62.5240 1.484298 78.00 69.05 8.83
3672 62.5390 1.483978 70.00 69.03 8.37
3673 62.5540 1.483659 75.00 69.02 8.66
3674 62.5690 1.483339 63.00 69.01 7.94
3675 62.5840 1.483019 69.00 69.00 8.31
3676 62.5990 1.482700 77.00 69.00 8.77
3677 62.6140 1.482381 71.00 69.04 8.43
3678 62.6290 1.482062 71.00 69.12 8.43
3679 62.6440 1.481743 69.00 69.31 8.31
3680 62.6590 1.481425 70.00 69.69 8.37
3681 62.6740 1.481106 66.00 70.43 8.12
3682 62.6890 1.480788 72.00 71.77 8.49
3683 62.7040 1.480470 65.00 74.10 8.06
3684 62.7190 1.480152 78.00 77.98 8.83
3685 62.7340 1.479834 84.00 84.12 9.17
3686 62.7490 1.479516 76.00 93.44 8.72
3687 62.7640 1.479199 78.00 106.92 8.83
3688 62.7790 1.478881 107.00 125.54 10.34
3689 62.7940 1.478564 121.00 150.02 11.00
3690 62.8090 1.478247 161.00 180.59 12.69
3691 62.8240 1.477930 228.00 216.74 15.10
3692 62.8390 1.477613 347.00 257.07 18.63
3693 62.8540 1.477297 417.00 299.16 20.42
3694 62.8690 1.476980 446.00 339.81 21.12
3695 62.8840 1.476664 458.00 375.36 21.40
3696 62.8990 1.476348 435.00 402.22 20.86
3697 62.9140 1.476032 337.00 417.48 18.36
3698 62.9290 1.475717 288.00 419.37 16.97
3699 62.9440 1.475401 317.00 407.69 17.80
3700 62.9590 1.475086 378.00 383.78 19.44
3701 62.9740 1.474770 443.00 350.27 21.05
3702 62.9890 1.474455 481.00 310.62 21.93
3703 63.0040 1.474140 455.00 268.53 21.33
3704 63.0190 1.473825 376.00 227.38 19.39
3705 63.0340 1.473511 241.00 189.84 15.52
3706 63.0490 1.473196 132.00 157.60 11.49
3707 63.0640 1.472882 97.00 131.41 9.85
3708 63.0790 1.472568 77.00 111.20 8.77
3709 63.0940 1.472254 74.00 96.36 8.60
3710 63.1090 1.471940 70.00 85.97 8.37
3711 63.1240 1.471626 57.00 79.03 7.55
3712 63.1390 1.471313 68.00 74.59 8.25
3713 63.1540 1.470999 71.00 71.88 8.43
3714 63.1690 1.470686 69.00 70.29 8.31
3715 63.1840 1.470373 73.00 69.39 8.54
3716 63.1990 1.470060 85.00 68.90 9.22
3717 63.2140 1.469748 70.00 68.65 8.37
3718 63.2290 1.469435 73.00 68.51 8.54
3719 63.2440 1.469123 56.00 68.44 7.48
3720 63.2590 1.468810 66.00 68.41 8.12
3721 63.2740 1.468498 73.00 68.38 8.54
3722 63.2890 1.468186 69.00 68.37 8.31
3723 63.3040 1.467875 70.00 68.35 8.37
3724 63.3190 1.467563 61.00 68.34 7.81
3725 63.3340 1.467252 59.00 68.33 7.68
3726 63.3490 1.466940 68.00 68.32 8.25
3727 63.3640 1.466629 67.00 68.31 8.19
3728 63.3790 1.466318 74.00 68.29 8.60
3729 63.3940 1.466007 72.00 68.28 8.49
3730 63.4090 1.465697 60.00 68.27 7.75
3731 63.4240 1.465386 63.00 68.27 7.94
3732 63.4390 1.465076 74.00 68.27 8.60
3733 63.4540 1.464766 66.00 68.28 8.12
3734 63.4690 1.464456 72.00 68.31 8.49
3735 63.4840 1.464146 81.00 68.40 9.00
3736 63.4990 1.463836 74.00 68.58 8.60
3737 63.5140 1.463526 82.00 68.94 9.06
3738 63.5290 1.463217 76.00 69.62 8.72
3739 63.5440 1.462908 62.00 70.81 7.87
3740 63.5590 1.462599 86.00 72.81 9.27
3741 63.5740 1.462290 76.00 76.05 8.72
3742 63.5890 1.461981 73.00 81.08 8.54
3743 63.6040 1.461672 77.00 88.54 8.77
3744 63.6190 1.461364 87.00 99.11 9.33
3745 63.6340 1.461056 105.00 113.41 10.25
3746 63.6490 1.460747 114.00 131.84 10.68
3747 63.6640 1.460439 163.00 154.44 12.77
3748 63.6790 1.460131 219.00 180.66 14.80
3749 63.6940 1.459824 266.00 209.36 16.31
3750 63.7090 1.459516 303.00 238.75 17.41
3751 63.7240 1.459209 384.00 266.53 19.60
3752 63.7390 1.458902 396.00 290.20 19.90
3753 63.7540 1.458594 321.00 307.38 17.92
3754 63.7690 1.458287 338.00 316.24 18.38
3755 63.7840 1.457981 270.00 315.78 16.43
3756 63.7990 1.457674 248.00 306.06 15.75
3757 63.8140 1.457368 299.00 288.15 17.29
3758 63.8290 1.457061 329.00 263.96 18.14
3759 63.8440 1.456755 344.00 235.88 18.55
3760 63.8590 1.456449 291.00 206.44 17.06
3761 63.8740 1.456143 247.00 177.88 15.72
3762 63.8890 1.455837 177.00 151.93 13.30
3763 63.9040 1.455532 120.00 129.70 10.95
3764 63.9190 1.455227 79.00 111.64 8.89
3765 63.9340 1.454921 65.00 97.70 8.06
3766 63.9490 1.454616 64.00 87.43 8.00
3767 63.9640 1.454311 68.00 80.22 8.25
3768 63.9790 1.454006 69.00 75.37 8.31
3769 63.9940 1.453702 81.00 72.25 9.00
3770 64.0090 1.453397 74.00 70.32 8.60
3771 64.0240 1.453093 75.00 69.19 8.66
3772 64.0390 1.452789 63.00 68.54 7.94
3773 64.0540 1.452485 68.00 68.18 8.25
3774 64.0690 1.452181 82.00 67.99 9.06
3775 64.0840 1.451877 68.00 67.89 8.25
3776 64.0990 1.451574 75.00 67.84 8.66
3777 64.1140 1.451270 63.00 67.81 7.94
3778 64.1290 1.450967 56.00 67.79 7.48
3779 64.1440 1.450664 68.00 67.77 8.25
3780 64.1590 1.450361 60.00 67.76 7.75
3781 64.1740 1.450058 68.00 67.75 8.25
3782 64.1890 1.449755 69.00 67.74 8.31
3783 64.2040 1.449453 64.00 67.73 8.00
3784 64.2190 1.449150 66.00 67.72 8.12
3785 64.2340 1.448848 71.00 67.71 8.43
3786 64.2490 1.448546 75.00 67.70 8.66
3787 64.2640 1.448244 77.00 67.69 8.77
3788 64.2790 1.447942 62.00 67.68 7.87
3789 64.2940 1.447641 60.00 67.68 7.75
3790 64.3090 1.447340 65.00 67.68 8.06
3791 64.3240 1.447038 79.00 67.68 8.89
3792 64.3390 1.446737 74.00 67.71 8.60
3793 64.3540 1.446436 74.00 67.76 8.60
3794 64.3690 1.446135 67.00 67.87 8.19
3795 64.3840 1.445834 77.00 68.07 8.77
3796 64.3990 1.445534 70.00 68.41 8.37
3797 64.4140 1.445233 73.00 68.97 8.54
3798 64.4290 1.444933 80.00 69.85 8.94
3799 64.4440 1.444633 70.00 71.16 8.37
3800 64.4590 1.444333 64.00 73.03 8.00
3801 64.4740 1.444033 81.00 75.58 9.00
3802 64.4890 1.443734 80.00 78.90 8.94
3803 64.5040 1.443434 86.00 83.02 9.27
3804 64.5190 1.443135 95.00 87.87 9.75
3805 64.5340 1.442836 98.00 93.26 9.90
3806 64.5490 1.442536 115.00 98.91 10.72
3807 64.5640 1.442237 110.00 104.41 10.49
3808 64.5790 1.441939 118.00 109.29 10.86
3809 64.5940 1.441640 98.00 113.10 9.90
3810 64.6090 1.441342 105.00 115.43 10.25
3811 64.6240 1.441043 79.00 116.06 8.89
3812 64.6390 1.440745 96.00 114.89 9.80
3813 64.6540 1.440447 104.00 112.07 10.20
3814 64.6690 1.440149 123.00 107.88 11.09
3815 64.6840 1.439852 97.00 102.75 9.85
3816 64.6990 1.439554 100.00 97.14 10.00
3817 64.7140 1.439257 95.00 91.51 9.75
3818 64.7290 1.438959 79.00 86.23 8.89
3819 64.7440 1.438662 70.00 81.56 8.37
3820 64.7590 1.438365 71.00 77.65 8.43
3821 64.7740 1.438068 73.00 74.55 8.54
3822 64.7890 1.437772 68.00 72.19 8.25
3823 64.8040 1.437475 66.00 70.48 8.12
3824 64.8190 1.437179 71.00 69.29 8.43
3825 64.8340 1.436882 66.00 68.50 8.12
3826 64.8490 1.436586 65.00 67.97 8.06
3827 64.8640 1.436290 65.00 67.66 8.06
3828 64.8790 1.435995 64.00 67.48 8.00
3829 64.8940 1.435699 74.00 67.37 8.60
3830 64.9090 1.435403 53.00 67.30 7.28
3831 64.9240 1.435108 54.00 67.27 7.35
3832 64.9390 1.434813 65.00 67.24 8.06
3833 64.9540 1.434518 77.00 67.23 8.77
3834 64.9690 1.434223 68.00 67.22 8.25
3835 64.9840 1.433928 79.00 67.21 8.89
3836 64.9990 1.433633 69.00 67.20 8.31
3837 65.0140 1.433339 67.00 67.19 8.19
3838 65.0290 1.433044 66.00 67.18 8.12
3839 65.0440 1.432750 71.00 67.17 8.43
3840 65.0590 1.432456 62.00 67.16 7.87
3841 65.0740 1.432162 61.00 67.15 7.81
3842 65.0890 1.431868 68.00 67.14 8.25
3843 65.1040 1.431575 68.00 67.13 8.25
3844 65.1190 1.431281 62.00 67.12 7.87
3845 65.1340 1.430988 77.00 67.12 8.77
3846 65.1490 1.430695 68.00 67.11 8.25
3847 65.1640 1.430402 65.00 67.11 8.06
3848 65.1790 1.430109 59.00 67.12 7.68
3849 65.1940 1.429816 77.00 67.15 8.77
3850 65.2090 1.429523 68.00 67.20 8.25
3851 65.2240 1.429231 66.00 67.29 8.12
3852 65.2390 1.428939 77.00 67.45 8.77
3853 65.2540 1.428646 81.00 67.72 9.00
3854 65.2690 1.428355 67.00 68.13 8.19
3855 65.2840 1.428062 60.00 68.74 7.75
3856 65.2990 1.427771 53.00 69.61 7.28
3857 65.3140 1.427479 59.00 70.77 7.68
3858 65.3290 1.427187 75.00 72.28 8.66
3859 65.3440 1.426896 64.00 74.13 8.00
3860 65.3590 1.426605 78.00 76.29 8.83
3861 65.3740 1.426314 84.00 78.69 9.17
3862 65.3890 1.426023 99.00 81.23 9.95
3863 65.4040 1.425732 114.00 83.64 10.68
3864 65.4190 1.425442 105.00 85.78 10.25
3865 65.4340 1.425151 99.00 87.44 9.95
3866 65.4490 1.424861 100.00 88.46 10.00
3867 65.4640 1.424571 80.00 88.74 8.94
3868 65.4790 1.424281 77.00 88.23 8.77
3869 65.4940 1.423991 89.00 87.00 9.43
3870 65.5090 1.423701 92.00 85.17 9.59
3871 65.5240 1.423411 104.00 82.92 10.20
3872 65.5390 1.423122 82.00 80.44 9.06
3873 65.5540 1.422833 79.00 77.95 8.89
3874 65.5690 1.422544 95.00 75.59 9.75
3875 65.5840 1.422255 74.00 73.49 8.60
3876 65.5990 1.421966 83.00 71.71 9.11
3877 65.6140 1.421677 71.00 70.29 8.43
3878 65.6290 1.421388 69.00 69.19 8.31
3879 65.6440 1.421100 82.00 68.39 9.06
3880 65.6590 1.420811 67.00 67.82 8.19
3881 65.6740 1.420523 79.00 67.44 8.89
3882 65.6890 1.420235 76.00 67.19 8.72
3883 65.7040 1.419947 76.00 67.03 8.72
3884 65.7190 1.419659 68.00 66.94 8.25
3885 65.7340 1.419372 69.00 66.88 8.31
3886 65.7490 1.419084 62.00 66.84 7.87
3887 65.7640 1.418797 51.00 66.82 7.14
3888 65.7790 1.418510 72.00 66.80 8.49
3889 65.7940 1.418223 75.00 66.79 8.66
3890 65.8090 1.417936 63.00 66.78 7.94
3891 65.8240 1.417649 57.00 66.77 7.55
3892 65.8390 1.417362 66.00 66.77 8.12
3893 65.8540 1.417076 76.00 66.76 8.72
3894 65.8690 1.416789 69.00 66.75 8.31
3895 65.8840 1.416503 68.00 66.74 8.25
3896 65.8990 1.416217 62.00 66.74 7.87
3897 65.9140 1.415931 77.00 66.73 8.77
3898 65.9290 1.415645 70.00 66.73 8.37
3899 65.9440 1.415360 63.00 66.72 7.94
3900 65.9590 1.415074 61.00 66.73 7.81
3901 65.9740 1.414789 62.00 66.75 7.87
3902 65.9890 1.414504 69.00 66.81 8.31
3903 66.0040 1.414219 65.00 66.92 8.06
3904 66.0190 1.413934 66.00 67.14 8.12
3905 66.0340 1.413649 67.00 67.53 8.19
3906 66.0490 1.413364 67.00 68.23 8.19
3907 66.0640 1.413079 78.00 69.40 8.83
3908 66.0790 1.412795 71.00 71.29 8.43
3909 66.0940 1.412511 68.00 74.22 8.25
3910 66.1090 1.412227 56.00 78.60 7.48
3911 66.1240 1.411943 66.00 84.85 8.12
3912 66.1390 1.411659 80.00 93.42 8.94
3913 66.1540 1.411375 97.00 104.68 9.85
3914 66.1690 1.411091 133.00 118.80 11.53
3915 66.1840 1.410808 137.00 135.70 11.70
3916 66.1990 1.410525 184.00 154.93 13.56
3917 66.2140 1.410242 251.00 175.62 15.84
3918 66.2290 1.409958 280.00 196.51 16.73
3919 66.2440 1.409676 317.00 216.08 17.80
3920 66.2590 1.409393 277.00 232.65 16.64
3921 66.2740 1.409110 256.00 244.70 16.00
3922 66.2890 1.408828 209.00 251.03 14.46
3923 66.3040 1.408545 180.00 251.00 13.42
3924 66.3190 1.408263 235.00 244.61 15.33
3925 66.3340 1.407981 261.00 232.51 16.16
3926 66.3490 1.407699 296.00 215.89 17.20
3927 66.3640 1.407418 285.00 196.30 16.88
3928 66.3790 1.407136 243.00 175.39 15.59
3929 66.3940 1.406854 191.00 154.70 13.82
3930 66.4090 1.406573 162.00 135.48 12.73
3931 66.4240 1.406291 91.00 118.59 9.54
3932 66.4390 1.406011 68.00 104.47 8.25
3933 66.4540 1.405730 76.00 93.23 8.72
3934 66.4690 1.405449 70.00 84.67 8.37
3935 66.4840 1.405168 52.00 78.43 7.21
3936 66.4990 1.404887 76.00 74.07 8.72
3937 66.5140 1.404607 66.00 71.14 8.12
3938 66.5290 1.404327 71.00 69.25 8.43
3939 66.5440 1.404047 70.00 68.08 8.37
3940 66.5590 1.403767 67.00 67.39 8.19
3941 66.5740 1.403487 67.00 66.99 8.19
3942 66.5890 1.403207 69.00 66.77 8.31
3943 66.6040 1.402927 64.00 66.65 8.00
3944 66.6190 1.402648 61.00 66.60 7.81
3945 66.6340 1.402368 66.00 66.57 8.12
3946 66.6490 1.402089 51.00 66.56 7.14
3947 66.6640 1.401810 71.00 66.56 8.43
3948 66.6790 1.401531 66.00 66.56 8.12
3949 66.6940 1.401252 65.00 66.57 8.06
3950 66.7090 1.400974 63.00 66.57 7.94
3951 66.7240 1.400695 69.00 66.58 8.31
3952 66.7390 1.400417 66.00 66.59 8.12
3953 66.7540 1.400138 82.00 66.60 9.06
3954 66.7690 1.399861 74.00 66.62 8.60
3955 66.7840 1.399583 51.00 66.63 7.14
3956 66.7990 1.399305 63.00 66.66 7.94
3957 66.8140 1.399027 66.00 66.70 8.12
3958 66.8290 1.398749 70.00 66.76 8.37
3959 66.8440 1.398472 77.00 66.86 8.77
3960 66.8590 1.398194 72.00 67.02 8.49
3961 66.8740 1.397917 70.00 67.29 8.37
3962 66.8890 1.397640 67.00 67.73 8.19
3963 66.9040 1.397363 75.00 68.42 8.66
3964 66.9190 1.397087 70.00 69.48 8.37
3965 66.9340 1.396810 61.00 71.04 7.81
3966 66.9490 1.396533 75.00 73.25 8.66
3967 66.9640 1.396257 55.00 76.28 7.42
3968 66.9790 1.395981 69.00 80.26 8.31
3969 66.9940 1.395704 75.00 85.26 8.66
3970 67.0090 1.395429 97.00 91.27 9.85
3971 67.0240 1.395153 120.00 98.16 10.95
3972 67.0390 1.394877 121.00 105.64 11.00
3973 67.0540 1.394601 152.00 113.31 12.33
3974 67.0690 1.394326 165.00 120.64 12.85
3975 67.0840 1.394051 155.00 127.04 12.45
3976 67.0990 1.393775 166.00 131.96 12.88
3977 67.1140 1.393500 147.00 134.94 12.12
3978 67.1290 1.393225 116.00 135.71 10.77
3979 67.1440 1.392951 130.00 134.19 11.40
3980 67.1590 1.392676 145.00 130.55 12.04
3981 67.1740 1.392401 146.00 125.17 12.08
3982 67.1890 1.392127 170.00 118.56 13.04
3983 67.2040 1.391853 171.00 111.30 13.08
3984 67.2190 1.391579 147.00 103.96 12.12
3985 67.2340 1.391305 120.00 97.03 10.95
3986 67.2490 1.391031 88.00 90.86 9.38
3987 67.2640 1.390757 92.00 85.67 9.59
3988 67.2790 1.390483 83.00 81.54 9.11
3989 67.2940 1.390210 69.00 78.45 8.31
3990 67.3090 1.389937 66.00 76.30 8.12
3991 67.3240 1.389663 76.00 74.93 8.72
3992 67.3390 1.389390 79.00 74.19 8.89
3993 67.3540 1.389117 65.00 73.93 8.06
3994 67.3690 1.388844 67.00 74.02 8.19
3995 67.3840 1.388572 78.00 74.35 8.83
3996 67.3990 1.388299 70.00 74.82 8.37
3997 67.4140 1.388027 78.00 75.36 8.83
3998 67.4290 1.387754 76.00 75.90 8.72
3999 67.4440 1.387482 78.00 76.39 8.83
4000 67.4590 1.387210 71.00 76.77 8.43
4001 67.4740 1.386938 75.00 77.01 8.66
4002 67.4890 1.386667 72.00 77.07 8.49
4003 67.5040 1.386395 72.00 76.95 8.49
4004 67.5190 1.386124 79.00 76.66 8.89
4005 67.5340 1.385852 82.00 76.22 9.06
4006 67.5490 1.385581 75.00 75.66 8.66
4007 67.5640 1.385310 76.00 75.03 8.72
4008 67.5790 1.385039 77.00 74.36 8.77
4009 67.5940 1.384768 84.00 73.68 9.17
4010 67.6090 1.384497 70.00 73.01 8.37
4011 67.6240 1.384227 75.00 72.37 8.66
4012 67.6390 1.383956 65.00 71.77 8.06
4013 67.6540 1.383686 75.00 71.22 8.66
4014 67.6690 1.383415 65.00 70.71 8.06
4015 67.6840 1.383145 53.00 70.24 7.28
4016 67.6990 1.382875 65.00 69.82 8.06
4017 67.7140 1.382606 76.00 69.44 8.72
4018 67.7290 1.382336 70.00 69.10 8.37
4019 67.7440 1.382066 66.00 68.79 8.12
4020 67.7590 1.381797 61.00 68.52 7.81
4021 67.7740 1.381527 67.00 68.27 8.19
4022 67.7890 1.381258 68.00 68.04 8.25
4023 67.8040 1.380989 69.00 67.84 8.31
4024 67.8190 1.380720 70.00 67.66 8.37
4025 67.8340 1.380452 68.00 67.50 8.25
4026 67.8490 1.380183 60.00 67.35 7.75
4027 67.8640 1.379914 76.00 67.21 8.72
4028 67.8790 1.379646 76.00 67.09 8.72
4029 67.8940 1.379378 69.00 66.98 8.31
4030 67.9090 1.379110 65.00 66.88 8.06
4031 67.9240 1.378841 62.00 66.78 7.87
4032 67.9390 1.378573 66.00 66.70 8.12
4033 67.9540 1.378306 58.00 66.62 7.62
4034 67.9690 1.378038 59.00 66.54 7.68
4035 67.9840 1.377771 54.00 66.48 7.35
4036 67.9990 1.377503 53.00 66.41 7.28
4037 68.0140 1.377236 45.00 66.36 6.71
4038 68.0290 1.376969 50.00 66.30 7.07
4039 68.0440 1.376702 79.00 66.25 8.89
4040 68.0590 1.376435 74.00 66.21 8.60
4041 68.0740 1.376168 61.00 66.16 7.81
4042 68.0890 1.375901 59.00 66.12 7.68
4043 68.1040 1.375635 68.00 66.08 8.25
4044 68.1190 1.375369 72.00 66.05 8.49
4045 68.1340 1.375102 67.00 66.02 8.19
4046 68.1490 1.374836 71.00 65.98 8.43
4047 68.1640 1.374570 62.00 65.96 7.87
4048 68.1790 1.374304 57.00 65.93 7.55
4049 68.1940 1.374039 65.00 65.90 8.06
4050 68.2090 1.373773 69.00 65.88 8.31
4051 68.2240 1.373507 61.00 65.86 7.81
4052 68.2390 1.373242 57.00 65.84 7.55
4053 68.2540 1.372977 69.00 65.82 8.31
4054 68.2690 1.372712 69.00 65.80 8.31
4055 68.2840 1.372447 60.00 65.79 7.75
4056 68.2990 1.372182 73.00 65.77 8.54
4057 68.3140 1.371917 72.00 65.76 8.49
4058 68.3290 1.371652 70.00 65.75 8.37
4059 68.3440 1.371388 66.00 65.73 8.12
4060 68.3590 1.371124 63.00 65.72 7.94
4061 68.3740 1.370859 57.00 65.72 7.55
4062 68.3890 1.370595 60.00 65.71 7.75
4063 68.4040 1.370331 65.00 65.71 8.06
4064 68.4190 1.370067 59.00 65.71 7.68
4065 68.4340 1.369804 55.00 65.71 7.42
4066 68.4490 1.369540 55.00 65.73 7.42
4067 68.4640 1.369277 67.00 65.76 8.19
4068 68.4790 1.369013 64.00 65.81 8.00
4069 68.4940 1.368750 65.00 65.92 8.06
4070 68.5090 1.368487 61.00 66.09 7.81
4071 68.5240 1.368224 69.00 66.38 8.31
4072 68.5390 1.367961 69.00 66.84 8.31
4073 68.5540 1.367698 57.00 67.54 7.55
4074 68.5690 1.367436 58.00 68.59 7.62
4075 68.5840 1.367173 74.00 70.07 8.60
4076 68.5990 1.366911 79.00 72.11 8.89
4077 68.6140 1.366649 78.00 74.80 8.83
4078 68.6290 1.366387 74.00 78.20 8.60
4079 68.6440 1.366125 77.00 82.34 8.77
4080 68.6590 1.365863 91.00 87.14 9.54
4081 68.6740 1.365601 112.00 92.46 10.58
4082 68.6890 1.365339 115.00 98.03 10.72
4083 68.7040 1.365078 129.00 103.53 11.36
4084 68.7190 1.364816 114.00 108.55 10.68
4085 68.7340 1.364555 122.00 112.71 11.05
4086 68.7490 1.364294 113.00 115.63 10.63
4087 68.7640 1.364033 107.00 117.06 10.34
4088 68.7790 1.363772 97.00 116.86 9.85
4089 68.7940 1.363511 110.00 115.05 10.49
4090 68.8090 1.363251 108.00 111.82 10.39
4091 68.8240 1.362990 111.00 107.46 10.54
4092 68.8390 1.362730 136.00 102.34 11.66
4093 68.8540 1.362470 132.00 96.87 11.49
4094 68.8690 1.362209 105.00 91.44 10.25
4095 68.8840 1.361949 93.00 86.35 9.64
4096 68.8990 1.361689 92.00 81.83 9.59
4097 68.9140 1.361430 84.00 78.02 9.17
4098 68.9290 1.361170 63.00 74.94 7.94
4099 68.9440 1.360910 56.00 72.57 7.48
4100 68.9590 1.360651 58.00 70.84 7.62
4101 68.9740 1.360392 61.00 69.63 7.81
4102 68.9890 1.360133 72.00 68.85 8.49
4103 69.0040 1.359874 68.00 68.38 8.25
4104 69.0190 1.359615 63.00 68.15 7.94
4105 69.0340 1.359356 70.00 68.09 8.37
4106 69.0490 1.359097 82.00 68.14 9.06
4107 69.0640 1.358839 59.00 68.27 7.68
4108 69.0790 1.358580 59.00 68.47 7.68
4109 69.0940 1.358322 80.00 68.71 8.94
4110 69.1090 1.358064 71.00 68.99 8.43
4111 69.1240 1.357806 58.00 69.31 7.62
4112 69.1390 1.357548 63.00 69.66 7.94
4113 69.1540 1.357290 68.00 70.06 8.25
4114 69.1690 1.357032 70.00 70.51 8.37
4115 69.1840 1.356775 67.00 71.00 8.19
4116 69.1990 1.356517 76.00 71.56 8.72
4117 69.2140 1.356260 76.00 72.17 8.72
4118 69.2290 1.356003 72.00 72.87 8.49
4119 69.2440 1.355745 74.00 73.64 8.60
4120 69.2590 1.355488 65.00 74.52 8.06
4121 69.2740 1.355232 73.00 75.51 8.54
4122 69.2890 1.354975 71.00 76.65 8.43
4123 69.3040 1.354718 71.00 77.98 8.43
4124 69.3190 1.354462 80.00 79.54 8.94
4125 69.3340 1.354205 88.00 81.41 9.38
4126 69.3490 1.353949 88.00 83.68 9.38
4127 69.3640 1.353693 80.00 86.47 8.94
4128 69.3790 1.353437 73.00 89.91 8.54
4129 69.3940 1.353181 85.00 94.16 9.22
4130 69.4090 1.352925 92.00 99.35 9.59
4131 69.4240 1.352669 94.00 105.60 9.70
4132 69.4390 1.352414 94.00 112.97 9.70
4133 69.4540 1.352159 103.00 121.39 10.15
4134 69.4690 1.351903 107.00 130.71 10.34
4135 69.4840 1.351648 139.00 140.62 11.79
4136 69.4990 1.351393 180.00 150.68 13.42
4137 69.5140 1.351138 213.00 160.32 14.59
4138 69.5290 1.350883 230.00 168.90 15.17
4139 69.5440 1.350629 206.00 175.77 14.35
4140 69.5590 1.350374 188.00 180.34 13.71
4141 69.5740 1.350120 148.00 182.17 12.17
4142 69.5890 1.349865 141.00 181.02 11.87
4143 69.6040 1.349611 133.00 176.90 11.53
4144 69.6190 1.349357 172.00 170.07 13.11
4145 69.6340 1.349103 188.00 161.05 13.71
4146 69.6490 1.348849 216.00 150.49 14.70
4147 69.6640 1.348595 207.00 139.11 14.39
4148 69.6790 1.348342 173.00 127.63 13.15
4149 69.6940 1.348088 123.00 116.66 11.09
4150 69.7090 1.347835 97.00 106.67 9.85
4151 69.7240 1.347582 75.00 97.95 8.66
4152 69.7390 1.347328 85.00 90.64 9.22
4153 69.7540 1.347075 80.00 84.73 8.94
4154 69.7690 1.346822 68.00 80.09 8.25
4155 69.7840 1.346570 81.00 76.57 9.00
4156 69.7990 1.346317 66.00 73.95 8.12
4157 69.8140 1.346064 64.00 72.03 8.00
4158 69.8290 1.345812 69.00 70.64 8.31
4159 69.8440 1.345559 78.00 69.63 8.83
4160 69.8590 1.345307 67.00 68.89 8.19
4161 69.8740 1.345055 69.00 68.33 8.31
4162 69.8890 1.344803 72.00 67.89 8.49
4163 69.9040 1.344551 67.00 67.53 8.19
4164 69.9190 1.344300 56.00 67.23 7.48
4165 69.9340 1.344048 63.00 66.97 7.94
4166 69.9490 1.343796 52.00 66.73 7.21
4167 69.9640 1.343545 62.00 66.52 7.87
4168 69.9790 1.343294 65.00 66.33 8.06
4169 69.9940 1.343043 67.00 66.15 8.19
4170 70.0090 1.342792 65.00 65.98 8.06
4171 70.0240 1.342541 67.00 65.83 8.19
4172 70.0390 1.342290 71.00 65.70 8.43
4173 70.0540 1.342039 53.00 65.59 7.28
4174 70.0690 1.341789 70.00 65.51 8.37
4175 70.0840 1.341538 77.00 65.48 8.77
4176 70.0990 1.341288 70.00 65.53 8.37
4177 70.1140 1.341038 54.00 65.71 7.35
4178 70.1290 1.340788 57.00 66.08 7.55
4179 70.1440 1.340537 58.00 66.76 7.62
4180 70.1590 1.340288 69.00 67.88 8.31
4181 70.1740 1.340038 71.00 69.63 8.43
4182 70.1890 1.339788 66.00 72.25 8.12
4183 70.2040 1.339539 71.00 75.98 8.43
4184 70.2190 1.339289 65.00 81.11 8.06
4185 70.2340 1.339040 77.00 87.87 8.77
4186 70.2490 1.338791 81.00 96.44 9.00
4187 70.2640 1.338542 96.00 106.87 9.80
4188 70.2790 1.338293 115.00 119.02 10.72
4189 70.2940 1.338044 150.00 132.54 12.25
4190 70.3090 1.337795 181.00 146.85 13.45
4191 70.3240 1.337547 241.00 161.16 15.52
4192 70.3390 1.337298 250.00 174.52 15.81
4193 70.3540 1.337050 239.00 185.93 15.46
4194 70.3690 1.336801 230.00 194.48 15.17
4195 70.3840 1.336553 170.00 199.40 13.04
4196 70.3990 1.336305 162.00 200.27 12.73
4197 70.4140 1.336057 165.00 197.00 12.85
4198 70.4290 1.335809 187.00 189.87 13.67
4199 70.4440 1.335562 226.00 179.51 15.03
4200 70.4590 1.335314 255.00 166.79 15.97
4201 70.4740 1.335067 241.00 152.67 15.52
4202 70.4890 1.334820 191.00 138.16 13.82
4203 70.5040 1.334572 159.00 124.10 12.61
4204 70.5190 1.334325 108.00 111.19 10.39
4205 70.5340 1.334078 73.00 99.87 8.54
4206 70.5490 1.333831 74.00 90.38 8.60
4207 70.5640 1.333585 62.00 82.73 7.87
4208 70.5790 1.333338 68.00 76.80 8.25
4209 70.5940 1.333091 58.00 72.38 7.62
4210 70.6090 1.332845 68.00 69.19 8.25
4211 70.6240 1.332599 66.00 66.98 8.12
4212 70.6390 1.332352 52.00 65.48 7.21
4213 70.6540 1.332106 67.00 64.51 8.19
4214 70.6690 1.331860 65.00 63.88 8.06
4215 70.6840 1.331614 54.00 63.50 7.35
4216 70.6990 1.331369 60.00 63.26 7.75
4217 70.7140 1.331123 69.00 63.11 8.31
4218 70.7290 1.330878 62.00 63.02 7.87
4219 70.7440 1.330632 68.00 62.95 8.25
4220 70.7590 1.330387 74.00 62.91 8.60
4221 70.7740 1.330142 60.00 62.87 7.75
4222 70.7890 1.329897 58.00 62.84 7.62
4223 70.8040 1.329652 61.00 62.81 7.81
4224 70.8190 1.329407 69.00 62.78 8.31
4225 70.8340 1.329162 68.00 62.75 8.25
4226 70.8490 1.328918 52.00 62.73 7.21
4227 70.8640 1.328673 67.00 62.70 8.19
4228 70.8790 1.328429 74.00 62.68 8.60
4229 70.8940 1.328184 68.00 62.66 8.25
4230 70.9090 1.327940 70.00 62.65 8.37
4231 70.9240 1.327696 63.00 62.65 7.94
4232 70.9390 1.327452 67.00 62.66 8.19
4233 70.9540 1.327208 71.00 62.69 8.43
4234 70.9690 1.326965 64.00 62.75 8.00
4235 70.9840 1.326721 67.00 62.85 8.19
4236 70.9990 1.326478 71.00 63.01 8.43
4237 71.0140 1.326234 57.00 63.24 7.55
4238 71.0290 1.325991 52.00 63.56 7.21
4239 71.0440 1.325748 65.00 63.98 8.06
4240 71.0590 1.325505 70.00 64.51 8.37
4241 71.0740 1.325262 64.00 65.14 8.00
4242 71.0890 1.325019 64.00 65.87 8.00
4243 71.1040 1.324776 70.00 66.67 8.37
4244 71.1190 1.324534 70.00 67.50 8.37
4245 71.1340 1.324291 62.00 68.32 7.87
4246 71.1490 1.324049 61.00 69.06 7.81
4247 71.1640 1.323807 73.00 69.67 8.54
4248 71.1790 1.323564 63.00 70.11 7.94
4249 71.1940 1.323322 67.00 70.32 8.19
4250 71.2090 1.323080 76.00 70.29 8.72
4251 71.2240 1.322839 81.00 70.03 9.00
4252 71.2390 1.322597 80.00 69.55 8.94
4253 71.2540 1.322355 78.00 68.89 8.83
4254 71.2690 1.322114 74.00 68.10 8.60
4255 71.2840 1.321872 72.00 67.23 8.49
4256 71.2990 1.321631 60.00 66.36 7.75
4257 71.3140 1.321390 67.00 65.52 8.19
4258 71.3290 1.321149 61.00 64.75 7.81
4259 71.3440 1.320908 63.00 64.07 7.94
4260 71.3590 1.320667 75.00 63.50 8.66
4261 71.3740 1.320427 70.00 63.04 8.37
4262 71.3890 1.320186 69.00 62.68 8.31
4263 71.4040 1.319946 59.00 62.40 7.68
4264 71.4190 1.319705 63.00 62.20 7.94
4265 71.4340 1.319465 64.00 62.05 8.00
4266 71.4490 1.319225 65.00 61.94 8.06
4267 71.4640 1.318985 61.00 61.84 7.81
4268 71.4790 1.318745 54.00 61.79 7.35
4269 71.4940 1.318505 63.00 61.75 7.94
4270 71.5090 1.318265 52.00 61.71 7.21
4271 71.5240 1.318025 55.00 61.69 7.42
4272 71.5390 1.317786 55.00 61.66 7.42
4273 71.5540 1.317547 67.00 61.64 8.19
4274 71.5690 1.317307 59.00 61.62 7.68
4275 71.5840 1.317068 66.00 61.60 8.12
4276 71.5990 1.316829 60.00 61.57 7.75
4277 71.6140 1.316590 65.00 61.55 8.06
4278 71.6290 1.316351 70.00 61.53 8.37
4279 71.6440 1.316113 57.00 61.51 7.55
4280 71.6590 1.315874 58.00 61.50 7.62
4281 71.6740 1.315635 58.00 61.48 7.62
4282 71.6890 1.315397 61.00 61.46 7.81
4283 71.7040 1.315159 60.00 61.45 7.75
4284 71.7190 1.314921 68.00 61.45 8.25
4285 71.7340 1.314682 60.00 61.45 7.75
4286 71.7490 1.314445 61.00 61.47 7.81
4287 71.7640 1.314207 66.00 61.52 8.12
4288 71.7790 1.313969 60.00 61.59 7.75
4289 71.7940 1.313731 42.00 61.71 6.48
4290 71.8090 1.313494 60.00 61.88 7.75
4291 71.8240 1.313257 66.00 62.11 8.12
4292 71.8390 1.313019 69.00 62.43 8.31
4293 71.8540 1.312782 66.00 62.83 8.12
4294 71.8690 1.312545 67.00 63.32 8.19
4295 71.8840 1.312308 74.00 63.89 8.60
4296 71.8990 1.312071 63.00 64.53 7.94
4297 71.9140 1.311834 59.00 65.21 7.68
4298 71.9290 1.311597 66.00 65.89 8.12
4299 71.9440 1.311361 68.00 66.54 8.25
4300 71.9590 1.311124 85.00 67.10 9.22
4301 71.9740 1.310888 71.00 67.54 8.43
4302 71.9890 1.310652 63.00 67.80 7.94
4303 72.0040 1.310416 67.00 67.88 8.19
4304 72.0190 1.310180 71.00 67.76 8.43
4305 72.0340 1.309944 57.00 67.46 7.55
4306 72.0490 1.309708 62.00 66.98 7.87
4307 72.0640 1.309472 84.00 66.38 9.17
4308 72.0790 1.309237 72.00 65.70 8.49
4309 72.0940 1.309001 64.00 64.97 8.00
4310 72.1090 1.308766 55.00 64.25 7.42
4311 72.1240 1.308530 60.00 63.57 7.75
4312 72.1390 1.308295 70.00 62.96 8.37
4313 72.1540 1.308060 55.00 62.43 7.42
4314 72.1690 1.307825 67.00 61.99 8.19
4315 72.1840 1.307590 60.00 61.63 7.75
4316 72.1990 1.307356 58.00 61.36 7.62
4317 72.2140 1.307121 67.00 61.15 8.19
4318 72.2290 1.306887 53.00 60.99 7.28
4319 72.2440 1.306652 60.00 60.88 7.75
4320 72.2590 1.306418 54.00 60.79 7.35
4321 72.2740 1.306184 54.00 60.73 7.35
4322 72.2890 1.305950 70.00 60.69 8.37
4323 72.3040 1.305716 70.00 60.65 8.37
4324 72.3190 1.305482 64.00 60.62 8.00
4325 72.3340 1.305248 62.00 60.60 7.87
4326 72.3490 1.305014 68.00 60.57 8.25
4327 72.3640 1.304781 66.00 60.55 8.12
4328 72.3790 1.304547 59.00 60.53 7.68
4329 72.3940 1.304314 56.00 60.51 7.48
4330 72.4090 1.304081 77.00 60.50 8.77
4331 72.4240 1.303847 52.00 60.48 7.21
4332 72.4390 1.303614 55.00 60.47 7.42
4333 72.4540 1.303381 69.00 60.47 8.31
4334 72.4690 1.303149 56.00 60.49 7.48
4335 72.4840 1.302916 76.00 60.53 8.72
4336 72.4990 1.302683 59.00 60.62 7.68
4337 72.5140 1.302451 57.00 60.79 7.55
4338 72.5290 1.302218 57.00 61.08 7.55
4339 72.5440 1.301986 62.00 61.54 7.87
4340 72.5590 1.301754 54.00 62.27 7.35
4341 72.5740 1.301522 61.00 63.37 7.81
4342 72.5890 1.301290 79.00 64.99 8.89
4343 72.6040 1.301058 63.00 67.21 7.94
4344 72.6190 1.300826 75.00 70.22 8.66
4345 72.6340 1.300594 71.00 74.15 8.43
4346 72.6490 1.300363 64.00 79.10 8.00
4347 72.6640 1.300131 86.00 85.11 9.27
4348 72.6790 1.299900 88.00 92.12 9.38
4349 72.6940 1.299669 116.00 99.96 10.77
4350 72.7090 1.299438 154.00 108.36 12.41
4351 72.7240 1.299207 186.00 116.91 13.64
4352 72.7390 1.298976 201.00 125.11 14.18
4353 72.7540 1.298745 182.00 132.42 13.49
4354 72.7690 1.298514 176.00 138.31 13.27
4355 72.7840 1.298283 158.00 142.32 12.57
4356 72.7990 1.298053 130.00 144.11 11.40
4357 72.8140 1.297822 133.00 143.55 11.53
4358 72.8290 1.297592 141.00 140.67 11.87
4359 72.8440 1.297362 165.00 135.71 12.85
4360 72.8590 1.297132 179.00 129.07 13.38
4361 72.8740 1.296902 193.00 121.25 13.89
4362 72.8890 1.296672 163.00 112.78 12.77
4363 72.9040 1.296442 134.00 104.21 11.58
4364 72.9190 1.296212 110.00 95.98 10.49
4365 72.9340 1.295983 87.00 88.44 9.33
4366 72.9490 1.295753 60.00 81.84 7.75
4367 72.9640 1.295524 65.00 76.28 8.06
4368 72.9790 1.295295 71.00 71.76 8.43
4369 72.9940 1.295066 68.00 68.23 8.25
4370 73.0090 1.294836 63.00 65.56 7.94
4371 73.0240 1.294608 64.00 63.60 8.00
4372 73.0390 1.294379 53.00 62.22 7.28
4373 73.0540 1.294150 58.00 61.26 7.62
4374 73.0690 1.293921 52.00 60.63 7.21
4375 73.0840 1.293693 64.00 60.21 8.00
4376 73.0990 1.293464 59.00 59.95 7.68
4377 73.1140 1.293236 61.00 59.78 7.81
4378 73.1290 1.293008 57.00 59.67 7.55
4379 73.1440 1.292780 52.00 59.60 7.21
4380 73.1590 1.292552 70.00 59.56 8.37
4381 73.1740 1.292323 67.00 59.52 8.19
4382 73.1890 1.292096 64.00 59.50 8.00
4383 73.2040 1.291868 75.00 59.49 8.66
4384 73.2190 1.291640 62.00 59.49 7.87
4385 73.2340 1.291413 58.00 59.50 7.62
4386 73.2490 1.291185 60.00 59.55 7.75
4387 73.2640 1.290958 63.00 59.66 7.94
4388 73.2790 1.290731 57.00 59.87 7.55
4389 73.2940 1.290504 74.00 60.24 8.60
4390 73.3090 1.290277 75.00 60.88 8.66
4391 73.3240 1.290050 76.00 61.91 8.72
4392 73.3390 1.289823 67.00 63.54 8.19
4393 73.3540 1.289596 72.00 66.03 8.49
4394 73.3690 1.289370 59.00 69.72 7.68
4395 73.3840 1.289143 64.00 74.98 8.00
4396 73.3990 1.288917 62.00 82.27 7.87
4397 73.4140 1.288690 72.00 92.04 8.49
4398 73.4290 1.288464 75.00 104.67 8.66
4399 73.4440 1.288238 88.00 120.47 9.38
4400 73.4590 1.288012 103.00 139.52 10.15
4401 73.4740 1.287786 141.00 161.63 11.87
4402 73.4890 1.287560 196.00 186.27 14.00
4403 73.5040 1.287335 266.00 212.55 16.31
4404 73.5190 1.287109 324.00 239.24 18.00
4405 73.5340 1.286884 374.00 264.80 19.34
4406 73.5490 1.286658 353.00 287.61 18.79
4407 73.5640 1.286433 322.00 306.05 17.94
4408 73.5790 1.286208 284.00 318.70 16.85
4409 73.5940 1.285983 224.00 324.52 14.97
4410 73.6090 1.285758 242.00 323.14 15.56
4411 73.6240 1.285533 278.00 314.60 16.67
4412 73.6390 1.285308 333.00 299.60 18.25
4413 73.6540 1.285083 373.00 279.30 19.31
4414 73.6690 1.284859 392.00 255.23 19.80
4415 73.6840 1.284634 326.00 229.01 18.06
4416 73.6990 1.284410 278.00 202.27 16.67
4417 73.7140 1.284186 205.00 176.44 14.32
4418 73.7290 1.283961 115.00 152.62 10.72
4419 73.7440 1.283737 78.00 131.56 8.83
4420 73.7590 1.283513 66.00 113.69 8.12
4421 73.7740 1.283289 58.00 99.06 7.62
4422 73.7890 1.283066 62.00 87.50 7.87
4423 73.8040 1.282842 63.00 78.68 7.94
4424 73.8190 1.282618 64.00 72.16 8.00
4425 73.8340 1.282395 70.00 67.50 8.37
4426 73.8490 1.282171 60.00 64.27 7.75
4427 73.8640 1.281948 64.00 62.09 8.00
4428 73.8790 1.281725 69.00 60.67 8.31
4429 73.8940 1.281502 74.00 59.77 8.60
4430 73.9090 1.281279 58.00 59.21 7.62
4431 73.9240 1.281056 58.00 58.87 7.62
4432 73.9390 1.280833 59.00 58.66 7.68
4433 73.9540 1.280610 62.00 58.54 7.87
4434 73.9690 1.280388 65.00 58.46 8.06
4435 73.9840 1.280165 63.00 58.41 7.94
4436 73.9990 1.279943 62.00 58.38 7.87
4437 74.0140 1.279721 67.00 58.35 8.19
4438 74.0290 1.279499 60.00 58.33 7.75
4439 74.0440 1.279276 61.00 58.31 7.81
4440 74.0590 1.279054 52.00 58.29 7.21
4441 74.0740 1.278833 60.00 58.27 7.75
4442 74.0890 1.278611 46.00 58.25 6.78
4443 74.1040 1.278389 63.00 58.23 7.94
4444 74.1190 1.278167 68.00 58.21 8.25
4445 74.1340 1.277946 63.00 58.19 7.94
4446 74.1490 1.277725 62.00 58.17 7.87
4447 74.1640 1.277503 60.00 58.15 7.75
4448 74.1790 1.277282 68.00 58.13 8.25
4449 74.1940 1.277061 58.00 58.11 7.62
4450 74.2090 1.276840 63.00 58.09 7.94
4451 74.2240 1.276619 59.00 58.07 7.68
4452 74.2390 1.276398 60.00 58.05 7.75
4453 74.2540 1.276178 46.00 58.03 6.78
4454 74.2690 1.275957 60.00 58.01 7.75
4455 74.2840 1.275736 61.00 57.99 7.81
4456 74.2990 1.275516 63.00 57.97 7.94
4457 74.3140 1.275296 56.00 57.95 7.48
4458 74.3290 1.275075 57.00 57.93 7.55
4459 74.3440 1.274855 54.00 57.91 7.35
4460 74.3590 1.274635 60.00 57.89 7.75
4461 74.3740 1.274415 72.00 57.87 8.49
4462 74.3890 1.274195 79.00 57.85 8.89
4463 74.4040 1.273976 61.00 57.83 7.81
4464 74.4190 1.273756 55.00 57.81 7.42
4465 74.4340 1.273537 56.00 57.79 7.48
4466 74.4490 1.273317 70.00 57.77 8.37
4467 74.4640 1.273098 65.00 57.75 8.06
4468 74.4790 1.272879 60.00 57.73 7.75
4469 74.4940 1.272659 56.00 57.71 7.48
4470 74.5090 1.272440 66.00 57.69 8.12
4471 74.5240 1.272221 74.00 57.68 8.60
4472 74.5390 1.272002 60.00 57.66 7.75
4473 74.5540 1.271784 66.00 57.64 8.12
4474 74.5690 1.271565 60.00 57.62 7.75
4475 74.5840 1.271346 63.00 57.60 7.94
4476 74.5990 1.271128 62.00 57.58 7.87
4477 74.6140 1.270910 49.00 57.56 7.00
4478 74.6290 1.270691 50.00 57.54 7.07
4479 74.6440 1.270473 61.00 57.52 7.81
4480 74.6590 1.270255 61.00 57.50 7.81
4481 74.6740 1.270037 49.00 57.48 7.00
4482 74.6890 1.269819 58.00 57.46 7.62
4483 74.7040 1.269601 63.00 57.44 7.94
4484 74.7190 1.269384 76.00 57.42 8.72
4485 74.7340 1.269166 77.00 57.40 8.77
4486 74.7490 1.268949 72.00 57.38 8.49
4487 74.7640 1.268731 63.00 57.37 7.94
4488 74.7790 1.268514 53.00 57.35 7.28
4489 74.7940 1.268297 65.00 57.34 8.06
4490 74.8090 1.268080 58.00 57.33 7.62
4491 74.8240 1.267863 61.00 57.33 7.81
4492 74.8390 1.267646 60.00 57.35 7.75
4493 74.8540 1.267429 69.00 57.40 8.31
4494 74.8690 1.267212 68.00 57.50 8.25
4495 74.8840 1.266995 59.00 57.67 7.68
4496 74.8990 1.266779 72.00 57.95 8.49
4497 74.9140 1.266562 52.00 58.40 7.21
4498 74.9290 1.266346 59.00 59.09 7.68
4499 74.9440 1.266130 47.00 60.10 6.86
4500 74.9590 1.265914 63.00 61.53 7.94
4501 74.9740 1.265697 57.00 63.51 7.55
4502 74.9890 1.265482 60.00 66.16 7.75
4503 75.0040 1.265266 80.00 69.59 8.94
4504 75.0190 1.265050 78.00 73.87 8.83
4505 75.0340 1.264834 72.00 79.04 8.49
4506 75.0490 1.264619 92.00 85.06 9.59
4507 75.0640 1.264403 109.00 91.83 10.44
4508 75.0790 1.264188 109.00 99.11 10.44
4509 75.0940 1.263972 143.00 106.61 11.96
4510 75.1090 1.263757 147.00 113.93 12.12
4511 75.1240 1.263542 156.00 120.64 12.49
4512 75.1390 1.263327 153.00 126.30 12.37
4513 75.1540 1.263112 125.00 130.52 11.18
4514 75.1690 1.262897 117.00 132.97 10.82
4515 75.1840 1.262683 116.00 133.48 10.77
4516 75.1990 1.262468 119.00 131.99 10.91
4517 75.2140 1.262253 143.00 128.62 11.96
4518 75.2290 1.262039 168.00 123.63 12.96
4519 75.2440 1.261824 161.00 117.37 12.69
4520 75.2590 1.261610 139.00 110.27 11.79
4521 75.2740 1.261396 130.00 102.78 11.40
4522 75.2890 1.261182 102.00 95.31 10.10
4523 75.3040 1.260968 97.00 88.20 9.85
4524 75.3190 1.260754 79.00 81.74 8.89
4525 75.3340 1.260540 65.00 76.07 8.06
4526 75.3490 1.260327 61.00 71.29 7.81
4527 75.3640 1.260113 58.00 67.39 7.62
4528 75.3790 1.259900 59.00 64.31 7.68
4529 75.3940 1.259686 62.00 61.96 7.87
4530 75.4090 1.259473 59.00 60.22 7.68
4531 75.4240 1.259260 51.00 58.96 7.14
4532 75.4390 1.259046 63.00 58.09 7.94
4533 75.4540 1.258833 61.00 57.49 7.81
4534 75.4690 1.258621 59.00 57.09 7.68
4535 75.4840 1.258408 54.00 56.83 7.35
4536 75.4990 1.258195 59.00 56.66 7.68
4537 75.5140 1.257982 54.00 56.55 7.35
4538 75.5290 1.257770 53.00 56.48 7.28
4539 75.5440 1.257557 52.00 56.44 7.21
4540 75.5590 1.257345 46.00 56.41 6.78
4541 75.5740 1.257133 49.00 56.38 7.00
4542 75.5890 1.256920 49.00 56.37 7.00
4543 75.6040 1.256708 45.00 56.36 6.71
4544 75.6190 1.256496 51.00 56.37 7.14
4545 75.6340 1.256284 51.00 56.39 7.14
4546 75.6490 1.256072 59.00 56.44 7.68
4547 75.6640 1.255861 54.00 56.52 7.35
4548 75.6790 1.255649 54.00 56.67 7.35
4549 75.6940 1.255437 50.00 56.92 7.07
4550 75.7090 1.255226 63.00 57.29 7.94
4551 75.7240 1.255015 48.00 57.84 6.93
4552 75.7390 1.254803 69.00 58.63 8.31
4553 75.7540 1.254592 51.00 59.73 7.14
4554 75.7690 1.254381 53.00 61.20 7.28
4555 75.7840 1.254170 62.00 63.12 7.87
4556 75.7990 1.253959 64.00 65.53 8.00
4557 75.8140 1.253748 63.00 68.47 7.94
4558 75.8290 1.253538 74.00 71.92 8.60
4559 75.8440 1.253327 84.00 75.84 9.17
4560 75.8590 1.253117 86.00 80.11 9.27
4561 75.8740 1.252906 109.00 84.58 10.44
4562 75.8890 1.252696 108.00 89.02 10.39
4563 75.9040 1.252486 119.00 93.21 10.91
4564 75.9190 1.252275 139.00 96.87 11.79
4565 75.9340 1.252065 114.00 99.76 10.68
4566 75.9490 1.251855 92.00 101.68 9.59
4567 75.9640 1.251646 74.00 102.49 8.60
4568 75.9790 1.251436 108.00 102.11 10.39
4569 75.9940 1.251226 90.00 100.58 9.49
4570 76.0090 1.251016 102.00 98.01 10.10
4571 76.0240 1.250807 122.00 94.60 11.05
4572 76.0390 1.250597 111.00 90.56 10.54
4573 76.0540 1.250388 102.00 86.16 10.10
4574 76.0690 1.250179 95.00 81.65 9.75
4575 76.0840 1.249970 70.00 77.25 8.37
4576 76.0990 1.249761 76.00 73.16 8.72
4577 76.1140 1.249552 75.00 69.50 8.66
4578 76.1290 1.249343 63.00 66.33 7.94
4579 76.1440 1.249134 63.00 63.70 7.94
4580 76.1590 1.248925 59.00 61.58 7.68
4581 76.1740 1.248717 60.00 59.92 7.75
4582 76.1890 1.248508 52.00 58.66 7.21
4583 76.2040 1.248300 52.00 57.74 7.21
4584 76.2190 1.248091 45.00 57.08 6.71
4585 76.2340 1.247883 59.00 56.63 7.68
4586 76.2490 1.247675 67.00 56.32 8.19
4587 76.2640 1.247467 62.00 56.12 7.87
4588 76.2790 1.247259 54.00 55.99 7.35
4589 76.2940 1.247051 52.00 55.91 7.21
4590 76.3090 1.246843 56.00 55.86 7.48
4591 76.3240 1.246636 60.00 55.84 7.75
4592 76.3390 1.246428 58.00 55.82 7.62
4593 76.3540 1.246221 51.00 55.82 7.14
4594 76.3690 1.246013 59.00 55.82 7.68
4595 76.3840 1.245806 55.00 55.84 7.42
4596 76.3990 1.245598 63.00 55.86 7.94
4597 76.4140 1.245391 55.00 55.90 7.42
4598 76.4290 1.245184 59.00 55.96 7.68
4599 76.4440 1.244977 58.00 56.06 7.62
4600 76.4590 1.244770 58.00 56.21 7.62
4601 76.4740 1.244564 57.00 56.44 7.55
4602 76.4890 1.244357 52.00 56.78 7.21
4603 76.5040 1.244150 62.00 57.27 7.87
4604 76.5190 1.243944 71.00 57.96 8.43
4605 76.5340 1.243737 59.00 58.91 7.68
4606 76.5490 1.243531 73.00 60.17 8.54
4607 76.5640 1.243325 62.00 61.79 7.87
4608 76.5790 1.243119 58.00 63.84 7.62
4609 76.5940 1.242913 61.00 66.32 7.81
4610 76.6090 1.242706 78.00 69.24 8.83
4611 76.6240 1.242501 73.00 72.56 8.54
4612 76.6390 1.242295 90.00 76.20 9.49
4613 76.6540 1.242089 96.00 80.02 9.80
4614 76.6690 1.241883 108.00 83.87 10.39
4615 76.6840 1.241678 92.00 87.54 9.59
4616 76.6990 1.241472 89.00 90.82 9.43
4617 76.7140 1.241267 107.00 93.51 10.34
4618 76.7290 1.241062 104.00 95.42 10.20
4619 76.7440 1.240857 80.00 96.42 8.94
4620 76.7590 1.240651 83.00 96.45 9.11
4621 76.7740 1.240446 97.00 95.51 9.85
4622 76.7890 1.240242 99.00 93.68 9.95
4623 76.8040 1.240037 104.00 91.10 10.20
4624 76.8190 1.239832 106.00 87.95 10.30
4625 76.8340 1.239627 98.00 84.43 9.90
4626 76.8490 1.239423 92.00 80.78 9.59
4627 76.8640 1.239218 95.00 77.18 9.75
4628 76.8790 1.239014 86.00 73.79 9.27
4629 76.8940 1.238810 64.00 70.75 8.00
4630 76.9090 1.238605 67.00 68.14 8.19
4631 76.9240 1.238401 67.00 65.98 8.19
4632 76.9390 1.238197 65.00 64.28 8.06
4633 76.9540 1.237993 60.00 63.02 7.75
4634 76.9690 1.237790 59.00 62.15 7.68
4635 76.9840 1.237586 56.00 61.62 7.48
4636 76.9990 1.237382 69.00 61.37 8.31
4637 77.0140 1.237179 54.00 61.35 7.35
4638 77.0290 1.236975 69.00 61.52 8.31
4639 77.0440 1.236772 61.00 61.84 7.81
4640 77.0590 1.236568 67.00 62.28 8.19
4641 77.0740 1.236365 60.00 62.81 7.75
4642 77.0890 1.236162 61.00 63.43 7.81
4643 77.1040 1.235959 63.00 64.12 7.94
4644 77.1190 1.235756 53.00 64.86 7.28
4645 77.1340 1.235553 63.00 65.65 7.94
4646 77.1490 1.235350 63.00 66.46 7.94
4647 77.1640 1.235147 66.00 67.29 8.12
4648 77.1790 1.234945 72.00 68.10 8.49
4649 77.1940 1.234742 80.00 68.87 8.94
4650 77.2090 1.234540 70.00 69.57 8.37
4651 77.2240 1.234338 64.00 70.19 8.00
4652 77.2390 1.234135 73.00 70.69 8.54
4653 77.2540 1.233933 65.00 71.06 8.06
4654 77.2690 1.233731 64.00 71.32 8.00
4655 77.2840 1.233529 64.00 71.47 8.00
4656 77.2990 1.233327 62.00 71.57 7.87
4657 77.3140 1.233125 61.00 71.65 7.81
4658 77.3290 1.232923 59.00 71.81 7.68
4659 77.3440 1.232722 65.00 72.08 8.06
4660 77.3590 1.232520 67.00 72.55 8.19
4661 77.3740 1.232319 74.00 73.25 8.60
4662 77.3890 1.232117 62.00 74.21 7.87
4663 77.4040 1.231916 83.00 75.43 9.11
4664 77.4190 1.231715 78.00 76.87 8.83
4665 77.4340 1.231514 69.00 78.46 8.31
4666 77.4490 1.231313 74.00 80.10 8.60
4667 77.4640 1.231112 79.00 81.68 8.89
4668 77.4790 1.230911 85.00 83.07 9.22
4669 77.4940 1.230710 81.00 84.14 9.00
4670 77.5090 1.230509 70.00 84.78 8.37
4671 77.5240 1.230309 75.00 84.90 8.66
4672 77.5390 1.230108 68.00 84.45 8.25
4673 77.5540 1.229908 76.00 83.44 8.72
4674 77.5690 1.229707 87.00 81.90 9.33
4675 77.5840 1.229507 86.00 79.91 9.27
4676 77.5990 1.229307 84.00 77.57 9.17
4677 77.6140 1.229107 95.00 75.01 9.75
4678 77.6290 1.228907 77.00 72.36 8.77
4679 77.6440 1.228707 60.00 69.74 7.75
4680 77.6590 1.228507 58.00 67.24 7.62
4681 77.6740 1.228307 53.00 64.95 7.28
4682 77.6890 1.228107 49.00 62.91 7.00
4683 77.7040 1.227908 57.00 61.16 7.55
4684 77.7190 1.227708 52.00 59.70 7.21
4685 77.7340 1.227509 62.00 58.50 7.87
4686 77.7490 1.227310 57.00 57.54 7.55
4687 77.7640 1.227111 54.00 56.80 7.35
4688 77.7790 1.226911 54.00 56.22 7.35
4689 77.7940 1.226712 50.00 55.79 7.07
4690 77.8090 1.226513 59.00 55.45 7.68
4691 77.8240 1.226314 52.00 55.20 7.21
4692 77.8390 1.226116 61.00 55.00 7.81
4693 77.8540 1.225917 62.00 54.84 7.87
4694 77.8690 1.225718 63.00 54.71 7.94
4695 77.8840 1.225520 60.00 54.60 7.75
4696 77.8990 1.225321 54.00 54.50 7.35
4697 77.9140 1.225123 53.00 54.41 7.28
4698 77.9290 1.224924 57.00 54.33 7.55
4699 77.9440 1.224726 52.00 54.26 7.21
4700 77.9590 1.224528 55.00 54.19 7.42
4701 77.9740 1.224330 66.00 54.12 8.12
4702 77.9890 1.224132 53.00 54.06 7.28
4703 78.0040 1.223934 65.00 54.00 8.06
4704 78.0190 1.223737 58.00 53.94 7.62
4705 78.0340 1.223539 55.00 53.89 7.42
4706 78.0490 1.223341 53.00 53.83 7.28
4707 78.0640 1.223144 55.00 53.78 7.42
4708 78.0790 1.222946 61.00 53.73 7.81
4709 78.0940 1.222749 52.00 53.68 7.21
4710 78.1090 1.222551 61.00 53.63 7.81
4711 78.1240 1.222354 57.00 53.59 7.55
4712 78.1390 1.222157 48.00 53.54 6.93
4713 78.1540 1.221960 52.00 53.50 7.21
4714 78.1690 1.221763 56.00 53.45 7.48
4715 78.1840 1.221566 62.00 53.41 7.87
4716 78.1990 1.221370 49.00 53.37 7.00
4717 78.2140 1.221173 47.00 53.33 6.86
4718 78.2290 1.220976 54.00 53.30 7.35
4719 78.2440 1.220780 52.00 53.26 7.21
4720 78.2590 1.220583 56.00 53.22 7.48
4721 78.2740 1.220387 54.00 53.19 7.35
4722 78.2890 1.220191 56.00 53.15 7.48
4723 78.3040 1.219995 61.00 53.12 7.81
4724 78.3190 1.219798 57.00 53.08 7.55
4725 78.3340 1.219602 68.00 53.05 8.25
4726 78.3490 1.219406 48.00 53.02 6.93
4727 78.3640 1.219211 57.00 52.99 7.55
4728 78.3790 1.219015 62.00 52.95 7.87
4729 78.3940 1.218819 45.00 52.92 6.71
4730 78.4090 1.218624 62.00 52.89 7.87
4731 78.4240 1.218428 62.00 52.86 7.87
4732 78.4390 1.218233 66.00 52.83 8.12
4733 78.4540 1.218037 57.00 52.80 7.55
4734 78.4690 1.217842 49.00 52.78 7.00
4735 78.4840 1.217647 50.00 52.75 7.07
4736 78.4990 1.217452 51.00 52.72 7.14
4737 78.5140 1.217257 61.00 52.69 7.81
4738 78.5290 1.217062 48.00 52.66 6.93
4739 78.5440 1.216867 50.00 52.64 7.07
4740 78.5590 1.216672 54.00 52.61 7.35
4741 78.5740 1.216478 58.00 52.58 7.62
4742 78.5890 1.216283 54.00 52.56 7.35
4743 78.6040 1.216089 59.00 52.53 7.68
4744 78.6190 1.215894 58.00 52.51 7.62
4745 78.6340 1.215700 66.00 52.48 8.12
4746 78.6490 1.215505 62.00 52.46 7.87
4747 78.6640 1.215311 58.00 52.44 7.62
4748 78.6790 1.215117 47.00 52.42 6.86
4749 78.6940 1.214923 45.00 52.41 6.71
4750 78.7090 1.214729 50.00 52.41 7.07
4751 78.7240 1.214535 71.00 52.43 8.43
4752 78.7390 1.214342 50.00 52.48 7.07
4753 78.7540 1.214148 54.00 52.57 7.35
4754 78.7690 1.213954 63.00 52.73 7.94
4755 78.7840 1.213761 52.00 52.99 7.21
4756 78.7990 1.213567 49.00 53.40 7.00
4757 78.8140 1.213374 63.00 54.01 7.94
4758 78.8290 1.213181 65.00 54.91 8.06
4759 78.8440 1.212987 49.00 56.18 7.00
4760 78.8590 1.212794 65.00 57.91 8.06
4761 78.8740 1.212601 63.00 60.23 7.94
4762 78.8890 1.212408 59.00 63.24 7.68
4763 78.9040 1.212216 44.00 67.02 6.63
4764 78.9190 1.212023 69.00 71.65 8.31
4765 78.9340 1.211830 74.00 77.13 8.60
4766 78.9490 1.211637 80.00 83.43 8.94
4767 78.9640 1.211445 95.00 90.42 9.75
4768 78.9790 1.211252 117.00 97.91 10.82
4769 78.9940 1.211060 139.00 105.61 11.79
4770 79.0090 1.210868 179.00 113.18 13.38
4771 79.0240 1.210676 202.00 120.23 14.21
4772 79.0390 1.210483 189.00 126.36 13.75
4773 79.0540 1.210291 159.00 131.19 12.61
4774 79.0690 1.210099 125.00 134.41 11.18
4775 79.0840 1.209908 115.00 135.80 10.72
4776 79.0990 1.209716 108.00 135.28 10.39
4777 79.1140 1.209524 113.00 132.86 10.63
4778 79.1290 1.209332 142.00 128.72 11.92
4779 79.1440 1.209141 167.00 123.12 12.92
4780 79.1590 1.208949 160.00 116.42 12.65
4781 79.1740 1.208758 170.00 109.00 13.04
4782 79.1890 1.208567 167.00 101.28 12.92
4783 79.2040 1.208375 119.00 93.61 10.91
4784 79.2190 1.208184 80.00 86.31 8.94
4785 79.2340 1.207993 78.00 79.62 8.83
4786 79.2490 1.207802 66.00 73.70 8.12
4787 79.2640 1.207611 58.00 68.62 7.62
4788 79.2790 1.207421 56.00 64.40 7.48
4789 79.2940 1.207230 57.00 61.00 7.55
4790 79.3090 1.207039 58.00 58.33 7.62
4791 79.3240 1.206849 57.00 56.29 7.55
4792 79.3390 1.206658 57.00 54.77 7.55
4793 79.3540 1.206468 49.00 53.67 7.00
4794 79.3690 1.206277 59.00 52.89 7.68
4795 79.3840 1.206087 60.00 52.35 7.75
4796 79.3990 1.205897 62.00 51.98 7.87
4797 79.4140 1.205707 60.00 51.74 7.75
4798 79.4290 1.205517 57.00 51.58 7.55
4799 79.4440 1.205327 57.00 51.48 7.55
4800 79.4590 1.205137 48.00 51.43 6.93
4801 79.4740 1.204947 53.00 51.41 7.28
4802 79.4890 1.204757 65.00 51.42 8.06
4803 79.5040 1.204568 59.00 51.47 7.68
4804 79.5190 1.204378 45.00 51.58 6.71
4805 79.5340 1.204189 54.00 51.78 7.35
4806 79.5490 1.204000 66.00 52.10 8.12
4807 79.5640 1.203810 49.00 52.60 7.00
4808 79.5790 1.203621 49.00 53.34 7.00
4809 79.5940 1.203432 49.00 54.44 7.00
4810 79.6090 1.203243 46.00 55.99 6.78
4811 79.6240 1.203054 49.00 58.13 7.00
4812 79.6390 1.202865 55.00 61.00 7.42
4813 79.6540 1.202676 56.00 64.77 7.48
4814 79.6690 1.202487 63.00 69.55 7.94
4815 79.6840 1.202299 54.00 75.46 7.35
4816 79.6990 1.202110 61.00 82.57 7.81
4817 79.7140 1.201922 72.00 90.84 8.49
4818 79.7290 1.201733 91.00 100.17 9.54
4819 79.7440 1.201545 118.00 110.36 10.86
4820 79.7590 1.201357 170.00 121.06 13.04
4821 79.7740 1.201168 214.00 131.85 14.63
4822 79.7890 1.200980 248.00 142.24 15.75
4823 79.8040 1.200792 237.00 151.68 15.39
4824 79.8190 1.200604 184.00 159.63 13.56
4825 79.8340 1.200417 168.00 165.60 12.96
4826 79.8490 1.200229 133.00 169.20 11.53
4827 79.8640 1.200041 126.00 170.21 11.23
4828 79.8790 1.199854 123.00 168.55 11.09
4829 79.8940 1.199666 154.00 164.34 12.41
4830 79.9090 1.199479 160.00 157.84 12.65
4831 79.9240 1.199291 194.00 149.47 13.93
4832 79.9390 1.199104 208.00 139.71 14.42
4833 79.9540 1.198917 174.00 129.15 13.19
4834 79.9690 1.198730 159.00 118.29 12.61
4835 79.9840 1.198542 109.00 107.65 10.44
4836 79.9990 1.198355 75.00 97.60 8.66
4837 80.0140 1.198169 82.00 88.47 9.06
4838 80.0290 1.197982 63.00 80.43 7.94
4839 80.0440 1.197795 60.00 73.57 7.75
4840 80.0590 1.197608 57.00 67.89 7.55
4841 80.0740 1.197422 53.00 63.32 7.28
4842 80.0890 1.197235 59.00 59.74 7.68
4843 80.1040 1.197049 49.00 57.01 7.00
4844 80.1190 1.196862 48.00 54.99 6.93
4845 80.1340 1.196676 61.00 53.52 7.81
4846 80.1490 1.196490 60.00 52.48 7.75
4847 80.1640 1.196304 62.00 51.76 7.87
4848 80.1790 1.196118 52.00 51.28 7.21
4849 80.1940 1.195932 51.00 50.96 7.14
4850 80.2090 1.195746 54.00 50.74 7.35
4851 80.2240 1.195560 62.00 50.61 7.87
4852 80.2390 1.195374 55.00 50.52 7.42
4853 80.2540 1.195189 39.00 50.46 6.24
4854 80.2690 1.195003 45.00 50.42 6.71
4855 80.2840 1.194818 52.00 50.38 7.21
4856 80.2990 1.194632 45.00 50.36 6.71
4857 80.3140 1.194447 48.00 50.34 6.93
4858 80.3290 1.194262 53.00 50.32 7.28
4859 80.3440 1.194076 42.00 50.31 6.48
4860 80.3590 1.193891 58.00 50.29 7.62
4861 80.3740 1.193706 64.00 50.27 8.00
4862 80.3890 1.193521 50.00 50.26 7.07
4863 80.4040 1.193336 45.00 50.24 6.71
4864 80.4190 1.193152 52.00 50.22 7.21
4865 80.4340 1.192967 55.00 50.21 7.42
4866 80.4490 1.192782 62.00 50.19 7.87
4867 80.4640 1.192598 59.00 50.18 7.68
4868 80.4790 1.192413 46.00 50.16 6.78
4869 80.4940 1.192229 45.00 50.15 6.71
4870 80.5090 1.192044 54.00 50.13 7.35
4871 80.5240 1.191860 49.00 50.11 7.00
4872 80.5390 1.191676 63.00 50.10 7.94
4873 80.5540 1.191492 54.00 50.08 7.35
4874 80.5690 1.191308 49.00 50.07 7.00
4875 80.5840 1.191124 55.00 50.05 7.42
4876 80.5990 1.190940 50.00 50.04 7.07
4877 80.6140 1.190756 55.00 50.02 7.42
4878 80.6290 1.190573 46.00 50.01 6.78
4879 80.6440 1.190389 55.00 49.99 7.42
4880 80.6590 1.190206 60.00 49.98 7.75
4881 80.6740 1.190022 48.00 49.96 6.93
4882 80.6890 1.189839 58.00 49.95 7.62
4883 80.7040 1.189655 54.00 49.93 7.35
4884 80.7190 1.189472 48.00 49.92 6.93
4885 80.7340 1.189289 43.00 49.90 6.56
4886 80.7490 1.189106 46.00 49.89 6.78
4887 80.7640 1.188923 44.00 49.87 6.63
4888 80.7790 1.188740 42.00 49.86 6.48
4889 80.7940 1.188557 61.00 49.84 7.81
4890 80.8090 1.188374 55.00 49.83 7.42
4891 80.8240 1.188191 57.00 49.81 7.55
4892 80.8390 1.188009 43.00 49.80 6.56
4893 80.8540 1.187826 41.00 49.78 6.40
4894 80.8690 1.187644 47.00 49.77 6.86
4895 80.8840 1.187461 53.00 49.75 7.28
4896 80.8990 1.187279 55.00 49.74 7.42
4897 80.9140 1.187097 56.00 49.72 7.48
4898 80.9290 1.186915 44.00 49.71 6.63
4899 80.9440 1.186733 46.00 49.70 6.78
4900 80.9590 1.186550 48.00 49.68 6.93
4901 80.9740 1.186369 53.00 49.67 7.28
4902 80.9890 1.186187 55.00 49.65 7.42
4903 81.0040 1.186005 45.00 49.64 6.71
4904 81.0190 1.185823 41.00 49.63 6.40
4905 81.0340 1.185642 50.00 49.61 7.07
4906 81.0490 1.185460 55.00 49.60 7.42
4907 81.0640 1.185278 55.00 49.59 7.42
4908 81.0790 1.185097 50.00 49.58 7.07
4909 81.0940 1.184916 51.00 49.57 7.14
4910 81.1090 1.184734 56.00 49.57 7.48
4911 81.1240 1.184553 50.00 49.57 7.07
4912 81.1390 1.184372 49.00 49.58 7.00
4913 81.1540 1.184191 57.00 49.60 7.55
4914 81.1690 1.184010 61.00 49.63 7.81
4915 81.1840 1.183829 59.00 49.67 7.68
4916 81.1990 1.183648 51.00 49.73 7.14
4917 81.2140 1.183468 47.00 49.80 6.86
4918 81.2290 1.183287 55.00 49.89 7.42
4919 81.2440 1.183106 57.00 50.01 7.55
4920 81.2590 1.182926 39.00 50.14 6.24
4921 81.2740 1.182745 49.00 50.28 7.00
4922 81.2890 1.182565 49.00 50.44 7.00
4923 81.3040 1.182385 49.00 50.61 7.00
4924 81.3190 1.182205 63.00 50.78 7.94
4925 81.3340 1.182024 55.00 50.94 7.42
4926 81.3490 1.181844 56.00 51.08 7.48
4927 81.3640 1.181664 57.00 51.19 7.55
4928 81.3790 1.181485 58.00 51.28 7.62
4929 81.3940 1.181305 54.00 51.32 7.35
4930 81.4090 1.181125 54.00 51.32 7.35
4931 81.4240 1.180945 48.00 51.28 6.93
4932 81.4390 1.180766 54.00 51.20 7.35
4933 81.4540 1.180586 59.00 51.07 7.68
4934 81.4690 1.180407 53.00 50.92 7.28
4935 81.4840 1.180227 58.00 50.75 7.62
4936 81.4990 1.180048 61.00 50.56 7.81
4937 81.5140 1.179869 56.00 50.37 7.48
4938 81.5290 1.179690 57.00 50.18 7.55
4939 81.5440 1.179510 60.00 50.00 7.75
4940 81.5590 1.179331 59.00 49.83 7.68
4941 81.5740 1.179153 49.00 49.68 7.00
4942 81.5890 1.178974 39.00 49.55 6.24
4943 81.6040 1.178795 41.00 49.44 6.40
4944 81.6190 1.178616 48.00 49.35 6.93
4945 81.6340 1.178437 57.00 49.27 7.55
4946 81.6490 1.178259 55.00 49.21 7.42
4947 81.6640 1.178080 51.00 49.16 7.14
4948 81.6790 1.177902 58.00 49.13 7.62
4949 81.6940 1.177724 53.00 49.10 7.28
4950 81.7090 1.177545 50.00 49.08 7.07
4951 81.7240 1.177367 54.00 49.06 7.35
4952 81.7390 1.177189 48.00 49.05 6.93
4953 81.7540 1.177011 44.00 49.05 6.63
4954 81.7690 1.176833 43.00 49.07 6.56
4955 81.7840 1.176655 46.00 49.10 6.78
4956 81.7990 1.176477 49.00 49.16 7.00
4957 81.8140 1.176300 47.00 49.26 6.86
4958 81.8290 1.176122 50.00 49.43 7.07
4959 81.8440 1.175944 57.00 49.70 7.55
4960 81.8590 1.175767 51.00 50.12 7.14
4961 81.8740 1.175589 50.00 50.74 7.07
4962 81.8890 1.175412 54.00 51.64 7.35
4963 81.9040 1.175235 49.00 52.92 7.00
4964 81.9190 1.175058 60.00 54.68 7.75
4965 81.9340 1.174880 48.00 57.06 6.93
4966 81.9490 1.174703 45.00 60.20 6.71
4967 81.9640 1.174526 49.00 64.18 7.00
4968 81.9790 1.174349 56.00 69.20 7.48
4969 81.9940 1.174172 61.00 75.32 7.81
4970 82.0090 1.173995 66.00 82.56 8.12
4971 82.0240 1.173819 75.00 90.90 8.66
4972 82.0390 1.173642 104.00 100.23 10.20
4973 82.0540 1.173466 101.00 110.33 10.05
4974 82.0690 1.173289 155.00 120.91 12.45
4975 82.0840 1.173113 199.00 131.56 14.11
4976 82.0990 1.172936 215.00 141.83 14.66
4977 82.1140 1.172760 213.00 151.23 14.59
4978 82.1290 1.172584 187.00 159.24 13.67
4979 82.1440 1.172408 148.00 165.43 12.17
4980 82.1590 1.172232 140.00 169.43 11.83
4981 82.1740 1.172056 115.00 171.00 10.72
4982 82.1890 1.171880 135.00 170.03 11.62
4983 82.2040 1.171704 161.00 166.59 12.69
4984 82.2190 1.171528 186.00 160.89 13.64
4985 82.2340 1.171353 255.00 153.26 15.97
4986 82.2490 1.171177 249.00 144.15 15.78
4987 82.2640 1.171001 222.00 134.04 14.90
4988 82.2790 1.170826 205.00 123.44 14.32
4989 82.2940 1.170650 139.00 112.81 11.79
4990 82.3090 1.170475 92.00 102.57 9.59
4991 82.3240 1.170300 64.00 93.04 8.00
4992 82.3390 1.170125 63.00 84.46 7.94
4993 82.3540 1.169950 55.00 76.96 7.42
4994 82.3690 1.169775 51.00 70.59 7.14
4995 82.3840 1.169600 43.00 65.33 6.56
4996 82.3990 1.169425 49.00 61.10 7.00
4997 82.4140 1.169250 52.00 57.78 7.21
4998 82.4290 1.169075 50.00 55.26 7.07
4999 82.4440 1.168900 51.00 53.38 7.14
5000 82.4590 1.168726 54.00 52.02 7.35
5001 82.4740 1.168551 57.00 51.06 7.55
5002 82.4890 1.168377 61.00 50.42 7.81
5003 82.5040 1.168202 54.00 49.99 7.35
5004 82.5190 1.168028 55.00 49.74 7.42
5005 82.5340 1.167854 48.00 49.60 6.93
5006 82.5490 1.167680 48.00 49.56 6.93
5007 82.5640 1.167506 39.00 49.58 6.24
5008 82.5790 1.167331 44.00 49.67 6.63
5009 82.5940 1.167158 58.00 49.82 7.62
5010 82.6090 1.166984 53.00 50.05 7.28
5011 82.6240 1.166810 59.00 50.39 7.68
5012 82.6390 1.166636 56.00 50.85 7.48
5013 82.6540 1.166462 61.00 51.48 7.81
5014 82.6690 1.166289 53.00 52.35 7.28
5015 82.6840 1.166115 56.00 53.50 7.48
5016 82.6990 1.165942 67.00 55.01 8.19
5017 82.7140 1.165768 45.00 56.96 6.71
5018 82.7290 1.165595 49.00 59.42 7.00
5019 82.7440 1.165422 61.00 62.46 7.81
5020 82.7590 1.165249 60.00 66.13 7.75
5021 82.7740 1.165076 50.00 70.45 7.07
5022 82.7890 1.164903 69.00 75.41 8.31
5023 82.8040 1.164730 80.00 80.94 8.94
5024 82.8190 1.164557 112.00 86.93 10.58
5025 82.8340 1.164384 129.00 93.20 11.36
5026 82.8490 1.164211 142.00 99.53 11.92
5027 82.8640 1.164038 138.00 105.67 11.75
5028 82.8790 1.163866 176.00 111.33 13.27
5029 82.8940 1.163693 161.00 116.22 12.69
5030 82.9090 1.163521 139.00 120.07 11.79
5031 82.9240 1.163348 118.00 122.67 10.86
5032 82.9390 1.163176 106.00 123.86 10.30
5033 82.9540 1.163004 116.00 123.57 10.77
5034 82.9690 1.162832 140.00 121.81 11.83
5035 82.9840 1.162660 133.00 118.70 11.53
5036 82.9990 1.162488 143.00 114.40 11.96
5037 83.0140 1.162316 144.00 109.17 12.00
5038 83.0290 1.162144 145.00 103.27 12.04
5039 83.0440 1.161972 127.00 97.00 11.27
5040 83.0590 1.161800 128.00 90.63 11.31
5041 83.0740 1.161629 93.00 84.41 9.64
5042 83.0890 1.161457 71.00 78.54 8.43
5043 83.1040 1.161285 56.00 73.18 7.48
5044 83.1190 1.161114 55.00 68.42 7.42
5045 83.1340 1.160942 44.00 64.31 6.63
5046 83.1490 1.160771 66.00 60.85 8.12
5047 83.1640 1.160600 67.00 58.00 8.19
5048 83.1790 1.160429 51.00 55.71 7.14
5049 83.1940 1.160258 39.00 53.91 6.24
5050 83.2090 1.160087 48.00 52.52 6.93
5051 83.2240 1.159916 48.00 51.46 6.93
5052 83.2390 1.159745 52.00 50.67 7.21
5053 83.2540 1.159574 56.00 50.08 7.48
5054 83.2690 1.159403 52.00 49.64 7.21
5055 83.2840 1.159232 49.00 49.32 7.00
5056 83.2990 1.159062 49.00 49.08 7.00
5057 83.3140 1.158891 50.00 48.90 7.07
5058 83.3290 1.158721 51.00 48.77 7.14
5059 83.3440 1.158550 43.00 48.66 6.56
5060 83.3590 1.158380 53.00 48.58 7.28
5061 83.3740 1.158210 47.00 48.52 6.86
5062 83.3890 1.158039 50.00 48.47 7.07
5063 83.4040 1.157869 46.00 48.45 6.78
5064 83.4190 1.157699 45.00 48.45 6.71
5065 83.4340 1.157529 38.00 48.48 6.16
5066 83.4490 1.157359 40.00 48.54 6.32
5067 83.4640 1.157190 47.00 48.65 6.86
5068 83.4790 1.157020 60.00 48.80 7.75
5069 83.4940 1.156850 50.00 49.00 7.07
5070 83.5090 1.156680 48.00 49.27 6.93
5071 83.5240 1.156511 53.00 49.61 7.28
5072 83.5390 1.156341 53.00 50.02 7.28
5073 83.5540 1.156172 55.00 50.49 7.42
5074 83.5690 1.156003 50.00 51.03 7.07
5075 83.5840 1.155833 57.00 51.61 7.55
5076 83.5990 1.155664 55.00 52.23 7.42
5077 83.6140 1.155495 50.00 52.86 7.07
5078 83.6290 1.155326 62.00 53.47 7.87
5079 83.6440 1.155157 61.00 54.03 7.81
5080 83.6590 1.154988 70.00 54.52 8.37
5081 83.6740 1.154819 72.00 54.91 8.49
5082 83.6890 1.154650 49.00 55.17 7.00
5083 83.7040 1.154481 50.00 55.29 7.07
5084 83.7190 1.154313 61.00 55.26 7.81
5085 83.7340 1.154144 65.00 55.08 8.06
5086 83.7490 1.153975 60.00 54.75 7.75
5087 83.7640 1.153807 66.00 54.31 8.12
5088 83.7790 1.153639 58.00 53.76 7.62
5089 83.7940 1.153470 57.00 53.14 7.55
5090 83.8090 1.153302 60.00 52.48 7.75
5091 83.8240 1.153134 52.00 51.80 7.21
5092 83.8390 1.152966 47.00 51.14 6.86
5093 83.8540 1.152798 42.00 50.51 6.48
5094 83.8690 1.152630 56.00 49.92 7.48
5095 83.8840 1.152462 50.00 49.40 7.07
5096 83.8990 1.152294 60.00 48.95 7.75
5097 83.9140 1.152126 46.00 48.56 6.78
5098 83.9290 1.151958 38.00 48.24 6.16
5099 83.9440 1.151791 41.00 47.98 6.40
5100 83.9590 1.151623 43.00 47.77 6.56
5101 83.9740 1.151456 33.00 47.61 5.74
5102 83.9890 1.151288 46.00 47.48 6.78
5103 84.0040 1.151121 45.00 47.39 6.71
5104 84.0190 1.150954 45.00 47.31 6.71
5105 84.0340 1.150786 55.00 47.26 7.42
5106 84.0490 1.150619 49.00 47.22 7.00
5107 84.0640 1.150452 49.00 47.19 7.00
5108 84.0790 1.150285 45.00 47.17 6.71
5109 84.0940 1.150118 45.00 47.15 6.71
5110 84.1090 1.149951 47.00 47.15 6.86
5111 84.1240 1.149784 44.00 47.15 6.63
5112 84.1390 1.149618 47.00 47.17 6.86
5113 84.1540 1.149451 40.00 47.20 6.32
5114 84.1690 1.149284 57.00 47.25 7.55
5115 84.1840 1.149118 43.00 47.33 6.56
5116 84.1990 1.148951 52.00 47.45 7.21
5117 84.2140 1.148785 50.00 47.61 7.07
5118 84.2290 1.148618 42.00 47.83 6.48
5119 84.2440 1.148452 57.00 48.12 7.55
5120 84.2590 1.148286 54.00 48.49 7.35
5121 84.2740 1.148120 49.00 48.96 7.00
5122 84.2890 1.147954 44.00 49.51 6.63
5123 84.3040 1.147788 62.00 50.17 7.87
5124 84.3190 1.147622 49.00 50.93 7.00
5125 84.3340 1.147456 42.00 51.77 6.48
5126 84.3490 1.147290 51.00 52.68 7.14
5127 84.3640 1.147124 51.00 53.64 7.14
5128 84.3790 1.146959 65.00 54.61 8.06
5129 84.3940 1.146793 61.00 55.55 7.81
5130 84.4090 1.146628 67.00 56.42 8.19
5131 84.4240 1.146462 52.00 57.18 7.21
5132 84.4390 1.146297 64.00 57.78 8.00
5133 84.4540 1.146131 49.00 58.20 7.00
5134 84.4690 1.145966 60.00 58.41 7.75
5135 84.4840 1.145801 64.00 58.40 8.00
5136 84.4990 1.145636 55.00 58.17 7.42
5137 84.5140 1.145471 55.00 57.72 7.42
5138 84.5290 1.145306 42.00 57.09 6.48
5139 84.5440 1.145141 58.00 56.31 7.62
5140 84.5590 1.144976 49.00 55.42 7.00
5141 84.5740 1.144811 54.00 54.45 7.35
5142 84.5890 1.144646 58.00 53.46 7.62
5143 84.6040 1.144482 55.00 52.48 7.42
5144 84.6190 1.144317 56.00 51.54 7.48
5145 84.6340 1.144152 45.00 50.68 6.71
5146 84.6490 1.143988 35.00 49.90 5.92
5147 84.6640 1.143824 54.00 49.21 7.35
5148 84.6790 1.143659 45.00 48.63 6.71
5149 84.6940 1.143495 45.00 48.14 6.71
5150 84.7090 1.143331 43.00 47.75 6.56
5151 84.7240 1.143167 45.00 47.43 6.71
5152 84.7390 1.143003 45.00 47.19 6.71
5153 84.7540 1.142839 48.00 47.00 6.93
5154 84.7690 1.142675 31.00 46.86 5.57
5155 84.7840 1.142511 41.00 46.76 6.40
5156 84.7990 1.142347 47.00 46.70 6.86
5157 84.8140 1.142183 48.00 46.66 6.93
5158 84.8290 1.142020 48.00 46.64 6.93
5159 84.8440 1.141856 61.00 46.66 7.81
5160 84.8590 1.141693 42.00 46.71 6.48
5161 84.8740 1.141529 47.00 46.81 6.86
5162 84.8890 1.141366 50.00 46.97 7.07
5163 84.9040 1.141202 55.00 47.21 7.42
5164 84.9190 1.141039 42.00 47.58 6.48
5165 84.9340 1.140876 47.00 48.12 6.86
5166 84.9490 1.140713 50.00 48.88 7.07
5167 84.9640 1.140550 45.00 49.92 6.71
5168 84.9790 1.140387 45.00 51.32 6.71
5169 84.9940 1.140224 51.00 53.16 7.14
5170 85.0090 1.140061 52.00 55.53 7.21
5171 85.0240 1.139898 48.00 58.50 6.93
5172 85.0390 1.139735 44.00 62.15 6.63
5173 85.0540 1.139573 49.00 66.51 7.00
5174 85.0690 1.139410 60.00 71.61 7.75
5175 85.0840 1.139248 70.00 77.40 8.37
5176 85.0990 1.139085 84.00 83.83 9.17
5177 85.1140 1.138923 102.00 90.74 10.10
5178 85.1290 1.138760 128.00 97.94 11.31
5179 85.1440 1.138598 150.00 105.19 12.25
5180 85.1590 1.138436 171.00 112.21 13.08
5181 85.1740 1.138274 175.00 118.69 13.23
5182 85.1890 1.138112 151.00 124.33 12.29
5183 85.2040 1.137950 131.00 128.83 11.45
5184 85.2190 1.137788 104.00 131.97 10.20
5185 85.2340 1.137626 109.00 133.56 10.44
5186 85.2490 1.137464 115.00 133.52 10.72
5187 85.2640 1.137302 115.00 131.85 10.72
5188 85.2790 1.137141 119.00 128.65 10.91
5189 85.2940 1.136979 138.00 124.08 11.75
5190 85.3090 1.136817 155.00 118.39 12.45
5191 85.3240 1.136656 165.00 111.87 12.85
5192 85.3390 1.136495 156.00 104.82 12.49
5193 85.3540 1.136333 119.00 97.54 10.91
5194 85.3690 1.136172 86.00 90.32 9.27
5195 85.3840 1.136011 60.00 83.40 7.75
5196 85.3990 1.135849 48.00 76.98 6.93
5197 85.4140 1.135688 46.00 71.18 6.78
5198 85.4290 1.135527 54.00 66.09 7.35
5199 85.4440 1.135366 56.00 61.73 7.48
5200 85.4590 1.135206 48.00 58.09 6.93
5201 85.4740 1.135045 47.00 55.12 6.86
5202 85.4890 1.134884 43.00 52.76 6.56
5203 85.5040 1.134723 41.00 50.91 6.40
5204 85.5190 1.134562 48.00 49.50 6.93
5205 85.5340 1.134402 47.00 48.45 6.86
5206 85.5490 1.134241 47.00 47.69 6.86
5207 85.5640 1.134081 51.00 47.14 7.14
5208 85.5790 1.133921 41.00 46.76 6.40
5209 85.5940 1.133760 44.00 46.51 6.63
5210 85.6090 1.133600 46.00 46.36 6.78
5211 85.6240 1.133440 53.00 46.27 7.28
5212 85.6390 1.133280 53.00 46.25 7.28
5213 85.6540 1.133120 54.00 46.29 7.35
5214 85.6690 1.132960 45.00 46.39 6.71
5215 85.6840 1.132800 38.00 46.56 6.16
5216 85.6990 1.132640 44.00 46.83 6.63
5217 85.7140 1.132480 36.00 47.21 6.00
5218 85.7290 1.132320 46.00 47.72 6.78
5219 85.7440 1.132161 48.00 48.42 6.93
5220 85.7590 1.132001 51.00 49.33 7.14
5221 85.7740 1.131842 50.00 50.49 7.07
5222 85.7890 1.131682 47.00 51.93 6.86
5223 85.8040 1.131523 51.00 53.69 7.14
5224 85.8190 1.131363 47.00 55.77 6.86
5225 85.8340 1.131204 50.00 58.19 7.07
5226 85.8490 1.131045 53.00 60.92 7.28
5227 85.8640 1.130886 61.00 63.93 7.81
5228 85.8790 1.130727 60.00 67.14 7.75
5229 85.8940 1.130568 83.00 70.47 9.11
5230 85.9090 1.130409 95.00 73.80 9.75
5231 85.9240 1.130250 103.00 77.00 10.15
5232 85.9390 1.130091 98.00 79.95 9.90
5233 85.9540 1.129932 110.00 82.48 10.49
5234 85.9690 1.129773 94.00 84.49 9.70
5235 85.9840 1.129615 83.00 85.86 9.11
5236 85.9990 1.129456 67.00 86.53 8.19
5237 86.0140 1.129298 74.00 86.45 8.60
5238 86.0290 1.129139 92.00 85.64 9.59
5239 86.0440 1.128981 99.00 84.12 9.95
5240 86.0590 1.128822 112.00 81.99 10.58
5241 86.0740 1.128664 114.00 79.35 10.68
5242 86.0890 1.128506 122.00 76.34 11.05
5243 86.1040 1.128348 122.00 73.08 11.05
5244 86.1190 1.128190 94.00 69.72 9.70
5245 86.1340 1.128032 70.00 66.39 8.37
5246 86.1490 1.127874 56.00 63.19 7.48
5247 86.1640 1.127716 50.00 60.21 7.07
5248 86.1790 1.127558 39.00 57.51 6.24
5249 86.1940 1.127400 52.00 55.13 7.21
5250 86.2090 1.127243 58.00 53.09 7.62
5251 86.2240 1.127085 55.00 51.37 7.42
5252 86.2390 1.126927 51.00 49.97 7.14
5253 86.2540 1.126770 50.00 48.84 7.07
5254 86.2690 1.126613 41.00 47.95 6.40
5255 86.2840 1.126455 53.00 47.27 7.28
5256 86.2990 1.126298 41.00 46.76 6.40
5257 86.3140 1.126141 48.00 46.38 6.93
5258 86.3290 1.125983 53.00 46.10 7.28
5259 86.3440 1.125826 41.00 45.90 6.40
5260 86.3590 1.125669 38.00 45.76 6.16
5261 86.3740 1.125512 49.00 45.67 7.00
5262 86.3890 1.125355 53.00 45.60 7.28
5263 86.4040 1.125199 37.00 45.55 6.08
5264 86.4190 1.125042 45.00 45.52 6.71
5265 86.4340 1.124885 45.00 45.49 6.71
5266 86.4490 1.124728 50.00 45.48 7.07
5267 86.4640 1.124572 42.00 45.46 6.48
5268 86.4790 1.124415 44.00 45.45 6.63
5269 86.4940 1.124259 46.00 45.44 6.78
5270 86.5090 1.124102 46.00 45.43 6.78
5271 86.5240 1.123946 52.00 45.42 7.21
5272 86.5390 1.123790 39.00 45.41 6.24
5273 86.5540 1.123633 46.00 45.40 6.78
5274 86.5690 1.123477 46.00 45.39 6.78
5275 86.5840 1.123321 49.00 45.38 7.00
5276 86.5990 1.123165 42.00 45.37 6.48
5277 86.6140 1.123009 40.00 45.36 6.32
5278 86.6290 1.122853 41.00 45.35 6.40
5279 86.6440 1.122697 52.00 45.34 7.21
5280 86.6590 1.122541 42.00 45.34 6.48
5281 86.6740 1.122386 48.00 45.33 6.93
5282 86.6890 1.122230 43.00 45.32 6.56
5283 86.7040 1.122074 57.00 45.31 7.55
5284 86.7190 1.121919 39.00 45.30 6.24
5285 86.7340 1.121763 40.00 45.29 6.32
5286 86.7490 1.121608 36.00 45.28 6.00
5287 86.7640 1.121453 45.00 45.27 6.71
5288 86.7790 1.121297 49.00 45.26 7.00
5289 86.7940 1.121142 34.00 45.25 5.83
5290 86.8090 1.120987 44.00 45.25 6.63
5291 86.8240 1.120832 48.00 45.24 6.93
5292 86.8390 1.120677 41.00 45.23 6.40
5293 86.8540 1.120522 48.00 45.22 6.93
5294 86.8690 1.120367 39.00 45.21 6.24
5295 86.8840 1.120212 40.00 45.20 6.32
5296 86.8990 1.120057 45.00 45.19 6.71
5297 86.9140 1.119902 38.00 45.18 6.16
5298 86.9290 1.119748 35.00 45.17 5.92
5299 86.9440 1.119593 36.00 45.16 6.00
5300 86.9590 1.119439 53.00 45.16 7.28
5301 86.9740 1.119284 46.00 45.15 6.78
5302 86.9890 1.119130 36.00 45.14 6.00
5303 87.0040 1.118975 47.00 45.13 6.86
5304 87.0190 1.118821 47.00 45.12 6.86
5305 87.0340 1.118667 55.00 45.11 7.42
5306 87.0490 1.118512 47.00 45.10 6.86
5307 87.0640 1.118358 48.00 45.10 6.93
5308 87.0790 1.118204 49.00 45.09 7.00
5309 87.0940 1.118050 37.00 45.08 6.08
5310 87.1090 1.117896 49.00 45.08 7.00
5311 87.1240 1.117742 47.00 45.08 6.86
5312 87.1390 1.117589 48.00 45.08 6.93
5313 87.1540 1.117435 39.00 45.09 6.24
5314 87.1690 1.117281 46.00 45.12 6.78
5315 87.1840 1.117128 45.00 45.15 6.71
5316 87.1990 1.116974 43.00 45.20 6.56
5317 87.2140 1.116820 53.00 45.28 7.28
5318 87.2290 1.116667 39.00 45.39 6.24
5319 87.2440 1.116513 40.00 45.55 6.32
5320 87.2590 1.116360 47.00 45.76 6.86
5321 87.2740 1.116207 40.00 46.03 6.32
5322 87.2890 1.116054 39.00 46.38 6.24
5323 87.3040 1.115901 36.00 46.82 6.00
5324 87.3190 1.115748 44.00 47.35 6.63
5325 87.3340 1.115595 50.00 47.99 7.07
5326 87.3490 1.115442 45.00 48.74 6.71
5327 87.3640 1.115289 40.00 49.59 6.32
5328 87.3790 1.115136 45.00 50.54 6.71
5329 87.3940 1.114983 50.00 51.56 7.07
5330 87.4090 1.114830 48.00 52.64 6.93
5331 87.4240 1.114678 54.00 53.73 7.35
5332 87.4390 1.114525 61.00 54.81 7.81
5333 87.4540 1.114373 62.00 55.83 7.87
5334 87.4690 1.114220 75.00 56.75 8.66
5335 87.4840 1.114068 71.00 57.52 8.43
5336 87.4990 1.113915 72.00 58.11 8.49
5337 87.5140 1.113763 62.00 58.48 7.87
5338 87.5290 1.113611 55.00 58.63 7.42
5339 87.5440 1.113459 57.00 58.53 7.55
5340 87.5590 1.113307 61.00 58.19 7.81
5341 87.5740 1.113155 59.00 57.64 7.68
5342 87.5890 1.113003 49.00 56.90 7.00
5343 87.6040 1.112851 43.00 56.00 6.56
5344 87.6190 1.112699 64.00 54.98 8.00
5345 87.6340 1.112547 52.00 53.90 7.21
5346 87.6490 1.112395 55.00 52.78 7.42
5347 87.6640 1.112244 52.00 51.68 7.21
5348 87.6790 1.112092 47.00 50.62 6.86
5349 87.6940 1.111940 44.00 49.63 6.63
5350 87.7090 1.111789 45.00 48.74 6.71
5351 87.7240 1.111637 53.00 47.95 7.28
5352 87.7390 1.111486 54.00 47.26 7.35
5353 87.7540 1.111335 52.00 46.68 7.21
5354 87.7690 1.111184 42.00 46.20 6.48
5355 87.7840 1.111032 45.00 45.81 6.71
5356 87.7990 1.110881 47.00 45.51 6.86
5357 87.8140 1.110730 47.00 45.27 6.86
5358 87.8290 1.110579 41.00 45.09 6.40
5359 87.8440 1.110428 50.00 44.95 7.07
5360 87.8590 1.110277 50.00 44.86 7.07
5361 87.8740 1.110126 59.00 44.80 7.68
5362 87.8890 1.109975 49.00 44.78 7.00
5363 87.9040 1.109825 42.00 44.78 6.48
5364 87.9190 1.109674 41.00 44.81 6.40
5365 87.9340 1.109524 48.00 44.88 6.93
5366 87.9490 1.109373 59.00 45.00 7.68
5367 87.9640 1.109223 48.00 45.19 6.93
5368 87.9790 1.109072 46.00 45.44 6.78
5369 87.9940 1.108922 46.00 45.80 6.78
5370 88.0090 1.108771 46.00 46.29 6.78
5371 88.0240 1.108621 47.00 46.93 6.86
5372 88.0390 1.108471 44.00 47.75 6.63
5373 88.0540 1.108321 51.00 48.79 7.14
5374 88.0690 1.108171 52.00 50.07 7.21
5375 88.0840 1.108021 47.00 51.61 6.86
5376 88.0990 1.107871 46.00 53.43 6.78
5377 88.1140 1.107721 46.00 55.54 6.78
5378 88.1290 1.107571 48.00 57.91 6.93
5379 88.1440 1.107421 51.00 60.53 7.14
5380 88.1590 1.107272 69.00 63.33 8.31
5381 88.1740 1.107122 79.00 66.24 8.89
5382 88.1890 1.106972 113.00 69.19 10.63
5383 88.2040 1.106823 114.00 72.05 10.68
5384 88.2190 1.106673 98.00 74.73 9.90
5385 88.2340 1.106524 92.00 77.11 9.59
5386 88.2490 1.106375 110.00 79.08 10.49
5387 88.2640 1.106225 94.00 80.54 9.70
5388 88.2790 1.106076 80.00 81.43 8.94
5389 88.2940 1.105927 91.00 81.70 9.54
5390 88.3090 1.105778 73.00 81.34 8.54
5391 88.3240 1.105629 73.00 80.36 8.54
5392 88.3390 1.105480 77.00 78.81 8.77
5393 88.3540 1.105331 77.00 76.78 8.77
5394 88.3690 1.105182 105.00 74.34 10.25
5395 88.3840 1.105033 91.00 71.61 9.54
5396 88.3990 1.104885 70.00 68.72 8.37
5397 88.4140 1.104736 73.00 65.75 8.54
5398 88.4290 1.104587 49.00 62.83 7.00
5399 88.4440 1.104439 58.00 60.03 7.62
5400 88.4590 1.104290 54.00 57.43 7.35
5401 88.4740 1.104142 50.00 55.06 7.07
5402 88.4890 1.103993 49.00 52.97 7.00
5403 88.5040 1.103845 47.00 51.16 6.86
5404 88.5190 1.103697 51.00 49.63 7.14
5405 88.5340 1.103548 49.00 48.36 7.00
5406 88.5490 1.103400 41.00 47.33 6.40
5407 88.5640 1.103252 42.00 46.52 6.48
5408 88.5790 1.103104 38.00 45.89 6.16
5409 88.5940 1.102956 49.00 45.41 7.00
5410 88.6090 1.102808 32.00 45.06 5.66
5411 88.6240 1.102660 43.00 44.81 6.56
5412 88.6390 1.102512 47.00 44.66 6.86
5413 88.6540 1.102365 42.00 44.57 6.48
5414 88.6690 1.102217 50.00 44.56 7.07
5415 88.6840 1.102069 38.00 44.62 6.16
5416 88.6990 1.101922 47.00 44.75 6.86
5417 88.7140 1.101774 42.00 44.98 6.48
5418 88.7290 1.101627 49.00 45.33 7.00
5419 88.7440 1.101479 47.00 45.82 6.86
5420 88.7590 1.101332 46.00 46.48 6.78
5421 88.7740 1.101185 42.00 47.37 6.48
5422 88.7890 1.101038 41.00 48.53 6.40
5423 88.8040 1.100890 48.00 50.00 6.93
5424 88.8190 1.100743 47.00 51.83 6.86
5425 88.8340 1.100596 50.00 54.07 7.07
5426 88.8490 1.100449 46.00 56.74 6.78
5427 88.8640 1.100302 47.00 59.86 6.86
5428 88.8790 1.100155 48.00 63.42 6.93
5429 88.8940 1.100008 52.00 67.39 7.21
5430 88.9090 1.099862 84.00 71.72 9.17
5431 88.9240 1.099715 95.00 76.32 9.75
5432 88.9390 1.099568 104.00 81.05 10.20
5433 88.9540 1.099422 121.00 85.78 11.00
5434 88.9690 1.099275 145.00 90.34 12.04
5435 88.9840 1.099129 133.00 94.55 11.53
5436 88.9990 1.098982 130.00 98.23 11.40
5437 89.0140 1.098836 126.00 101.22 11.23
5438 89.0290 1.098690 100.00 103.37 10.00
5439 89.0440 1.098543 94.00 104.60 9.70
5440 89.0590 1.098397 94.00 104.82 9.70
5441 89.0740 1.098251 97.00 104.04 9.85
5442 89.0890 1.098105 108.00 102.29 10.39
5443 89.1040 1.097959 135.00 99.66 11.62
5444 89.1190 1.097813 154.00 96.26 12.41
5445 89.1340 1.097667 124.00 92.26 11.14
5446 89.1490 1.097521 114.00 87.82 10.68
5447 89.1640 1.097375 93.00 83.13 9.64
5448 89.1790 1.097230 84.00 78.37 9.17
5449 89.1940 1.097084 70.00 73.67 8.37
5450 89.2090 1.096938 56.00 69.19 7.48
5451 89.2240 1.096793 50.00 65.02 7.07
5452 89.2390 1.096647 44.00 61.24 6.63
5453 89.2540 1.096502 44.00 57.90 6.63
5454 89.2690 1.096357 46.00 55.00 6.78
5455 89.2840 1.096211 45.00 52.55 6.71
5456 89.2990 1.096066 49.00 50.52 7.00
5457 89.3140 1.095921 44.00 48.86 6.63
5458 89.3290 1.095776 43.00 47.55 6.56
5459 89.3440 1.095630 46.00 46.52 6.78
5460 89.3590 1.095485 47.00 45.73 6.86
5461 89.3740 1.095340 41.00 45.14 6.40
5462 89.3890 1.095196 43.00 44.71 6.56
5463 89.4040 1.095051 39.00 44.40 6.24
5464 89.4190 1.094906 44.00 44.18 6.63
5465 89.4340 1.094761 50.00 44.04 7.07
5466 89.4490 1.094616 42.00 43.95 6.48
5467 89.4640 1.094472 43.00 43.91 6.56
5468 89.4790 1.094327 41.00 43.92 6.40
5469 89.4940 1.094183 52.00 43.96 7.21
5470 89.5090 1.094038 51.00 44.03 7.14
5471 89.5240 1.093894 47.00 44.15 6.86
5472 89.5390 1.093749 39.00 44.32 6.24
5473 89.5540 1.093605 43.00 44.55 6.56
5474 89.5690 1.093461 42.00 44.83 6.48
5475 89.5840 1.093317 37.00 45.18 6.08
5476 89.5990 1.093173 55.00 45.61 7.42
5477 89.6140 1.093029 40.00 46.12 6.32
5478 89.6290 1.092885 51.00 46.71 7.14
5479 89.6440 1.092741 61.00 47.38 7.81
5480 89.6590 1.092597 51.00 48.12 7.14
5481 89.6740 1.092453 65.00 48.92 8.06
5482 89.6890 1.092309 53.00 49.75 7.28
5483 89.7040 1.092165 55.00 50.61 7.42
5484 89.7190 1.092021 50.00 51.45 7.07
5485 89.7340 1.091878 54.00 52.26 7.35
5486 89.7490 1.091734 53.00 52.99 7.28
5487 89.7640 1.091591 54.00 53.62 7.35
5488 89.7790 1.091447 62.00 54.12 7.87
5489 89.7940 1.091304 60.00 54.46 7.75
5490 89.8090 1.091161 59.00 54.64 7.68
5491 89.8240 1.091017 52.00 54.63 7.21
5492 89.8390 1.090874 57.00 54.44 7.55
5493 89.8540 1.090731 51.00 54.09 7.14
5494 89.8690 1.090588 52.00 53.57 7.21
5495 89.8840 1.090445 53.00 52.93 7.28
5496 89.8990 1.090302 51.00 52.18 7.14
5497 89.9140 1.090159 49.00 51.36 7.00
5498 89.9290 1.090016 65.00 50.50 8.06
5499 89.9440 1.089873 61.00 49.62 7.81
5500 89.9590 1.089730 41.00 48.77 6.40
5501 89.9740 1.089588 46.00 47.95 6.78
5502 89.9890 1.089445 45.00 47.19 6.71
5503 90.0040 1.089302 49.00 46.50 7.00
5504 90.0190 1.089160 37.00 45.89 6.08
5505 90.0340 1.089017 41.00 45.37 6.40
5506 90.0490 1.088875 45.00 44.92 6.71
5507 90.0640 1.088732 45.00 44.54 6.71
5508 90.0790 1.088590 52.00 44.23 7.21
5509 90.0940 1.088448 48.00 43.99 6.93
5510 90.1090 1.088306 46.00 43.79 6.78
5511 90.1240 1.088163 40.00 43.64 6.32
5512 90.1390 1.088021 44.00 43.53 6.63
5513 90.1540 1.087879 45.00 43.44 6.71
5514 90.1690 1.087737 39.00 43.38 6.24
5515 90.1840 1.087595 49.00 43.34 7.00
5516 90.1990 1.087454 41.00 43.31 6.40
5517 90.2140 1.087312 48.00 43.30 6.93
5518 90.2290 1.087170 48.00 43.30 6.93
5519 90.2440 1.087028 46.00 43.31 6.78
5520 90.2590 1.086887 45.00 43.33 6.71
5521 90.2740 1.086745 42.00 43.37 6.48
5522 90.2890 1.086603 44.00 43.43 6.63
5523 90.3040 1.086462 45.00 43.51 6.71
5524 90.3190 1.086321 46.00 43.61 6.78
5525 90.3340 1.086179 41.00 43.74 6.40
5526 90.3490 1.086038 44.00 43.90 6.63
5527 90.3640 1.085897 44.00 44.10 6.63
5528 90.3790 1.085755 47.00 44.33 6.86
5529 90.3940 1.085614 45.00 44.59 6.71
5530 90.4090 1.085473 48.00 44.88 6.93
5531 90.4240 1.085332 39.00 45.21 6.24
5532 90.4390 1.085191 51.00 45.55 7.14
5533 90.4540 1.085050 47.00 45.91 6.86
5534 90.4690 1.084909 37.00 46.27 6.08
5535 90.4840 1.084768 47.00 46.63 6.86
5536 90.4990 1.084628 64.00 46.96 8.00
5537 90.5140 1.084487 54.00 47.26 7.35
5538 90.5290 1.084346 48.00 47.51 6.93
5539 90.5440 1.084206 50.00 47.71 7.07
5540 90.5590 1.084065 52.00 47.83 7.21
5541 90.5740 1.083925 51.00 47.89 7.14
5542 90.5890 1.083784 47.00 47.86 6.86
5543 90.6040 1.083644 52.00 47.76 7.21
5544 90.6190 1.083503 53.00 47.59 7.28
5545 90.6340 1.083363 62.00 47.35 7.87
5546 90.6490 1.083223 43.00 47.06 6.56
5547 90.6640 1.083083 54.00 46.73 7.35
5548 90.6790 1.082943 38.00 46.37 6.16
5549 90.6940 1.082803 46.00 45.99 6.78
5550 90.7090 1.082663 57.00 45.61 7.55
5551 90.7240 1.082523 51.00 45.24 7.14
5552 90.7390 1.082383 49.00 44.89 7.00
5553 90.7540 1.082243 46.00 44.56 6.78
5554 90.7690 1.082103 44.00 44.26 6.63
5555 90.7840 1.081963 40.00 44.00 6.32
5556 90.7990 1.081824 35.00 43.77 5.92
5557 90.8140 1.081684 39.00 43.58 6.24
5558 90.8290 1.081544 46.00 43.41 6.78
5559 90.8440 1.081405 39.00 43.28 6.24
5560 90.8590 1.081265 47.00 43.18 6.86
5561 90.8740 1.081126 55.00 43.11 7.42
5562 90.8890 1.080987 35.00 43.07 5.92
5563 90.9040 1.080848 43.00 43.05 6.56
5564 90.9190 1.080708 39.00 43.06 6.24
5565 90.9340 1.080569 41.00 43.11 6.40
5566 90.9490 1.080430 47.00 43.20 6.86
5567 90.9640 1.080291 42.00 43.36 6.48
5568 90.9790 1.080152 49.00 43.58 7.00
5569 90.9940 1.080013 42.00 43.91 6.48
5570 91.0090 1.079874 43.00 44.36 6.56
5571 91.0240 1.079735 50.00 44.97 7.07
5572 91.0390 1.079596 55.00 45.79 7.42
5573 91.0540 1.079458 45.00 46.84 6.71
5574 91.0690 1.079319 44.00 48.19 6.63
5575 91.0840 1.079180 46.00 49.87 6.78
5576 91.0990 1.079042 48.00 51.94 6.93
5577 91.1140 1.078903 60.00 54.43 7.75
5578 91.1290 1.078765 49.00 57.36 7.00
5579 91.1440 1.078626 35.00 60.77 5.92
5580 91.1590 1.078488 53.00 64.62 7.28
5581 91.1740 1.078349 71.00 68.89 8.43
5582 91.1890 1.078211 80.00 73.53 8.94
5583 91.2040 1.078073 107.00 78.43 10.34
5584 91.2190 1.077935 130.00 83.47 11.40
5585 91.2340 1.077797 113.00 88.52 10.63
5586 91.2490 1.077659 148.00 93.41 12.17
5587 91.2640 1.077521 172.00 97.96 13.11
5588 91.2790 1.077383 161.00 101.99 12.69
5589 91.2940 1.077245 140.00 105.35 11.83
5590 91.3090 1.077107 121.00 107.89 11.00
5591 91.3240 1.076969 96.00 109.49 9.80
5592 91.3390 1.076831 103.00 110.08 10.15
5593 91.3540 1.076694 95.00 109.64 9.75
5594 91.3690 1.076556 107.00 108.18 10.34
5595 91.3840 1.076419 116.00 105.77 10.77
5596 91.3990 1.076281 125.00 102.53 11.18
5597 91.4140 1.076144 119.00 98.58 10.91
5598 91.4290 1.076006 122.00 94.09 11.05
5599 91.4440 1.075869 111.00 89.24 10.54
5600 91.4590 1.075732 107.00 84.20 10.34
5601 91.4740 1.075594 86.00 79.14 9.27
5602 91.4890 1.075457 88.00 74.21 9.38
5603 91.5040 1.075320 82.00 69.53 9.06
5604 91.5190 1.075183 57.00 65.19 7.55
5605 91.5340 1.075046 44.00 61.27 6.63
5606 91.5490 1.074909 44.00 57.79 6.63
5607 91.5640 1.074772 49.00 54.78 7.00
5608 91.5790 1.074635 44.00 52.22 6.63
5609 91.5940 1.074498 43.00 50.10 6.56
5610 91.6090 1.074362 50.00 48.36 7.07
5611 91.6240 1.074225 43.00 46.97 6.56
5612 91.6390 1.074088 44.00 45.89 6.63
5613 91.6540 1.073952 40.00 45.06 6.32
5614 91.6690 1.073815 43.00 44.44 6.56
5615 91.6840 1.073678 35.00 43.99 5.92
5616 91.6990 1.073542 43.00 43.69 6.56
5617 91.7140 1.073406 41.00 43.50 6.40
5618 91.7290 1.073269 37.00 43.42 6.08
5619 91.7440 1.073133 47.00 43.42 6.86
5620 91.7590 1.072997 36.00 43.51 6.00
5621 91.7740 1.072861 37.00 43.69 6.08
5622 91.7890 1.072724 43.00 43.95 6.56
5623 91.8040 1.072588 42.00 44.31 6.48
5624 91.8190 1.072452 45.00 44.79 6.71
5625 91.8340 1.072316 49.00 45.39 7.00
5626 91.8490 1.072181 43.00 46.14 6.56
5627 91.8640 1.072045 48.00 47.05 6.93
5628 91.8790 1.071909 46.00 48.14 6.78
5629 91.8940 1.071773 52.00 49.40 7.21
5630 91.9090 1.071637 46.00 50.85 6.78
5631 91.9240 1.071502 39.00 52.47 6.24
5632 91.9390 1.071366 51.00 54.25 7.14
5633 91.9540 1.071231 62.00 56.16 7.87
5634 91.9690 1.071095 71.00 58.17 8.43
5635 91.9840 1.070960 85.00 60.23 9.22
5636 91.9990 1.070824 82.00 62.27 9.06
5637 92.0140 1.070689 80.00 64.24 8.94
5638 92.0290 1.070554 92.00 66.06 9.59
5639 92.0440 1.070418 101.00 67.68 10.05
5640 92.0590 1.070283 81.00 69.02 9.00
5641 92.0740 1.070148 73.00 70.04 8.54
5642 92.0890 1.070013 78.00 70.70 8.83
5643 92.1040 1.069878 61.00 70.97 7.81
5644 92.1190 1.069743 63.00 70.85 7.94
5645 92.1340 1.069608 69.00 70.33 8.31
5646 92.1490 1.069473 74.00 69.45 8.60
5647 92.1640 1.069338 81.00 68.26 9.00
5648 92.1790 1.069204 81.00 66.79 9.00
5649 92.1940 1.069069 78.00 65.11 8.83
5650 92.2090 1.068934 67.00 63.29 8.19
5651 92.2240 1.068800 67.00 61.38 8.19
5652 92.2390 1.068665 69.00 59.45 8.31
5653 92.2540 1.068531 71.00 57.55 8.43
5654 92.2690 1.068396 40.00 55.72 6.32
5655 92.2840 1.068262 51.00 54.01 7.14
5656 92.2990 1.068127 42.00 52.43 6.48
5657 92.3140 1.067993 33.00 51.00 5.74
5658 92.3290 1.067859 38.00 49.73 6.16
5659 92.3440 1.067725 36.00 48.63 6.00
5660 92.3590 1.067591 38.00 47.67 6.16
5661 92.3740 1.067456 49.00 46.85 7.00
5662 92.3890 1.067322 45.00 46.17 6.71
5663 92.4040 1.067189 41.00 45.59 6.40
5664 92.4190 1.067055 37.00 45.11 6.08
5665 92.4340 1.066921 51.00 44.71 7.14
5666 92.4490 1.066787 45.00 44.38 6.71
5667 92.4640 1.066653 37.00 44.10 6.08
5668 92.4790 1.066519 35.00 43.87 5.92
5669 92.4940 1.066386 46.00 43.67 6.78
5670 92.5090 1.066252 39.00 43.50 6.24
5671 92.5240 1.066118 41.00 43.36 6.40
5672 92.5390 1.065985 43.00 43.23 6.56
5673 92.5540 1.065852 39.00 43.11 6.24
5674 92.5690 1.065718 51.00 43.01 7.14
5675 92.5840 1.065585 38.00 42.91 6.16
5676 92.5990 1.065452 41.00 42.82 6.40
5677 92.6140 1.065318 39.00 42.74 6.24
5678 92.6290 1.065185 48.00 42.67 6.93
5679 92.6440 1.065052 58.00 42.59 7.62
5680 92.6590 1.064919 47.00 42.53 6.86
5681 92.6740 1.064786 39.00 42.47 6.24
5682 92.6890 1.064653 53.00 42.41 7.28
5683 92.7040 1.064520 45.00 42.35 6.71
5684 92.7190 1.064387 46.00 42.30 6.78
5685 92.7340 1.064254 50.00 42.25 7.07
5686 92.7490 1.064121 34.00 42.21 5.83
5687 92.7640 1.063989 53.00 42.16 7.28
5688 92.7790 1.063856 42.00 42.12 6.48
5689 92.7940 1.063723 42.00 42.08 6.48
5690 92.8090 1.063591 48.00 42.04 6.93
5691 92.8240 1.063458 46.00 42.01 6.78
5692 92.8390 1.063326 30.00 41.97 5.48
5693 92.8540 1.063193 38.00 41.94 6.16
5694 92.8690 1.063061 37.00 41.91 6.08
5695 92.8840 1.062928 38.00 41.88 6.16
5696 92.8990 1.062796 47.00 41.85 6.86
5697 92.9140 1.062664 52.00 41.83 7.21
5698 92.9290 1.062532 54.00 41.80 7.35
5699 92.9440 1.062400 47.00 41.77 6.86
5700 92.9590 1.062268 39.00 41.75 6.24
5701 92.9740 1.062136 43.00 41.73 6.56
5702 92.9890 1.062004 45.00 41.70 6.71
5703 93.0040 1.061872 39.00 41.68 6.24
5704 93.0190 1.061740 47.00 41.66 6.86
5705 93.0340 1.061608 46.00 41.63 6.78
5706 93.0490 1.061476 45.00 41.61 6.71
5707 93.0640 1.061345 44.00 41.59 6.63
5708 93.0790 1.061213 43.00 41.57 6.56
5709 93.0940 1.061081 45.00 41.55 6.71
5710 93.1090 1.060950 45.00 41.53 6.71
5711 93.1240 1.060818 37.00 41.52 6.08
5712 93.1390 1.060687 43.00 41.50 6.56
5713 93.1540 1.060555 47.00 41.48 6.86
5714 93.1690 1.060424 46.00 41.46 6.78
5715 93.1840 1.060293 48.00 41.44 6.93
5716 93.1990 1.060161 48.00 41.43 6.93
5717 93.2140 1.060030 40.00 41.41 6.32
5718 93.2290 1.059899 32.00 41.40 5.66
5719 93.2440 1.059768 39.00 41.38 6.24
5720 93.2590 1.059637 46.00 41.37 6.78
5721 93.2740 1.059506 42.00 41.35 6.48
5722 93.2890 1.059375 42.00 41.34 6.48
5723 93.3040 1.059244 48.00 41.33 6.93
5724 93.3190 1.059113 50.00 41.31 7.07
5725 93.3340 1.058982 42.00 41.30 6.48
5726 93.3490 1.058852 47.00 41.30 6.86
5727 93.3640 1.058721 30.00 41.29 5.48
5728 93.3790 1.058590 41.00 41.28 6.40
5729 93.3940 1.058460 50.00 41.28 7.07
5730 93.4090 1.058329 43.00 41.28 6.56
5731 93.4240 1.058198 47.00 41.28 6.86
5732 93.4390 1.058068 46.00 41.28 6.78
5733 93.4540 1.057938 49.00 41.28 7.00
5734 93.4690 1.057807 36.00 41.29 6.00
5735 93.4840 1.057677 40.00 41.29 6.32
5736 93.4990 1.057547 45.00 41.30 6.71
5737 93.5140 1.057417 32.00 41.31 5.66
5738 93.5290 1.057286 46.00 41.32 6.78
5739 93.5440 1.057156 54.00 41.32 7.35
5740 93.5590 1.057026 57.00 41.33 7.55
5741 93.5740 1.056896 39.00 41.33 6.24
5742 93.5890 1.056766 32.00 41.33 5.66
5743 93.6040 1.056636 43.00 41.32 6.56
5744 93.6190 1.056507 41.00 41.32 6.40
5745 93.6340 1.056377 40.00 41.30 6.32
5746 93.6490 1.056247 49.00 41.29 7.00
5747 93.6640 1.056117 51.00 41.27 7.14
5748 93.6790 1.055988 46.00 41.24 6.78
5749 93.6940 1.055858 39.00 41.22 6.24
5750 93.7090 1.055728 39.00 41.19 6.24
5751 93.7240 1.055599 42.00 41.16 6.48
5752 93.7390 1.055470 36.00 41.13 6.00
5753 93.7540 1.055340 43.00 41.09 6.56
5754 93.7690 1.055211 46.00 41.06 6.78
5755 93.7840 1.055081 35.00 41.03 5.92
5756 93.7990 1.054952 42.00 41.00 6.48
5757 93.8140 1.054823 44.00 40.97 6.63
5758 93.8290 1.054694 39.00 40.94 6.24
5759 93.8440 1.054565 33.00 40.92 5.74
5760 93.8590 1.054436 46.00 40.90 6.78
5761 93.8740 1.054307 54.00 40.88 7.35
5762 93.8890 1.054178 31.00 40.86 5.57
5763 93.9040 1.054049 30.00 40.85 5.48
5764 93.9190 1.053920 38.00 40.84 6.16
5765 93.9340 1.053791 32.00 40.83 5.66
5766 93.9490 1.053662 36.00 40.83 6.00
5767 93.9640 1.053534 40.00 40.84 6.32
5768 93.9790 1.053405 49.00 40.86 7.00
5769 93.9940 1.053276 49.00 40.89 7.00
5770 94.0090 1.053148 41.00 40.95 6.40
5771 94.0240 1.053019 45.00 41.02 6.71
5772 94.0390 1.052891 51.00 41.13 7.14
5773 94.0540 1.052763 38.00 41.28 6.16
5774 94.0690 1.052634 45.00 41.48 6.71
5775 94.0840 1.052506 45.00 41.74 6.71
5776 94.0990 1.052378 45.00 42.07 6.71
5777 94.1140 1.052249 49.00 42.48 7.00
5778 94.1290 1.052121 45.00 42.99 6.71
5779 94.1440 1.051993 45.00 43.61 6.71
5780 94.1590 1.051865 49.00 44.34 7.00
5781 94.1740 1.051737 40.00 45.19 6.32
5782 94.1890 1.051609 50.00 46.16 7.07
5783 94.2040 1.051481 45.00 47.25 6.71
5784 94.2190 1.051353 40.00 48.45 6.32
5785 94.2340 1.051225 42.00 49.74 6.48
5786 94.2490 1.051098 59.00 51.09 7.68
5787 94.2640 1.050970 61.00 52.48 7.81
5788 94.2790 1.050842 68.00 53.87 8.25
5789 94.2940 1.050715 91.00 55.22 9.54
5790 94.3090 1.050587 68.00 56.48 8.25
5791 94.3240 1.050460 74.00 57.62 8.60
5792 94.3390 1.050332 65.00 58.58 8.06
5793 94.3540 1.050205 70.00 59.33 8.37
5794 94.3690 1.050077 71.00 59.84 8.43
5795 94.3840 1.049950 64.00 60.09 8.00
5796 94.3990 1.049823 50.00 60.07 7.07
5797 94.4140 1.049695 53.00 59.78 7.28
5798 94.4290 1.049568 56.00 59.23 7.48
5799 94.4440 1.049441 63.00 58.44 7.94
5800 94.4590 1.049314 71.00 57.45 8.43
5801 94.4740 1.049187 65.00 56.28 8.06
5802 94.4890 1.049060 63.00 54.99 7.94
5803 94.5040 1.048933 70.00 53.62 8.37
5804 94.5190 1.048806 67.00 52.21 8.19
5805 94.5340 1.048679 61.00 50.80 7.81
5806 94.5490 1.048553 52.00 49.43 7.21
5807 94.5640 1.048426 55.00 48.12 7.42
5808 94.5790 1.048299 41.00 46.91 6.40
5809 94.5940 1.048172 42.00 45.81 6.48
5810 94.6090 1.048046 39.00 44.82 6.24
5811 94.6240 1.047919 41.00 43.96 6.40
5812 94.6390 1.047793 43.00 43.22 6.56
5813 94.6540 1.047666 42.00 42.60 6.48
5814 94.6690 1.047540 37.00 42.08 6.08
5815 94.6840 1.047414 46.00 41.66 6.78
5816 94.6990 1.047287 52.00 41.32 7.21
5817 94.7140 1.047161 44.00 41.06 6.63
5818 94.7290 1.047035 47.00 40.87 6.86
5819 94.7440 1.046909 41.00 40.74 6.40
5820 94.7590 1.046782 33.00 40.65 5.74
5821 94.7740 1.046656 43.00 40.62 6.56
5822 94.7890 1.046530 39.00 40.63 6.24
5823 94.8040 1.046404 43.00 40.68 6.56
5824 94.8190 1.046278 43.00 40.79 6.56
5825 94.8340 1.046153 38.00 40.95 6.16
5826 94.8490 1.046027 46.00 41.16 6.78
5827 94.8640 1.045901 46.00 41.45 6.78
5828 94.8790 1.045775 45.00 41.81 6.71
5829 94.8940 1.045650 54.00 42.26 7.35
5830 94.9090 1.045524 42.00 42.79 6.48
5831 94.9240 1.045398 40.00 43.43 6.32
5832 94.9390 1.045273 53.00 44.16 7.28
5833 94.9540 1.045147 44.00 45.00 6.63
5834 94.9690 1.045022 47.00 45.93 6.86
5835 94.9840 1.044897 55.00 46.95 7.42
5836 94.9990 1.044771 43.00 48.04 6.56
5837 95.0140 1.044646 57.00 49.19 7.55
5838 95.0290 1.044521 56.00 50.35 7.48
5839 95.0440 1.044396 52.00 51.51 7.21
5840 95.0590 1.044270 60.00 52.64 7.75
5841 95.0740 1.044145 56.00 53.68 7.48
5842 95.0890 1.044020 67.00 54.62 8.19
5843 95.1040 1.043895 73.00 55.41 8.54
5844 95.1190 1.043770 59.00 56.03 7.68
5845 95.1340 1.043645 50.00 56.44 7.07
5846 95.1490 1.043520 56.00 56.64 7.48
5847 95.1640 1.043396 57.00 56.61 7.55
5848 95.1790 1.043271 61.00 56.36 7.81
5849 95.1940 1.043146 66.00 55.89 8.12
5850 95.2090 1.043021 60.00 55.23 7.75
5851 95.2240 1.042897 55.00 54.39 7.42
5852 95.2390 1.042772 52.00 53.42 7.21
5853 95.2540 1.042648 54.00 52.34 7.35
5854 95.2690 1.042523 59.00 51.19 7.68
5855 95.2840 1.042399 54.00 50.01 7.35
5856 95.2990 1.042274 54.00 48.82 7.35
5857 95.3140 1.042150 48.00 47.67 6.93
5858 95.3290 1.042026 37.00 46.57 6.08
5859 95.3440 1.041902 33.00 45.54 5.74
5860 95.3590 1.041777 38.00 44.61 6.16
5861 95.3740 1.041653 48.00 43.77 6.93
5862 95.3890 1.041529 47.00 43.03 6.86
5863 95.4040 1.041405 40.00 42.40 6.32
5864 95.4190 1.041281 42.00 41.86 6.48
5865 95.4340 1.041157 33.00 41.41 5.74
5866 95.4490 1.041033 41.00 41.05 6.40
5867 95.4640 1.040909 49.00 40.76 7.00
5868 95.4790 1.040785 41.00 40.54 6.40
5869 95.4940 1.040662 37.00 40.39 6.08
5870 95.5090 1.040538 35.00 40.29 5.92
5871 95.5240 1.040414 41.00 40.25 6.40
5872 95.5390 1.040291 39.00 40.26 6.24
5873 95.5540 1.040167 48.00 40.33 6.93
5874 95.5690 1.040043 39.00 40.45 6.24
5875 95.5840 1.039920 51.00 40.65 7.14
5876 95.5990 1.039797 46.00 40.92 6.78
5877 95.6140 1.039673 48.00 41.27 6.93
5878 95.6290 1.039550 48.00 41.73 6.93
5879 95.6440 1.039427 50.00 42.29 7.07
5880 95.6590 1.039303 34.00 42.98 5.83
5881 95.6740 1.039180 35.00 43.80 5.92
5882 95.6890 1.039057 35.00 44.76 5.92
5883 95.7040 1.038934 41.00 45.88 6.40
5884 95.7190 1.038811 38.00 47.13 6.16
5885 95.7340 1.038688 35.00 48.53 5.92
5886 95.7490 1.038565 47.00 50.04 6.86
5887 95.7640 1.038442 52.00 51.66 7.21
5888 95.7790 1.038319 55.00 53.35 7.42
5889 95.7940 1.038196 65.00 55.07 8.06
5890 95.8090 1.038073 57.00 56.77 7.55
5891 95.8240 1.037951 58.00 58.42 7.62
5892 95.8390 1.037828 76.00 59.95 8.72
5893 95.8540 1.037705 72.00 61.32 8.49
5894 95.8690 1.037583 77.00 62.48 8.77
5895 95.8840 1.037460 66.00 63.38 8.12
5896 95.8990 1.037338 63.00 63.99 7.94
5897 95.9140 1.037215 58.00 64.29 7.62
5898 95.9290 1.037093 51.00 64.26 7.14
5899 95.9440 1.036970 55.00 63.90 7.42
5900 95.9590 1.036848 60.00 63.24 7.75
5901 95.9740 1.036726 68.00 62.29 8.25
5902 95.9890 1.036604 70.00 61.09 8.37
5903 96.0040 1.036481 64.00 59.68 8.00
5904 96.0190 1.036359 60.00 58.11 7.75
5905 96.0340 1.036237 75.00 56.44 8.66
5906 96.0490 1.036115 63.00 54.71 7.94
5907 96.0640 1.035993 58.00 52.98 7.62
5908 96.0790 1.035871 60.00 51.28 7.75
5909 96.0940 1.035749 54.00 49.66 7.35
5910 96.1090 1.035627 49.00 48.14 7.00
5911 96.1240 1.035506 44.00 46.75 6.63
5912 96.1390 1.035384 49.00 45.49 7.00
5913 96.1540 1.035262 40.00 44.38 6.32
5914 96.1690 1.035141 46.00 43.42 6.78
5915 96.1840 1.035019 44.00 42.60 6.63
5916 96.1990 1.034897 45.00 41.91 6.71
5917 96.2140 1.034776 41.00 41.34 6.40
5918 96.2290 1.034654 42.00 40.88 6.48
5919 96.2440 1.034533 47.00 40.52 6.86
5920 96.2590 1.034411 37.00 40.24 6.08
5921 96.2740 1.034290 40.00 40.03 6.32
5922 96.2890 1.034169 45.00 39.88 6.71
5923 96.3040 1.034048 37.00 39.78 6.08
5924 96.3190 1.033926 34.00 39.73 5.83
5925 96.3340 1.033805 42.00 39.73 6.48
5926 96.3490 1.033684 36.00 39.76 6.00
5927 96.3640 1.033563 44.00 39.83 6.63
5928 96.3790 1.033442 29.00 39.94 5.39
5929 96.3940 1.033321 33.00 40.10 5.74
5930 96.4090 1.033200 42.00 40.30 6.48
5931 96.4240 1.033079 42.00 40.55 6.48
5932 96.4390 1.032958 39.00 40.85 6.24
5933 96.4540 1.032838 44.00 41.21 6.63
5934 96.4690 1.032717 35.00 41.62 5.92
5935 96.4840 1.032596 45.00 42.08 6.71
5936 96.4990 1.032476 37.00 42.59 6.08
5937 96.5140 1.032355 45.00 43.15 6.71
5938 96.5290 1.032234 35.00 43.74 5.92
5939 96.5440 1.032114 50.00 44.36 7.07
5940 96.5590 1.031993 52.00 44.99 7.21
5941 96.5740 1.031873 53.00 45.61 7.28
5942 96.5890 1.031753 52.00 46.21 7.21
5943 96.6040 1.031632 56.00 46.77 7.48
5944 96.6190 1.031512 71.00 47.28 8.43
5945 96.6340 1.031392 58.00 47.70 7.62
5946 96.6490 1.031272 45.00 48.04 6.71
5947 96.6640 1.031151 49.00 48.27 7.00
5948 96.6790 1.031031 35.00 48.38 5.92
5949 96.6940 1.030911 49.00 48.38 7.00
5950 96.7090 1.030791 61.00 48.26 7.81
5951 96.7240 1.030671 43.00 48.03 6.56
5952 96.7390 1.030551 54.00 47.69 7.35
5953 96.7540 1.030432 47.00 47.26 6.86
5954 96.7690 1.030312 53.00 46.76 7.28
5955 96.7840 1.030192 48.00 46.19 6.93
5956 96.7990 1.030072 50.00 45.58 7.07
5957 96.8140 1.029952 50.00 44.95 7.07
5958 96.8290 1.029833 44.00 44.31 6.63
5959 96.8440 1.029713 50.00 43.69 7.07
5960 96.8590 1.029594 44.00 43.09 6.63
5961 96.8740 1.029474 46.00 42.52 6.78
5962 96.8890 1.029355 39.00 42.00 6.24
5963 96.9040 1.029235 28.00 41.53 5.29
5964 96.9190 1.029116 46.00 41.11 6.78
5965 96.9340 1.028996 47.00 40.75 6.86
5966 96.9490 1.028877 42.00 40.44 6.48
5967 96.9640 1.028758 46.00 40.19 6.78
5968 96.9790 1.028639 36.00 39.98 6.00
5969 96.9940 1.028520 37.00 39.82 6.08
5970 97.0090 1.028401 31.00 39.71 5.57
5971 97.0240 1.028281 49.00 39.64 7.00
5972 97.0390 1.028162 42.00 39.61 6.48
5973 97.0540 1.028044 39.00 39.62 6.24
5974 97.0690 1.027925 41.00 39.68 6.40
5975 97.0840 1.027806 41.00 39.79 6.40
5976 97.0990 1.027687 50.00 39.96 7.07
5977 97.1140 1.027568 52.00 40.19 7.21
5978 97.1290 1.027449 52.00 40.49 7.21
5979 97.1440 1.027331 49.00 40.88 7.00
5980 97.1590 1.027212 39.00 41.36 6.24
5981 97.1740 1.027093 40.00 41.95 6.32
5982 97.1890 1.026975 44.00 42.66 6.63
5983 97.2040 1.026856 39.00 43.50 6.24
5984 97.2190 1.026738 46.00 44.48 6.78
5985 97.2340 1.026619 45.00 45.60 6.71
5986 97.2490 1.026501 36.00 46.85 6.00
5987 97.2640 1.026383 42.00 48.23 6.48
5988 97.2790 1.026264 47.00 49.73 6.86
5989 97.2940 1.026146 47.00 51.33 6.86
5990 97.3090 1.026028 50.00 52.99 7.07
5991 97.3240 1.025910 53.00 54.69 7.28
5992 97.3390 1.025792 65.00 56.37 8.06
5993 97.3540 1.025674 69.00 58.01 8.31
5994 97.3690 1.025556 84.00 59.54 9.17
5995 97.3840 1.025438 69.00 60.93 8.31
5996 97.3990 1.025320 78.00 62.12 8.83
5997 97.4140 1.025202 75.00 63.08 8.66
5998 97.4290 1.025084 61.00 63.77 7.81
5999 97.4440 1.024966 56.00 64.18 7.48
6000 97.4590 1.024848 50.00 64.28 7.07
6001 97.4740 1.024731 61.00 64.08 7.81
6002 97.4890 1.024613 59.00 63.58 7.68
6003 97.5040 1.024495 75.00 62.81 8.66
6004 97.5190 1.024378 83.00 61.79 9.11
6005 97.5340 1.024260 79.00 60.56 8.89
6006 97.5490 1.024143 78.00 59.18 8.83
6007 97.5640 1.024025 71.00 57.67 8.43
6008 97.5790 1.023908 79.00 56.10 8.89
6009 97.5940 1.023791 52.00 54.51 7.21
6010 97.6090 1.023673 55.00 52.93 7.42
6011 97.6240 1.023556 52.00 51.42 7.21
6012 97.6390 1.023439 36.00 49.99 6.00
6013 97.6540 1.023322 44.00 48.68 6.63
6014 97.6690 1.023205 48.00 47.50 6.93
6015 97.6840 1.023087 44.00 46.46 6.63
6016 97.6990 1.022970 46.00 45.56 6.78
6017 97.7140 1.022853 51.00 44.81 7.14
6018 97.7290 1.022736 34.00 44.19 5.83
6019 97.7440 1.022619 36.00 43.71 6.00
6020 97.7590 1.022503 37.00 43.35 6.08
6021 97.7740 1.022386 47.00 43.10 6.86
6022 97.7890 1.022269 40.00 42.96 6.32
6023 97.8040 1.022152 38.00 42.92 6.16
6024 97.8190 1.022036 37.00 42.98 6.08
6025 97.8340 1.021919 33.00 43.14 5.74
6026 97.8490 1.021802 40.00 43.42 6.32
6027 97.8640 1.021686 55.00 43.82 7.42
6028 97.8790 1.021569 40.00 44.35 6.32
6029 97.8940 1.021453 44.00 45.05 6.63
6030 97.9090 1.021336 43.00 45.94 6.56
6031 97.9240 1.021220 43.00 47.04 6.56
6032 97.9390 1.021104 41.00 48.39 6.40
6033 97.9540 1.020987 53.00 50.01 7.28
6034 97.9690 1.020871 46.00 51.93 6.78
6035 97.9840 1.020755 43.00 54.17 6.56
6036 97.9990 1.020639 43.00 56.74 6.56
6037 98.0140 1.020523 47.00 59.63 6.86
6038 98.0290 1.020407 50.00 62.84 7.07
6039 98.0440 1.020290 58.00 66.33 7.62
6040 98.0590 1.020175 65.00 70.05 8.06
6041 98.0740 1.020059 76.00 73.94 8.72
6042 98.0890 1.019943 81.00 77.92 9.00
6043 98.1040 1.019827 109.00 81.89 10.44
6044 98.1190 1.019711 125.00 85.76 11.18
6045 98.1340 1.019595 130.00 89.40 11.40
6046 98.1490 1.019480 146.00 92.70 12.08
6047 98.1640 1.019364 135.00 95.56 11.62
6048 98.1790 1.019248 111.00 97.87 10.54
6049 98.1940 1.019133 118.00 99.55 10.86
6050 98.2090 1.019017 104.00 100.54 10.20
6051 98.2240 1.018902 80.00 100.80 8.94
6052 98.2390 1.018786 92.00 100.32 9.59
6053 98.2540 1.018671 99.00 99.11 9.95
6054 98.2690 1.018555 83.00 97.22 9.11
6055 98.2840 1.018440 108.00 94.70 10.39
6056 98.2990 1.018325 105.00 91.64 10.25
6057 98.3140 1.018209 120.00 88.15 10.95
6058 98.3290 1.018094 108.00 84.33 10.39
6059 98.3440 1.017979 100.00 80.30 10.00
6060 98.3590 1.017864 81.00 76.17 9.00
6061 98.3740 1.017749 69.00 72.04 8.31
6062 98.3890 1.017634 54.00 68.01 7.35
6063 98.4040 1.017519 57.00 64.15 7.55
6064 98.4190 1.017404 40.00 60.54 6.32
6065 98.4340 1.017289 37.00 57.21 6.08
6066 98.4490 1.017174 52.00 54.20 7.21
6067 98.4640 1.017059 39.00 51.53 6.24
6068 98.4790 1.016945 36.00 49.19 6.00
6069 98.4940 1.016830 43.00 47.17 6.56
6070 98.5090 1.016715 37.00 45.46 6.08
6071 98.5240 1.016601 38.00 44.02 6.16
6072 98.5390 1.016486 48.00 42.84 6.93
6073 98.5540 1.016371 49.00 41.89 7.00
6074 98.5690 1.016257 48.00 41.12 6.93
6075 98.5840 1.016142 42.00 40.51 6.48
6076 98.5990 1.016028 45.00 40.04 6.71
6077 98.6140 1.015914 39.00 39.67 6.24
6078 98.6290 1.015799 38.00 39.39 6.16
6079 98.6440 1.015685 30.00 39.18 5.48
6080 98.6590 1.015571 37.00 39.03 6.08
6081 98.6740 1.015457 37.00 38.91 6.08
6082 98.6890 1.015342 44.00 38.83 6.63
6083 98.7040 1.015228 43.00 38.77 6.56
6084 98.7190 1.015114 33.00 38.73 5.74
6085 98.7340 1.015000 44.00 38.70 6.63
6086 98.7490 1.014886 42.00 38.67 6.48
6087 98.7640 1.014772 42.00 38.66 6.48
6088 98.7790 1.014658 49.00 38.65 7.00
6089 98.7940 1.014545 39.00 38.64 6.24
6090 98.8090 1.014431 42.00 38.64 6.48
6091 98.8240 1.014317 47.00 38.64 6.86
6092 98.8390 1.014203 38.00 38.64 6.16
6093 98.8540 1.014090 32.00 38.64 5.66
6094 98.8690 1.013976 38.00 38.64 6.16
6095 98.8840 1.013862 47.00 38.65 6.86
6096 98.8990 1.013749 37.00 38.65 6.08
6097 98.9140 1.013635 40.00 38.66 6.32
6098 98.9290 1.013522 45.00 38.66 6.71
6099 98.9440 1.013408 45.00 38.67 6.71
6100 98.9590 1.013295 39.00 38.68 6.24
6101 98.9740 1.013182 39.00 38.69 6.24
6102 98.9890 1.013068 39.00 38.71 6.24
6103 99.0040 1.012955 38.00 38.72 6.16
6104 99.0190 1.012842 34.00 38.74 5.83
6105 99.0340 1.012729 45.00 38.75 6.71
6106 99.0490 1.012616 57.00 38.77 7.55
6107 99.0640 1.012502 37.00 38.79 6.08
6108 99.0790 1.012389 49.00 38.81 7.00
6109 99.0940 1.012276 44.00 38.84 6.63
6110 99.1090 1.012163 34.00 38.86 5.83
6111 99.1240 1.012051 34.00 38.89 5.83
6112 99.1390 1.011938 32.00 38.92 5.66
6113 99.1540 1.011825 33.00 38.96 5.74
6114 99.1690 1.011712 34.00 38.99 5.83
6115 99.1840 1.011599 43.00 39.03 6.56
6116 99.1990 1.011487 37.00 39.08 6.08
6117 99.2140 1.011374 37.00 39.13 6.08
6118 99.2290 1.011261 42.00 39.18 6.48
6119 99.2440 1.011149 50.00 39.24 7.07
6120 99.2590 1.011036 45.00 39.30 6.71
6121 99.2740 1.010924 43.00 39.38 6.56
6122 99.2890 1.010811 44.00 39.46 6.63
6123 99.3040 1.010699 44.00 39.56 6.63
6124 99.3190 1.010586 34.00 39.67 5.83
6125 99.3340 1.010474 35.00 39.80 5.92
6126 99.3490 1.010362 37.00 39.96 6.08
6127 99.3640 1.010250 38.00 40.15 6.16
6128 99.3790 1.010137 43.00 40.37 6.56
6129 99.3940 1.010025 43.00 40.64 6.56
6130 99.4090 1.009913 38.00 40.96 6.16
6131 99.4240 1.009801 41.00 41.34 6.40
6132 99.4390 1.009689 42.00 41.79 6.48
6133 99.4540 1.009577 36.00 42.33 6.00
6134 99.4690 1.009465 38.00 42.96 6.16
6135 99.4840 1.009353 37.00 43.70 6.08
6136 99.4990 1.009241 42.00 44.54 6.48
6137 99.5140 1.009129 35.00 45.51 5.92
6138 99.5290 1.009018 41.00 46.60 6.40
6139 99.5440 1.008906 49.00 47.81 7.00
6140 99.5590 1.008794 50.00 49.14 7.07
6141 99.5740 1.008683 48.00 50.58 6.93
6142 99.5890 1.008571 39.00 52.12 6.24
6143 99.6040 1.008459 42.00 53.72 6.48
6144 99.6190 1.008348 47.00 55.37 6.86
6145 99.6340 1.008236 49.00 57.03 7.00
6146 99.6490 1.008125 71.00 58.66 8.43
6147 99.6640 1.008013 74.00 60.22 8.60
6148 99.6790 1.007902 80.00 61.68 8.94
6149 99.6940 1.007791 75.00 62.98 8.66
6150 99.7090 1.007680 66.00 64.08 8.12
6151 99.7240 1.007568 70.00 64.96 8.37
6152 99.7390 1.007457 64.00 65.59 8.00
6153 99.7540 1.007346 55.00 65.93 7.42
6154 99.7690 1.007235 58.00 65.99 7.62
6155 99.7840 1.007124 60.00 65.75 7.75
6156 99.7990 1.007013 61.00 65.22 7.81
6157 99.8140 1.006902 64.00 64.43 8.00
6158 99.8290 1.006791 59.00 63.40 7.68
6159 99.8440 1.006680 68.00 62.16 8.25
6160 99.8590 1.006569 62.00 60.75 7.87
6161 99.8740 1.006458 59.00 59.21 7.68
6162 99.8890 1.006348 56.00 57.58 7.48
6163 99.9040 1.006237 61.00 55.91 7.81
6164 99.9190 1.006126 49.00 54.24 7.00
6165 99.9340 1.006016 54.00 52.60 7.35
6166 99.9490 1.005905 48.00 51.01 6.93
6167 99.9640 1.005794 44.00 49.52 6.63
6168 99.9790 1.005684 38.00 48.13 6.16
6169 99.9940 1.005573 37.00 46.85 6.08
6170 100.0090 1.005463 40.00 45.71 6.32
6171 100.0240 1.005352 36.00 44.69 6.00
6172 100.0390 1.005242 42.00 43.81 6.48
6173 100.0540 1.005132 43.00 43.06 6.56
6174 100.0690 1.005022 45.00 42.43 6.71
6175 100.0840 1.004911 50.00 41.93 7.07
6176 100.0990 1.004801 49.00 41.55 7.00
6177 100.1140 1.004691 44.00 41.29 6.63
6178 100.1290 1.004581 37.00 41.15 6.08
6179 100.1440 1.004471 39.00 41.14 6.24
6180 100.1590 1.004361 37.00 41.26 6.08
6181 100.1740 1.004251 46.00 41.52 6.78
6182 100.1890 1.004141 44.00 41.94 6.63
6183 100.2040 1.004031 43.00 42.54 6.56
6184 100.2190 1.003921 45.00 43.33 6.71
6185 100.2340 1.003811 41.00 44.34 6.40
6186 100.2490 1.003701 36.00 45.59 6.00
6187 100.2640 1.003592 40.00 47.09 6.32
6188 100.2790 1.003482 40.00 48.87 6.32
6189 100.2940 1.003372 43.00 50.92 6.56
6190 100.3090 1.003263 42.00 53.27 6.48
6191 100.3240 1.003153 45.00 55.89 6.71
6192 100.3390 1.003044 50.00 58.79 7.07
6193 100.3540 1.002934 45.00 61.91 6.71
6194 100.3690 1.002825 58.00 65.24 7.62
6195 100.3840 1.002715 69.00 68.70 8.31
6196 100.3990 1.002606 77.00 72.24 8.77
6197 100.4140 1.002497 91.00 75.78 9.54
6198 100.4290 1.002387 119.00 79.23 10.91
6199 100.4440 1.002278 126.00 82.51 11.23
6200 100.4590 1.002169 148.00 85.51 12.17
6201 100.4740 1.002060 114.00 88.15 10.68
6202 100.4890 1.001951 122.00 90.35 11.05
6203 100.5040 1.001841 96.00 92.03 9.80
6204 100.5190 1.001732 80.00 93.15 8.94
6205 100.5340 1.001623 79.00 93.66 8.89
6206 100.5490 1.001514 80.00 93.54 8.94
6207 100.5640 1.001406 83.00 92.79 9.11
6208 100.5790 1.001297 80.00 91.45 8.94
6209 100.5940 1.001188 97.00 89.55 9.85
6210 100.6090 1.001079 92.00 87.16 9.59
6211 100.6240 1.000970 110.00 84.34 10.49
6212 100.6390 1.000862 116.00 81.19 10.77
6213 100.6540 1.000753 118.00 77.80 10.86
6214 100.6690 1.000644 97.00 74.25 9.85
6215 100.6840 1.000536 63.00 70.64 7.94
6216 100.6990 1.000427 75.00 67.05 8.66
6217 100.7140 1.000319 54.00 63.55 7.35
6218 100.7290 1.000210 37.00 60.21 6.08
6219 100.7440 1.000102 41.00 57.08 6.40
6220 100.7590 0.999993 42.00 54.19 6.48
6221 100.7740 0.999885 40.00 51.57 6.32
6222 100.7890 0.999777 43.00 49.24 6.56
6223 100.8040 0.999668 39.00 47.19 6.24
6224 100.8190 0.999560 42.00 45.42 6.48
6225 100.8340 0.999452 41.00 43.92 6.40
6226 100.8490 0.999344 43.00 42.68 6.56
6227 100.8640 0.999236 47.00 41.67 6.86
6228 100.8790 0.999128 48.00 40.87 6.93
6229 100.8940 0.999020 49.00 40.28 7.00
6230 100.9090 0.998912 42.00 39.86 6.48
6231 100.9240 0.998804 44.00 39.61 6.63
6232 100.9390 0.998696 41.00 39.52 6.40
6233 100.9540 0.998588 47.00 39.58 6.86
6234 100.9690 0.998480 43.00 39.79 6.56
6235 100.9840 0.998372 34.00 40.14 5.83
6236 100.9990 0.998265 37.00 40.66 6.08
6237 101.0140 0.998157 43.00 41.33 6.56
6238 101.0290 0.998049 50.00 42.16 7.07
6239 101.0440 0.997942 51.00 43.17 7.14
6240 101.0590 0.997834 36.00 44.36 6.00
6241 101.0740 0.997727 39.00 45.72 6.24
6242 101.0890 0.997619 40.00 47.27 6.32
6243 101.1040 0.997512 47.00 48.97 6.86
6244 101.1190 0.997404 41.00 50.84 6.40
6245 101.1340 0.997297 45.00 52.84 6.71
6246 101.1490 0.997189 52.00 54.94 7.21
6247 101.1640 0.997082 52.00 57.11 7.21
6248 101.1790 0.996975 68.00 59.31 8.25
6249 101.1940 0.996868 83.00 61.49 9.11
6250 101.2090 0.996761 85.00 63.59 9.22
6251 101.2240 0.996653 92.00 65.56 9.59
6252 101.2390 0.996546 96.00 67.34 9.80
6253 101.2540 0.996439 91.00 68.89 9.54
6254 101.2690 0.996332 77.00 70.15 8.77
6255 101.2840 0.996225 82.00 71.09 9.06
6256 101.2990 0.996118 76.00 71.67 8.72
6257 101.3140 0.996011 62.00 71.88 7.87
6258 101.3290 0.995905 60.00 71.71 7.75
6259 101.3440 0.995798 59.00 71.16 7.68
6260 101.3590 0.995691 59.00 70.25 7.68
6261 101.3740 0.995584 66.00 69.01 8.12
6262 101.3890 0.995478 84.00 67.49 9.17
6263 101.4040 0.995371 64.00 65.71 8.00
6264 101.4190 0.995264 67.00 63.75 8.19
6265 101.4340 0.995158 73.00 61.64 8.54
6266 101.4490 0.995051 69.00 59.46 8.31
6267 101.4640 0.994945 59.00 57.24 7.68
6268 101.4790 0.994838 44.00 55.04 6.63
6269 101.4940 0.994732 40.00 52.90 6.32
6270 101.5090 0.994625 35.00 50.87 5.92
6271 101.5240 0.994519 40.00 48.96 6.32
6272 101.5390 0.994413 43.00 47.20 6.56
6273 101.5540 0.994307 37.00 45.60 6.08
6274 101.5690 0.994200 39.00 44.18 6.24
6275 101.5840 0.994094 44.00 42.93 6.63
6276 101.5990 0.993988 41.00 41.84 6.40
6277 101.6140 0.993882 35.00 40.91 5.92
6278 101.6290 0.993776 30.00 40.13 5.48
6279 101.6440 0.993670 37.00 39.49 6.08
6280 101.6590 0.993564 36.00 38.96 6.00
6281 101.6740 0.993458 35.00 38.55 5.92
6282 101.6890 0.993352 35.00 38.23 5.92
6283 101.7040 0.993246 40.00 38.00 6.32
6284 101.7190 0.993140 48.00 37.84 6.93
6285 101.7340 0.993034 41.00 37.74 6.40
6286 101.7490 0.992929 41.00 37.70 6.40
6287 101.7640 0.992823 45.00 37.72 6.71
6288 101.7790 0.992717 39.00 37.79 6.24
6289 101.7940 0.992612 30.00 37.90 5.48
6290 101.8090 0.992506 32.00 38.06 5.66
6291 101.8240 0.992401 38.00 38.26 6.16
6292 101.8390 0.992295 47.00 38.50 6.86
6293 101.8540 0.992190 53.00 38.79 7.28
6294 101.8690 0.992084 37.00 39.11 6.08
6295 101.8840 0.991979 37.00 39.47 6.08
6296 101.8990 0.991873 38.00 39.86 6.16
6297 101.9140 0.991768 39.00 40.28 6.24
6298 101.9290 0.991663 39.00 40.72 6.24
6299 101.9440 0.991558 37.00 41.18 6.08
6300 101.9590 0.991453 45.00 41.63 6.71
6301 101.9740 0.991347 46.00 42.08 6.78
6302 101.9890 0.991242 52.00 42.51 7.21
6303 102.0040 0.991137 50.00 42.91 7.07
6304 102.0190 0.991032 38.00 43.27 6.16
6305 102.0340 0.990927 48.00 43.58 6.93
6306 102.0490 0.990822 56.00 43.82 7.48
6307 102.0640 0.990717 46.00 44.00 6.78
6308 102.0790 0.990612 44.00 44.11 6.63
6309 102.0940 0.990508 50.00 44.13 7.07
6310 102.1090 0.990403 36.00 44.08 6.00
6311 102.1240 0.990298 39.00 43.95 6.24
6312 102.1390 0.990193 41.00 43.75 6.40
6313 102.1540 0.990089 39.00 43.48 6.24
6314 102.1690 0.989984 43.00 43.15 6.56
6315 102.1840 0.989879 50.00 42.77 7.07
6316 102.1990 0.989775 45.00 42.35 6.71
6317 102.2140 0.989670 49.00 41.90 7.00
6318 102.2290 0.989566 44.00 41.44 6.63
6319 102.2440 0.989461 43.00 40.97 6.56
6320 102.2590 0.989357 40.00 40.50 6.32
6321 102.2740 0.989253 46.00 40.05 6.78
6322 102.2890 0.989148 41.00 39.61 6.40
6323 102.3040 0.989044 39.00 39.21 6.24
6324 102.3190 0.988940 41.00 38.83 6.40
6325 102.3340 0.988835 43.00 38.49 6.56
6326 102.3490 0.988731 40.00 38.18 6.32
6327 102.3640 0.988627 34.00 37.91 5.83
6328 102.3790 0.988523 40.00 37.67 6.32
6329 102.3940 0.988419 35.00 37.46 5.92
6330 102.4090 0.988315 35.00 37.29 5.92
6331 102.4240 0.988211 42.00 37.14 6.48
6332 102.4390 0.988107 39.00 37.02 6.24
6333 102.4540 0.988003 42.00 36.91 6.48
6334 102.4690 0.987899 39.00 36.83 6.24
6335 102.4840 0.987795 41.00 36.76 6.40
6336 102.4990 0.987692 32.00 36.71 5.66
6337 102.5140 0.987588 28.00 36.66 5.29
6338 102.5290 0.987484 37.00 36.63 6.08
6339 102.5440 0.987381 45.00 36.60 6.71
6340 102.5590 0.987277 43.00 36.58 6.56
6341 102.5740 0.987173 38.00 36.56 6.16
6342 102.5890 0.987070 45.00 36.54 6.71
6343 102.6040 0.986966 36.00 36.53 6.00
6344 102.6190 0.986863 46.00 36.52 6.78
6345 102.6340 0.986759 43.00 36.51 6.56
6346 102.6490 0.986656 39.00 36.50 6.24
6347 102.6640 0.986553 42.00 36.49 6.48
6348 102.6790 0.986449 39.00 36.48 6.24
6349 102.6940 0.986346 41.00 36.47 6.40
6350 102.7090 0.986243 43.00 36.46 6.56
6351 102.7240 0.986139 33.00 36.46 5.74
6352 102.7390 0.986036 31.00 36.45 5.57
6353 102.7540 0.985933 35.00 36.44 5.92
6354 102.7690 0.985830 42.00 36.43 6.48
6355 102.7840 0.985727 40.00 36.43 6.32
6356 102.7990 0.985624 30.00 36.42 5.48
6357 102.8140 0.985521 30.00 36.41 5.48
6358 102.8290 0.985418 46.00 36.41 6.78
6359 102.8440 0.985315 42.00 36.40 6.48
6360 102.8590 0.985212 34.00 36.39 5.83
6361 102.8740 0.985110 44.00 36.38 6.63
6362 102.8890 0.985007 40.00 36.38 6.32
6363 102.9040 0.984904 38.00 36.37 6.16
6364 102.9190 0.984801 43.00 36.36 6.56
6365 102.9340 0.984699 41.00 36.35 6.40
6366 102.9490 0.984596 29.00 36.35 5.39
6367 102.9640 0.984493 33.00 36.34 5.74
6368 102.9790 0.984391 39.00 36.33 6.24
6369 102.9940 0.984288 37.00 36.32 6.08
6370 103.0090 0.984186 38.00 36.32 6.16
6371 103.0240 0.984083 40.00 36.31 6.32
6372 103.0390 0.983981 34.00 36.30 5.83
6373 103.0540 0.983879 44.00 36.30 6.63
6374 103.0690 0.983776 41.00 36.29 6.40
6375 103.0840 0.983674 45.00 36.29 6.71
6376 103.0990 0.983572 45.00 36.28 6.71
6377 103.1140 0.983470 42.00 36.28 6.48
6378 103.1290 0.983367 45.00 36.28 6.71
6379 103.1440 0.983265 43.00 36.29 6.56
6380 103.1590 0.983163 41.00 36.29 6.40
6381 103.1740 0.983061 34.00 36.31 5.83
6382 103.1890 0.982959 40.00 36.33 6.32
6383 103.2040 0.982857 38.00 36.36 6.16
6384 103.2190 0.982755 36.00 36.40 6.00
6385 103.2340 0.982653 34.00 36.46 5.83
6386 103.2490 0.982551 38.00 36.53 6.16
6387 103.2640 0.982450 37.00 36.63 6.08
6388 103.2790 0.982348 36.00 36.76 6.00
6389 103.2940 0.982246 40.00 36.92 6.32
6390 103.3090 0.982144 39.00 37.11 6.24
6391 103.3240 0.982043 29.00 37.35 5.39
6392 103.3390 0.981941 32.00 37.63 5.66
6393 103.3540 0.981839 40.00 37.97 6.32
6394 103.3690 0.981738 37.00 38.36 6.08
6395 103.3840 0.981636 42.00 38.82 6.48
6396 103.3990 0.981535 38.00 39.34 6.16
6397 103.4140 0.981433 35.00 39.93 5.92
6398 103.4290 0.981332 40.00 40.58 6.32
6399 103.4440 0.981231 37.00 41.29 6.08
6400 103.4590 0.981129 36.00 42.05 6.00
6401 103.4740 0.981028 38.00 42.86 6.16
6402 103.4890 0.980927 41.00 43.70 6.40
6403 103.5040 0.980825 41.00 44.56 6.40
6404 103.5190 0.980724 65.00 45.42 8.06
6405 103.5340 0.980623 65.00 46.27 8.06
6406 103.5490 0.980522 67.00 47.08 8.19
6407 103.5640 0.980421 69.00 47.84 8.31
6408 103.5790 0.980320 48.00 48.53 6.93
6409 103.5940 0.980219 63.00 49.12 7.94
6410 103.6090 0.980118 54.00 49.60 7.35
6411 103.6240 0.980017 45.00 49.96 6.71
6412 103.6390 0.979916 51.00 50.18 7.14
6413 103.6540 0.979815 47.00 50.26 6.86
6414 103.6690 0.979714 40.00 50.19 6.32
6415 103.6840 0.979614 48.00 49.98 6.93
6416 103.6990 0.979513 41.00 49.64 6.40
6417 103.7140 0.979412 47.00 49.16 6.86
6418 103.7290 0.979312 55.00 48.58 7.42
6419 103.7440 0.979211 59.00 47.89 7.68
6420 103.7590 0.979110 51.00 47.13 7.14
6421 103.7740 0.979010 50.00 46.31 7.07
6422 103.7890 0.978909 47.00 45.45 6.86
6423 103.8040 0.978809 41.00 44.57 6.40
6424 103.8190 0.978708 46.00 43.70 6.78
6425 103.8340 0.978608 46.00 42.84 6.78
6426 103.8490 0.978508 41.00 42.01 6.40
6427 103.8640 0.978407 39.00 41.23 6.24
6428 103.8790 0.978307 39.00 40.50 6.24
6429 103.8940 0.978207 39.00 39.83 6.24
6430 103.9090 0.978107 45.00 39.24 6.71
6431 103.9240 0.978006 48.00 38.71 6.93
6432 103.9390 0.977906 39.00 38.26 6.24
6433 103.9540 0.977806 38.00 37.89 6.16
6434 103.9690 0.977706 39.00 37.59 6.24
6435 103.9840 0.977606 32.00 37.36 5.66
6436 103.9990 0.977506 36.00 37.22 6.00
6437 104.0140 0.977406 33.00 37.15 5.74
6438 104.0290 0.977306 42.00 37.16 6.48
6439 104.0440 0.977206 42.00 37.26 6.48
6440 104.0590 0.977106 35.00 37.44 5.92
6441 104.0740 0.977007 50.00 37.72 7.07
6442 104.0890 0.976907 44.00 38.11 6.63
6443 104.1040 0.976807 44.00 38.60 6.63
6444 104.1190 0.976707 38.00 39.22 6.16
6445 104.1340 0.976608 36.00 39.97 6.00
6446 104.1490 0.976508 41.00 40.85 6.40
6447 104.1640 0.976409 35.00 41.88 5.92
6448 104.1790 0.976309 35.00 43.06 5.92
6449 104.1940 0.976210 33.00 44.39 5.74
6450 104.2090 0.976110 43.00 45.87 6.56
6451 104.2240 0.976011 36.00 47.48 6.00
6452 104.2390 0.975911 36.00 49.22 6.00
6453 104.2540 0.975812 43.00 51.07 6.56
6454 104.2690 0.975713 53.00 53.00 7.28
6455 104.2840 0.975613 55.00 54.98 7.42
6456 104.2990 0.975514 66.00 56.97 8.12
6457 104.3140 0.975415 77.00 58.94 8.77
6458 104.3290 0.975316 92.00 60.85 9.59
6459 104.3440 0.975216 98.00 62.64 9.90
6460 104.3590 0.975117 105.00 64.27 10.25
6461 104.3740 0.975018 87.00 65.70 9.33
6462 104.3890 0.974919 98.00 66.89 9.90
6463 104.4040 0.974820 85.00 67.81 9.22
6464 104.4190 0.974721 76.00 68.43 8.72
6465 104.4340 0.974622 63.00 68.72 7.94
6466 104.4490 0.974524 48.00 68.70 6.93
6467 104.4640 0.974425 61.00 68.34 7.81
6468 104.4790 0.974326 65.00 67.67 8.06
6469 104.4940 0.974227 61.00 66.70 7.81
6470 104.5090 0.974128 72.00 65.46 8.49
6471 104.5240 0.974030 73.00 63.98 8.54
6472 104.5390 0.973931 65.00 62.31 8.06
6473 104.5540 0.973832 68.00 60.49 8.25
6474 104.5690 0.973734 54.00 58.55 7.35
6475 104.5840 0.973635 63.00 56.56 7.94
6476 104.5990 0.973537 47.00 54.54 6.86
6477 104.6140 0.973438 44.00 52.54 6.63
6478 104.6290 0.973340 49.00 50.60 7.00
6479 104.6440 0.973242 32.00 48.74 5.66
6480 104.6590 0.973143 35.00 46.99 5.92
6481 104.6740 0.973045 50.00 45.36 7.07
6482 104.6890 0.972946 35.00 43.87 5.92
6483 104.7040 0.972848 46.00 42.53 6.78
6484 104.7190 0.972750 42.00 41.33 6.48
6485 104.7340 0.972652 39.00 40.28 6.24
6486 104.7490 0.972554 41.00 39.37 6.40
6487 104.7640 0.972456 33.00 38.58 5.74
6488 104.7790 0.972357 33.00 37.91 5.74
6489 104.7940 0.972259 44.00 37.35 6.63
6490 104.8090 0.972161 35.00 36.89 5.92
6491 104.8240 0.972063 40.00 36.51 6.32
6492 104.8390 0.971966 44.00 36.20 6.63
6493 104.8540 0.971868 30.00 35.95 5.48
6494 104.8690 0.971770 36.00 35.75 6.00
6495 104.8840 0.971672 32.00 35.59 5.66
6496 104.8990 0.971574 42.00 35.46 6.48
6497 104.9140 0.971476 35.00 35.36 5.92
6498 104.9290 0.971379 35.00 35.28 5.92
6499 104.9440 0.971281 29.00 35.22 5.39
6500 104.9590 0.971183 41.00 35.18 6.40
6501 104.9740 0.971086 39.00 35.14 6.24
6502 104.9890 0.970988 32.00 35.11 5.66
6503 105.0040 0.970891 34.00 35.08 5.83
6504 105.0190 0.970793 36.00 35.06 6.00
6505 105.0340 0.970696 24.00 35.04 4.90
6506 105.0490 0.970598 40.00 35.02 6.32
6507 105.0640 0.970501 39.00 35.01 6.24
6508 105.0790 0.970404 44.00 34.99 6.63
6509 105.0940 0.970306 42.00 34.98 6.48
6510 105.1090 0.970209 37.00 34.97 6.08
6511 105.1240 0.970112 38.00 34.95 6.16
6512 105.1390 0.970015 38.00 34.94 6.16
6513 105.1540 0.969917 37.00 34.93 6.08
6514 105.1690 0.969820 37.00 34.91 6.08
6515 105.1840 0.969723 37.00 34.90 6.08
6516 105.1990 0.969626 41.00 34.89 6.40
6517 105.2140 0.969529 40.00 34.88 6.32
6518 105.2290 0.969432 46.00 34.86 6.78
6519 105.2440 0.969335 52.00 34.85 7.21
6520 105.2590 0.969238 42.00 34.84 6.48
6521 105.2740 0.969141 37.00 34.83 6.08
6522 105.2890 0.969045 38.00 34.81 6.16
6523 105.3040 0.968948 36.00 34.80 6.00
6524 105.3190 0.968851 36.00 34.79 6.00
6525 105.3340 0.968754 31.00 34.78 5.57
6526 105.3490 0.968657 36.00 34.76 6.00
6527 105.3640 0.968561 38.00 34.75 6.16
6528 105.3790 0.968464 30.00 34.74 5.48
6529 105.3940 0.968368 38.00 34.73 6.16
6530 105.4090 0.968271 35.00 34.71 5.92
6531 105.4240 0.968174 36.00 34.70 6.00
6532 105.4390 0.968078 42.00 34.69 6.48
6533 105.4540 0.967982 35.00 34.68 5.92
6534 105.4690 0.967885 32.00 34.67 5.66
6535 105.4840 0.967789 36.00 34.66 6.00
6536 105.4990 0.967692 37.00 34.65 6.08
6537 105.5140 0.967596 42.00 34.65 6.48
6538 105.5290 0.967500 29.00 34.65 5.39
6539 105.5440 0.967404 38.00 34.65 6.16
6540 105.5590 0.967307 39.00 34.65 6.24
6541 105.5740 0.967211 30.00 34.67 5.48
6542 105.5890 0.967115 20.00 34.68 4.47
6543 105.6040 0.967019 37.00 34.71 6.08
6544 105.6190 0.966923 40.00 34.75 6.32
6545 105.6340 0.966827 38.00 34.80 6.16
6546 105.6490 0.966731 44.00 34.86 6.63
6547 105.6640 0.966635 40.00 34.94 6.32
6548 105.6790 0.966539 31.00 35.03 5.57
6549 105.6940 0.966443 39.00 35.15 6.24
6550 105.7090 0.966347 30.00 35.29 5.48
6551 105.7240 0.966252 32.00 35.45 5.66
6552 105.7390 0.966156 38.00 35.63 6.16
6553 105.7540 0.966060 35.00 35.85 5.92
6554 105.7690 0.965964 40.00 36.08 6.32
6555 105.7840 0.965869 41.00 36.35 6.40
6556 105.7990 0.965773 41.00 36.64 6.40
6557 105.8140 0.965677 39.00 36.95 6.24
6558 105.8290 0.965582 36.00 37.27 6.00
6559 105.8440 0.965486 34.00 37.62 5.83
6560 105.8590 0.965391 42.00 37.97 6.48
6561 105.8740 0.965295 47.00 38.32 6.86
6562 105.8890 0.965200 50.00 38.67 7.07
6563 105.9040 0.965105 55.00 39.00 7.42
6564 105.9190 0.965009 50.00 39.32 7.07
6565 105.9340 0.964914 49.00 39.61 7.00
6566 105.9490 0.964819 47.00 39.86 6.86
6567 105.9640 0.964724 46.00 40.08 6.78
6568 105.9790 0.964628 41.00 40.24 6.40
6569 105.9940 0.964533 47.00 40.35 6.86
6570 106.0090 0.964438 35.00 40.41 5.92
6571 106.0240 0.964343 31.00 40.41 5.57
6572 106.0390 0.964248 35.00 40.35 5.92
6573 106.0540 0.964153 42.00 40.23 6.48
6574 106.0690 0.964058 51.00 40.06 7.14
6575 106.0840 0.963963 47.00 39.84 6.86
6576 106.0990 0.963868 39.00 39.58 6.24
6577 106.1140 0.963773 43.00 39.27 6.56
6578 106.1290 0.963678 41.00 38.94 6.40
6579 106.1440 0.963583 40.00 38.59 6.32
6580 106.1590 0.963489 42.00 38.22 6.48
6581 106.1740 0.963394 42.00 37.84 6.48
6582 106.1890 0.963299 43.00 37.46 6.56
6583 106.2040 0.963204 34.00 37.09 5.83
6584 106.2190 0.963110 38.00 36.73 6.16
6585 106.2340 0.963015 31.00 36.40 5.57
6586 106.2490 0.962921 39.00 36.08 6.24
6587 106.2640 0.962826 35.00 35.78 5.92
6588 106.2790 0.962732 35.00 35.52 5.92
6589 106.2940 0.962637 33.00 35.28 5.74
6590 106.3090 0.962543 45.00 35.08 6.71
6591 106.3240 0.962448 39.00 34.90 6.24
6592 106.3390 0.962354 33.00 34.76 5.74
6593 106.3540 0.962260 42.00 34.65 6.48
6594 106.3690 0.962165 33.00 34.57 5.74
6595 106.3840 0.962071 31.00 34.52 5.57
6596 106.3990 0.961977 34.00 34.50 5.83
6597 106.4140 0.961883 39.00 34.52 6.24
6598 106.4290 0.961789 33.00 34.57 5.74
6599 106.4440 0.961694 32.00 34.65 5.66
6600 106.4590 0.961600 37.00 34.77 6.08
6601 106.4740 0.961506 39.00 34.93 6.24
6602 106.4890 0.961412 40.00 35.14 6.32
6603 106.5040 0.961318 40.00 35.38 6.32
6604 106.5190 0.961224 32.00 35.67 5.66
6605 106.5340 0.961130 44.00 36.00 6.63
6606 106.5490 0.961037 32.00 36.38 5.66
6607 106.5640 0.960943 30.00 36.81 5.48
6608 106.5790 0.960849 43.00 37.28 6.56
6609 106.5940 0.960755 31.00 37.79 5.57
6610 106.6090 0.960661 42.00 38.32 6.48
6611 106.6240 0.960568 35.00 38.90 5.92
6612 106.6390 0.960474 46.00 39.50 6.78
6613 106.6540 0.960380 41.00 40.11 6.40
6614 106.6690 0.960287 48.00 40.72 6.93
6615 106.6840 0.960193 41.00 41.33 6.40
6616 106.6990 0.960100 47.00 41.91 6.86
6617 106.7140 0.960006 50.00 42.46 7.07
6618 106.7290 0.959913 52.00 42.96 7.21
6619 106.7440 0.959819 55.00 43.41 7.42
6620 106.7590 0.959726 50.00 43.78 7.07
6621 106.7740 0.959633 44.00 44.08 6.63
6622 106.7890 0.959539 46.00 44.29 6.78
6623 106.8040 0.959446 45.00 44.41 6.71
6624 106.8190 0.959353 28.00 44.43 5.29
6625 106.8340 0.959260 37.00 44.36 6.08
6626 106.8490 0.959166 40.00 44.19 6.32
6627 106.8640 0.959073 32.00 43.94 5.66
6628 106.8790 0.958980 37.00 43.60 6.08
6629 106.8940 0.958887 36.00 43.20 6.00
6630 106.9090 0.958794 44.00 42.73 6.63
6631 106.9240 0.958701 49.00 42.22 7.00
6632 106.9390 0.958608 40.00 41.66 6.32
6633 106.9540 0.958515 45.00 41.09 6.71
6634 106.9690 0.958422 32.00 40.51 5.66
6635 106.9840 0.958329 39.00 39.93 6.24
6636 106.9990 0.958237 32.00 39.36 5.66
6637 107.0140 0.958144 28.00 38.82 5.29
6638 107.0290 0.958051 42.00 38.31 6.48
6639 107.0440 0.957958 39.00 37.84 6.24
6640 107.0590 0.957866 37.00 37.42 6.08
6641 107.0740 0.957773 39.00 37.05 6.24
6642 107.0890 0.957680 36.00 36.73 6.00
6643 107.1040 0.957588 44.00 36.48 6.63
6644 107.1190 0.957495 36.00 36.28 6.00
6645 107.1340 0.957403 37.00 36.16 6.08
6646 107.1490 0.957310 37.00 36.09 6.08
6647 107.1640 0.957218 37.00 36.10 6.08
6648 107.1790 0.957125 33.00 36.17 5.74
6649 107.1940 0.957033 31.00 36.33 5.57
6650 107.2090 0.956940 27.00 36.56 5.20
6651 107.2240 0.956848 39.00 36.87 6.24
6652 107.2390 0.956756 32.00 37.27 5.66
6653 107.2540 0.956664 30.00 37.77 5.48
6654 107.2690 0.956571 33.00 38.37 5.74
6655 107.2840 0.956479 33.00 39.07 5.74
6656 107.2990 0.956387 40.00 39.88 6.32
6657 107.3140 0.956295 37.00 40.80 6.08
6658 107.3290 0.956203 37.00 41.84 6.08
6659 107.3440 0.956111 40.00 43.00 6.32
6660 107.3590 0.956019 38.00 44.27 6.16
6661 107.3740 0.955927 33.00 45.64 5.74
6662 107.3890 0.955835 39.00 47.11 6.24
6663 107.4040 0.955743 41.00 48.67 6.40
6664 107.4190 0.955651 52.00 50.29 7.21
6665 107.4340 0.955559 44.00 51.95 6.63
6666 107.4490 0.955467 44.00 53.64 6.63
6667 107.4640 0.955376 51.00 55.31 7.14
6668 107.4790 0.955284 61.00 56.95 7.81
6669 107.4940 0.955192 79.00 58.51 8.89
6670 107.5090 0.955100 91.00 59.97 9.54
6671 107.5240 0.955009 90.00 61.29 9.49
6672 107.5390 0.954917 86.00 62.44 9.27
6673 107.5540 0.954826 78.00 63.39 8.83
6674 107.5690 0.954734 65.00 64.11 8.06
6675 107.5840 0.954643 58.00 64.59 7.62
6676 107.5990 0.954551 46.00 64.81 6.78
6677 107.6140 0.954460 39.00 64.77 6.24
6678 107.6290 0.954368 50.00 64.45 7.07
6679 107.6440 0.954277 46.00 63.87 6.78
6680 107.6590 0.954186 60.00 63.05 7.75
6681 107.6740 0.954094 70.00 61.99 8.37
6682 107.6890 0.954003 73.00 60.72 8.54
6683 107.7040 0.953912 63.00 59.28 7.94
6684 107.7190 0.953821 67.00 57.69 8.19
6685 107.7340 0.953730 58.00 55.99 7.62
6686 107.7490 0.953638 49.00 54.21 7.00
6687 107.7640 0.953547 37.00 52.39 6.08
6688 107.7790 0.953456 40.00 50.56 6.32
6689 107.7940 0.953365 36.00 48.75 6.00
6690 107.8090 0.953274 30.00 47.00 5.48
6691 107.8240 0.953183 30.00 45.31 5.48
6692 107.8390 0.953092 38.00 43.71 6.16
6693 107.8540 0.953001 28.00 42.23 5.29
6694 107.8690 0.952910 29.00 40.86 5.39
6695 107.8840 0.952820 33.00 39.62 5.74
6696 107.8990 0.952729 30.00 38.51 5.48
6697 107.9140 0.952638 40.00 37.53 6.32
6698 107.9290 0.952547 30.00 36.68 5.48
6699 107.9440 0.952457 33.00 35.96 5.74
6700 107.9590 0.952366 39.00 35.37 6.24
6701 107.9740 0.952275 43.00 34.89 6.56
6702 107.9890 0.952185 43.00 34.53 6.56
6703 108.0040 0.952094 34.00 34.29 5.83
6704 108.0190 0.952004 38.00 34.14 6.16
6705 108.0340 0.951913 38.00 34.11 6.16
6706 108.0490 0.951823 41.00 34.17 6.40
6707 108.0640 0.951732 44.00 34.33 6.63
6708 108.0790 0.951642 34.00 34.60 5.83
6709 108.0940 0.951552 40.00 34.96 6.32
6710 108.1090 0.951461 36.00 35.42 6.00
6711 108.1240 0.951371 39.00 35.98 6.24
6712 108.1390 0.951281 37.00 36.63 6.08
6713 108.1540 0.951191 38.00 37.37 6.16
6714 108.1690 0.951100 42.00 38.20 6.48
6715 108.1840 0.951010 33.00 39.11 5.74
6716 108.1990 0.950920 34.00 40.09 5.83
6717 108.2140 0.950830 34.00 41.13 5.83
6718 108.2290 0.950740 45.00 42.21 6.71
6719 108.2440 0.950650 50.00 43.33 7.07
6720 108.2590 0.950560 57.00 44.45 7.55
6721 108.2740 0.950470 60.00 45.56 7.75
6722 108.2890 0.950380 69.00 46.64 8.31
6723 108.3040 0.950290 77.00 47.67 8.77
6724 108.3190 0.950200 82.00 48.61 9.06
6725 108.3340 0.950110 81.00 49.46 9.00
6726 108.3490 0.950021 51.00 50.18 7.14
6727 108.3640 0.949931 51.00 50.77 7.14
6728 108.3790 0.949841 56.00 51.19 7.48
6729 108.3940 0.949751 43.00 51.45 6.56
6730 108.4090 0.949662 42.00 51.54 6.48
6731 108.4240 0.949572 49.00 51.45 7.00
6732 108.4390 0.949483 48.00 51.18 6.93
6733 108.4540 0.949393 54.00 50.74 7.35
6734 108.4690 0.949304 48.00 50.14 6.93
6735 108.4840 0.949214 46.00 49.39 6.78
6736 108.4990 0.949125 53.00 48.51 7.28
6737 108.5140 0.949035 65.00 47.53 8.06
6738 108.5290 0.948946 60.00 46.45 7.75
6739 108.5440 0.948856 43.00 45.31 6.56
6740 108.5590 0.948767 39.00 44.13 6.24
6741 108.5740 0.948678 38.00 42.93 6.16
6742 108.5890 0.948589 29.00 41.73 5.39
6743 108.6040 0.948499 37.00 40.55 6.08
6744 108.6190 0.948410 41.00 39.40 6.40
6745 108.6340 0.948321 23.00 38.30 4.80
6746 108.6490 0.948232 25.00 37.27 5.00
6747 108.6640 0.948143 25.00 36.31 5.00
6748 108.6790 0.948054 37.00 35.42 6.08
6749 108.6940 0.947965 39.00 34.61 6.24
6750 108.7090 0.947876 28.00 33.89 5.29
6751 108.7240 0.947787 37.00 33.24 6.08
6752 108.7390 0.947698 32.00 32.67 5.66
6753 108.7540 0.947609 31.00 32.17 5.57
6754 108.7690 0.947520 32.00 31.74 5.66
6755 108.7840 0.947431 26.00 31.38 5.10
6756 108.7990 0.947342 23.00 31.07 4.80
6757 108.8140 0.947254 23.00 30.81 4.80
6758 108.8290 0.947165 20.00 30.60 4.47
6759 108.8440 0.947076 30.00 30.43 5.48
6760 108.8590 0.946988 31.00 30.29 5.57
6761 108.8740 0.946899 33.00 30.19 5.74
6762 108.8890 0.946810 32.00 30.11 5.66
6763 108.9040 0.946722 34.00 30.05 5.83
6764 108.9190 0.946633 27.00 30.02 5.20
6765 108.9340 0.946545 33.00 30.00 5.74
6766 108.9490 0.946456 29.00 30.00 5.39
6767 108.9640 0.946368 33.00 30.02 5.74
6768 108.9790 0.946279 30.00 30.04 5.48
6769 108.9940 0.946191 35.00 30.07 5.92
6770 109.0090 0.946103 37.00 30.11 6.08
6771 109.0240 0.946014 32.00 30.16 5.66
6772 109.0390 0.945926 30.00 30.22 5.48
6773 109.0540 0.945838 32.00 30.27 5.66
6774 109.0690 0.945750 39.00 30.33 6.24
6775 109.0840 0.945661 34.00 30.38 5.83
6776 109.0990 0.945573 30.00 30.43 5.48
6777 109.1140 0.945485 40.00 30.48 6.32
6778 109.1290 0.945397 39.00 30.52 6.24
6779 109.1440 0.945309 37.00 30.55 6.08
6780 109.1590 0.945221 36.00 30.57 6.00
6781 109.1740 0.945133 32.00 30.58 5.66
6782 109.1890 0.945045 34.00 30.58 5.83
6783 109.2040 0.944957 33.00 30.57 5.74
6784 109.2190 0.944869 30.00 30.54 5.48
6785 109.2340 0.944781 42.00 30.49 6.48
6786 109.2490 0.944694 42.00 30.44 6.48
6787 109.2640 0.944606 35.00 30.37 5.92
6788 109.2790 0.944518 34.00 30.29 5.83
6789 109.2940 0.944430 39.00 30.19 6.24
6790 109.3090 0.944343 41.00 30.09 6.40
6791 109.3240 0.944255 27.00 29.98 5.20
6792 109.3390 0.944167 31.00 29.87 5.57
6793 109.3540 0.944080 36.00 29.75 6.00
6794 109.3690 0.943992 22.00 29.62 4.69
6795 109.3840 0.943905 26.00 29.50 5.10
6796 109.3990 0.943817 35.00 29.38 5.92
6797 109.4140 0.943730 35.00 29.27 5.92
6798 109.4290 0.943642 39.00 29.16 6.24
6799 109.4440 0.943555 29.00 29.06 5.39
6800 109.4590 0.943468 28.00 28.97 5.29
6801 109.4740 0.943380 27.00 28.89 5.20
6802 109.4890 0.943293 30.00 28.82 5.48
6803 109.5040 0.943206 39.00 28.78 6.24
6804 109.5190 0.943119 33.00 28.75 5.74
6805 109.5340 0.943031 27.00 28.75 5.20
6806 109.5490 0.942944 26.00 28.77 5.10
6807 109.5640 0.942857 28.00 28.83 5.29
6808 109.5790 0.942770 29.00 28.92 5.39
6809 109.5940 0.942683 28.00 29.05 5.29
6810 109.6090 0.942596 32.00 29.24 5.66
6811 109.6240 0.942509 34.00 29.47 5.83
6812 109.6390 0.942422 35.00 29.76 5.92
6813 109.6540 0.942335 32.00 30.12 5.66
6814 109.6690 0.942248 26.00 30.55 5.10
6815 109.6840 0.942161 30.00 31.07 5.48
6816 109.6990 0.942074 26.00 31.67 5.10
6817 109.7140 0.941987 30.00 32.35 5.48
6818 109.7290 0.941901 35.00 33.14 5.92
6819 109.7440 0.941814 34.00 34.02 5.83
6820 109.7590 0.941727 28.00 34.99 5.29
6821 109.7740 0.941640 30.00 36.06 5.48
6822 109.7890 0.941554 32.00 37.21 5.66
6823 109.8040 0.941467 38.00 38.45 6.16
6824 109.8190 0.941381 30.00 39.75 5.48
6825 109.8340 0.941294 32.00 41.10 5.66
6826 109.8490 0.941208 44.00 42.49 6.63
6827 109.8640 0.941121 43.00 43.90 6.56
6828 109.8790 0.941035 64.00 45.29 8.00
6829 109.8940 0.940948 69.00 46.66 8.31
6830 109.9090 0.940862 64.00 47.96 8.00
6831 109.9240 0.940775 82.00 49.17 9.06
6832 109.9390 0.940689 70.00 50.28 8.37
6833 109.9540 0.940603 63.00 51.25 7.94
6834 109.9690 0.940516 49.00 52.06 7.00
6835 109.9840 0.940430 53.00 52.69 7.28
6836 109.9990 0.940344 53.00 53.12 7.28
6837 110.0140 0.940258 36.00 53.35 6.00
6838 110.0290 0.940172 35.00 53.37 5.92
6839 110.0440 0.940086 38.00 53.17 6.16
6840 110.0590 0.940000 45.00 52.76 6.71
6841 110.0740 0.939913 40.00 52.16 6.32
6842 110.0890 0.939827 47.00 51.36 6.86
6843 110.1040 0.939741 40.00 50.40 6.32
6844 110.1190 0.939655 59.00 49.29 7.68
6845 110.1340 0.939570 54.00 48.05 7.35
6846 110.1490 0.939484 44.00 46.71 6.63
6847 110.1640 0.939398 35.00 45.31 5.92
6848 110.1790 0.939312 39.00 43.85 6.24
6849 110.1940 0.939226 34.00 42.38 5.83
6850 110.2090 0.939140 34.00 40.91 5.83
6851 110.2240 0.939055 36.00 39.46 6.00
6852 110.2390 0.938969 27.00 38.06 5.20
6853 110.2540 0.938883 30.00 36.72 5.48
6854 110.2690 0.938798 24.00 35.45 4.90
6855 110.2840 0.938712 27.00 34.27 5.20
6856 110.2990 0.938627 28.00 33.18 5.29
6857 110.3140 0.938541 24.00 32.18 4.90
6858 110.3290 0.938455 37.00 31.28 6.08
6859 110.3440 0.938370 40.00 30.48 6.32
6860 110.3590 0.938285 30.00 29.77 5.48
6861 110.3740 0.938199 37.00 29.15 6.08
6862 110.3890 0.938114 32.00 28.61 5.66
6863 110.4040 0.938028 41.00 28.15 6.40
6864 110.4190 0.937943 33.00 27.76 5.74
6865 110.4340 0.937858 31.00 27.43 5.57
6866 110.4490 0.937773 29.00 27.16 5.39
6867 110.4640 0.937687 26.00 26.95 5.10
6868 110.4790 0.937602 22.00 26.77 4.69
6869 110.4940 0.937517 29.00 26.64 5.39
6870 110.5090 0.937432 31.00 26.55 5.57
6871 110.5240 0.937347 37.00 26.48 6.08
6872 110.5390 0.937262 29.00 26.44 5.39
6873 110.5540 0.937177 30.00 26.43 5.48
6874 110.5690 0.937092 29.00 26.43 5.39
6875 110.5840 0.937007 32.00 26.45 5.66
6876 110.5990 0.936922 27.00 26.49 5.20
6877 110.6140 0.936837 35.00 26.54 5.92
6878 110.6290 0.936752 35.00 26.60 5.92
6879 110.6440 0.936667 32.00 26.67 5.66
6880 110.6590 0.936582 47.00 26.75 6.86
6881 110.6740 0.936498 26.00 26.82 5.10
6882 110.6890 0.936413 23.00 26.90 4.80
6883 110.7040 0.936328 24.00 26.98 4.90
6884 110.7190 0.936243 29.00 27.05 5.39
6885 110.7340 0.936159 26.00 27.12 5.10
6886 110.7490 0.936074 30.00 27.18 5.48
6887 110.7640 0.935989 25.00 27.22 5.00
6888 110.7790 0.935905 33.00 27.26 5.74
6889 110.7940 0.935820 27.00 27.28 5.20
6890 110.8090 0.935736 25.00 27.28 5.00
6891 110.8240 0.935651 31.00 27.27 5.57
6892 110.8390 0.935567 29.00 27.24 5.39
6893 110.8540 0.935483 35.00 27.19 5.92
6894 110.8690 0.935398 34.00 27.12 5.83
6895 110.8840 0.935314 28.00 27.04 5.29
6896 110.8990 0.935230 24.00 26.95 4.90
6897 110.9140 0.935145 25.00 26.83 5.00
6898 110.9290 0.935061 28.00 26.71 5.29
6899 110.9440 0.934977 26.00 26.57 5.10
6900 110.9590 0.934893 33.00 26.43 5.74
6901 110.9740 0.934809 26.00 26.28 5.10
6902 110.9890 0.934724 25.00 26.12 5.00
6903 111.0040 0.934640 24.00 25.96 4.90
6904 111.0190 0.934556 31.00 25.81 5.57
6905 111.0340 0.934472 27.00 25.65 5.20
6906 111.0490 0.934388 26.00 25.50 5.10
6907 111.0640 0.934304 23.00 25.35 4.80
6908 111.0790 0.934220 33.00 25.20 5.74
6909 111.0940 0.934136 34.00 25.07 5.83
6910 111.1090 0.934052 31.00 24.94 5.57
6911 111.1240 0.933969 27.00 24.81 5.20
6912 111.1390 0.933885 22.00 24.70 4.69
6913 111.1540 0.933801 27.00 24.59 5.20
6914 111.1690 0.933717 27.00 24.49 5.20
6915 111.1840 0.933634 22.00 24.40 4.69
6916 111.1990 0.933550 26.00 24.32 5.10
6917 111.2140 0.933466 26.00 24.24 5.10
6918 111.2290 0.933383 28.00 24.17 5.29
6919 111.2440 0.933299 25.00 24.10 5.00
6920 111.2590 0.933215 22.00 24.04 4.69
6921 111.2740 0.933132 27.00 23.98 5.20
6922 111.2890 0.933048 25.00 23.92 5.00
6923 111.3040 0.932965 24.00 23.87 4.90
6924 111.3190 0.932881 25.00 23.82 5.00
6925 111.3340 0.932798 22.00 23.77 4.69
6926 111.3490 0.932715 25.00 23.73 5.00
6927 111.3640 0.932631 25.00 23.69 5.00
6928 111.3790 0.932548 32.00 23.64 5.66
6929 111.3940 0.932465 35.00 23.60 5.92
6930 111.4090 0.932381 31.00 23.56 5.57
6931 111.4240 0.932298 35.00 23.52 5.92
6932 111.4390 0.932215 20.00 23.48 4.47
6933 111.4540 0.932132 23.00 23.44 4.80
6934 111.4690 0.932049 28.00 23.40 5.29
6935 111.4840 0.931966 28.00 23.36 5.29
6936 111.4990 0.931883 30.00 23.32 5.48
6937 111.5140 0.931800 33.00 23.28 5.74
6938 111.5290 0.931717 33.00 23.25 5.74
6939 111.5440 0.931634 25.00 23.21 5.00
6940 111.5590 0.931551 24.00 23.17 4.90
6941 111.5740 0.931468 24.00 23.13 4.90
6942 111.5890 0.931385 19.00 23.09 4.36
6943 111.6040 0.931302 29.00 23.05 5.39
6944 111.6190 0.931219 30.00 23.02 5.48
6945 111.6340 0.931136 27.00 22.98 5.20
6946 111.6490 0.931054 26.00 22.94 5.10
6947 111.6640 0.930971 29.00 22.90 5.39
6948 111.6790 0.930888 21.00 22.86 4.58
6949 111.6940 0.930805 35.00 22.82 5.92
6950 111.7090 0.930723 24.00 22.79 4.90
6951 111.7240 0.930640 21.00 22.75 4.58
6952 111.7390 0.930558 29.00 22.71 5.39
6953 111.7540 0.930475 30.00 22.67 5.48
6954 111.7690 0.930393 28.00 22.64 5.29
6955 111.7840 0.930310 26.00 22.60 5.10
6956 111.7990 0.930228 27.00 22.56 5.20
6957 111.8140 0.930145 22.00 22.53 4.69
6958 111.8290 0.930063 31.00 22.50 5.57
6959 111.8440 0.929980 31.00 22.46 5.57
6960 111.8590 0.929898 30.00 22.43 5.48
6961 111.8740 0.929816 30.00 22.41 5.48
6962 111.8890 0.929733 26.00 22.38 5.10
6963 111.9040 0.929651 32.00 22.36 5.66
6964 111.9190 0.929569 28.00 22.35 5.29
6965 111.9340 0.929487 26.00 22.34 5.10
6966 111.9490 0.929405 24.00 22.34 4.90
6967 111.9640 0.929323 28.00 22.35 5.29
6968 111.9790 0.929240 30.00 22.37 5.48
6969 111.9940 0.929158 22.00 22.41 4.69
6970 112.0090 0.929076 27.00 22.46 5.20
6971 112.0240 0.928994 29.00 22.53 5.39
6972 112.0390 0.928912 35.00 22.63 5.92
6973 112.0540 0.928830 24.00 22.76 4.90
6974 112.0690 0.928749 24.00 22.91 4.90
6975 112.0840 0.928667 36.00 23.10 6.00
6976 112.0990 0.928585 26.00 23.33 5.10
6977 112.1140 0.928503 23.00 23.60 4.80
6978 112.1290 0.928421 17.00 23.92 4.12
6979 112.1440 0.928339 19.00 24.28 4.36
6980 112.1590 0.928258 26.00 24.70 5.10
6981 112.1740 0.928176 22.00 25.17 4.69
6982 112.1890 0.928094 20.00 25.69 4.47
6983 112.2040 0.928013 25.00 26.27 5.00
6984 112.2190 0.927931 22.00 26.89 4.69
6985 112.2340 0.927850 24.00 27.57 4.90
6986 112.2490 0.927768 22.00 28.29 4.69
6987 112.2640 0.927686 28.00 29.04 5.29
6988 112.2790 0.927605 17.00 29.82 4.12
6989 112.2940 0.927524 32.00 30.62 5.66
6990 112.3090 0.927442 37.00 31.43 6.08
6991 112.3240 0.927361 37.00 32.23 6.08
6992 112.3390 0.927279 43.00 33.02 6.56
6993 112.3540 0.927198 48.00 33.77 6.93
6994 112.3690 0.927117 50.00 34.47 7.07
6995 112.3840 0.927035 50.00 35.12 7.07
6996 112.3990 0.926954 42.00 35.69 6.48
6997 112.4140 0.926873 42.00 36.17 6.48
6998 112.4290 0.926792 38.00 36.56 6.16
6999 112.4440 0.926711 35.00 36.84 5.92
7000 112.4590 0.926629 38.00 37.01 6.16
7001 112.4740 0.926548 38.00 37.05 6.16
7002 112.4890 0.926467 38.00 36.98 6.16
7003 112.5040 0.926386 34.00 36.80 5.83
7004 112.5190 0.926305 20.00 36.49 4.47
7005 112.5340 0.926224 25.00 36.08 5.00
7006 112.5490 0.926143 35.00 35.56 5.92
7007 112.5640 0.926062 37.00 34.96 6.08
7008 112.5790 0.925982 35.00 34.27 5.92
7009 112.5940 0.925901 27.00 33.52 5.20
7010 112.6090 0.925820 27.00 32.72 5.20
7011 112.6240 0.925739 28.00 31.88 5.29
7012 112.6390 0.925658 32.00 31.02 5.66
7013 112.6540 0.925578 31.00 30.15 5.57
7014 112.6690 0.925497 31.00 29.28 5.57
7015 112.6840 0.925416 19.00 28.43 4.36
7016 112.6990 0.925336 16.00 27.61 4.00
7017 112.7140 0.925255 20.00 26.82 4.47
7018 112.7290 0.925174 21.00 26.08 4.58
7019 112.7440 0.925094 27.00 25.39 5.20
7020 112.7590 0.925013 26.00 24.75 5.10
7021 112.7740 0.924933 27.00 24.18 5.20
7022 112.7890 0.924852 17.00 23.67 4.12
7023 112.8040 0.924772 23.00 23.23 4.80
7024 112.8190 0.924691 22.00 22.85 4.69
7025 112.8340 0.924611 20.00 22.54 4.47
7026 112.8490 0.924531 25.00 22.30 5.00
7027 112.8640 0.924450 23.00 22.12 4.80
7028 112.8790 0.924370 26.00 22.01 5.10
7029 112.8940 0.924290 26.00 21.97 5.10
7030 112.9090 0.924210 29.00 21.99 5.39
7031 112.9240 0.924129 32.00 22.08 5.66
7032 112.9390 0.924049 27.00 22.23 5.20
7033 112.9540 0.923969 24.00 22.45 4.90
7034 112.9690 0.923889 35.00 22.73 5.92
7035 112.9840 0.923809 26.00 23.07 5.10
7036 112.9990 0.923729 27.00 23.48 5.20
7037 113.0140 0.923649 25.00 23.95 5.00
7038 113.0290 0.923569 21.00 24.47 4.58
7039 113.0440 0.923489 24.00 25.05 4.90
7040 113.0590 0.923409 22.00 25.68 4.69
7041 113.0740 0.923329 29.00 26.36 5.39
7042 113.0890 0.923249 28.00 27.07 5.29
7043 113.1040 0.923169 40.00 27.81 6.32
7044 113.1190 0.923090 40.00 28.57 6.32
7045 113.1340 0.923010 34.00 29.33 5.83
7046 113.1490 0.922930 37.00 30.09 6.08
7047 113.1640 0.922850 35.00 30.84 5.92
7048 113.1790 0.922771 41.00 31.56 6.40
7049 113.1940 0.922691 43.00 32.23 6.56
7050 113.2090 0.922611 47.00 32.85 6.86
7051 113.2240 0.922532 46.00 33.40 6.78
7052 113.2390 0.922452 36.00 33.87 6.00
7053 113.2540 0.922373 31.00 34.25 5.57
7054 113.2690 0.922293 28.00 34.54 5.29
7055 113.2840 0.922214 25.00 34.72 5.00
7056 113.2990 0.922134 22.00 34.79 4.69
7057 113.3140 0.922055 28.00 34.75 5.29
7058 113.3290 0.921975 28.00 34.59 5.29
7059 113.3440 0.921896 29.00 34.33 5.39
7060 113.3590 0.921817 33.00 33.97 5.74
7061 113.3740 0.921737 34.00 33.50 5.83
7062 113.3890 0.921658 33.00 32.95 5.74
7063 113.4040 0.921579 31.00 32.33 5.57
7064 113.4190 0.921500 32.00 31.63 5.66
7065 113.4340 0.921420 23.00 30.88 4.80
7066 113.4490 0.921341 21.00 30.09 4.58
7067 113.4640 0.921262 22.00 29.28 4.69
7068 113.4790 0.921183 21.00 28.45 4.58
7069 113.4940 0.921104 27.00 27.62 5.20
7070 113.5090 0.921025 21.00 26.80 4.58
7071 113.5240 0.920946 20.00 25.99 4.47
7072 113.5390 0.920867 20.00 25.22 4.47
7073 113.5540 0.920788 22.00 24.49 4.69
7074 113.5690 0.920709 26.00 23.80 5.10
7075 113.5840 0.920630 20.00 23.16 4.47
7076 113.5990 0.920551 17.00 22.57 4.12
7077 113.6140 0.920472 17.00 22.04 4.12
7078 113.6290 0.920394 27.00 21.57 5.20
7079 113.6440 0.920315 29.00 21.16 5.39
7080 113.6590 0.920236 22.00 20.82 4.69
7081 113.6740 0.920157 27.00 20.53 5.20
7082 113.6890 0.920079 23.00 20.30 4.80
7083 113.7040 0.920000 23.00 20.14 4.80
7084 113.7190 0.919921 24.00 20.03 4.90
7085 113.7340 0.919843 26.00 19.99 5.10
7086 113.7490 0.919764 27.00 20.00 5.20
7087 113.7640 0.919686 28.00 20.07 5.29
7088 113.7790 0.919607 23.00 20.20 4.80
7089 113.7940 0.919529 25.00 20.39 5.00
7090 113.8090 0.919450 26.00 20.63 5.10
7091 113.8240 0.919372 22.00 20.93 4.69
7092 113.8390 0.919293 29.00 21.28 5.39
7093 113.8540 0.919215 15.00 21.68 3.87
7094 113.8690 0.919137 23.00 22.13 4.80
7095 113.8840 0.919058 28.00 22.62 5.29
7096 113.8990 0.918980 31.00 23.15 5.57
7097 113.9140 0.918902 25.00 23.71 5.00
7098 113.9290 0.918823 21.00 24.30 4.58
7099 113.9440 0.918745 35.00 24.91 5.92
7100 113.9590 0.918667 36.00 25.53 6.00
7101 113.9740 0.918589 35.00 26.15 5.92
7102 113.9890 0.918511 37.00 26.75 6.08
7103 114.0040 0.918433 28.00 27.34 5.29
7104 114.0190 0.918355 39.00 27.90 6.24
7105 114.0340 0.918277 38.00 28.41 6.16
7106 114.0490 0.918199 35.00 28.88 5.92
7107 114.0640 0.918121 25.00 29.28 5.00
7108 114.0790 0.918043 24.00 29.61 4.90
7109 114.0940 0.917965 24.00 29.86 4.90
7110 114.1090 0.917887 22.00 30.03 4.69
7111 114.1240 0.917809 28.00 30.11 5.29
7112 114.1390 0.917731 27.00 30.10 5.20
7113 114.1540 0.917654 25.00 30.00 5.00
7114 114.1690 0.917576 30.00 29.81 5.48
7115 114.1840 0.917498 21.00 29.53 4.58
7116 114.1990 0.917420 23.00 29.17 4.80
7117 114.2140 0.917343 26.00 28.74 5.10
7118 114.2290 0.917265 23.00 28.24 4.80
7119 114.2440 0.917187 25.00 27.68 5.00
7120 114.2590 0.917110 25.00 27.07 5.00
7121 114.2740 0.917032 21.00 26.43 4.58
7122 114.2890 0.916955 28.00 25.76 5.29
7123 114.3040 0.916877 27.00 25.07 5.20
7124 114.3190 0.916800 33.00 24.38 5.74
7125 114.3340 0.916722 27.00 23.69 5.20
7126 114.3490 0.916645 27.00 23.01 5.20
7127 114.3640 0.916568 30.00 22.35 5.48
7128 114.3790 0.916490 27.00 21.73 5.20
7129 114.3940 0.916413 22.00 21.13 4.69
7130 114.4090 0.916336 31.00 20.58 5.57
7131 114.4240 0.916258 26.00 20.07 5.10
7132 114.4390 0.916181 18.00 19.60 4.24
7133 114.4540 0.916104 23.00 19.18 4.80
7134 114.4690 0.916027 18.00 18.81 4.24
7135 114.4840 0.915949 26.00 18.49 5.10
7136 114.4990 0.915872 27.00 18.22 5.20
7137 114.5140 0.915795 22.00 18.00 4.69
7138 114.5290 0.915718 23.00 17.83 4.80
7139 114.5440 0.915641 17.00 17.70 4.12
7140 114.5590 0.915564 19.00 17.62 4.36
7141 114.5740 0.915487 20.00 17.59 4.47
7142 114.5890 0.915410 26.00 17.61 5.10
7143 114.6040 0.915333 30.00 17.67 5.48
7144 114.6190 0.915256 19.00 17.77 4.36
7145 114.6340 0.915179 22.00 17.92 4.69
7146 114.6490 0.915103 16.00 18.11 4.00
7147 114.6640 0.915026 24.00 18.33 4.90
7148 114.6790 0.914949 16.00 18.60 4.00
7149 114.6940 0.914872 26.00 18.90 5.10
7150 114.7090 0.914796 22.00 19.23 4.69
7151 114.7240 0.914719 21.00 19.59 4.58
7152 114.7390 0.914642 18.00 19.98 4.24
7153 114.7540 0.914565 15.00 20.40 3.87
7154 114.7690 0.914489 25.00 20.83 5.00
7155 114.7840 0.914412 18.00 21.27 4.24
7156 114.7990 0.914336 18.00 21.71 4.24
7157 114.8140 0.914259 27.00 22.16 5.20
7158 114.8290 0.914183 31.00 22.60 5.57
7159 114.8440 0.914106 24.00 23.02 4.90
7160 114.8590 0.914030 18.00 23.42 4.24
7161 114.8740 0.913953 25.00 23.79 5.00
7162 114.8890 0.913877 21.00 24.13 4.58
7163 114.9040 0.913801 19.00 24.42 4.36
7164 114.9190 0.913724 20.00 24.66 4.47
7165 114.9340 0.913648 15.00 24.85 3.87
7166 114.9490 0.913572 16.00 24.99 4.00
7167 114.9640 0.913495 12.00 25.07 3.46
7168 114.9790 0.913419 20.00 25.08 4.47
7169 114.9940 0.913343 23.00 25.04 4.80
7170 115.0090 0.913267 24.00 24.93 4.90
7171 115.0240 0.913191 22.00 24.77 4.69
7172 115.0390 0.913115 22.00 24.56 4.69
7173 115.0540 0.913039 24.00 24.30 4.90
7174 115.0690 0.912962 22.00 23.99 4.69
7175 115.0840 0.912887 18.00 23.65 4.24
7176 115.0990 0.912811 20.00 23.28 4.47
7177 115.1140 0.912735 17.00 22.88 4.12
7178 115.1290 0.912659 17.00 22.47 4.12
7179 115.1440 0.912583 23.00 22.05 4.80
7180 115.1590 0.912507 17.00 21.63 4.12
7181 115.1740 0.912431 23.00 21.21 4.80
7182 115.1890 0.912355 16.00 20.80 4.00
7183 115.2040 0.912279 15.00 20.40 3.87
7184 115.2190 0.912204 16.00 20.03 4.00
7185 115.2340 0.912128 22.00 19.67 4.69
7186 115.2490 0.912052 30.00 19.35 5.48
7187 115.2640 0.911977 27.00 19.05 5.20
7188 115.2790 0.911901 16.00 18.78 4.00
7189 115.2940 0.911825 22.00 18.55 4.69
7190 115.3090 0.911750 14.00 18.35 3.74
7191 115.3240 0.911674 10.00 18.18 3.16
7192 115.3390 0.911599 15.00 18.04 3.87
7193 115.3540 0.911523 16.00 17.94 4.00
7194 115.3690 0.911447 20.00 17.87 4.47
7195 115.3840 0.911372 17.00 17.83 4.12
7196 115.3990 0.911297 15.00 17.82 3.87
7197 115.4140 0.911221 21.00 17.84 4.58
7198 115.4290 0.911146 15.00 17.89 3.87
7199 115.4440 0.911070 17.00 17.97 4.12
7200 115.4590 0.910995 16.00 18.08 4.00
7201 115.4740 0.910920 12.00 18.22 3.46
7202 115.4890 0.910845 21.00 18.39 4.58
7203 115.5040 0.910769 18.00 18.59 4.24
7204 115.5190 0.910694 18.00 18.82 4.24
7205 115.5340 0.910619 15.00 19.07 3.87
7206 115.5490 0.910544 18.00 19.35 4.24
7207 115.5640 0.910469 20.00 19.65 4.47
7208 115.5790 0.910394 14.00 19.97 3.74
7209 115.5940 0.910319 20.00 20.31 4.47
7210 115.6090 0.910244 22.00 20.66 4.69
7211 115.6240 0.910169 24.00 21.02 4.90
7212 115.6390 0.910094 20.00 21.39 4.47
7213 115.6540 0.910019 18.00 21.75 4.24
7214 115.6690 0.909944 31.00 22.10 5.57
7215 115.6840 0.909869 25.00 22.44 5.00
7216 115.6990 0.909794 22.00 22.75 4.69
7217 115.7140 0.909719 18.00 23.04 4.24
7218 115.7290 0.909644 28.00 23.29 5.29
7219 115.7440 0.909570 22.00 23.50 4.69
7220 115.7590 0.909495 25.00 23.67 5.00
7221 115.7740 0.909420 16.00 23.78 4.00
7222 115.7890 0.909345 14.00 23.84 3.74
7223 115.8040 0.909271 21.00 23.84 4.58
7224 115.8190 0.909196 20.00 23.78 4.47
7225 115.8340 0.909121 17.00 23.66 4.12
7226 115.8490 0.909047 22.00 23.48 4.69
7227 115.8640 0.908972 22.00 23.24 4.69
7228 115.8790 0.908898 20.00 22.95 4.47
7229 115.8940 0.908823 19.00 22.62 4.36
7230 115.9090 0.908749 18.00 22.23 4.24
7231 115.9240 0.908674 19.00 21.81 4.36
7232 115.9390 0.908600 21.00 21.36 4.58
7233 115.9540 0.908526 20.00 20.88 4.47
7234 115.9690 0.908451 18.00 20.38 4.24
7235 115.9840 0.908377 17.00 19.86 4.12
7236 115.9990 0.908303 26.00 19.35 5.10
7237 116.0140 0.908228 19.00 18.83 4.36
7238 116.0290 0.908154 15.00 18.32 3.87
7239 116.0440 0.908080 18.00 17.83 4.24
7240 116.0590 0.908006 14.00 17.35 3.74
7241 116.0740 0.907931 18.00 16.89 4.24
7242 116.0890 0.907857 21.00 16.46 4.58
7243 116.1040 0.907783 17.00 16.06 4.12
7244 116.1190 0.907709 15.00 15.68 3.87
7245 116.1340 0.907635 30.00 15.34 5.48
7246 116.1490 0.907561 19.00 15.04 4.36
7247 116.1640 0.907487 14.00 14.76 3.74
7248 116.1790 0.907413 21.00 14.53 4.58
7249 116.1940 0.907339 16.00 14.32 4.00
7250 116.2090 0.907265 22.00 14.15 4.69
7251 116.2240 0.907191 18.00 14.01 4.24
7252 116.2390 0.907117 19.00 13.91 4.36
7253 116.2540 0.907044 17.00 13.84 4.12
7254 116.2690 0.906970 17.00 13.79 4.12
7255 116.2840 0.906896 21.00 13.78 4.58
7256 116.2990 0.906822 15.00 13.80 3.87
7257 116.3140 0.906748 13.00 13.85 3.61
7258 116.3290 0.906675 14.00 13.92 3.74
7259 116.3440 0.906601 10.00 14.02 3.16
7260 116.3590 0.906527 17.00 14.15 4.12
7261 116.3740 0.906454 23.00 14.29 4.80
7262 116.3890 0.906380 24.00 14.46 4.90
7263 116.4040 0.906307 22.00 14.65 4.69
7264 116.4190 0.906233 20.00 14.86 4.47
7265 116.4340 0.906160 13.00 15.08 3.61
7266 116.4490 0.906086 12.00 15.31 3.46
7267 116.4640 0.906013 19.00 15.56 4.36
7268 116.4790 0.905939 22.00 15.80 4.69
7269 116.4940 0.905866 25.00 16.05 5.00
7270 116.5090 0.905792 24.00 16.29 4.90
7271 116.5240 0.905719 23.00 16.53 4.80
7272 116.5390 0.905646 23.00 16.76 4.80
7273 116.5540 0.905572 22.00 16.97 4.69
7274 116.5690 0.905499 23.00 17.16 4.80
7275 116.5840 0.905426 25.00 17.32 5.00
7276 116.5990 0.905353 20.00 17.46 4.47
7277 116.6140 0.905280 16.00 17.57 4.00
7278 116.6290 0.905206 18.00 17.65 4.24
7279 116.6440 0.905133 19.00 17.69 4.36
7280 116.6590 0.905060 21.00 17.69 4.58
7281 116.6740 0.904987 17.00 17.66 4.12
7282 116.6890 0.904914 12.00 17.59 3.46
7283 116.7040 0.904841 11.00 17.49 3.32
7284 116.7190 0.904768 16.00 17.35 4.00
7285 116.7340 0.904695 15.00 17.17 3.87
7286 116.7490 0.904622 19.00 16.97 4.36
7287 116.7640 0.904549 21.00 16.74 4.58
7288 116.7790 0.904476 14.00 16.49 3.74
7289 116.7940 0.904404 12.00 16.22 3.46
7290 116.8090 0.904331 13.00 15.93 3.61
7291 116.8240 0.904258 13.00 15.63 3.61
7292 116.8390 0.904185 19.00 15.33 4.36
7293 116.8540 0.904112 16.00 15.02 4.00
7294 116.8690 0.904040 15.00 14.72 3.87
7295 116.8840 0.903967 14.00 14.42 3.74
7296 116.8990 0.903894 16.00 14.14 4.00
7297 116.9140 0.903822 18.00 13.87 4.24
7298 116.9290 0.903749 20.00 13.61 4.47
7299 116.9440 0.903676 14.00 13.37 3.74
7300 116.9590 0.903604 11.00 13.16 3.32
7301 116.9740 0.903531 17.00 12.97 4.12
7302 116.9890 0.903459 13.00 12.81 3.61
7303 117.0040 0.903386 20.00 12.68 4.47
7304 117.0190 0.903314 20.00 12.58 4.47
7305 117.0340 0.903242 10.00 12.52 3.16
7306 117.0490 0.903169 16.00 12.49 4.00
7307 117.0640 0.903097 18.00 12.49 4.24
7308 117.0790 0.903024 11.00 12.53 3.32
7309 117.0940 0.902952 15.00 12.62 3.87
7310 117.1090 0.902880 11.00 12.74 3.32
7311 117.1240 0.902808 16.00 12.91 4.00
7312 117.1390 0.902735 10.00 13.12 3.16
7313 117.1540 0.902663 13.00 13.37 3.61
7314 117.1690 0.902591 14.00 13.68 3.74
7315 117.1840 0.902519 12.00 14.02 3.46
7316 117.1990 0.902447 15.00 14.41 3.87
7317 117.2140 0.902375 13.00 14.85 3.61
7318 117.2290 0.902303 15.00 15.33 3.87
7319 117.2440 0.902230 17.00 15.85 4.12
7320 117.2590 0.902158 16.00 16.40 4.00
7321 117.2740 0.902086 17.00 16.99 4.12
7322 117.2890 0.902015 20.00 17.61 4.47
7323 117.3040 0.901943 19.00 18.25 4.36
7324 117.3190 0.901871 24.00 18.90 4.90
7325 117.3340 0.901799 18.00 19.56 4.24
7326 117.3490 0.901727 20.00 20.21 4.47
7327 117.3640 0.901655 23.00 20.86 4.80
7328 117.3790 0.901583 21.00 21.49 4.58
7329 117.3940 0.901512 20.00 22.08 4.47
7330 117.4090 0.901440 25.00 22.64 5.00
7331 117.4240 0.901368 21.00 23.15 4.58
7332 117.4390 0.901296 22.00 23.60 4.69
7333 117.4540 0.901225 14.00 23.98 3.74
7334 117.4690 0.901153 20.00 24.29 4.47
7335 117.4840 0.901082 15.00 24.53 3.87
7336 117.4990 0.901010 15.00 24.67 3.87
7337 117.5140 0.900938 12.00 24.73 3.46
7338 117.5290 0.900867 12.00 24.71 3.46
7339 117.5440 0.900795 12.00 24.59 3.46
7340 117.5590 0.900724 18.00 24.39 4.24
7341 117.5740 0.900652 23.00 24.10 4.80
7342 117.5890 0.900581 17.00 23.73 4.12
7343 117.6040 0.900510 16.00 23.30 4.00
7344 117.6190 0.900438 14.00 22.79 3.74
7345 117.6340 0.900367 15.00 22.23 3.87
7346 117.6490 0.900296 15.00 21.62 3.87
7347 117.6640 0.900224 12.00 20.97 3.46
7348 117.6790 0.900153 10.00 20.29 3.16
7349 117.6940 0.900082 14.00 19.58 3.74
7350 117.7090 0.900011 14.00 18.87 3.74
7351 117.7240 0.899939 11.00 18.16 3.32
7352 117.7390 0.899868 10.00 17.45 3.16
7353 117.7540 0.899797 12.00 16.76 3.46
7354 117.7690 0.899726 13.00 16.08 3.61
7355 117.7840 0.899655 16.00 15.44 4.00
7356 117.7990 0.899584 12.00 14.82 3.46
7357 117.8140 0.899513 9.00 14.23 3.00
7358 117.8290 0.899442 12.00 13.69 3.46
7359 117.8440 0.899371 10.00 13.18 3.16
7360 117.8590 0.899300 17.00 12.71 4.12
7361 117.8740 0.899229 19.00 12.28 4.36
7362 117.8890 0.899158 10.00 11.89 3.16
7363 117.9040 0.899087 10.00 11.54 3.16
7364 117.9190 0.899016 13.00 11.23 3.61
7365 117.9340 0.898946 13.00 10.94 3.61
7366 117.9490 0.898875 12.00 10.69 3.46
7367 117.9640 0.898804 14.00 10.47 3.74
7368 117.9790 0.898733 17.00 10.28 4.12
7369 117.9940 0.898663 17.00 10.11 4.12
7370 118.0090 0.898592 16.00 9.96 4.00
7371 118.0240 0.898521 13.00 9.83 3.61
7372 118.0390 0.898451 14.00 9.72 3.74
7373 118.0540 0.898380 19.00 9.62 4.36
7374 118.0690 0.898310 16.00 9.53 4.00
7375 118.0840 0.898239 14.00 9.46 3.74
7376 118.0990 0.898168 14.00 9.39 3.74
7377 118.1140 0.898098 16.00 9.33 4.00
7378 118.1290 0.898028 12.00 9.28 3.46
7379 118.1440 0.897957 19.00 9.24 4.36
7380 118.1590 0.897887 13.00 9.19 3.61
7381 118.1740 0.897816 16.00 9.15 4.00
7382 118.1890 0.897746 14.00 9.12 3.74
7383 118.2040 0.897676 18.00 9.08 4.24
7384 118.2190 0.897605 14.00 9.05 3.74
7385 118.2340 0.897535 11.00 9.02 3.32
7386 118.2490 0.897465 15.00 8.99 3.87
7387 118.2640 0.897395 14.00 8.96 3.74
7388 118.2790 0.897324 12.00 8.93 3.46
7389 118.2940 0.897254 6.00 8.90 2.45
7390 118.3090 0.897184 13.00 8.87 3.61
7391 118.3240 0.897114 17.00 8.85 4.12
7392 118.3390 0.897044 16.00 8.82 4.00
7393 118.3540 0.896974 9.00 8.79 3.00
7394 118.3690 0.896904 8.00 8.77 2.83
7395 118.3840 0.896834 8.00 8.74 2.83
7396 118.3990 0.896764 12.00 8.71 3.46
7397 118.4140 0.896694 12.00 8.68 3.46
7398 118.4290 0.896624 14.00 8.66 3.74
7399 118.4440 0.896554 15.00 8.63 3.87
7400 118.4590 0.896484 15.00 8.60 3.87
7401 118.4740 0.896414 8.00 8.57 2.83
7402 118.4890 0.896344 10.00 8.55 3.16
7403 118.5040 0.896274 9.00 8.52 3.00
7404 118.5190 0.896205 12.00 8.49 3.46
7405 118.5340 0.896135 21.00 8.47 4.58
7406 118.5490 0.896065 12.00 8.44 3.46
7407 118.5640 0.895995 16.00 8.41 4.00
7408 118.5790 0.895926 15.00 8.38 3.87
7409 118.5940 0.895856 9.00 8.36 3.00
7410 118.6090 0.895787 9.00 8.33 3.00
7411 118.6240 0.895717 13.00 8.30 3.61
7412 118.6390 0.895647 13.00 8.27 3.61
7413 118.6540 0.895578 8.00 8.24 2.83
7414 118.6690 0.895508 7.00 8.21 2.65
7415 118.6840 0.895439 11.00 8.19 3.32
7416 118.6990 0.895369 8.00 8.16 2.83
7417 118.7140 0.895300 10.00 8.13 3.16
7418 118.7290 0.895231 8.00 8.10 2.83
7419 118.7440 0.895161 7.00 8.07 2.65
7420 118.7590 0.895092 11.00 8.04 3.32
7421 118.7740 0.895022 8.00 8.01 2.83
7422 118.7890 0.894953 7.00 7.98 2.65
7423 118.8040 0.894884 9.00 7.95 3.00
7424 118.8190 0.894815 10.00 7.93 3.16
7425 118.8340 0.894745 6.00 7.90 2.45
7426 118.8490 0.894676 5.00 7.87 2.24
7427 118.8640 0.894607 9.00 7.84 3.00
7428 118.8790 0.894538 7.00 7.81 2.65
7429 118.8940 0.894469 7.00 7.78 2.65
7430 118.9090 0.894400 6.00 7.75 2.45
7431 118.9240 0.894330 8.00 7.72 2.83
7432 118.9390 0.894261 9.00 7.69 3.00
7433 118.9540 0.894192 12.00 7.66 3.46
7434 118.9690 0.894123 6.00 7.63 2.45
7435 118.9840 0.894054 8.00 7.60 2.83
7436 118.9990 0.893986 7.00 7.56 2.65
7437 119.0140 0.893917 11.00 7.53 3.32
7438 119.0290 0.893848 14.00 7.50 3.74
7439 119.0440 0.893779 12.00 7.47 3.46
7440 119.0590 0.893710 11.00 7.44 3.32
7441 119.0740 0.893641 6.00 7.41 2.45
7442 119.0890 0.893572 9.00 7.38 3.00
7443 119.1040 0.893504 13.00 7.35 3.61
7444 119.1190 0.893435 12.00 7.32 3.46
7445 119.1340 0.893366 5.00 7.28 2.24
7446 119.1490 0.893297 10.00 7.25 3.16
7447 119.1640 0.893229 10.00 7.22 3.16
7448 119.1790 0.893160 12.00 7.19 3.46
7449 119.1940 0.893091 11.00 7.16 3.32
7450 119.2090 0.893023 7.00 7.12 2.65
7451 119.2240 0.892954 7.00 7.09 2.65
7452 119.2390 0.892886 9.00 7.06 3.00
7453 119.2540 0.892817 12.00 7.03 3.46
7454 119.2690 0.892749 11.00 6.99 3.32
7455 119.2840 0.892680 14.00 6.96 3.74
7456 119.2990 0.892612 13.00 6.93 3.61
7457 119.3140 0.892544 13.00 6.90 3.61
7458 119.3290 0.892475 8.00 6.86 2.83
7459 119.3440 0.892407 14.00 6.83 3.74
7460 119.3590 0.892339 11.00 6.80 3.32
7461 119.3740 0.892270 10.00 6.77 3.16
7462 119.3890 0.892202 10.00 6.74 3.16
7463 119.4040 0.892134 7.00 6.71 2.65
7464 119.4190 0.892066 12.00 6.68 3.46
7465 119.4340 0.891997 7.00 6.66 2.65
7466 119.4490 0.891929 8.00 6.63 2.83
7467 119.4640 0.891861 8.00 6.61 2.83
7468 119.4790 0.891793 9.00 6.59 3.00
7469 119.4940 0.891725 7.00 6.58 2.65
7470 119.5090 0.891657 7.00 6.57 2.65
7471 119.5240 0.891589 12.00 6.56 3.46
7472 119.5390 0.891521 17.00 6.56 4.12
7473 119.5540 0.891453 11.00 6.57 3.32
7474 119.5690 0.891385 7.00 6.59 2.65
7475 119.5840 0.891317 8.00 6.62 2.83
7476 119.5990 0.891249 7.00 6.67 2.65
7477 119.6140 0.891181 9.00 6.72 3.00
7478 119.6290 0.891113 8.00 6.80 2.83
7479 119.6440 0.891045 8.00 6.89 2.83
7480 119.6590 0.890977 8.00 7.00 2.83
7481 119.6740 0.890910 12.00 7.13 3.46
7482 119.6890 0.890842 12.00 7.29 3.46
7483 119.7040 0.890774 8.00 7.47 2.83
7484 119.7190 0.890706 13.00 7.69 3.61
7485 119.7340 0.890639 10.00 7.93 3.16
7486 119.7490 0.890571 8.00 8.21 2.83
7487 119.7640 0.890503 6.00 8.51 2.45
7488 119.7790 0.890436 8.00 8.86 2.83
7489 119.7940 0.890368 8.00 9.23 2.83
7490 119.8090 0.890301 8.00 9.64 2.83
7491 119.8240 0.890233 12.00 10.09 3.46
7492 119.8390 0.890166 11.00 10.56 3.32
7493 119.8540 0.890098 8.00 11.07 2.83
7494 119.8690 0.890031 11.00 11.60 3.32
7495 119.8840 0.889963 13.00 12.15 3.61
7496 119.8990 0.889896 9.00 12.72 3.00
7497 119.9140 0.889829 13.00 13.30 3.61
7498 119.9290 0.889761 14.00 13.89 3.74
7499 119.9440 0.889694 11.00 14.48 3.32
7500 119.9590 0.889627 15.00 15.06 3.87
7501 119.9740 0.889559 21.00 15.62 4.58
7502 119.9890 0.889492 24.00 16.17 4.90
7503 120.0040 0.889425 24.00 16.67 4.90
7504 120.0190 0.889358 20.00 17.15 4.47
7505 120.0340 0.889290 13.00 17.57 3.61
7506 120.0490 0.889223 13.00 17.94 3.61
7507 120.0640 0.889156 19.00 18.25 4.36
7508 120.0790 0.889089 19.00 18.49 4.36
7509 120.0940 0.889022 17.00 18.67 4.12
7510 120.1090 0.888955 17.00 18.77 4.12
7511 120.1240 0.888888 14.00 18.79 3.74
7512 120.1390 0.888821 16.00 18.74 4.00
7513 120.1540 0.888754 17.00 18.61 4.12
7514 120.1690 0.888687 18.00 18.41 4.24
7515 120.1840 0.888620 18.00 18.13 4.24
7516 120.1990 0.888553 12.00 17.78 3.46
7517 120.2140 0.888486 18.00 17.37 4.24
7518 120.2290 0.888419 15.00 16.90 3.87
7519 120.2440 0.888353 12.00 16.39 3.46
7520 120.2590 0.888286 11.00 15.82 3.32
7521 120.2740 0.888219 15.00 15.23 3.87
7522 120.2890 0.888152 14.00 14.60 3.74
7523 120.3040 0.888086 11.00 13.95 3.32
7524 120.3190 0.888019 9.00 13.29 3.00
7525 120.3340 0.887952 9.00 12.63 3.00
7526 120.3490 0.887886 5.00 11.98 2.24
7527 120.3640 0.887819 6.00 11.33 2.45
7528 120.3790 0.887752 7.00 10.70 2.65
7529 120.3940 0.887686 6.00 10.10 2.45
7530 120.4090 0.887619 10.00 9.53 3.16
7531 120.4240 0.887553 12.00 8.99 3.46
7532 120.4390 0.887486 14.00 8.49 3.74
7533 120.4540 0.887420 9.00 8.04 3.00
7534 120.4690 0.887353 9.00 7.62 3.00
7535 120.4840 0.887287 7.00 7.26 2.65
7536 120.4990 0.887221 11.00 6.95 3.32
7537 120.5140 0.887154 9.00 6.69 3.00
7538 120.5290 0.887088 8.00 6.48 2.83
7539 120.5440 0.887022 7.00 6.32 2.65
7540 120.5590 0.886955 11.00 6.22 3.32
7541 120.5740 0.886889 11.00 6.17 3.32
7542 120.5890 0.886823 9.00 6.18 3.00
7543 120.6040 0.886757 9.00 6.24 3.00
7544 120.6190 0.886690 7.00 6.35 2.65
7545 120.6340 0.886624 7.00 6.52 2.65
7546 120.6490 0.886558 8.00 6.74 2.83
7547 120.6640 0.886492 9.00 7.01 3.00
7548 120.6790 0.886426 10.00 7.32 3.16
7549 120.6940 0.886360 8.00 7.69 2.83
7550 120.7090 0.886294 8.00 8.09 2.83
7551 120.7240 0.886228 5.00 8.54 2.24
7552 120.7390 0.886162 5.00 9.02 2.24
7553 120.7540 0.886096 6.00 9.53 2.45
7554 120.7690 0.886030 9.00 10.08 3.00
7555 120.7840 0.885964 8.00 10.64 2.83
7556 120.7990 0.885898 11.00 11.21 3.32
7557 120.8140 0.885832 12.00 11.80 3.46
7558 120.8290 0.885766 12.00 12.38 3.46
7559 120.8440 0.885700 15.00 12.95 3.87
7560 120.8590 0.885635 12.00 13.51 3.46
7561 120.8740 0.885569 11.00 14.05 3.32
7562 120.8890 0.885503 14.00 14.55 3.74
7563 120.9040 0.885437 12.00 15.02 3.46
7564 120.9190 0.885372 16.00 15.43 4.00
7565 120.9340 0.885306 7.00 15.79 2.65
7566 120.9490 0.885240 10.00 16.09 3.16
7567 120.9640 0.885175 13.00 16.33 3.61
7568 120.9790 0.885109 6.00 16.49 2.45
7569 120.9940 0.885044 7.00 16.58 2.65
7570 121.0090 0.884978 5.00 16.59 2.24
7571 121.0240 0.884913 6.00 16.52 2.45
7572 121.0390 0.884847 9.00 16.38 3.00
7573 121.0540 0.884782 6.00 16.16 2.45
7574 121.0690 0.884716 7.00 15.87 2.65
7575 121.0840 0.884651 7.00 15.50 2.65
7576 121.0990 0.884585 5.00 15.07 2.24
7577 121.1140 0.884520 6.00 14.59 2.45
7578 121.1290 0.884455 6.00 14.05 2.45
7579 121.1440 0.884389 5.00 13.46 2.24
7580 121.1590 0.884324 10.00 12.84 3.16
7581 121.1740 0.884259 11.00 12.19 3.32
7582 121.1890 0.884194 5.00 11.51 2.24
7583 121.2040 0.884128 5.00 10.83 2.24
7584 121.2190 0.884063 7.00 10.13 2.65
7585 121.2340 0.883998 7.00 9.44 2.65
7586 121.2490 0.883933 7.00 8.76 2.65
7587 121.2640 0.883868 6.00 8.10 2.45
7588 121.2790 0.883803 12.00 7.46 3.46
7589 121.2940 0.883738 8.00 6.84 2.83
7590 121.3090 0.883673 6.00 6.26 2.45
7591 121.3240 0.883608 9.00 5.71 3.00
7592 121.3390 0.883543 10.00 5.21 3.16
7593 121.3540 0.883478 7.00 4.74 2.65
7594 121.3690 0.883413 8.00 4.32 2.83
7595 121.3840 0.883348 3.00 3.95 1.73
7596 121.3990 0.883283 6.00 3.62 2.45
7597 121.4140 0.883218 10.00 3.35 3.16
7598 121.4290 0.883153 5.00 3.12 2.24
7599 121.4440 0.883088 9.00 2.94 3.00
7600 121.4590 0.883023 8.00 2.81 2.83
7601 121.4740 0.882959 5.00 2.73 2.24
7602 121.4890 0.882894 5.00 2.70 2.24
7603 121.5040 0.882829 10.00 2.71 3.16
7604 121.5190 0.882765 5.00 2.77 2.24
7605 121.5340 0.882700 14.00 2.88 3.74
7606 121.5490 0.882635 8.00 3.02 2.83
7607 121.5640 0.882571 4.00 3.21 2.00
7608 121.5790 0.882506 5.00 3.44 2.24
7609 121.5940 0.882441 5.00 3.70 2.24
7610 121.6090 0.882377 6.00 4.00 2.45
7611 121.6240 0.882312 11.00 4.33 3.32
7612 121.6390 0.882248 5.00 4.68 2.24
7613 121.6540 0.882183 10.00 5.06 3.16
7614 121.6690 0.882119 8.00 5.45 2.83
7615 121.6840 0.882054 14.00 5.86 3.74
7616 121.6990 0.881990 13.00 6.28 3.61
7617 121.7140 0.881926 8.00 6.70 2.83
7618 121.7290 0.881861 9.00 7.11 3.00
7619 121.7440 0.881797 12.00 7.52 3.46
7620 121.7590 0.881733 11.00 7.91 3.32
7621 121.7740 0.881668 8.00 8.28 2.83
7622 121.7890 0.881604 8.00 8.63 2.83
7623 121.8040 0.881540 10.00 8.94 3.16
7624 121.8190 0.881476 10.00 9.21 3.16
7625 121.8340 0.881411 6.00 9.44 2.45
7626 121.8490 0.881347 5.00 9.62 2.24
7627 121.8640 0.881283 5.00 9.75 2.24
7628 121.8790 0.881219 5.00 9.82 2.24
7629 121.8940 0.881155 6.00 9.84 2.45
7630 121.9090 0.881091 5.00 9.80 2.24
7631 121.9240 0.881027 9.00 9.70 3.00
7632 121.9390 0.880963 8.00 9.55 2.83
7633 121.9540 0.880899 6.00 9.33 2.45
7634 121.9690 0.880835 6.00 9.07 2.45
7635 121.9840 0.880771 8.00 8.75 2.83
7636 121.9990 0.880707 9.00 8.39 3.00
7637 122.0140 0.880643 6.00 7.99 2.45
7638 122.0290 0.880579 7.00 7.55 2.65
7639 122.0440 0.880515 8.00 7.07 2.83
7640 122.0590 0.880452 10.00 6.58 3.16
7641 122.0740 0.880388 6.00 6.06 2.45
7642 122.0890 0.880324 3.00 5.53 1.73
7643 122.1040 0.880260 4.00 4.99 2.00
7644 122.1190 0.880197 8.00 4.45 2.83
7645 122.1340 0.880133 6.00 3.92 2.45
7646 122.1490 0.880069 6.00 3.39 2.45
7647 122.1640 0.880006 6.00 2.88 2.45
7648 122.1790 0.879942 4.00 2.39 2.00
7649 122.1940 0.879878 8.00 1.93 2.83
7650 122.2090 0.879815 7.00 1.50 2.65
7651 122.2240 0.879751 4.00 1.09 2.00
7652 122.2390 0.879688 5.00 0.72 2.24
7653 122.2540 0.879624 6.00 0.39 2.45
7654 122.2690 0.879561 4.00 0.11 2.00
7655 122.2840 0.879497 4.00 -0.14 2.00
7656 122.2990 0.879434 6.00 -0.35 2.45
7657 122.3140 0.879370 9.00 -0.50 3.00
7658 122.3290 0.879307 5.00 -0.62 2.24
7659 122.3440 0.879244 5.00 -0.68 2.24
7660 122.3590 0.879180 5.00 -0.70 2.24
7661 122.3740 0.879117 8.00 -0.67 2.83
7662 122.3890 0.879054 9.00 -0.59 3.00
7663 122.4040 0.878991 6.00 -0.46 2.45
7664 122.4190 0.878927 5.00 -0.28 2.24
7665 122.4340 0.878864 5.00 -0.06 2.24
7666 122.4490 0.878801 4.00 0.21 2.00
7667 122.4640 0.878738 7.00 0.53 2.65
7668 122.4790 0.878675 6.00 0.88 2.45
7669 122.4940 0.878611 3.00 1.28 1.73
7670 122.5090 0.878548 8.00 1.72 2.83
7671 122.5240 0.878485 9.00 2.19 3.00
7672 122.5390 0.878422 9.00 2.68 3.00
7673 122.5540 0.878359 9.00 3.21 3.00
7674 122.5690 0.878296 9.00 3.75 3.00
7675 122.5840 0.878233 8.00 4.31 2.83
7676 122.5990 0.878170 9.00 4.88 3.00
7677 122.6140 0.878107 10.00 5.44 3.16
7678 122.6290 0.878044 9.00 6.01 3.00
7679 122.6440 0.877982 11.00 6.56 3.32
7680 122.6590 0.877919 7.00 7.09 2.65
7681 122.6740 0.877856 7.00 7.59 2.65
7682 122.6890 0.877793 7.00 8.05 2.65
7683 122.7040 0.877730 10.00 8.48 3.16
7684 122.7190 0.877668 8.00 8.85 2.83
7685 122.7340 0.877605 5.00 9.17 2.24
7686 122.7490 0.877542 4.00 9.44 2.00
7687 122.7640 0.877479 3.00 9.63 1.73
7688 122.7790 0.877417 5.00 9.76 2.24
7689 122.7940 0.877354 8.00 9.82 2.83
7690 122.8090 0.877292 8.00 9.80 2.83
7691 122.8240 0.877229 5.00 9.71 2.24
7692 122.8390 0.877166 6.00 9.55 2.45
7693 122.8540 0.877104 7.00 9.32 2.65
7694 122.8690 0.877041 6.00 9.02 2.45
7695 122.8840 0.876979 3.00 8.65 1.73
7696 122.8990 0.876916 3.00 8.23 1.73
7697 122.9140 0.876854 4.00 7.75 2.00
7698 122.9290 0.876791 4.00 7.22 2.00
7699 122.9440 0.876729 3.00 6.66 1.73
7700 122.9590 0.876667 5.00 6.06 2.24
7701 122.9740 0.876604 5.00 5.43 2.24
7702 122.9890 0.876542 3.00 4.79 1.73
7703 123.0040 0.876480 3.00 4.13 1.73
7704 123.0190 0.876418 4.00 3.48 2.00
7705 123.0340 0.876355 7.00 2.83 2.65
7706 123.0490 0.876293 8.00 2.19 2.83
7707 123.0640 0.876231 6.00 1.56 2.45
7708 123.0790 0.876169 6.00 0.97 2.45
7709 123.0940 0.876107 6.00 0.40 2.45
7710 123.1090 0.876044 4.00 -0.12 2.00
7711 123.1240 0.875982 3.00 -0.61 1.73
7712 123.1390 0.875920 4.00 -1.05 2.00
7713 123.1540 0.875858 4.00 -1.44 2.00
7714 123.1690 0.875796 4.00 -1.78 2.00
7715 123.1840 0.875734 3.00 -2.06 1.73
7716 123.1990 0.875672 4.00 -2.29 2.00
7717 123.2140 0.875610 6.00 -2.45 2.45
7718 123.2290 0.875548 6.00 -2.55 2.45
7719 123.2440 0.875486 4.00 -2.58 2.00
7720 123.2590 0.875424 4.00 -2.55 2.00
7721 123.2740 0.875362 4.00 -2.45 2.00
7722 123.2890 0.875301 3.00 -2.29 1.73
7723 123.3040 0.875239 2.00 -2.05 1.41
7724 123.3190 0.875177 5.00 -1.76 2.24
7725 123.3340 0.875115 3.00 -1.39 1.73
7726 123.3490 0.875053 6.00 -0.96 2.45
7727 123.3640 0.874992 4.00 -0.47 2.00
7728 123.3790 0.874930 3.00 0.09 1.73
7729 123.3940 0.874868 5.00 0.70 2.24
7730 123.4090 0.874807 3.00 1.37 1.73
7731 123.4240 0.874745 1.00 2.09 1.00
7732 123.4390 0.874683 2.00 2.85 1.41
7733 123.4540 0.874622 6.00 3.65 2.45
7734 123.4690 0.874560 6.00 4.49 2.45
7735 123.4840 0.874499 7.00 5.35 2.65
7736 123.4990 0.874437 5.00 6.22 2.24
7737 123.5140 0.874376 10.00 7.10 3.16
7738 123.5290 0.874314 6.00 7.98 2.45
7739 123.5440 0.874253 9.00 8.85 3.00
7740 123.5590 0.874191 5.00 9.69 2.24
7741 123.5740 0.874130 8.00 10.50 2.83
7742 123.5890 0.874069 5.00 11.27 2.24
7743 123.6040 0.874007 7.00 11.99 2.65
7744 123.6190 0.873946 4.00 12.65 2.00
7745 123.6340 0.873885 6.00 13.23 2.45
7746 123.6490 0.873823 2.00 13.74 1.41
7747 123.6640 0.873762 7.00 14.15 2.65
7748 123.6790 0.873701 4.00 14.48 2.00
7749 123.6940 0.873640 3.00 14.71 1.73
7750 123.7090 0.873578 6.00 14.84 2.45
7751 123.7240 0.873517 2.00 14.87 1.41
7752 123.7390 0.873456 3.00 14.80 1.73
7753 123.7540 0.873395 3.00 14.62 1.73
7754 123.7690 0.873334 7.00 14.35 2.65
7755 123.7840 0.873273 3.00 13.98 1.73
7756 123.7990 0.873212 3.00 13.52 1.73
7757 123.8140 0.873151 4.00 12.98 2.00
7758 123.8290 0.873090 4.00 12.37 2.00
7759 123.8440 0.873029 4.00 11.69 2.00
7760 123.8590 0.872968 5.00 10.95 2.24
7761 123.8740 0.872907 5.00 10.16 2.24
7762 123.8890 0.872846 4.00 9.34 2.00
7763 123.9040 0.872785 3.00 8.49 1.73
7764 123.9190 0.872724 6.00 7.62 2.45
7765 123.9340 0.872663 5.00 6.75 2.24
7766 123.9490 0.872603 5.00 5.87 2.24
7767 123.9640 0.872542 4.00 5.01 2.00
7768 123.9790 0.872481 5.00 4.17 2.24
7769 123.9940 0.872420 4.00 3.35 2.00
7770 124.0090 0.872360 3.00 2.57 1.73
7771 124.0240 0.872299 4.00 1.83 2.00
7772 124.0390 0.872238 3.00 1.13 1.73
7773 124.0540 0.872178 3.00 0.49 1.73
7774 124.0690 0.872117 6.00 -0.10 2.45
7775 124.0840 0.872056 6.00 -0.63 2.45
7776 124.0990 0.871996 4.00 -1.11 2.00
7777 124.1140 0.871935 3.00 -1.52 1.73
7778 124.1290 0.871875 4.00 -1.86 2.00
7779 124.1440 0.871814 4.00 -2.15 2.00
7780 124.1590 0.871754 5.00 -2.37 2.24
7781 124.1740 0.871693 4.00 -2.53 2.00
7782 124.1890 0.871633 2.00 -2.62 1.41
7783 124.2040 0.871572 3.00 -2.66 1.73
7784 124.2190 0.871512 4.00 -2.63 2.00
7785 124.2340 0.871452 4.00 -2.54 2.00
7786 124.2490 0.871391 4.00 -2.40 2.00
7787 124.2640 0.871331 5.00 -2.20 2.24
7788 124.2790 0.871271 4.00 -1.96 2.00
7789 124.2940 0.871210 4.00 -1.66 2.00
7790 124.3090 0.871150 3.00 -1.31 1.73
7791 124.3240 0.871090 3.00 -0.93 1.73
7792 124.3390 0.871030 4.00 -0.50 2.00
7793 124.3540 0.870970 2.00 -0.04 1.41
7794 124.3690 0.870909 10.00 0.45 3.16
7795 124.3840 0.870849 8.00 0.97 2.83
7796 124.3990 0.870789 9.00 1.51 3.00
7797 124.4140 0.870729 8.00 2.07 2.83
7798 124.4290 0.870669 4.00 2.63 2.00
7799 124.4440 0.870609 4.00 3.20 2.00
7800 124.4590 0.870549 5.00 3.77 2.24
7801 124.4740 0.870489 8.00 4.33 2.83
7802 124.4890 0.870429 11.00 4.88 3.32
7803 124.5040 0.870369 6.00 5.40 2.45
7804 124.5190 0.870309 5.00 5.90 2.24
7805 124.5340 0.870249 4.00 6.37 2.00
7806 124.5490 0.870189 3.00 6.80 1.73
7807 124.5640 0.870130 4.00 7.19 2.00
7808 124.5790 0.870070 2.00 7.54 1.41
7809 124.5940 0.870010 6.00 7.84 2.45
7810 124.6090 0.869950 3.00 8.09 1.73
7811 124.6240 0.869890 6.00 8.28 2.45
7812 124.6390 0.869831 4.00 8.42 2.00
loop_
_pd_proc_info_excluded_regions
'from 0 to 7.500'
loop_
_restr_angle_atom_site_label_1
_restr_angle_site_symmetry_1
_restr_angle_atom_site_label_2
_restr_angle_site_symmetry_2
_restr_angle_atom_site_label_3
_restr_angle_site_symmetry_3
_restr_angle_target
_restr_angle_target_weight_param
? ? ? ? ? ? ? ?
loop_
_restr_distance_atom_site_label_1
_restr_distance_site_symmetry_1
_restr_distance_atom_site_label_2
_restr_distance_site_symmetry_2
_restr_distance_target
_restr_distance_target_weight_param
? ? ? ? ? ?
loop_
_restr_equal_angle_atom_site_label_1
_restr_equal_angle_site_symmetry_1
_restr_equal_angle_atom_site_label_2
_restr_equal_angle_site_symmetry_2
_restr_equal_angle_atom_site_label_3
_restr_equal_angle_site_symmetry_3
_restr_equal_angle_class_class_id
_restr_equal_angle_class_target_weight_param
? ? ? ? ? ? ? ?
loop_
_restr_equal_distance_atom_site_label_1
_restr_equal_distance_site_symmetry_1
_restr_equal_distance_atom_site_label_2
_restr_equal_distance_site_symmetry_2
_restr_equal_distance_class_class_id
_restr_equal_distance_class_target_weight_param
? ? ? ? ? ?
loop_
_restr_equal_torsion_atom_site_label_1
_restr_equal_torsion_site_symmetry_1
_restr_equal_torsion_atom_site_label_2
_restr_equal_torsion_site_symmetry_2
_restr_equal_torsion_atom_site_label_3
_restr_equal_torsion_site_symmetry_3
_restr_equal_torsion_atom_site_label_4
_restr_equal_torsion_site_symmetry_4
_restr_equal_torsion_class_class_id
_restr_equal_torsion_class_target_weight_param
? ? ? ? ? ? ? ? ? ?
loop_
_restr_torsion_atom_site_label_1
_restr_torsion_site_symmetry_1
_restr_torsion_atom_site_label_2
_restr_torsion_site_symmetry_2
_restr_torsion_atom_site_label_3
_restr_torsion_site_symmetry_3
_restr_torsion_atom_site_label_4
_restr_torsion_site_symmetry_4
_restr_torsion_angle_target
_restr_torsion_weight_param
? ? ? ? ? ? ? ? ? ?
loop_
_jana_atom_site_adp_c_label
_jana_atom_site_adp_c_type_symbol
_jana_atom_site_adp_c_111
_jana_atom_site_adp_c_112
_jana_atom_site_adp_c_113
_jana_atom_site_adp_c_122
_jana_atom_site_adp_c_123
_jana_atom_site_adp_c_133
_jana_atom_site_adp_c_222
_jana_atom_site_adp_c_223
_jana_atom_site_adp_c_233
_jana_atom_site_adp_c_333
? ? ? ? ? ? ? ? ? ? ? ?
loop_
_jana_atom_site_adp_d_label
_jana_atom_site_adp_d_type_symbol
_jana_atom_site_adp_d_1111
_jana_atom_site_adp_d_1112
_jana_atom_site_adp_d_1113
_jana_atom_site_adp_d_1122
_jana_atom_site_adp_d_1123
_jana_atom_site_adp_d_1133
_jana_atom_site_adp_d_1222
_jana_atom_site_adp_d_1223
_jana_atom_site_adp_d_1233
_jana_atom_site_adp_d_1333
_jana_atom_site_adp_d_2222
_jana_atom_site_adp_d_2223
_jana_atom_site_adp_d_2233
_jana_atom_site_adp_d_2333
_jana_atom_site_adp_d_3333
? ? ? ? ? ? ? ? ? ? ? ? ? ? ? ? ?
loop_
_jana_atom_site_adp_e_label
_jana_atom_site_adp_e_type_symbol
_jana_atom_site_adp_e_11111
_jana_atom_site_adp_e_11112
_jana_atom_site_adp_e_11113
_jana_atom_site_adp_e_11122
_jana_atom_site_adp_e_11123
_jana_atom_site_adp_e_11133
_jana_atom_site_adp_e_11222
_jana_atom_site_adp_e_11223
_jana_atom_site_adp_e_11233
_jana_atom_site_adp_e_11333
_jana_atom_site_adp_e_12222
_jana_atom_site_adp_e_12223
_jana_atom_site_adp_e_12233
_jana_atom_site_adp_e_12333
_jana_atom_site_adp_e_13333
_jana_atom_site_adp_e_22222
_jana_atom_site_adp_e_22223
_jana_atom_site_adp_e_22233
_jana_atom_site_adp_e_22333
_jana_atom_site_adp_e_23333
_jana_atom_site_adp_e_33333
? ? ? ? ? ? ? ? ? ? ? ? ? ? ? ? ? ? ? ? ? ? ?
loop_
_jana_atom_site_adp_f_label
_jana_atom_site_adp_f_type_symbol
_jana_atom_site_adp_f_111111
_jana_atom_site_adp_f_111112
_jana_atom_site_adp_f_111113
_jana_atom_site_adp_f_111122
_jana_atom_site_adp_f_111123
_jana_atom_site_adp_f_111133
_jana_atom_site_adp_f_111222
_jana_atom_site_adp_f_111223
_jana_atom_site_adp_f_111233
_jana_atom_site_adp_f_111333
_jana_atom_site_adp_f_112222
_jana_atom_site_adp_f_112223
_jana_atom_site_adp_f_112233
_jana_atom_site_adp_f_112333
_jana_atom_site_adp_f_113333
_jana_atom_site_adp_f_122222
_jana_atom_site_adp_f_122223
_jana_atom_site_adp_f_122233
_jana_atom_site_adp_f_122333
_jana_atom_site_adp_f_123333
_jana_atom_site_adp_f_133333
_jana_atom_site_adp_f_222222
_jana_atom_site_adp_f_222223
_jana_atom_site_adp_f_222233
_jana_atom_site_adp_f_222333
_jana_atom_site_adp_f_223333
_jana_atom_site_adp_f_233333
_jana_atom_site_adp_f_333333
? ? ? ? ? ? ? ? ? ? ? ? ? ? ? ? ? ? ? ? ? ? ? ? ? ? ? ? ? ?
