#------------------------------------------------------------------------------
#$Date: 2020-10-31 02:16:30 +0200 (Sat, 31 Oct 2020) $
#$Revision: 258658 $
#$URL: file:///home/coder/svn-repositories/cod/cif/1/55/94/1559434.cif $
#------------------------------------------------------------------------------
#
# This file is available in the Crystallography Open Database (COD),
# http://www.crystallography.net/
#
# All data on this site have been placed in the public domain by the
# contributors.
#
data_1559434
loop_
_publ_author_name
'Yan, Luping'
'Banuelos, Carmen A.'
'Mawji, Nasrin R.'
'Patrick, Brian O.'
'Sadar, Marianne D.'
'Andersen, Raymond J.'
_publ_section_title
;
 Structure--Activity Relationships for the Marine Natural Product
 Sintokamides: Androgen Receptor N-Terminus Antagonists of Interest for
 Treatment of Metastatic Castration-Resistant Prostate Cancer
;
_journal_name_full               'Journal of Natural Products'
_journal_paper_doi               10.1021/acs.jnatprod.0c00921
_journal_year                    2020
_chemical_absolute_configuration ad
_chemical_formula_sum            'C9 H15 Cl3 N2 O S'
_chemical_formula_weight         305.64
_space_group_crystal_system      monoclinic
_space_group_IT_number           4
_space_group_name_Hall           'P 2yb'
_space_group_name_H-M_alt        'P 1 21 1'
_atom_sites_solution_hydrogens   mixed
_audit_creation_method
;
Olex2 1.2
(compiled 2015.01.26 svn.r3150 for OlexSys, GUI svn.r4998)
;
_cell_angle_alpha                90
_cell_angle_beta                 102.123(2)
_cell_angle_gamma                90
_cell_formula_units_Z            2
_cell_length_a                   5.8041(9)
_cell_length_b                   9.6514(14)
_cell_length_c                   12.3924(18)
_cell_measurement_reflns_used    9969
_cell_measurement_temperature    90(2)
_cell_measurement_theta_max      30.03
_cell_measurement_theta_min      2.70
_cell_volume                     678.71(17)
_computing_cell_refinement       'Bruker SAINT'
_computing_data_collection       'Bruker APEX2'
_computing_data_reduction        'Bruker SAINT'
_computing_molecular_graphics    Olex2
_computing_publication_material  Olex2
_computing_structure_refinement  'SHELXL-2014/7 (Sheldrick, 2014)'
_computing_structure_solution    XT
_diffrn_ambient_temperature      90(2)
_diffrn_detector                 'Bruker APEX2 area detector'
_diffrn_detector_area_resol_mean 7.9
_diffrn_detector_type            'Bruker-Nonius APEXII CCD area detector'
_diffrn_measured_fraction_theta_full 0.999
_diffrn_measured_fraction_theta_max 0.994
_diffrn_measurement_device_type  'Bruker APEX-II CCD'
_diffrn_measurement_method       '\f and \w scans'
_diffrn_radiation_monochromator  'TRIUMPH curved-crystal'
_diffrn_radiation_type           MoK\a
_diffrn_radiation_wavelength     0.71073
_diffrn_reflns_av_R_equivalents  0.0265
_diffrn_reflns_av_unetI/netI     0.0260
_diffrn_reflns_Laue_measured_fraction_full 0.999
_diffrn_reflns_Laue_measured_fraction_max 0.994
_diffrn_reflns_limit_h_max       8
_diffrn_reflns_limit_h_min       -8
_diffrn_reflns_limit_k_max       13
_diffrn_reflns_limit_k_min       -13
_diffrn_reflns_limit_l_max       17
_diffrn_reflns_limit_l_min       -17
_diffrn_reflns_number            13540
_diffrn_reflns_point_group_measured_fraction_full 1.000
_diffrn_reflns_point_group_measured_fraction_max 0.992
_diffrn_reflns_theta_full        25.242
_diffrn_reflns_theta_max         30.026
_diffrn_reflns_theta_min         2.698
_diffrn_source                   'sealed X-ray tube'
_exptl_absorpt_coefficient_mu    0.811
_exptl_absorpt_correction_T_max  0.953
_exptl_absorpt_correction_T_min  0.750
_exptl_absorpt_correction_type   multi-scan
_exptl_crystal_colour            colourless
_exptl_crystal_density_diffrn    1.496
_exptl_crystal_description       plate
_exptl_crystal_F_000             316
_exptl_crystal_size_max          0.26
_exptl_crystal_size_mid          0.10
_exptl_crystal_size_min          0.06
_refine_diff_density_max         0.319
_refine_diff_density_min         -0.209
_refine_diff_density_rms         0.044
_refine_ls_abs_structure_details
;
 Flack x determined using 1784 quotients [(I+)-(I-)]/[(I+)+(I-)]
 (Parsons, Flack and Wagner, Acta Cryst. B69 (2013) 249-259).
;
_refine_ls_abs_structure_Flack   0.021(19)
_refine_ls_extinction_method     none
_refine_ls_goodness_of_fit_ref   1.037
_refine_ls_hydrogen_treatment    mixed
_refine_ls_matrix_type           full
_refine_ls_number_parameters     156
_refine_ls_number_reflns         3946
_refine_ls_number_restraints     1
_refine_ls_restrained_S_all      1.037
_refine_ls_R_factor_all          0.0201
_refine_ls_R_factor_gt           0.0191
_refine_ls_shift/su_max          0.000
_refine_ls_shift/su_mean         0.000
_refine_ls_structure_factor_coef Fsqd
_refine_ls_weighting_details
'w=1/[\s^2^(Fo^2^)+(0.0221P)^2^+0.1040P] where P=(Fo^2^+2Fc^2^)/3'
_refine_ls_weighting_scheme      calc
_refine_ls_wR_factor_gt          0.0465
_refine_ls_wR_factor_ref         0.0471
_reflns_Friedel_coverage         0.892
_reflns_Friedel_fraction_full    1.000
_reflns_Friedel_fraction_max     0.990
_reflns_number_gt                3852
_reflns_number_total             3946
_reflns_threshold_expression     'I > 2\s(I)'
_cod_data_source_file            np0c00921_si_004.cif
_cod_data_source_block           ra098
_cod_original_sg_symbol_H-M      'P 21'
_cod_database_code               1559434
_shelx_shelxl_version_number     2014/7
_shelx_space_group_comment
;
The symmetry employed for this shelxl refinement is uniquely defined
by the following loop, which should always be used as a source of
symmetry information in preference to the above space-group names.
They are only intended as comments.
;
_shelx_res_file
;

    ra098.res created by SHELXL-2014/7

TITL ra098_a.res in P2(1)
REM Old TITL ra098 in P21 #4
REM SHELXT solution in P2(1)
REM R1 0.055, Rweak 0.036, Alpha 0.001, Orientation as input
REM Flack x = -0.011 ( 0.043 ) from Parsons' quotients
REM Formula found by SHELXT: C9 N2 O Cl4
CELL 0.71073 5.8041 9.6514 12.3924 90 102.123 90
ZERR 2 0.0009 0.0014 0.0018 0 0.002 0
LATT -1
SYMM -X,0.5+Y,-Z
SFAC C H Cl N O S
UNIT 18 30 6 4 2 2
EQIV $1 1-X,0.5+Y,1-Z

L.S. 10 0 0
PLAN  20
TEMP -183(2)
HTAB N2 O1_$1
BOND $H
LIST 4
CONF
fmap 2 53
acta
REM <olex2.extras>
REM <HklSrc "%.\\ra098.hkl">
REM </olex2.extras>

WGHT    0.022100    0.104000
FVAR       0.37380
CL1   3    0.720776    0.648992    0.028954    11.00000    0.01653    0.01875 =
         0.02245    0.00439    0.00685    0.00079
CL2   3    0.270676    0.576428   -0.108021    11.00000    0.03012    0.02230 =
         0.01319    0.00029   -0.00139   -0.00134
CL3   3    0.292819    0.776860    0.066866    11.00000    0.02220    0.01186 =
         0.02141    0.00233    0.00695    0.00357
S1    6    0.696936    0.303971    0.494541    11.00000    0.01594    0.00710 =
         0.01311    0.00075    0.00184    0.00089
O1    5    0.516786    0.223176    0.540035    11.00000    0.02044    0.01116 =
         0.01951    0.00242    0.00259   -0.00488
N1    4    0.017302    0.348002    0.276296    11.00000    0.02088    0.02343 =
         0.02400    0.00038    0.00555   -0.00200
N2    4    0.578563    0.436287    0.417136    11.00000    0.01988    0.00765 =
         0.01232    0.00072    0.00105    0.00249
H2    2    0.524631    0.510749    0.444665    11.00000    0.02082
C1    1    0.215203    0.370893    0.288561    11.00000    0.02043    0.01141 =
         0.01446    0.00107    0.00383    0.00016
C2    1    0.470918    0.405793    0.302591    11.00000    0.01563    0.00968 =
         0.01330   -0.00035    0.00250    0.00036
H2A   2    0.547404    0.322601    0.279377    11.00000    0.01707
C3    1    0.503166    0.529216    0.228056    11.00000    0.01567    0.01032 =
         0.01268    0.00075    0.00185   -0.00125
AFIX  23
H3A   2    0.433731    0.613409    0.253962    11.00000   -1.20000
H3B   2    0.673486    0.546309    0.233763    11.00000   -1.20000
AFIX   0
C4    1    0.386304    0.501954    0.107714    11.00000    0.01767    0.01039 =
         0.01348   -0.00022    0.00218   -0.00200
AFIX  23
H4A   2    0.452756    0.415803    0.083360    11.00000   -1.20000
H4B   2    0.215734    0.486543    0.102659    11.00000   -1.20000
AFIX   0
C5    1    0.417278    0.618852    0.029179    11.00000    0.01506    0.01191 =
         0.01391   -0.00072    0.00158    0.00031
C6    1    0.864028    0.402987    0.613250    11.00000    0.01440    0.01011 =
         0.01304    0.00073    0.00091   -0.00045
C7    1    1.020571    0.509066    0.571882    11.00000    0.01857    0.01782 =
         0.01972    0.00282    0.00195   -0.00641
AFIX 137
H7A   2    1.109316    0.463337    0.522871    11.00000   -1.50000
H7B   2    1.130661    0.549434    0.634902    11.00000   -1.50000
H7C   2    0.922191    0.582499    0.531327    11.00000   -1.50000
AFIX   0
C8    1    0.693592    0.471168    0.676418    11.00000    0.01827    0.01481 =
         0.01601   -0.00170    0.00344    0.00127
AFIX 137
H8A   2    0.604210    0.544023    0.630761    11.00000   -1.50000
H8B   2    0.783076    0.511811    0.744992    11.00000   -1.50000
H8C   2    0.584523    0.401259    0.693886    11.00000   -1.50000
AFIX   0
C9    1    1.015576    0.291456    0.683179    11.00000    0.01780    0.01443 =
         0.01749    0.00194    0.00017    0.00166
AFIX 137
H9A   2    0.913356    0.218132    0.701439    11.00000   -1.50000
H9B   2    1.104583    0.333268    0.751366    11.00000   -1.50000
H9C   2    1.125399    0.251868    0.641312    11.00000   -1.50000
AFIX   0
HKLF 4

REM  ra098_a.res in P2(1)
REM R1 =  0.0191 for    3852 Fo > 4sig(Fo)  and  0.0201 for all    3946 data
REM    156 parameters refined using      1 restraints

END

WGHT      0.0221      0.1040

REM Highest difference peak  0.319,  deepest hole -0.209,  1-sigma level  0.044
Q1    1   0.6288  0.3743  0.4505  11.00000  0.05    0.32
Q2    1   0.7839  0.3467  0.5568  11.00000  0.05    0.30
Q3    1   0.4187  0.7860  0.0592  11.00000  0.05    0.29
Q4    1   0.8191  0.2993  0.4759  11.00000  0.05    0.29
Q5    1   0.5938  0.6479  0.0399  11.00000  0.05    0.28
Q6    1   0.5272  0.4189  0.3576  11.00000  0.05    0.27
Q7    1   0.9242  0.3444  0.6462  11.00000  0.05    0.27
Q8    1   0.4921  0.4683  0.2618  11.00000  0.05    0.25
Q9    1   0.4392  0.5150  0.1658  11.00000  0.05    0.25
Q10   1   0.3931  0.5788 -0.1219  11.00000  0.05    0.25
Q11   1   0.5826  0.2979  0.5212  11.00000  0.05    0.23
Q12   1   0.6785  0.7071 -0.0258  11.00000  0.05    0.23
Q13   1   0.6697  0.6744 -0.0391  11.00000  0.05    0.23
Q14   1   0.7779  0.6550  0.1034  11.00000  0.05    0.22
Q15   1   0.3802  0.5565  0.0655  11.00000  0.05    0.22
Q16   1   0.1471  0.5803 -0.0948  11.00000  0.05    0.22
Q17   1   0.3374  0.5874 -0.0370  11.00000  0.05    0.21
Q18   1   0.3669  0.8275  0.1153  11.00000  0.05    0.21
Q19   1   0.1688  0.7767  0.0815  11.00000  0.05    0.20
Q20   1   0.6798  0.5887 -0.0200  11.00000  0.05    0.20
;
_shelx_res_checksum              80034
_shelx_hkl_file
;
   1   0   0  368.61   13.59
   1   0   0  429.11   13.67
   1   0   0  432.63   13.67
  -1   0   0  422.11   13.61
  -1   0   0  402.28   13.63
   2   0   0  153.56    5.72
  -2   0   0  171.52    5.75
  -2   0   0  171.66    5.75
   2   0   0  179.01    5.75
   2   0   0  176.60    5.74
   3   0   0  209.22    7.43
  -3   0   0  215.73    7.46
   3   0   0  234.74    7.45
  -3   0   0  221.82    7.45
   3   0   0  222.85    7.43
   4   0   0  293.01   10.02
  -4   0   0  294.47   10.10
   4   0   0  317.36   10.06
  -4   0   0  292.40   10.05
   4   0   0  294.86   10.06
  -5   0   0  151.22    5.55
  -5   0   0  149.65    5.48
   5   0   0  157.26    5.45
   5   0   0  165.22    5.51
   5   0   0  166.08    5.49
   6   0   0   -0.33    0.34
   6   0   0    0.22    0.37
  -6   0   0   -0.01    0.47
   6   0   0    0.69    0.44
  -7   0   0  106.04    4.10
   7   0   0  102.22    3.88
   7   0   0  112.98    4.05
   0  -1   0    0.11    0.08
   0  -1   0   -0.02    0.08
   0  -1   0   -0.05    0.07
   0   1   0   -0.03    0.08
   0   1   0    0.13    0.07
  -1  -1   0  300.24    9.95
   1  -1   0  301.21    9.93
  -1  -1   0  300.53    9.95
   1  -1   0  294.76    9.93
   1  -1   0  272.36    9.94
  -1  -1   0  294.53    9.94
   1   1   0  306.63    9.94
  -1   1   0  301.58    9.93
  -1   1   0  315.86    9.94
   1   1   0  324.32    9.95
   1   1   0  283.35    9.94
   2  -1   0  175.40    5.71
   2  -1   0  156.29    5.70
   2  -1   0  166.21    5.69
  -2  -1   0  168.03    5.72
  -2  -1   0  171.82    5.74
   2   1   0  180.12    5.72
   2   1   0  171.91    5.71
  -2   1   0  171.64    5.71
   2   1   0  164.32    5.72
  -2   1   0  174.03    5.72
   3  -1   0   12.76    0.62
  -3  -1   0   13.13    0.67
  -3  -1   0   12.40    0.69
   3  -1   0   13.15    0.62
   3  -1   0   12.32    0.64
  -3   1   0   13.38    0.65
   3   1   0   13.36    0.66
   3   1   0   14.34    0.66
  -3   1   0   13.83    0.69
   3   1   0   13.58    0.63
   4  -1   0   45.44    1.68
  -4  -1   0   42.47    1.75
  -4  -1   0   45.54    1.74
   4  -1   0   46.78    1.72
   4  -1   0   42.92    1.66
  -4   1   0   41.96    1.69
   4   1   0   42.85    1.71
   4   1   0   47.12    1.72
   4   1   0   45.31    1.70
  -4   1   0   43.57    1.75
   5  -1   0   10.84    0.70
   5  -1   0   12.50    0.80
  -5  -1   0   11.71    0.82
   5  -1   0   10.84    0.68
  -5  -1   0   11.39    0.84
  -5   1   0   10.38    0.82
   5   1   0   12.37    0.76
  -5   1   0   11.01    0.76
   5   1   0   11.84    0.74
   5   1   0   12.13    0.80
   6  -1   0   66.89    2.57
   6  -1   0   70.82    2.69
  -6  -1   0   62.19    2.72
  -6   1   0   65.12    2.72
   6   1   0   74.37    2.64
   6   1   0   72.46    2.69
   6   1   0   68.80    2.59
   7  -1   0    5.47    0.80
  -7  -1   0    3.89    0.75
   7  -1   0    3.85    0.64
   7   1   0    3.09    0.66
  -7   1   0    3.02    0.68
   7   1   0    3.54    0.59
   0  -2   0   24.60    0.95
   0  -2   0   24.82    0.95
   0  -2   0   23.70    0.94
   0   2   0   28.58    0.94
   0   2   0   28.01    0.95
   1  -2   0   54.71    1.99
   1  -2   0   55.78    2.01
   1  -2   0   57.39    1.99
  -1  -2   0   60.51    2.03
  -1  -2   0   59.96    2.04
  -1  -2   0   58.89    2.03
   1   2   0   59.46    2.01
  -1   2   0   55.35    2.00
  -1   2   0   62.88    2.02
   1   2   0   57.60    2.03
   1   2   0   59.28    2.02
  -2  -2   0  140.45    4.77
   2  -2   0  133.62    4.73
   2  -2   0  135.98    4.71
   2  -2   0  140.26    4.72
  -2  -2   0  141.47    4.78
  -2  -2   0  140.80    4.75
   2   2   0  149.04    4.76
   2   2   0  138.49    4.74
   2   2   0  134.76    4.76
  -2   2   0  145.50    4.76
  -2   2   0  143.74    4.73
   3  -2   0   48.77    1.76
   3  -2   0   46.11    1.79
  -3  -2   0   49.89    1.82
   3  -2   0   50.76    1.77
  -3  -2   0   47.91    1.84
  -3   2   0   49.20    1.82
   3   2   0   50.33    1.81
   3   2   0   48.53    1.78
   3   2   0   48.18    1.81
  -3   2   0   50.05    1.79
  -4  -2   0   37.08    1.51
   4  -2   0   35.23    1.43
   4  -2   0   37.92    1.50
   4  -2   0   39.35    1.44
  -4  -2   0   36.71    1.54
   4   2   0   39.74    1.50
   4   2   0   37.16    1.50
  -4   2   0   38.34    1.52
  -4   2   0   34.77    1.45
   4   2   0   37.03    1.46
   5  -2   0   57.58    2.21
   5  -2   0   58.29    2.12
  -5  -2   0   53.65    2.25
   5  -2   0   55.71    2.12
  -5  -2   0   57.32    2.22
   5   2   0   59.19    2.21
   5   2   0   59.31    2.19
   5   2   0   53.87    2.15
  -5   2   0   54.01    2.22
  -6  -2   0   35.43    1.71
   6  -2   0   33.90    1.50
   6  -2   0   36.80    1.66
   6   2   0   34.11    1.64
  -6   2   0   36.73    1.69
   6   2   0   41.01    1.62
   6   2   0   36.10    1.56
   7  -2   0   11.91    1.03
  -7  -2   0   11.62    1.09
   7   2   0   13.12    1.03
  -7   2   0   13.42    1.10
   7   2   0   12.70    0.91
   0  -3   0   -0.16    0.17
   0  -3   0    0.07    0.21
   0  -3   0   -0.33    0.18
   0  -3   0   -0.25    0.16
   0   3   0   -0.12    0.14
   0   3   0   -0.43    0.18
  -1  -3   0  280.62    9.37
   1  -3   0  275.40    9.33
   1  -3   0  271.04    9.34
  -1  -3   0  283.66    9.35
  -1  -3   0  282.50    9.37
   1  -3   0  268.07    9.32
   1   3   0  283.60    9.35
   1   3   0  281.14    9.36
  -1   3   0  274.98    9.34
  -1   3   0  300.26    9.35
   1   3   0  282.54    9.35
   2  -3   0   66.97    2.26
  -2  -3   0   64.22    2.31
  -2  -3   0   64.29    2.32
  -2  -3   0   65.07    2.30
   2  -3   0   63.02    2.26
   2  -3   0   63.44    2.28
   2   3   0   64.74    2.31
  -2   3   0   68.01    2.30
   2   3   0   64.88    2.28
  -2   3   0   63.92    2.27
   2   3   0   68.37    2.30
   3  -3   0  133.02    4.43
   3  -3   0  115.38    4.41
  -3  -3   0  132.86    4.49
   3  -3   0  130.09    4.47
  -3  -3   0  135.85    4.52
   3   3   0  133.12    4.48
   3   3   0  130.95    4.49
  -3   3   0  132.62    4.49
  -3   3   0  122.97    4.43
   3   3   0  134.18    4.46
   4  -3   0  137.39    4.77
  -4  -3   0  131.82    4.82
   4  -3   0  142.79    4.71
  -4  -3   0  133.85    4.79
   4   3   0  135.94    4.79
   4   3   0  138.18    4.75
  -4   3   0  136.72    4.73
   4   3   0  141.84    4.78
  -4   3   0  136.72    4.80
  -5  -3   0    0.33    0.36
   5  -3   0    0.75    0.39
  -5  -3   0    1.05    0.45
   5  -3   0    0.46    0.32
  -5   3   0   -0.14    0.38
   5   3   0    0.29    0.31
   5   3   0    0.51    0.32
   5   3   0    0.37    0.37
  -6  -3   0   59.10    2.39
   6  -3   0   56.68    2.29
  -6  -3   0   51.17    2.32
   6  -3   0   53.14    2.12
   6   3   0   53.08    2.19
   6   3   0   57.71    2.28
  -6   3   0   54.27    2.31
   6   3   0   60.25    2.25
   7  -3   0   15.15    1.14
  -7  -3   0   15.05    1.19
   7   3   0   15.07    1.11
   7   3   0   14.81    0.99
  -7   3   0   14.75    1.15
   0  -4   0  189.39    6.32
   0  -4   0  193.00    6.30
   0  -4   0  184.07    6.30
   0   4   0  187.49    6.30
   0   4   0  183.35    6.30
   1  -4   0   33.81    1.32
  -1  -4   0   35.61    1.32
  -1  -4   0   35.52    1.35
   1  -4   0   34.13    1.28
   1  -4   0   36.13    1.30
  -1  -4   0   37.03    1.34
   1   4   0   33.57    1.31
  -1   4   0   34.45    1.31
  -1   4   0   36.79    1.32
   1   4   0   36.62    1.34
  -2  -4   0  117.15    4.03
  -2  -4   0  116.67    4.04
  -2  -4   0  116.99    4.05
   2  -4   0  113.64    4.01
   2  -4   0  114.13    3.98
   2  -4   0  109.62    3.97
   2   4   0  119.12    4.04
  -2   4   0  118.29    3.99
   2   4   0  117.09    4.01
   2   4   0  119.29    4.02
  -2   4   0  125.63    4.03
   3  -4   0  146.00    5.02
  -3  -4   0  152.01    5.09
   3  -4   0  139.30    5.01
   3  -4   0  146.65    5.07
  -3  -4   0  146.78    5.12
  -3  -4   0  154.14    5.11
  -3   4   0  151.39    5.09
   3   4   0  147.38    5.10
  -3   4   0  145.21    5.04
   3   4   0  151.59    5.09
   3   4   0  146.56    5.06
   4  -4   0   33.11    1.37
  -4  -4   0   32.89    1.37
   4  -4   0   31.65    1.27
  -4  -4   0   31.30    1.41
   4   4   0   32.11    1.34
  -4   4   0   29.91    1.28
  -4   4   0   31.28    1.38
   4   4   0   33.30    1.38
   4   4   0   31.85    1.31
  -5  -4   0   23.80    1.25
  -5  -4   0   25.30    1.22
   5  -4   0   23.15    1.21
   5   4   0   23.33    1.15
   5   4   0   24.59    1.20
   5   4   0   24.00    1.12
  -5   4   0   24.34    1.23
   6  -4   0   22.70    1.29
  -6  -4   0   21.25    1.24
  -6  -4   0   19.44    1.27
  -6   4   0   23.97    1.30
   6   4   0   23.63    1.24
   6   4   0   21.69    1.13
   6   4   0   21.74    1.17
  -7  -4   0    8.32    0.99
   7  -4   0    8.91    1.00
  -7   4   0   10.51    1.01
   7   4   0    9.07    0.80
   7   4   0    8.17    1.01
   7   4   0    9.91    0.96
   0  -5   0    0.27    0.22
   0  -5   0   -0.08    0.22
   0  -5   0    0.03    0.25
   0   5   0    0.06    0.20
   0   5   0    0.21    0.21
   1  -5   0  576.83   19.28
  -1  -5   0  580.15   19.30
   1  -5   0  569.84   19.27
   1  -5   0  578.71   19.30
  -1  -5   0  585.64   19.31
  -1  -5   0  582.19   19.33
   1   5   0  577.03   19.31
   1   5   0  583.95   19.30
  -1   5   0  571.26   19.28
  -1   5   0  600.45   19.30
   2  -5   0  115.49    4.14
  -2  -5   0  118.90    4.17
  -2  -5   0  118.93    4.17
  -2  -5   0  120.49    4.14
   2  -5   0  120.53    4.10
   2   5   0  120.86    4.13
   2   5   0  120.33    4.14
   2   5   0  119.91    4.16
  -2   5   0  124.55    4.15
  -2   5   0  118.13    4.11
  -3  -5   0  240.53    8.15
  -3  -5   0  239.43    8.19
   3  -5   0  231.02    8.14
  -3  -5   0  244.70    8.18
  -3   5   0  242.89    8.16
   3   5   0  240.77    8.13
  -3   5   0  232.73    8.09
   3   5   0  249.28    8.16
   3   5   0  241.28    8.17
  -4  -5   0  101.00    3.71
   4  -5   0  102.19    3.66
  -4  -5   0  103.05    3.67
   4   5   0  101.50    3.64
   4   5   0  101.50    3.66
  -4   5   0  101.25    3.66
   4   5   0  101.92    3.61
  -5  -5   0   36.87    1.69
   5  -5   0   37.67    1.66
  -5  -5   0   39.55    1.67
  -5   5   0   37.26    1.66
   5   5   0   38.73    1.61
   5   5   0   35.48    1.56
   5   5   0   37.75    1.65
   6  -5   0   80.41    3.15
  -6  -5   0   82.25    3.16
  -6  -5   0   75.34    3.18
   6   5   0   82.36    3.11
  -6   5   0   79.49    3.16
   6   5   0   80.12    3.05
   6   5   0   84.52    3.13
  -7  -5   0    3.93    0.76
   7  -5   0    2.69    0.71
  -7   5   0    4.03    0.75
   7   5   0    2.80    0.59
   7   5   0    4.29    0.67
   7   5   0    3.23    0.65
   0  -6   0  113.18    3.97
   0  -6   0  112.60    3.93
   0  -6   0  113.83    3.94
   0   6   0  114.83    3.94
   0   6   0  115.88    3.95
   1  -6   0   27.84    1.15
   1  -6   0   30.21    1.16
  -1  -6   0   28.89    1.18
   1  -6   0   27.46    1.19
  -1  -6   0   31.12    1.23
  -1  -6   0   29.16    1.19
   1  -6   0   28.46    1.15
  -1   6   0   31.00    1.19
   1   6   0   29.61    1.17
  -1   6   0   27.77    1.16
   1   6   0   28.58    1.20
  -2  -6   0  136.20    4.79
  -2  -6   0  137.42    4.79
  -2  -6   0  136.08    4.76
   2  -6   0  135.85    4.77
   2  -6   0  132.07    4.71
   2  -6   0  139.61    4.72
  -2   6   0  143.02    4.77
   2   6   0  138.16    4.78
   2   6   0  139.28    4.75
   2   6   0  138.35    4.76
  -2   6   0  141.16    4.74
  -3  -6   0  197.78    6.68
   3  -6   0  183.65    6.59
  -3  -6   0  199.35    6.72
  -3  -6   0  190.59    6.70
   3  -6   0  191.52    6.68
  -3   6   0  198.08    6.63
  -3   6   0  201.38    6.69
   3   6   0  194.39    6.69
   3   6   0  198.12    6.67
   3   6   0  192.66    6.64
  -4  -6   0    0.85    0.40
   4  -6   0    0.42    0.38
  -4  -6   0    0.49    0.40
  -4   6   0    0.50    0.35
   4   6   0    1.19    0.35
   4   6   0    0.37    0.38
   4   6   0    0.65    0.32
  -5  -6   0   35.23    1.65
  -5  -6   0   34.43    1.60
   5  -6   0   36.11    1.62
   5   6   0   36.29    1.57
   5   6   0   33.21    1.50
  -5   6   0   33.50    1.60
   5   6   0   37.54    1.62
  -6  -6   0    3.89    0.67
   6  -6   0    4.58    0.74
  -6  -6   0    4.96    0.84
   6   6   0    4.98    0.69
   6   6   0    5.02    0.80
   6   6   0    5.88    0.72
  -6   6   0    5.28    0.83
   7  -6   0   51.39    2.26
  -7  -6   0   47.74    2.27
   7   6   0   48.59    2.14
   7   6   0   42.82    2.04
  -7   6   0   46.60    2.21
   7   6   0   49.83    2.19
   0  -7   0    0.64    0.33
   0  -7   0   -0.10    0.26
   0  -7   0   -0.10    0.24
   0   7   0   -0.02    0.24
   0   7   0    0.02    0.26
  -1  -7   0    4.48    0.51
   1  -7   0    3.40    0.44
   1  -7   0    4.06    0.50
  -1  -7   0    4.07    0.50
   1  -7   0    2.94    0.41
  -1  -7   0    4.58    0.48
   1   7   0    3.91    0.43
  -1   7   0    4.87    0.48
   1   7   0    4.20    0.49
  -1   7   0    3.56    0.44
  -2  -7   0   12.00    0.74
   2  -7   0   13.09    0.76
   2  -7   0   11.62    0.68
   2  -7   0   11.14    0.66
  -2  -7   0   12.50    0.72
  -2  -7   0   12.83    0.77
  -2   7   0   11.97    0.71
   2   7   0   12.64    0.69
  -2   7   0   11.87    0.68
   2   7   0   12.29    0.70
   2   7   0   10.88    0.73
  -3  -7   0   19.53    0.99
   3  -7   0   20.29    0.92
   3  -7   0   19.47    1.02
  -3  -7   0   18.97    1.02
  -3  -7   0   19.76    1.03
   3   7   0   18.16    0.99
  -3   7   0   20.11    1.01
   3   7   0   20.02    0.97
   3   7   0   18.36    0.95
  -4  -7   0    2.50    0.49
  -4  -7   0    1.71    0.48
   4  -7   0    1.28    0.45
   4   7   0    3.15    0.52
   4   7   0    1.73    0.40
  -4   7   0    3.20    0.50
   4   7   0    2.79    0.49
   5  -7   0   12.91    1.00
  -5  -7   0   13.97    1.03
   5  -7   0   13.91    1.03
  -5  -7   0   16.14    1.03
  -5   7   0   14.04    0.99
   5   7   0   12.65    0.88
   5   7   0   16.34    1.02
   5   7   0   14.54    0.92
   6  -7   0    1.80    0.63
  -6  -7   0    2.22    0.62
  -6  -7   0    2.40    0.64
   6   7   0    2.70    0.54
   6   7   0    2.15    0.53
   6   7   0    2.00    0.57
  -6   7   0    1.66    0.56
   0  -8   0   89.88    3.34
   0  -8   0   89.23    3.28
   0  -8   0   94.70    3.30
   0   8   0   96.00    3.32
   0   8   0   91.94    3.30
   1  -8   0    6.10    0.54
   1  -8   0    7.27    0.66
  -1  -8   0    6.27    0.58
  -1  -8   0    6.36    0.63
  -1  -8   0    6.09    0.59
   1  -8   0    5.26    0.53
   1   8   0    6.15    0.61
   1   8   0    6.69    0.54
  -1   8   0    6.05    0.56
  -1   8   0    7.01    0.57
  -2  -8   0   42.27    1.70
   2  -8   0   41.70    1.71
  -2  -8   0   42.02    1.72
   2  -8   0   39.48    1.59
   2  -8   0   39.43    1.60
  -2  -8   0   41.29    1.66
   2   8   0   40.11    1.68
   2   8   0   42.74    1.67
  -2   8   0   41.08    1.67
   2   8   0   42.35    1.66
  -3  -8   0   24.34    1.19
   3  -8   0   24.91    1.25
  -3  -8   0   25.06    1.25
  -3  -8   0   26.17    1.26
   3   8   0   24.63    1.18
   3   8   0   26.47    1.18
  -3   8   0   26.35    1.22
   3   8   0   25.09    1.22
  -4  -8   0    7.60    0.78
  -4  -8   0    6.55    0.76
   4  -8   0    7.39    0.79
   4   8   0    7.13    0.63
   4   8   0    6.58    0.71
  -4   8   0    6.60    0.74
   4   8   0    6.03    0.66
  -5  -8   0   47.11    2.08
  -5  -8   0   47.49    2.04
   5  -8   0   46.60    2.07
   5   8   0   46.17    2.01
   5   8   0   45.16    1.93
   5   8   0   45.64    1.96
  -5   8   0   45.60    2.01
  -6  -8   0    1.73    0.62
  -6  -8   0    1.95    0.64
   6  -8   0    2.60    0.72
   6   8   0    1.99    0.54
   6   8   0    1.48    0.56
  -6   8   0    2.06    0.60
   6   8   0    3.04    0.58
   0  -9   0    0.17    0.34
   0  -9   0    0.46    0.31
   0  -9   0   -0.11    0.38
   0   9   0   -0.14    0.31
   0   9   0   -0.01    0.32
   1  -9   0  135.83    4.83
  -1  -9   0  137.88    4.94
   1  -9   0  136.04    4.94
  -1  -9   0  138.32    4.87
   1  -9   0  137.67    4.84
  -1  -9   0  140.42    4.90
   1   9   0  141.28    4.89
   1   9   0  141.45    4.90
  -1   9   0  142.85    4.90
   2  -9   0   11.10    0.84
  -2  -9   0   12.16    0.82
  -2  -9   0    9.57    0.76
  -2  -9   0   10.87    0.84
   2  -9   0   10.15    0.73
   2   9   0   11.36    0.75
   2   9   0   12.64    0.78
  -2   9   0   12.33    0.80
   2   9   0   11.35    0.80
   3  -9   0   77.89    2.96
  -3  -9   0   79.09    2.96
  -3  -9   0   79.96    2.96
  -3  -9   0   72.80    2.88
   3   9   0   76.74    2.92
   3   9   0   73.19    2.88
   3   9   0   78.70    2.88
  -3   9   0   75.54    2.90
   4  -9   0   50.20    2.11
  -4  -9   0   50.09    2.09
  -4  -9   0   47.97    2.10
   4   9   0   49.57    2.06
   4   9   0   47.88    1.99
   4   9   0   45.87    2.00
  -4   9   0   48.18    2.05
  -5  -9   0    8.97    0.90
  -5  -9   0    6.95    0.91
   5  -9   0    7.74    1.01
   5   9   0    7.21    0.77
  -5   9   0    8.46    0.89
   5   9   0    8.22    0.86
   5   9   0    7.27    0.77
   0 -10   0   25.07    1.22
   0 -10   0   26.04    1.33
   0 -10   0   24.61    1.20
   0  10   0   27.13    1.24
   1 -10   0    9.14    0.85
  -1 -10   0   10.51    0.78
   1 -10   0    9.00    0.70
   1 -10   0    9.18    0.79
  -1 -10   0    8.54    0.74
  -1 -10   0    8.89    0.82
   1  10   0   10.43    0.81
  -1  10   0    9.92    0.78
   1  10   0    9.68    0.73
  -2 -10   0  107.92    3.80
  -2 -10   0  105.43    3.83
  -2 -10   0   99.81    3.73
   2 -10   0   99.72    3.67
   2 -10   0   94.54    3.81
   2  10   0  104.84    3.75
  -2  10   0  105.18    3.78
   2  10   0  105.49    3.79
   2  10   0  102.47    3.76
  -3 -10   0   28.76    1.43
   3 -10   0   26.61    1.46
  -3 -10   0   29.33    1.39
  -3 -10   0   28.80    1.45
   3  10   0   29.26    1.36
   3  10   0   29.44    1.42
   3  10   0   28.33    1.36
  -3  10   0   26.57    1.39
  -4 -10   0   10.53    0.93
   4 -10   0    9.24    1.01
  -4 -10   0   11.56    0.96
   4  10   0    9.81    0.81
  -4  10   0    8.99    0.86
   4  10   0    8.72    0.89
   4  10   0   10.09    0.83
  -5 -10   0    5.85    0.88
   5 -10   0    5.71    1.02
  -5 -10   0    6.77    0.94
   5  10   0    7.80    0.81
   5  10   0    7.49    0.90
  -5  10   0    7.69    0.90
   5  10   0    6.77    0.81
   0 -11   0   -0.12    0.39
   0 -11   0    0.27    0.50
   0 -11   0   -0.40    0.48
   0  11   0   -0.39    0.35
   1 -11   0   44.00    1.96
  -1 -11   0   43.62    1.94
  -1 -11   0   42.35    1.83
   1 -11   0   40.84    1.79
  -1 -11   0   47.01    1.88
   1  11   0   46.14    1.87
   1  11   0   44.36    1.87
  -1  11   0   43.97    1.89
   2 -11   0   21.87    1.13
  -2 -11   0   24.58    1.27
  -2 -11   0   23.50    1.23
   2 -11   0   22.56    1.35
  -2 -11   0   23.13    1.31
  -2  11   0   24.19    1.26
   2  11   0   23.57    1.22
   2  11   0   23.65    1.23
  -3 -11   0    8.54    0.88
  -3 -11   0   12.58    0.98
   3 -11   0   10.29    1.00
  -3 -11   0   10.00    0.98
   3  11   0   12.18    0.88
   3  11   0   11.00    0.88
  -3  11   0   10.66    0.93
   3  11   0   12.99    0.98
  -4 -11   0   30.26    1.61
   4 -11   0   30.96    1.69
  -4 -11   0   31.81    1.63
   4  11   0   29.59    1.50
   4  11   0   31.32    1.53
  -4  11   0   28.78    1.55
   4  11   0   32.48    1.60
   0 -12   0   14.83    1.10
   0 -12   0   13.93    0.96
   0  12   0   16.48    1.01
   1 -12   0    3.96    0.59
  -1 -12   0    4.25    0.69
   1 -12   0    4.80    0.85
  -1 -12   0    4.43    0.71
   1  12   0    4.43    0.64
  -1  12   0    3.26    0.59
   1  12   0    3.18    0.56
  -2 -12   0   20.25    1.28
  -2 -12   0   20.11    1.19
   2 -12   0   19.69    1.30
  -2 -12   0   18.52    1.14
  -2  12   0   17.98    1.17
   2  12   0   21.00    1.18
   2  12   0   19.87    1.16
  -3 -12   0    2.81    0.68
  -3 -12   0    3.56    0.69
   3 -12   0    2.22    0.73
  -3 -12   0    2.72    0.65
  -3  12   0    1.65    0.54
   3  12   0    1.91    0.56
   3  12   0    2.42    0.54
   0 -13   0   -0.83    0.43
   0 -13   0   -0.13    0.54
   0  13   0   -0.36    0.40
   1 -13   0    1.23    0.50
  -1 -13   0    1.10    0.55
  -1 -13   0    1.90    0.64
   1 -13   0    1.50    0.63
   1  13   0    1.50    0.55
  -1  13   0    2.04    0.57
   1  13   0    1.68    0.54
  -2 -13   0    9.83    1.04
  -2 -13   0   10.49    0.94
   2 -13   0   11.22    1.12
   2  13   0   10.29    0.94
   2  13   0   11.60    0.95
  -2  13   0    9.23    0.98
  -8   0   1    0.52    0.65
   8   0  -1   -0.73    0.41
   8   0  -1    0.61    0.62
   7   0  -1   30.78    1.45
  -7   0   1   31.94    1.63
   7   0  -1   29.64    1.57
  -6   0   1   50.56    2.22
   6   0  -1   53.26    2.11
   6   0  -1   52.66    2.09
   6   0  -1   55.51    2.19
   5   0  -1   25.97    1.15
  -5   0   1   22.23    1.20
   5   0  -1   24.09    1.17
   5   0  -1   24.97    1.12
  -5   0   1   23.72    1.16
   4   0  -1    9.31    0.59
  -4   0   1    8.87    0.63
  -4   0   1    8.43    0.65
   4   0  -1    9.19    0.61
   4   0  -1    9.72    0.62
   3   0  -1  111.82    3.70
   3   0  -1  107.64    3.68
  -3   0   1  105.35    3.70
  -3   0   1  104.17    3.72
   3   0  -1  105.03    3.69
  -2   0   1  657.62   21.48
   2   0  -1  668.43   21.48
   2   0  -1  596.74   21.45
  -2   0   1  642.52   21.48
   2   0  -1  674.77   21.54
  -1   0   1    0.84    0.23
   1   0  -1    1.20    0.21
   1   0  -1    0.82    0.21
   1   0  -1    0.62    0.20
  -1   0   1    0.62    0.22
   1   0   1  133.24    4.46
   1   0   1  130.91    4.43
  -1   0  -1  133.16    4.43
  -1   0  -1  129.87    4.44
  -1   0  -1  136.57    4.44
  -2   0  -1  479.96   15.81
   2   0   1  465.75   15.83
   2   0   1  507.40   15.80
   2   0   1  479.38   15.80
   2   0   1  446.64   15.80
  -2   0  -1  479.87   15.82
   3   0   1   17.28    0.72
   3   0   1   16.39    0.71
  -3   0  -1   15.69    0.73
  -3   0  -1   15.29    0.75
   3   0   1   15.10    0.72
   4   0   1   40.40    1.49
   4   0   1   37.61    1.46
  -4   0  -1   38.29    1.56
   4   0   1   38.16    1.51
  -4   0  -1   37.27    1.50
   5   0   1    0.49    0.30
   5   0   1    0.82    0.37
  -5   0  -1    0.89    0.38
  -5   0  -1    1.13    0.43
   5   0   1    0.66    0.33
  -6   0  -1   46.67    2.05
   6   0   1   49.17    1.99
   6   0   1   46.12    1.87
  -7   0  -1    2.11    0.64
   7   0   1    3.17    0.64
  -8  -1   1   -0.10    0.62
   8  -1  -1    0.18    0.59
   8  -1  -1   -0.29    0.43
   8   1  -1   -0.16    0.47
  -8   1   1    0.07    0.59
   8   1  -1    0.29    0.55
   7  -1  -1    9.21    0.97
  -7  -1   1    8.19    0.99
   7  -1  -1    8.43    0.78
   7   1  -1    7.90    0.80
   7   1  -1    8.88    0.94
  -7   1   1    8.81    1.00
   6  -1  -1    8.60    0.72
  -6  -1   1    8.66    0.83
  -6  -1   1    8.88    0.88
   6  -1  -1    9.14    0.83
   6  -1  -1    9.15    0.73
  -6   1   1    9.52    0.87
   6   1  -1    9.07    0.78
   6   1  -1    9.39    0.74
   6   1  -1    8.75    0.80
  -5  -1   1   16.62    0.99
   5  -1  -1   19.08    0.97
  -5  -1   1   16.27    1.02
   5  -1  -1   17.61    0.91
   5  -1  -1   17.88    0.91
   5   1  -1   18.96    0.93
   5   1  -1   18.39    0.99
  -5   1   1   17.00    0.96
   5   1  -1   16.39    0.94
  -5   1   1   15.93    0.99
   4  -1  -1    7.50    0.54
  -4  -1   1    8.09    0.59
   4  -1  -1    8.36    0.55
  -4  -1   1    7.77    0.63
   4  -1  -1    7.70    0.57
   4   1  -1    8.24    0.54
  -4   1   1    7.31    0.57
   4   1  -1    7.11    0.55
  -4   1   1    7.04    0.60
   4   1  -1    7.50    0.58
   3  -1  -1   69.79    2.46
  -3  -1   1   68.75    2.50
  -3  -1   1   71.06    2.52
   3  -1  -1   66.21    2.47
   3  -1  -1   74.30    2.49
   3   1  -1   71.66    2.47
   3   1  -1   73.65    2.51
  -3   1   1   70.52    2.51
  -3   1   1   67.67    2.49
   3   1  -1   65.99    2.47
   2  -1  -1  390.15   12.51
  -2  -1   1  375.47   12.52
   2  -1  -1  376.08   12.49
   2  -1  -1  343.77   12.49
  -2  -1   1  369.48   12.51
  -2   1   1  372.29   12.51
   2   1  -1  358.25   12.50
   2   1  -1  386.68   12.50
  -2   1   1  378.66   12.51
   2   1  -1  406.38   12.52
   1  -1  -1  506.98   16.61
   1  -1  -1  509.74   16.51
  -1  -1   1  483.58   16.57
  -1  -1   1  507.22   16.52
   1  -1  -1  451.76   16.54
   1   1  -1  530.32   16.57
  -1   1   1  505.22   16.59
  -1   1   1  526.81   16.52
   1   1  -1  501.99   16.56
   1   1  -1  462.41   16.53
   0  -1  -1   20.65    0.73
   0  -1  -1   19.57    0.74
   0  -1  -1   20.59    0.74
   0   1   1   19.60    0.73
   0   1   1   19.61    0.74
  -1  -1  -1   20.71    0.81
  -1  -1  -1   20.56    0.80
  -1  -1  -1   21.07    0.80
   1  -1   1   20.76    0.83
   1   1   1   21.29    0.78
   1   1   1   20.77    0.81
   1   1   1   22.83    0.79
   2  -1   1   17.15    0.74
  -2  -1  -1   18.51    0.79
  -2  -1  -1   18.92    0.78
  -2  -1  -1   18.54    0.79
  -2   1  -1   18.41    0.75
   2   1   1   21.07    0.77
   2   1   1   18.43    0.78
   2   1   1   19.71    0.76
  -2   1  -1   20.06    0.78
   3  -1   1   13.11    0.62
   3  -1   1   13.37    0.65
  -3  -1  -1   13.96    0.68
  -3  -1  -1   14.05    0.71
   3  -1   1   13.19    0.60
   3   1   1   14.01    0.64
  -3   1  -1   13.64    0.64
   3   1   1   13.67    0.65
   3   1   1   13.28    0.67
  -3   1  -1   14.56    0.69
   4  -1   1   11.74    0.68
   4  -1   1   11.16    0.60
  -4  -1  -1   11.01    0.73
   4  -1   1   11.29    0.63
  -4  -1  -1   11.58    0.69
   4   1   1   12.37    0.65
  -4   1  -1   12.03    0.72
   4   1   1   12.22    0.71
   4   1   1   12.35    0.66
  -4   1  -1   11.68    0.67
  -5  -1  -1    5.79    0.64
   5  -1   1    6.12    0.53
  -5  -1  -1    6.82    0.70
   5  -1   1    6.84    0.64
   5   1   1    7.02    0.59
   5   1   1    6.47    0.63
  -5   1  -1    6.37    0.67
   5   1   1    5.83    0.57
   6  -1   1   17.50    1.03
  -6  -1  -1   14.07    1.06
  -6   1  -1   16.28    1.08
   6   1   1   16.70    0.92
   6   1   1   18.00    1.04
   6   1   1   12.29    1.13
  -7  -1  -1   15.08    1.19
   7  -1   1   15.92    1.14
   7   1   1   16.29    0.97
  -7   1  -1   15.31    1.16
   7   1   1   16.42    1.12
  -7  -2   1   30.22    1.79
   7  -2  -1   38.12    1.80
   7  -2  -1   37.14    1.64
  -7   2   1   41.93    1.88
   7   2  -1   37.58    1.79
   7   2  -1   37.37    1.70
   7   2  -1   35.35    1.65
  -6  -2   1    7.12    0.82
   6  -2  -1    7.50    0.70
   6  -2  -1    6.73    0.78
  -6  -2   1    8.40    0.86
   6  -2  -1    7.42    0.70
  -6   2   1    7.11    0.82
   6   2  -1    8.13    0.73
   6   2  -1    8.69    0.83
   6   2  -1    7.34    0.71
   5  -2  -1   51.42    2.11
   5  -2  -1   58.32    2.19
  -5  -2   1   53.42    2.24
   5  -2  -1   59.42    2.13
  -5  -2   1   56.18    2.21
  -5   2   1   53.32    2.21
  -5   2   1   53.15    2.15
   5   2  -1   58.33    2.19
   5   2  -1   59.22    2.20
   5   2  -1   56.28    2.15
   4  -2  -1    9.65    0.61
  -4  -2   1    9.91    0.69
  -4  -2   1   10.12    0.66
   4  -2  -1    9.63    0.59
   4  -2  -1    9.74    0.65
  -4   2   1    9.53    0.67
  -4   2   1    9.47    0.62
   4   2  -1   10.21    0.61
   4   2  -1   10.51    0.66
   4   2  -1    9.48    0.62
   3  -2  -1  161.34    5.29
   3  -2  -1  152.12    5.30
   3  -2  -1  152.16    5.28
  -3  -2   1  155.71    5.34
  -3  -2   1  159.05    5.32
  -3   2   1  151.54    5.32
   3   2  -1  155.83    5.29
   3   2  -1  162.36    5.32
  -3   2   1  148.73    5.29
   3   2  -1  156.33    5.31
   2  -2  -1  220.26    7.20
   2  -2  -1  216.25    7.18
   2  -2  -1  204.41    7.20
  -2  -2   1  218.81    7.23
  -2  -2   1  210.18    7.21
   2   2  -1  204.57    7.21
   2   2  -1  226.53    7.21
  -2   2   1  212.98    7.20
  -2   2   1  221.32    7.22
   2   2  -1  212.99    7.19
   1  -2  -1  455.94   15.13
  -1  -2   1  455.28   15.13
  -1  -2   1  476.46   15.14
   1  -2  -1  439.60   15.12
   1  -2  -1  428.03   15.13
  -1  -2   1  454.23   15.14
   1   2  -1  464.74   15.12
  -1   2   1  483.04   15.14
  -1   2   1  442.28   15.13
   1   2  -1  453.78   15.13
   1   2  -1  468.02   15.17
   0  -2  -1  968.11   31.97
   0  -2  -1 1000.00   32.04
   0  -2  -1  975.34   31.97
   0   2   1  987.96   31.99
   0   2  -1  933.26   31.86
   0   2   1  949.95   32.00
   0   2  -1  925.95   31.87
  -1  -2  -1   65.76    2.33
  -1  -2  -1   67.09    2.32
  -1  -2  -1   66.98    2.33
   1  -2   1   63.27    2.28
   1   2   1   68.78    2.33
   1   2   1   67.54    2.31
   1   2   1   71.45    2.32
  -2  -2  -1  143.72    5.10
  -2  -2  -1  151.50    5.10
   2  -2   1  142.52    5.06
  -2  -2  -1  150.31    5.12
   2   2   1  151.82    5.11
   2   2   1  162.79    5.10
   2   2   1  152.23    5.08
  -2   2  -1  144.90    5.05
  -2   2  -1  156.69    5.08
  -3  -2  -1   29.92    1.21
  -3  -2  -1   28.69    1.18
   3  -2   1   27.93    1.14
   3   2   1   29.06    1.19
  -3   2  -1   29.80    1.18
  -3   2  -1   28.93    1.13
   3   2   1   31.68    1.15
   3   2   1   29.93    1.16
  -4  -2  -1   53.18    1.97
  -4  -2  -1   50.42    2.00
   4  -2   1   51.70    1.94
   4   2   1   51.21    1.92
  -4   2  -1   52.19    1.98
  -4   2  -1   47.91    1.89
   4   2   1   53.54    1.95
   4   2   1   51.74    1.96
  -5  -2  -1    6.41    0.70
  -5  -2  -1    6.65    0.65
   5  -2   1    6.20    0.52
   5  -2   1    7.21    0.66
  -5   2  -1    6.80    0.69
   5   2   1    6.63    0.65
   5   2   1    7.12    0.58
   5   2   1    6.72    0.57
  -6  -2  -1   24.41    1.37
   6  -2   1   25.22    1.30
   6   2   1   23.65    1.29
   6   2   1   28.51    1.26
  -6   2  -1   26.26    1.36
   6   2   1   24.99    1.22
  -7  -2  -1   35.27    1.91
   7  -2   1   40.14    1.87
   7   2   1   40.04    1.72
  -7   2  -1   40.59    1.92
   7   2   1   42.19    1.88
   7  -3  -1    4.86    0.84
   7  -3  -1    5.83    0.70
  -7  -3   1    3.66    0.74
   7   3  -1    3.90    0.63
   7   3  -1    4.86    0.70
  -7   3   1    5.05    0.86
   7   3  -1    4.58    0.82
   6  -3  -1    4.72    0.73
  -6  -3   1    4.76    0.73
   6  -3  -1    5.94    0.66
  -6  -3   1    4.66    0.77
  -6   3   1    5.86    0.78
   6   3  -1    4.91    0.65
   6   3  -1    4.23    0.71
   6   3  -1    5.20    0.63
   5  -3  -1   15.99    0.87
   5  -3  -1   16.76    0.96
   5  -3  -1   15.90    0.86
  -5  -3   1   16.75    0.98
  -5  -3   1   15.68    0.99
  -5   3   1   16.55    0.99
  -5   3   1   17.17    0.94
   5   3  -1   16.53    0.96
   5   3  -1   17.94    0.93
   5   3  -1   15.86    0.88
   4  -3  -1   35.49    1.36
  -4  -3   1   34.38    1.46
   4  -3  -1   34.77    1.43
   4  -3  -1   33.47    1.37
  -4  -3   1   34.93    1.44
  -4   3   1   33.60    1.38
  -4   3   1   32.43    1.44
   4   3  -1   34.80    1.40
   4   3  -1   35.53    1.38
   4   3  -1   34.48    1.43
  -3  -3   1    9.57    0.61
   3  -3  -1    9.33    0.53
   3  -3  -1    9.08    0.57
  -3  -3   1   10.22    0.59
   3  -3  -1    9.71    0.54
  -3   3   1    8.26    0.57
  -3   3   1    9.42    0.55
   3   3  -1    8.75    0.53
   3   3  -1    9.10    0.54
   3   3  -1    9.25    0.57
  -2  -3   1   60.75    2.18
   2  -3  -1   60.95    2.16
   2  -3  -1   60.57    2.13
  -2  -3   1   60.16    2.16
  -2  -3   1   62.41    2.18
   2  -3  -1   62.49    2.14
   2   3  -1   60.31    2.14
   2   3  -1   61.16    2.15
   2   3  -1   59.42    2.16
  -2   3   1   62.13    2.17
  -2   3   1   58.64    2.14
  -1  -3   1  195.57    6.54
   1  -3  -1  187.68    6.53
  -1  -3   1  193.38    6.53
  -1  -3   1  192.08    6.52
   1  -3  -1  190.63    6.52
   1  -3  -1  197.53    6.53
   1   3  -1  195.38    6.52
  -1   3   1  207.88    6.54
   1   3  -1  194.48    6.52
   1   3  -1  192.65    6.53
  -1   3   1  194.07    6.53
   0  -3  -1  238.73    7.97
   0  -3   1  228.40    7.93
   0  -3   1  238.87    7.95
   0  -3  -1  239.73    7.95
   0  -3  -1  244.82    7.96
   0  -3   1  239.88    7.93
   0   3  -1  241.02    7.93
   0   3   1  236.08    7.96
   0   3   1  242.38    7.95
   0   3  -1  230.22    7.93
  -1  -3  -1   14.16    0.66
   1  -3   1   13.25    0.60
   1  -3   1   13.75    0.61
  -1  -3  -1   15.59    0.66
  -1  -3  -1   14.72    0.66
   1   3   1   14.83    0.66
   1   3   1   14.47    0.63
   1   3   1   14.80    0.63
  -1   3  -1   16.51    0.62
  -2  -3  -1    3.14    0.38
  -2  -3  -1    2.68    0.40
   2  -3   1    2.61    0.32
  -2  -3  -1    3.11    0.39
   2   3   1    3.49    0.40
   2   3   1    3.39    0.31
   2   3   1    3.69    0.34
  -2   3  -1    3.65    0.34
  -3  -3  -1   52.68    1.88
  -3  -3  -1   50.32    1.90
   3  -3   1   49.70    1.84
  -3  -3  -1   49.46    1.87
   3   3   1   50.98    1.85
  -3   3  -1   47.85    1.80
   3   3   1   50.07    1.88
  -3   3  -1   51.51    1.86
   3   3   1   50.45    1.84
  -4  -3  -1   45.84    1.80
  -4  -3  -1   46.17    1.84
   4  -3   1   45.89    1.77
   4   3   1   45.23    1.75
  -4   3  -1   45.14    1.80
   4   3   1   47.08    1.77
   4   3   1   46.50    1.81
  -5  -3  -1   10.51    0.79
  -5  -3  -1   11.71    0.83
   5  -3   1   11.50    0.79
   5   3   1   12.09    0.81
   5   3   1   10.51    0.70
   5   3   1   11.54    0.74
  -5   3  -1   11.17    0.82
   6  -3   1    4.35    0.77
  -6  -3  -1    5.27    0.80
   6   3   1    5.85    0.63
   6   3   1    5.75    0.65
   6   3   1    6.38    0.76
  -6   3  -1    6.51    0.81
   7  -3   1   11.43    1.00
  -7  -3  -1    8.97    1.00
   7   3   1   10.15    0.84
  -7   3  -1   10.67    1.02
   7   3   1    9.22    0.95
  -7  -4   1   10.40    1.07
   7  -4  -1   10.33    1.04
   7   4  -1   10.20    0.85
   7   4  -1   11.01    1.00
  -7   4   1   10.52    1.02
   7   4  -1   10.21    0.89
   6  -4  -1    1.96    0.46
  -6  -4   1    1.83    0.58
  -6  -4   1    2.25    0.55
   6  -4  -1    2.66    0.58
   6   4  -1    1.44    0.43
   6   4  -1    2.39    0.47
   6   4  -1    2.00    0.53
  -6   4   1    4.04    0.66
   5  -4  -1    1.06    0.34
   5  -4  -1    1.35    0.43
   5  -4  -1    0.35    0.33
  -5  -4   1    1.30    0.48
  -5  -4   1    1.64    0.46
   5   4  -1    2.20    0.47
  -5   4   1    1.00    0.43
   5   4  -1    1.67    0.40
   5   4  -1    0.74    0.35
  -4  -4   1    2.23    0.43
   4  -4  -1    2.93    0.46
   4  -4  -1    2.98    0.43
   4  -4  -1    3.00    0.54
  -4  -4   1    2.93    0.45
   4   4  -1    3.15    0.51
   4   4  -1    2.78    0.44
  -4   4   1    2.63    0.40
  -4   4   1    3.00    0.45
   4   4  -1    3.14    0.45
  -3  -4   1   48.60    1.89
   3  -4  -1   49.70    1.82
   3  -4  -1   51.28    1.87
  -3  -4   1   50.35    1.88
   3  -4  -1   47.67    1.81
  -3   4   1   49.99    1.87
   3   4  -1   49.05    1.86
   3   4  -1   49.08    1.83
  -3   4   1   50.50    1.84
   3   4  -1   49.14    1.85
  -2  -4   1   38.09    1.45
  -2  -4   1   39.12    1.47
   2  -4  -1   37.93    1.45
   2  -4  -1   37.49    1.42
   2  -4  -1   36.74    1.44
  -2  -4   1   38.81    1.47
   2  -4  -1   39.59    1.43
   2   4  -1   39.67    1.44
  -2   4   1   37.31    1.43
   2   4  -1   38.76    1.43
   2   4  -1   38.38    1.45
  -2   4   1   38.09    1.46
   1  -4  -1  130.65    4.34
  -1  -4   1  129.13    4.36
   1  -4  -1  125.99    4.35
  -1  -4   1  125.46    4.33
   1  -4  -1  126.88    4.33
  -1  -4   1  128.36    4.34
  -1   4   1  129.03    4.35
   1   4  -1  124.19    4.34
   1   4  -1  128.97    4.33
  -1   4   1  126.01    4.34
   1   4  -1  125.36    4.33
   0  -4  -1   94.86    3.30
   0  -4  -1   97.54    3.29
   0  -4   1   94.24    3.27
   0  -4  -1   96.22    3.27
   0  -4   1   94.89    3.24
   0  -4   1   93.66    3.25
   0   4   1   93.58    3.28
   0   4   1   96.98    3.27
   0   4  -1   93.81    3.25
   0   4  -1   96.73    3.26
  -1  -4  -1    2.41    0.38
  -1  -4  -1    2.81    0.39
  -1  -4  -1    2.47    0.35
   1  -4   1    2.09    0.34
   1   4   1    2.85    0.32
  -1   4  -1    2.91    0.32
   1   4   1    3.26    0.36
  -1   4  -1    2.76    0.30
   2  -4   1   26.92    1.10
  -2  -4  -1   27.03    1.14
  -2  -4  -1   27.34    1.16
  -2  -4  -1   26.33    1.15
   2   4   1   29.37    1.12
   2   4   1   30.20    1.12
  -2   4  -1   28.69    1.07
  -2   4  -1   30.47    1.12
   2   4   1   29.31    1.17
  -3  -4  -1   51.49    1.87
  -3  -4  -1   49.94    1.90
  -3  -4  -1   48.34    1.87
   3  -4   1   48.39    1.84
   3   4   1   48.91    1.82
  -3   4  -1   50.01    1.85
   3   4   1   48.64    1.87
   3   4   1   49.45    1.84
  -4  -4  -1   67.36    2.54
  -4  -4  -1   65.80    2.58
   4  -4   1   67.79    2.53
  -4   4  -1   69.93    2.55
   4   4   1   69.22    2.50
   4   4   1   69.04    2.55
   4   4   1   69.24    2.52
  -5  -4  -1    8.36    0.73
  -5  -4  -1    6.86    0.74
   5  -4   1    7.33    0.71
  -5   4  -1    7.62    0.72
   5   4   1    8.25    0.73
   5   4   1    7.33    0.63
   5   4   1    6.94    0.64
   6  -4   1   21.99    1.24
  -6  -4  -1   18.71    1.24
   6   4   1   21.07    1.20
   6   4   1   19.54    1.09
  -6   4  -1   23.26    1.26
   6   4   1   22.48    1.16
  -7  -4  -1    0.37    0.59
   7  -4   1    0.95    0.59
   7   4   1    0.22    0.40
  -7   4  -1    0.93    0.54
   7   4   1    0.11    0.47
   7  -5  -1    2.54    0.70
  -7  -5   1    3.28    0.74
   7   5  -1    4.22    0.70
  -7   5   1    3.16    0.70
   7   5  -1    2.93    0.57
   7   5  -1    3.19    0.59
  -6  -5   1   69.53    3.00
   6  -5  -1   77.99    3.00
  -6  -5   1   76.64    2.99
  -6   5   1   78.43    3.00
   6   5  -1   74.57    2.93
   6   5  -1   76.59    2.95
   6   5  -1   74.40    2.88
   5  -5  -1   15.21    0.87
   5  -5  -1   12.30    1.19
  -5  -5   1   13.93    0.98
  -5  -5   1   16.18    0.98
   5  -5  -1   15.74    0.98
   5   5  -1   17.60    0.98
  -5   5   1   14.53    0.96
   5   5  -1   16.05    0.88
   5   5  -1   15.24    0.89
   4  -5  -1   59.82    2.18
  -4  -5   1   62.06    2.28
   4  -5  -1   60.54    2.27
  -4  -5   1   55.76    2.29
   4  -5  -1   62.64    2.19
   4   5  -1   58.66    2.26
   4   5  -1   57.26    2.21
   4   5  -1   57.65    2.23
  -4   5   1   59.03    2.28
  -4   5   1   55.85    2.19
   3  -5  -1  142.38    4.92
  -3  -5   1  144.29    4.95
   3  -5  -1  141.52    4.87
  -3  -5   1  145.32    4.94
   3  -5  -1  138.41    4.85
   3   5  -1  142.27    4.91
   3   5  -1  142.76    4.88
  -3   5   1  141.14    4.92
  -3   5   1  138.06    4.87
   3   5  -1  142.11    4.92
   2  -5  -1   31.73    1.29
   2  -5  -1   32.97    1.26
  -2  -5   1   32.25    1.27
  -2  -5   1   32.50    1.29
  -2  -5   1   32.92    1.31
   2  -5  -1   31.41    1.24
   2   5  -1   31.42    1.28
  -2   5   1   32.14    1.29
   2   5  -1   32.24    1.25
  -2   5   1   32.60    1.27
   2   5  -1   32.12    1.26
  -1  -5   1  116.37    4.01
  -1  -5   1  113.80    3.99
   1  -5  -1  116.86    4.03
   1  -5  -1  116.23    3.99
   1  -5  -1  117.80    4.01
  -1  -5   1  118.61    4.03
   1   5  -1  115.24    4.00
   1   5  -1  114.29    3.99
  -1   5   1  116.33    4.01
  -1   5   1  119.86    4.02
   0  -5  -1   18.71    0.82
   0  -5   1   18.59    0.78
   0  -5  -1   18.86    0.81
   0  -5   1   18.14    0.78
   0  -5  -1   19.10    0.85
   0  -5   1   19.29    0.83
   0   5  -1   18.94    0.79
   0   5  -1   18.27    0.79
   0   5   1   18.82    0.81
   0   5   1   18.43    0.82
  -1  -5  -1  221.19    7.45
  -1  -5  -1  215.38    7.43
   1  -5   1  217.47    7.41
  -1  -5  -1  218.71    7.45
  -1   5  -1  215.63    7.39
   1   5   1  222.30    7.42
  -1   5  -1  230.49    7.41
   1   5   1  220.72    7.45
  -2  -5  -1   13.06    0.72
   2  -5   1   13.63    0.68
  -2  -5  -1   14.63    0.75
  -2  -5  -1   13.68    0.71
   2   5   1   12.79    0.72
  -2   5  -1   13.53    0.67
  -2   5  -1   13.21    0.62
   2   5   1   12.99    0.66
   2   5   1   13.25    0.66
   3  -5   1  120.65    4.25
  -3  -5  -1  126.57    4.31
  -3  -5  -1  122.96    4.32
  -3  -5  -1  122.87    4.28
   3   5   1  120.80    4.25
   3   5   1  122.13    4.27
   3   5   1  122.07    4.30
  -3   5  -1  121.73    4.27
  -4  -5  -1   89.82    3.38
  -4  -5  -1   91.13    3.34
   4  -5   1   90.66    3.32
   4   5   1   94.21    3.32
   4   5   1   92.02    3.29
  -4   5  -1   93.78    3.34
   4   5   1   91.50    3.35
  -5  -5  -1   28.07    1.34
   5  -5   1   26.79    1.33
  -5  -5  -1   24.70    1.35
   5   5   1   27.87    1.27
   5   5   1   28.23    1.26
   5   5   1   26.64    1.33
  -5   5  -1   28.78    1.34
  -6  -5  -1    7.13    0.86
   6  -5   1    6.64    0.86
  -6   5  -1    6.56    0.82
   6   5   1    6.60    0.81
   6   5   1    5.74    0.69
   6   5   1    6.33    0.71
   7  -5   1    4.09    0.74
  -7  -5  -1    5.35    0.92
   7   5   1    5.12    0.69
   7   5   1    3.84    0.70
  -7   5  -1    3.90    0.75
   7  -6  -1    7.99    1.09
  -7  -6   1    9.03    1.05
  -7   6   1   10.24    1.06
   7   6  -1    8.13    0.93
   7   6  -1    8.28    0.88
   7   6  -1    7.44    0.82
   6  -6  -1   13.12    1.06
  -6  -6   1   13.90    1.03
  -6  -6   1   12.32    1.06
   6   6  -1   13.10    0.99
   6   6  -1   12.67    0.95
   6   6  -1   12.93    0.90
  -6   6   1   11.90    1.02
  -5  -6   1    9.06    0.81
   5  -6  -1    6.99    0.81
  -5  -6   1    8.40    0.83
   5   6  -1   10.04    0.81
   5   6  -1    8.20    0.72
   5   6  -1    8.65    0.69
  -5   6   1   10.20    0.82
   4  -6  -1   33.27    1.50
   4  -6  -1   34.72    1.40
  -4  -6   1   34.50    1.50
  -4  -6   1   35.23    1.53
   4  -6  -1   34.44    1.40
   4   6  -1   35.85    1.50
   4   6  -1   32.96    1.44
   4   6  -1   33.50    1.43
  -4   6   1   32.71    1.48
  -3  -6   1   69.18    2.57
   3  -6  -1   67.30    2.52
   3  -6  -1   72.45    2.54
   3  -6  -1   71.52    2.61
  -3  -6   1   70.18    2.61
  -3  -6   1   69.91    2.61
   3   6  -1   69.95    2.56
  -3   6   1   70.46    2.55
  -3   6   1   69.17    2.59
   3   6  -1   69.86    2.59
   3   6  -1   70.25    2.55
   2  -6  -1   20.38    0.97
   2  -6  -1   20.34    0.93
  -2  -6   1   21.13    0.98
  -2  -6   1   21.61    0.96
  -2  -6   1   20.65    0.93
   2  -6  -1   19.85    0.89
   2   6  -1   21.87    0.93
   2   6  -1   20.42    0.94
   2   6  -1   20.77    0.92
  -2   6   1   20.34    0.94
  -2   6   1   19.35    0.92
  -1  -6   1    1.22    0.29
   1  -6  -1    1.80    0.31
   1  -6  -1    1.24    0.32
  -1  -6   1    1.84    0.34
  -1  -6   1    1.76    0.31
   1  -6  -1    1.83    0.32
   1   6  -1    1.68    0.30
  -1   6   1    1.88    0.33
   1   6  -1    1.94    0.28
  -1   6   1    1.73    0.31
   0  -6  -1   26.34    1.18
   0  -6  -1   29.18    1.14
   0  -6   1   27.00    1.10
   0  -6  -1   27.90    1.15
   0  -6  -1   26.98    1.14
   0  -6   1   27.72    1.16
   0  -6   1   27.06    1.09
   0   6  -1   28.02    1.12
   0   6  -1   29.01    1.12
   0   6   1   29.38    1.16
   0   6   1   28.92    1.15
   1  -6   1   27.15    1.17
  -1  -6  -1   29.27    1.20
   1  -6   1   27.35    1.11
  -1  -6  -1   28.95    1.18
  -1  -6  -1   28.05    1.21
   1   6   1   30.12    1.20
  -1   6  -1   27.92    1.13
  -1   6  -1   31.04    1.16
   1   6   1   28.81    1.16
  -2  -6  -1   49.04    1.86
   2  -6   1   50.84    1.85
  -2  -6  -1   49.35    1.88
  -2  -6  -1   49.30    1.89
   2   6   1   48.24    1.83
  -2   6  -1   48.58    1.83
  -2   6  -1   47.35    1.78
   2   6   1   47.45    1.83
   2   6   1   48.04    1.87
  -3  -6  -1   14.93    0.85
  -3  -6  -1   14.96    0.87
   3  -6   1   14.68    0.83
   3  -6   1   15.38    0.84
  -3  -6  -1   16.41    0.89
   3   6   1   14.61    0.78
  -3   6  -1   14.83    0.82
   3   6   1   15.00    0.79
   3   6   1   16.09    0.88
  -4  -6  -1   13.74    0.87
   4  -6   1   13.29    0.85
  -4  -6  -1   13.96    0.88
  -4  -6  -1   14.03    0.91
  -4   6  -1   15.38    0.87
   4   6   1   13.52    0.79
   4   6   1   14.28    0.86
   4   6   1   13.64    0.79
   5  -6   1    1.78    0.51
  -5  -6  -1    2.12    0.50
  -5  -6  -1    1.13    0.50
  -5   6  -1    2.67    0.54
   5   6   1    1.51    0.40
   5   6   1    1.43    0.48
   5   6   1    1.38    0.43
   6  -6   1    4.22    0.74
  -6  -6  -1    4.26    0.71
   6   6   1    3.56    0.64
   6   6   1    5.14    0.68
  -6   6  -1    4.81    0.82
   6   6   1    4.58    0.70
  -7  -6  -1    1.05    0.61
   7  -6   1    1.41    0.67
   7   6   1    0.69    0.45
  -7   6  -1    1.59    0.63
   7   6   1    0.45    0.54
  -6  -7   1   17.83    1.24
  -6  -7   1   20.19    1.22
   6  -7  -1   16.39    1.24
   6   7  -1   19.75    1.19
  -6   7   1   15.75    1.17
   6   7  -1   17.72    1.09
   6   7  -1   17.26    1.06
  -5  -7   1    7.77    0.79
   5  -7  -1    6.78    0.66
   5  -7  -1    5.00    0.82
   5  -7  -1    5.59    0.82
  -5  -7   1    6.13    0.78
   5   7  -1    5.70    0.65
   5   7  -1    5.03    0.72
   5   7  -1    6.17    0.68
  -5   7   1    6.35    0.77
  -4  -7   1  103.70    3.66
   4  -7  -1  100.79    3.65
  -4  -7   1   99.43    3.66
   4   7  -1   95.34    3.59
   4   7  -1   97.91    3.61
  -4   7   1   94.77    3.61
   4   7  -1   99.76    3.57
   3  -7  -1   27.22    1.25
  -3  -7   1   29.25    1.37
  -3  -7   1   30.27    1.32
  -3  -7   1   30.66    1.36
   3  -7  -1   30.19    1.28
   3  -7  -1   32.05    1.39
  -3   7   1   30.97    1.35
   3   7  -1   31.66    1.34
   3   7  -1   31.27    1.31
  -3   7   1   30.24    1.31
   3   7  -1   31.83    1.30
  -2  -7   1   69.07    2.61
  -2  -7   1   70.74    2.66
   2  -7  -1   69.53    2.59
  -2  -7   1   72.42    2.64
   2  -7  -1   70.38    2.66
   2  -7  -1   72.60    2.61
   2   7  -1   72.55    2.62
  -2   7   1   75.82    2.65
  -2   7   1   72.71    2.62
   2   7  -1   72.05    2.64
   2   7  -1   73.22    2.61
   1  -7  -1  134.51    4.58
  -1  -7   1  128.90    4.55
  -1  -7   1  131.21    4.61
  -1  -7   1  134.32    4.57
   1  -7  -1  135.24    4.63
   1  -7  -1  130.60    4.56
  -1   7   1  131.46    4.59
  -1   7   1  132.48    4.58
   1   7  -1  129.02    4.57
   1   7  -1  131.27    4.56
   0  -7  -1   78.04    2.80
   0  -7   1   80.97    2.84
   0  -7  -1   77.34    2.85
   0  -7   1   76.59    2.77
   0  -7  -1   76.78    2.81
   0  -7   1   74.89    2.76
   0   7   1   79.19    2.82
   0   7   1   77.86    2.81
   0   7  -1   80.04    2.79
   0   7  -1   79.89    2.80
  -1  -7  -1  156.10    5.52
  -1  -7  -1  158.34    5.48
   1  -7   1  162.46    5.51
   1  -7   1  150.32    5.41
  -1  -7  -1  158.61    5.51
  -1   7  -1  161.36    5.44
   1   7   1  160.63    5.48
   1   7   1  159.50    5.51
  -1   7  -1  166.92    5.48
   2  -7   1   44.37    1.74
  -2  -7  -1   44.19    1.78
  -2  -7  -1   44.42    1.75
  -2  -7  -1   43.69    1.78
   2   7   1   44.88    1.73
   2   7   1   45.74    1.74
   2   7   1   42.83    1.77
  -2   7  -1   44.82    1.72
  -3  -7  -1   99.90    3.56
  -3  -7  -1   97.72    3.60
  -3  -7  -1   96.73    3.59
   3  -7   1   98.23    3.56
   3   7   1  101.83    3.60
  -3   7  -1   96.21    3.55
   3   7   1  100.14    3.55
   3   7   1  100.14    3.53
  -4  -7  -1    4.07    0.58
  -4  -7  -1    3.74    0.64
   4  -7   1    3.00    0.55
  -4  -7  -1    3.99    0.65
   4   7   1    3.68    0.54
  -4   7  -1    4.25    0.62
   4   7   1    4.66    0.63
   4   7   1    3.80    0.53
  -5  -7  -1   23.81    1.28
   5  -7   1   22.24    1.27
  -5  -7  -1   21.17    1.29
   5  -7   1   20.29    1.25
  -5   7  -1   23.95    1.27
   5   7   1   24.11    1.18
   5   7   1   24.23    1.21
   5   7   1   25.60    1.28
  -6  -7  -1   22.30    1.38
   6  -7   1   21.14    1.36
  -6   7  -1   22.14    1.31
   6   7   1   22.61    1.24
   6   7   1   22.99    1.22
   6   7   1   23.52    1.32
  -6  -8   1    7.56    0.97
   6  -8  -1    4.29    0.84
  -6  -8   1    8.56    0.96
   6   8  -1    8.23    0.94
   6   8  -1    7.06    0.80
   6   8  -1    6.19    0.77
  -6   8   1    8.75    0.97
   5  -8  -1   17.62    1.21
  -5  -8   1   20.21    1.21
  -5  -8   1   18.37    1.15
   5   8  -1   18.20    1.05
  -5   8   1   18.63    1.16
   5   8  -1   18.90    1.08
   5   8  -1   18.57    1.13
   4  -8  -1   10.55    0.74
  -4  -8   1   12.66    0.92
  -4  -8   1   11.52    0.89
   4  -8  -1   10.65    0.91
   4   8  -1   12.50    0.81
   4   8  -1   12.67    0.86
  -4   8   1   12.31    0.89
   4   8  -1   12.67    0.82
   3  -8  -1    9.20    0.67
  -3  -8   1    8.76    0.74
  -3  -8   1    8.85    0.76
   3  -8  -1    7.65    0.78
   3  -8  -1    8.62    0.67
  -3  -8   1    9.00    0.72
  -3   8   1    9.49    0.73
   3   8  -1    8.49    0.71
   3   8  -1    8.84    0.67
   3   8  -1    9.14    0.67
  -2  -8   1   38.83    1.58
  -2  -8   1   38.94    1.62
  -2  -8   1   37.66    1.55
   2  -8  -1   40.23    1.64
   2  -8  -1   38.04    1.55
   2  -8  -1   36.82    1.53
   2   8  -1   39.51    1.56
  -2   8   1   36.58    1.55
  -2   8   1   37.93    1.58
   2   8  -1   36.76    1.56
   2   8  -1   38.44    1.55
   1  -8  -1    1.26    0.34
  -1  -8   1    2.13    0.39
  -1  -8   1    1.64    0.41
   1  -8  -1    1.84    0.37
   1  -8  -1    1.55    0.44
  -1  -8   1    1.53    0.37
   1  -8  -1    1.41    0.35
  -1   8   1    1.46    0.34
   1   8  -1    1.07    0.32
   1   8  -1    1.12    0.37
  -1   8   1    1.25    0.37
   0  -8  -1   67.92    2.45
   0  -8   1   66.35    2.47
   0  -8  -1   66.84    2.42
   0  -8   1   63.07    2.38
   0  -8  -1   63.16    2.48
   0  -8   1   63.36    2.39
   0   8   1   66.43    2.46
   0   8   1   66.80    2.44
   0   8  -1   66.19    2.42
   0   8  -1   65.70    2.42
  -1  -8  -1  118.92    4.21
  -1  -8  -1  119.81    4.18
  -1  -8  -1  120.17    4.23
   1  -8   1  113.56    4.10
   1  -8   1  120.79    4.22
  -1   8  -1  119.62    4.18
   1   8   1  118.31    4.18
   1   8   1  119.08    4.21
  -1   8  -1  117.64    4.20
  -2  -8  -1   11.30    0.77
  -2  -8  -1   10.57    0.74
  -2  -8  -1   10.44    0.77
   2  -8   1    9.55    0.75
  -2   8  -1    9.32    0.69
   2   8   1   10.99    0.78
   2   8   1    9.91    0.68
   2   8   1   10.52    0.70
  -3  -8  -1   36.91    1.56
   3  -8   1   36.96    1.58
  -3  -8  -1   35.49    1.59
  -3  -8  -1   34.73    1.58
  -3   8  -1   35.66    1.53
   3   8   1   36.07    1.53
   3   8   1   35.03    1.51
   3   8   1   36.39    1.58
  -4  -8  -1   13.95    0.94
   4  -8   1   14.01    1.00
  -4  -8  -1   14.16    0.98
  -4  -8  -1   14.69    0.99
   4   8   1   15.14    0.89
  -4   8  -1   13.49    0.91
   4   8   1   14.51    0.88
   4   8   1   14.96    0.97
  -5  -8  -1   25.56    1.42
  -5  -8  -1   26.39    1.38
   5  -8   1   25.72    1.41
  -5   8  -1   25.03    1.35
   5   8   1   25.96    1.29
   5   8   1   25.44    1.31
   5   8   1   25.97    1.37
   6  -8   1    1.30    0.64
  -6  -8  -1    3.21    0.69
  -6   8  -1    2.30    0.66
   6   8   1    2.90    0.58
   6   8   1    2.55    0.55
   6   8   1    2.34    0.63
  -6  -9   1    6.15    0.97
  -6  -9   1    4.64    0.80
   6  -9  -1    4.04    0.87
  -6   9   1    6.13    0.92
   6   9  -1    4.69    0.76
   6   9  -1    5.47    0.93
   6   9  -1    5.45    0.81
   5  -9  -1    5.75    0.97
  -5  -9   1    7.24    0.85
  -5  -9   1    6.71    0.87
  -5   9   1    5.96    0.84
   5   9  -1    5.37    0.73
   5   9  -1    6.25    0.74
   5   9  -1    5.76    0.80
  -4  -9   1    8.30    0.83
   4  -9  -1    7.85    0.89
  -4  -9   1    6.62    0.81
   4   9  -1    6.72    0.69
  -4   9   1    6.28    0.78
   4   9  -1    7.96    0.77
   4   9  -1    7.02    0.68
   3  -9  -1   29.95    1.45
  -3  -9   1   27.14    1.33
   3  -9  -1   27.64    1.29
  -3  -9   1   30.11    1.40
  -3  -9   1   27.64    1.41
   3   9  -1   29.42    1.37
  -3   9   1   30.25    1.38
   3   9  -1   28.50    1.33
   3   9  -1   29.32    1.33
  -2  -9   1    4.30    0.58
   2  -9  -1    2.63    0.54
  -2  -9   1    3.40    0.56
   2  -9  -1    2.75    0.46
   2  -9  -1    2.37    0.43
  -2  -9   1    3.16    0.52
   2  -9  -1    3.30    0.55
   2   9  -1    3.04    0.51
   2   9  -1    3.21    0.57
  -2   9   1    3.63    0.53
   2   9  -1    3.21    0.47
  -1  -9   1   20.81    1.08
  -1  -9   1   21.09    1.01
   1  -9  -1   18.53    0.99
   1  -9  -1   19.69    1.10
   1  -9  -1   20.35    1.02
  -1  -9   1   18.42    0.98
   1   9  -1   18.32    1.00
  -1   9   1   21.27    1.04
   1   9  -1   21.17    1.01
  -1   9   1   20.25    1.03
   0  -9  -1   13.99    0.94
   0  -9   1   15.38    0.92
   0  -9  -1   15.55    0.86
   0  -9   1   13.88    0.81
   0  -9  -1   15.91    0.88
   0  -9   1   14.88    0.81
   0   9   1   13.96    0.86
   0   9  -1   14.63    0.85
   0   9  -1   15.90    1.07
   0   9   1   16.62    0.89
  -1  -9  -1   52.25    2.10
   1  -9   1   49.34    1.94
  -1  -9  -1   49.66    2.01
  -1  -9  -1   53.17    2.07
   1  -9   1   48.91    2.06
   1   9   1   53.04    2.03
   1   9   1   54.34    2.07
  -1   9  -1   52.34    2.02
  -2  -9  -1   10.04    0.79
  -2  -9  -1    8.21    0.72
  -2  -9  -1    9.90    0.80
   2  -9   1    8.21    0.76
   2   9   1   10.92    0.74
   2   9   1    8.66    0.68
  -2   9  -1    8.32    0.70
   2   9   1    8.69    0.76
   3  -9   1    6.72    0.80
  -3  -9  -1    7.26    0.74
  -3  -9  -1    7.55    0.78
  -3  -9  -1    7.36    0.80
   3   9   1    7.97    0.70
   3   9   1    6.78    0.67
  -3   9  -1    8.99    0.74
   3   9   1    8.37    0.76
  -4  -9  -1    7.86    0.83
  -4  -9  -1    9.34    0.88
  -4  -9  -1    7.49    0.81
   4  -9   1    8.70    0.90
   4   9   1    9.46    0.75
  -4   9  -1    9.65    0.82
   4   9   1    8.16    0.82
   4   9   1    8.46    0.73
   5  -9   1   42.71    2.03
  -5  -9  -1   45.39    2.06
  -5  -9  -1   45.58    2.00
  -5   9  -1   41.71    1.95
   5   9   1   44.23    1.89
   5   9   1   44.27    1.98
   5   9   1   42.21    1.92
  -5 -10   1   47.17    2.10
  -5 -10   1   46.61    2.13
   5 -10  -1   46.68    2.19
   5  10  -1   45.64    1.99
   5  10  -1   46.19    2.07
  -5  10   1   42.97    2.07
   5  10  -1   44.58    2.02
   4 -10  -1   44.63    2.09
  -4 -10   1   46.63    2.05
  -4 -10   1   50.03    2.08
   4  10  -1   47.40    1.95
   4  10  -1   47.06    2.00
   4  10  -1   44.00    1.95
  -4  10   1   41.60    1.99
   3 -10  -1   10.88    0.99
   3 -10  -1   11.48    0.81
  -3 -10   1   13.05    0.93
  -3 -10   1   10.87    0.87
  -3 -10   1   12.42    0.96
   3  10  -1   11.09    0.82
   3  10  -1   11.25    0.87
   3  10  -1   12.02    0.85
  -3  10   1   11.66    0.90
   2 -10  -1   37.66    1.66
  -2 -10   1   40.39    1.77
  -2 -10   1   42.92    1.73
   2 -10  -1   38.89    1.81
  -2 -10   1   38.44    1.66
  -2  10   1   39.39    1.73
   2  10  -1   40.20    1.69
   2  10  -1   40.87    1.73
   2  10  -1   40.58    1.70
   1 -10  -1    2.20    0.57
  -1 -10   1    2.35    0.48
  -1 -10   1    2.96    0.47
   1 -10  -1    2.85    0.48
  -1 -10   1    2.37    0.53
   1 -10  -1    2.05    0.46
   1  10  -1    2.77    0.46
  -1  10   1    2.56    0.49
   1  10  -1    2.79    0.49
   0 -10   1  118.21    4.37
   0 -10   1  130.72    4.33
   0 -10  -1  120.43    4.33
   0 -10  -1  116.60    4.38
   0 -10  -1  120.23    4.30
   0 -10   1  119.29    4.26
   0  10   1  123.64    4.35
   0  10   1  120.15    4.33
   0  10  -1  118.46    4.31
   1 -10   1   12.32    0.94
  -1 -10  -1   12.34    0.94
   1 -10   1   12.33    0.76
  -1 -10  -1   13.59    0.89
  -1 -10  -1   14.25    0.92
  -1  10  -1   13.81    0.87
   1  10   1   13.63    0.93
   1  10   1   14.41    0.87
  -2 -10  -1   57.06    2.22
  -2 -10  -1   53.62    2.16
   2 -10   1   50.05    2.20
  -2 -10  -1   52.86    2.23
   2  10   1   52.64    2.19
   2  10   1   55.58    2.16
  -2  10  -1   55.90    2.16
   2  10   1   50.99    2.14
   3 -10   1   29.99    1.52
  -3 -10  -1   29.71    1.52
  -3 -10  -1   30.22    1.50
  -3 -10  -1   30.29    1.46
   3  10   1   28.95    1.42
  -3  10  -1   31.32    1.46
   3  10   1   34.37    1.52
   3  10   1   30.36    1.43
  -4 -10  -1   19.58    1.21
  -4 -10  -1   18.85    1.16
   4 -10   1   18.77    1.25
  -4 -10  -1   20.08    1.23
   4  10   1   17.85    1.09
   4  10   1   18.38    1.09
   4  10   1   20.66    1.19
  -4  10  -1   17.32    1.11
   5 -10   1   43.40    2.11
  -5 -10  -1   45.22    2.13
  -5 -10  -1   46.09    2.08
   5  10   1   45.47    2.01
   5  10   1   47.58    2.08
  -5  10  -1   42.97    2.03
   5  10   1   45.42    1.98
  -4 -11   1   50.93    2.14
  -4 -11   1   46.10    2.10
  -4  11   1   40.56    2.03
   4  11  -1   46.76    2.03
   4  11  -1   46.62    2.00
   3 -11  -1   42.02    2.07
  -3 -11   1   49.29    2.03
  -3 -11   1   43.60    1.93
  -3 -11   1   46.44    2.06
   3  11  -1   48.29    1.96
  -3  11   1   45.28    2.01
   3  11  -1   45.28    1.96
   2 -11  -1   13.39    0.91
  -2 -11   1   14.62    0.96
  -2 -11   1   13.24    0.91
   2 -11  -1   12.01    1.05
  -2 -11   1   13.69    1.01
   2  11  -1   14.91    0.92
  -2  11   1   14.76    0.99
   2  11  -1   13.94    0.92
  -1 -11   1  111.58    4.25
   1 -11  -1  116.09    4.28
   1 -11  -1  119.53    4.42
  -1 -11   1  114.14    4.37
  -1 -11   1  136.65    4.53
   1  11  -1  124.07    4.32
  -1  11   1  116.82    4.35
   1  11  -1  118.11    4.32
   0 -11  -1   20.22    1.24
   0 -11  -1   21.68    1.11
   0 -11   1   21.46    1.20
   0 -11  -1   18.96    1.13
   0 -11   1   21.55    1.07
   0  11   1   20.05    1.12
   0  11  -1   19.48    1.10
  -1 -11  -1   60.34    2.43
   1 -11   1   60.31    2.47
  -1 -11  -1   61.38    2.40
  -1 -11  -1   60.31    2.49
   1  11   1   54.73    2.92
  -1  11  -1   62.30    2.41
   1  11   1   59.45    2.41
   1  11   1   62.81    2.42
  -2 -11  -1   10.69    0.93
  -2 -11  -1    9.93    0.86
   2 -11   1   10.00    0.96
  -2 -11  -1   11.66    0.92
  -2  11  -1    9.67    0.84
   2  11   1   10.16    0.89
   2  11   1    8.64    0.79
   2  11   1    9.56    0.83
   3 -11   1   25.26    1.48
  -3 -11  -1   27.31    1.40
  -3 -11  -1   27.49    1.48
  -3 -11  -1   30.03    1.49
  -3  11  -1   25.88    1.39
   3  11   1   28.11    1.38
   3  11   1   27.48    1.39
   3  11   1   29.10    1.45
  -4 -11  -1   16.46    1.16
   4 -11   1   17.22    1.26
  -4 -11  -1   17.83    1.23
  -4 -11  -1   18.22    1.22
   4  11   1   15.94    1.08
   4  11   1   18.04    1.18
  -4  11  -1   17.52    1.15
   4  11   1   16.69    1.10
  -3 -12   1   25.23    1.43
   3 -12  -1   22.41    1.47
  -3 -12   1   26.50    1.53
   3  12  -1   23.46    1.30
  -3  12   1   20.82    1.32
   3  12  -1   24.00    1.31
  -2 -12   1    9.82    0.96
   2 -12  -1   10.01    1.03
  -2 -12   1   10.46    0.86
   2 -12  -1    9.93    0.82
   2  12  -1    9.09    0.83
   2  12  -1    8.91    0.84
  -2  12   1    9.77    0.92
  -1 -12   1   12.02    0.87
   1 -12  -1   10.26    0.86
   1 -12  -1   11.53    1.06
  -1 -12   1   10.30    0.99
   1  12  -1   10.85    0.88
  -1  12   1   12.28    0.95
   1  12  -1   12.34    0.90
   0 -12   1   18.27    1.05
   0 -12   1   18.05    1.19
   0 -12  -1   21.41    1.27
   0 -12  -1   18.77    1.12
   0  12   1   19.79    1.13
   0  12  -1   19.90    1.12
  -1 -12  -1   15.82    1.02
  -1 -12  -1   14.71    1.03
   1 -12   1   15.90    1.13
  -1 -12  -1   15.47    1.11
   1  12   1   14.57    1.01
   1  12   1   13.66    0.99
  -1  12  -1   14.04    1.01
   2 -12   1   13.76    1.15
  -2 -12  -1   14.51    1.05
  -2 -12  -1   15.67    1.14
  -2 -12  -1   15.63    1.08
   2  12   1   15.43    1.05
   2  12   1   14.94    1.02
  -2  12  -1   14.01    1.05
  -3 -12  -1   13.01    1.04
  -3 -12  -1   12.09    1.07
  -3 -12  -1   13.35    0.99
   3 -12   1    8.29    1.06
   3  12   1   10.89    0.93
  -3  12  -1   10.39    0.95
   3  12   1   11.01    0.94
  -2 -13   1    0.70    0.57
   2 -13  -1    1.12    0.67
  -2 -13   1    1.09    0.61
  -2  13   1    1.15    0.56
   2  13  -1    2.14    0.57
   2  13  -1    1.49    0.49
  -1 -13   1   37.33    1.69
   1 -13  -1   37.50    1.92
   1 -13  -1   37.41    1.71
  -1 -13   1   38.32    1.87
   1  13  -1   39.71    1.77
   1  13  -1   38.69    1.78
  -1  13   1   36.99    1.80
   0 -13   1    1.82    0.62
   0 -13   1    1.04    0.50
   0 -13  -1    1.34    0.60
   0 -13  -1    2.04    0.57
   0  13   1    1.46    0.49
   0  13  -1    1.36    0.51
  -1 -13  -1   26.85    1.42
   1 -13   1   27.83    1.58
  -1 -13  -1   28.69    1.59
  -1  13  -1   26.88    1.46
   1  13   1   27.38    1.45
   1  13   1   28.36    1.48
  -2 -13  -1   32.01    1.55
  -2 -13  -1   28.93    1.64
   2 -13   1   29.74    1.67
   2  13   1   28.98    1.53
   2  13   1   31.15    1.56
  -2  13  -1   29.91    1.57
   8   0  -2    2.64    0.60
  -8   0   2    2.87    0.76
   8   0  -2    3.07    0.73
  -7   0   2   85.30    3.46
   7   0  -2   86.65    3.28
   7   0  -2   90.78    3.42
   7   0  -2   86.12    3.31
   6   0  -2   -0.03    0.36
  -6   0   2   -0.13    0.43
  -6   0   2    0.07    0.41
   6   0  -2   -0.14    0.36
   6   0  -2    0.12    0.41
   5   0  -2  175.33    5.76
   5   0  -2  164.63    5.74
  -5   0   2  156.81    5.79
  -5   0   2  162.77    5.74
   5   0  -2  164.73    5.70
  -4   0   2    6.12    0.60
   4   0  -2    8.28    0.59
   4   0  -2    7.32    0.54
   4   0  -2    8.71    0.59
  -4   0   2    7.85    0.61
  -3   0   2  398.11   13.65
   3   0  -2  424.19   13.64
  -3   0   2  418.25   13.64
   3   0  -2  397.81   13.62
   3   0  -2  402.61   13.61
   2   0  -2  702.47   22.72
   2   0  -2  626.54   22.63
   2   0  -2  726.90   22.75
  -2   0   2  691.55   22.66
  -2   0   2  670.53   22.66
  -1   0   2  509.38   17.13
   1   0  -2  563.10   17.16
   1   0  -2  458.73   17.02
  -1   0   2  525.30   17.02
   1   0  -2  516.05   17.10
   0   0   2  606.77   20.07
   1   0   2   41.24    1.48
  -2   0  -2  173.95    5.76
  -2   0  -2  177.68    5.77
   2   0   2  173.14    5.80
   2   0   2  161.73    5.75
   3   0   2    5.54    0.49
   3   0   2    5.39    0.43
  -3   0  -2    5.54    0.45
  -3   0  -2    6.04    0.43
  -4   0  -2   16.35    0.82
  -4   0  -2   17.05    0.89
   4   0   2   17.85    0.80
   4   0   2   18.22    0.86
   5   0   2   55.71    2.08
   5   0   2   59.08    2.19
  -5   0  -2   54.30    2.22
  -6   0  -2   34.04    1.64
   6   0   2   32.36    1.43
   6   0   2   36.07    1.57
  -7   0  -2   37.23    1.90
   7   0   2   40.31    1.83
  -8  -1   2    7.72    1.06
   8  -1  -2    8.49    1.05
   8  -1  -2    6.80    0.85
  -8   1   2    6.78    1.03
   8   1  -2    6.28    0.86
   8   1  -2    6.52    0.99
  -7  -1   2    4.91    0.80
   7  -1  -2    6.12    0.74
   7  -1  -2    6.17    0.87
   7   1  -2    6.17    0.87
   7   1  -2    5.79    0.76
   7   1  -2    5.26    0.79
  -7   1   2    6.57    0.91
  -6  -1   2    3.89    0.62
   6  -1  -2    3.36    0.61
  -6  -1   2    4.26    0.75
   6  -1  -2    3.98    0.58
   6  -1  -2    2.82    0.50
   6   1  -2    4.28    0.63
  -6   1   2    3.56    0.64
  -6   1   2    3.84    0.69
   6   1  -2    4.03    0.61
   6   1  -2    3.46    0.56
   5  -1  -2   21.33    1.04
  -5  -1   2   20.55    1.11
  -5  -1   2   20.63    1.09
   5  -1  -2   18.52    1.00
   5  -1  -2   21.68    1.07
   5   1  -2   19.30    1.00
   5   1  -2   19.61    1.03
   5   1  -2   21.39    1.06
  -5   1   2   20.91    1.07
  -5   1   2   18.19    1.08
  -4  -1   2   12.09    0.74
   4  -1  -2   11.95    0.66
  -4  -1   2   12.45    0.72
   4  -1  -2   11.93    0.70
   4  -1  -2   10.06    0.66
  -4   1   2    9.84    0.68
   4   1  -2   10.73    0.64
   4   1  -2   11.44    0.67
   4   1  -2   11.67    0.70
  -4   1   2    9.68    0.70
   3  -1  -2   32.56    1.23
  -3  -1   2   30.18    1.25
   3  -1  -2   29.50    1.21
  -3  -1   2   31.09    1.25
   3  -1  -2   30.83    1.20
  -3   1   2   30.85    1.24
  -3   1   2   30.59    1.23
   3   1  -2   30.41    1.20
   3   1  -2   31.58    1.23
   3   1  -2   30.77    1.22
   2  -1  -2   26.63    0.97
   2  -1  -2   22.97    0.95
  -2  -1   2   24.45    0.97
  -2  -1   2   24.06    0.97
   2  -1  -2   23.99    0.94
   2   1  -2   22.82    0.94
  -2   1   2   23.94    0.97
   2   1  -2   24.95    0.94
   2   1  -2   24.45    0.95
  -2   1   2   23.93    0.97
   1  -1  -2  484.68   18.04
  -1  -1   2  563.60   18.04
   1  -1  -2  594.72   18.22
  -1  -1   2  530.59   18.05
   1  -1  -2  576.54   18.16
   1   1  -2  498.33   18.05
   1   1  -2  566.98   18.10
   1   1  -2  549.45   18.07
  -1   1   2  550.77   18.10
  -1   1   2  536.60   18.05
   0  -1  -2   26.02    0.90
   0  -1  -2   25.14    0.90
   0  -1  -2   25.20    0.91
   0   1   2   23.45    0.90
   0   1   2   23.75    0.89
  -1  -1  -2   54.05    1.87
  -1  -1  -2   53.28    1.87
  -1  -1  -2   56.46    1.88
   1  -1   2   54.59    1.91
   1   1   2   53.54    1.86
   1   1   2   51.09    1.87
   1   1   2   57.47    1.86
   1   1   2   54.18    1.90
  -2  -1  -2  163.39    5.39
   2  -1   2  157.93    5.43
  -2  -1  -2  159.63    5.40
   2  -1   2  151.52    5.36
  -2  -1  -2  162.14    5.39
   2   1   2  162.63    5.37
   2   1   2  158.45    5.41
   2   1   2  151.73    5.39
   2   1   2  172.78    5.38
  -3  -1  -2   31.59    1.27
  -3  -1  -2   31.70    1.24
   3  -1   2   31.75    1.22
   3   1   2   32.39    1.21
   3   1   2   31.13    1.28
   3   1   2   34.22    1.23
   3   1   2   31.25    1.25
  -3   1  -2   32.91    1.25
  -3   1  -2   30.93    1.20
  -4  -1  -2   59.72    2.32
  -4  -1  -2   61.60    2.37
   4  -1   2   65.14    2.33
   4   1   2   64.35    2.34
   4   1   2   66.71    2.30
   4   1   2   64.12    2.29
  -4   1  -2   64.23    2.36
  -4   1  -2   60.69    2.28
   5  -1   2    2.15    0.43
  -5  -1  -2    1.21    0.45
   5   1   2    1.88    0.41
   5   1   2    1.62    0.37
  -5   1  -2    1.03    0.44
   5   1   2    1.33    0.35
  -6  -1  -2   32.04    1.59
   6  -1   2   31.56    1.51
   6   1   2   35.27    1.54
   6   1   2   31.53    1.39
  -6   1  -2   31.71    1.58
   7  -1   2   27.05    1.43
  -7  -1  -2   25.95    1.52
  -7   1  -2   27.02    1.49
   7   1   2   24.94    1.27
   7   1   2   26.98    1.43
  -8  -2   2    1.35    0.69
   8  -2  -2    0.76    0.64
   8  -2  -2    0.71    0.56
   8   2  -2    2.70    0.62
  -8   2   2    2.49    0.76
   8   2  -2    0.64    0.59
  -7  -2   2   14.51    1.19
   7  -2  -2   16.69    1.18
   7  -2  -2   16.90    1.03
   7   2  -2   16.80    1.09
   7   2  -2   16.01    1.13
  -7   2   2   16.91    1.19
   7   2  -2   14.74    1.01
   6  -2  -2    5.42    0.68
  -6  -2   2    4.43    0.77
  -6  -2   2    5.71    0.78
   6  -2  -2    6.55    0.78
   6  -2  -2    4.60    0.64
  -6   2   2    6.25    0.78
   6   2  -2    6.22    0.75
   6   2  -2    5.87    0.67
   6   2  -2    6.45    0.69
   5  -2  -2  118.19    4.03
  -5  -2   2  110.72    4.11
   5  -2  -2  114.52    4.07
   5  -2  -2  105.58    4.00
  -5  -2   2  113.88    4.09
  -5   2   2  110.24    4.09
   5   2  -2  122.09    4.09
  -5   2   2  110.23    4.04
   5   2  -2  112.81    4.06
   5   2  -2  112.69    4.03
   4  -2  -2  153.53    5.13
  -4  -2   2  146.24    5.16
  -4  -2   2  149.09    5.15
   4  -2  -2  153.75    5.11
   4  -2  -2  145.52    5.10
  -4   2   2  144.15    5.12
   4   2  -2  146.54    5.12
   4   2  -2  146.93    5.10
   4   2  -2  150.00    5.14
  -4   2   2  142.46    5.14
   3  -2  -2  111.86    3.86
   3  -2  -2  112.35    3.85
   3  -2  -2  122.04    3.87
  -3  -2   2  112.53    3.89
  -3  -2   2  114.72    3.88
  -3   2   2  105.88    3.86
   3   2  -2  109.32    3.83
   3   2  -2  106.34    3.85
  -3   2   2  106.99    3.87
   3   2  -2  111.18    3.86
   2  -2  -2  240.90    7.89
   2  -2  -2  222.12    7.88
   2  -2  -2  232.39    7.87
  -2  -2   2  227.90    7.89
  -2  -2   2  235.63    7.90
  -2   2   2  239.35    7.89
  -2   2   2  241.41    7.90
   2   2  -2  248.24    7.89
   2   2  -2  237.17    7.87
   2   2  -2  226.29    7.88
  -1  -2   2   92.19    3.30
   1  -2  -2   99.80    3.31
   1  -2  -2   89.71    3.30
   1  -2  -2   92.74    3.29
  -1  -2   2  100.35    3.30
   1  -2  -2   88.37    3.30
  -1   2   2  101.09    3.32
   1   2  -2  101.73    3.29
   1   2  -2  100.48    3.29
  -1   2   2  105.39    3.32
   1   2  -2   98.92    3.29
   0  -2  -2  534.49   17.70
   0  -2  -2  534.38   17.74
   0  -2  -2  532.22   17.71
   0   2   2  529.19   17.70
   0   2   2  541.85   17.69
  -1  -2  -2  815.50   26.56
   1  -2   2  810.14   26.58
  -1  -2  -2  794.63   26.57
  -1  -2  -2  803.13   26.58
  -1  -2  -2  801.72   26.57
   1   2   2  779.08   26.61
   1   2   2  773.33   26.56
   1   2   2  845.20   26.65
  -2  -2  -2  114.38    3.97
  -2  -2  -2  112.84    3.95
  -2  -2  -2  114.28    3.95
   2   2   2  115.11    3.93
   2   2   2  122.50    3.94
   2   2   2  114.77    3.96
  -3  -2  -2  162.19    5.65
  -3  -2  -2  172.82    5.62
   3  -2   2  158.81    5.59
  -3  -2  -2  162.22    5.62
   3   2   2  164.82    5.59
   3   2   2  161.07    5.63
  -3   2  -2  169.59    5.62
   3   2   2  168.99    5.61
  -4  -2  -2   95.38    3.53
  -4  -2  -2  100.63    3.58
   4  -2   2   97.02    3.50
   4   2   2  104.29    3.52
  -4   2  -2   99.89    3.54
   4   2   2  100.67    3.54
   4   2   2   99.76    3.49
   5  -2   2  161.76    5.59
  -5  -2  -2  146.00    5.96
  -5  -2  -2  155.54    5.66
   5   2   2  171.37    5.57
   5   2   2  160.36    5.56
   5   2   2  168.31    5.63
  -5   2  -2  159.01    5.63
   6  -2   2   67.16    2.65
  -6  -2  -2   66.71    2.72
  -6   2  -2   67.89    2.69
   6   2   2   68.62    2.65
   6   2   2   67.50    2.54
   7  -2   2    0.62    0.53
  -7  -2  -2    0.80    0.56
  -7   2  -2    1.35    0.62
   7   2   2    0.94    0.51
   7   2   2    0.00    0.43
  -7  -3   2   12.26    1.12
   7  -3  -2   13.21    1.11
   7  -3  -2   15.18    0.98
  -7   3   2   13.92    1.12
   7   3  -2   12.49    0.97
   7   3  -2   12.43    1.05
   7   3  -2   13.83    1.01
   6  -3  -2   61.80    2.42
  -6  -3   2   63.86    2.55
   6  -3  -2   65.15    2.55
  -6  -3   2   61.90    2.59
   6   3  -2   67.18    2.55
   6   3  -2   64.53    2.51
  -6   3   2   61.38    2.56
   6   3  -2   57.98    2.44
  -5  -3   2   41.37    1.75
  -5  -3   2   40.27    1.78
   5  -3  -2   41.93    1.67
   5  -3  -2   42.18    1.74
   5  -3  -2   40.58    1.65
  -5   3   2   37.43    1.73
   5   3  -2   40.21    1.66
   5   3  -2   39.95    1.70
  -5   3   2   42.16    1.70
   5   3  -2   43.34    1.73
   4  -3  -2  164.11    5.48
  -4  -3   2  157.97    5.50
   4  -3  -2  166.46    5.45
  -4  -3   2  159.84    5.48
   4  -3  -2  157.55    5.41
   4   3  -2  154.84    5.45
   4   3  -2  152.58    5.45
   4   3  -2  155.92    5.42
  -4   3   2  157.63    5.44
  -4   3   2  151.07    5.48
   3  -3  -2  297.71   10.18
   3  -3  -2  316.23   10.18
   3  -3  -2  297.29   10.14
  -3  -3   2  303.89   10.19
  -3  -3   2  299.76   10.20
   3   3  -2  302.86   10.15
  -3   3   2  299.41   10.19
   3   3  -2  302.69   10.18
  -3   3   2  302.33   10.17
   3   3  -2  305.93   10.18
  -2  -3   2  222.05    7.55
   2  -3  -2  217.17    7.51
  -2  -3   2  226.45    7.55
   2  -3  -2  239.03    7.55
   2  -3  -2  211.73    7.53
  -2   3   2  223.33    7.54
   2   3  -2  229.74    7.54
   2   3  -2  220.16    7.53
  -2   3   2  227.63    7.55
   2   3  -2  224.71    7.52
   1  -3  -2  600.84   19.79
  -1  -3   2  586.18   19.78
   1  -3  -2  574.68   19.77
   1  -3  -2  564.85   19.79
  -1  -3   2  613.64   19.77
   1   3  -2  612.56   19.76
  -1   3   2  620.48   19.79
   1   3  -2  600.31   19.77
   1   3  -2  599.50   19.76
  -1   3   2  591.87   19.79
   0  -3  -2  109.38    3.74
   0  -3  -2  106.77    3.72
   0  -3  -2  107.89    3.74
   0   3   2  110.58    3.72
   0   3   2  112.49    3.74
  -1  -3  -2  458.71   14.97
  -1  -3  -2  444.03   14.97
  -1  -3  -2  452.17   14.95
  -1  -3  -2  451.31   14.97
   1   3   2  447.10   14.94
   1   3   2  457.42   14.95
   1   3   2  438.41   14.96
   2  -3   2  368.15   12.94
  -2  -3  -2  394.33   13.00
  -2  -3  -2  394.32   13.00
  -2  -3  -2  387.19   13.02
   2   3   2  386.85   12.97
   2   3   2  404.38   12.99
   2   3   2  392.43   13.01
  -3  -3  -2   60.20    2.18
  -3  -3  -2   59.20    2.17
  -3  -3  -2   58.87    2.20
   3  -3   2   58.36    2.13
  -3   3  -2   59.46    2.15
   3   3   2   61.72    2.16
   3   3   2   58.71    2.19
   3   3   2   59.33    2.14
  -4  -3  -2  203.17    7.11
  -4  -3  -2  200.38    7.15
   4  -3   2  212.67    7.10
  -4   3  -2  206.24    7.11
   4   3   2  206.59    7.07
   4   3   2  214.87    7.10
   4   3   2  213.35    7.13
  -5  -3  -2   40.16    1.74
  -5  -3  -2   40.41    1.80
   5  -3   2   42.82    1.74
   5   3   2   40.88    1.68
   5   3   2   43.32    1.77
  -5   3  -2   43.26    1.77
   5   3   2   44.78    1.72
  -6  -3  -2   35.22    1.71
   6  -3   2   37.20    1.65
   6   3   2   34.56    1.53
   6   3   2   35.68    1.63
  -6   3  -2   36.02    1.68
  -7  -3  -2   23.01    1.47
   7  -3   2   27.71    1.45
   7   3   2   26.93    1.43
  -7   3  -2   26.12    1.45
   7   3   2   23.09    1.25
   7  -4  -2   19.27    1.36
  -7  -4   2   19.41    1.34
   7  -4  -2   19.52    1.10
  -7   4   2   20.77    1.33
   7   4  -2   20.91    1.18
   7   4  -2   21.20    1.30
   7   4  -2   22.00    1.23
  -6  -4   2    1.36    0.54
   6  -4  -2    1.79    0.52
  -6  -4   2    0.65    0.46
   6  -4  -2    0.80    0.40
  -6   4   2    1.94    0.58
   6   4  -2    0.42    0.37
   6   4  -2    0.83    0.43
   6   4  -2    1.37    0.48
   5  -4  -2   57.37    2.21
  -5  -4   2   58.85    2.35
   5  -4  -2   62.19    2.24
   5  -4  -2   59.77    2.32
  -5  -4   2   56.93    2.31
  -5   4   2   55.55    2.31
  -5   4   2   54.53    2.23
   5   4  -2   57.58    2.23
   5   4  -2   58.11    2.27
   5   4  -2   59.61    2.28
  -4  -4   2   21.56    1.05
   4  -4  -2   23.25    1.07
   4  -4  -2   22.88    1.02
   4  -4  -2   20.51    0.97
  -4  -4   2   20.63    1.07
   4   4  -2   21.50    0.99
   4   4  -2   21.16    1.01
  -4   4   2   21.44    1.06
   4   4  -2   21.55    1.04
  -4   4   2   20.85    1.01
   3  -4  -2   66.41    2.40
  -3  -4   2   65.62    2.41
   3  -4  -2   67.45    2.38
   3  -4  -2   65.88    2.36
  -3  -4   2   65.79    2.42
   3   4  -2   65.38    2.40
   3   4  -2   67.39    2.37
  -3   4   2   65.39    2.41
  -3   4   2   63.69    2.38
   3   4  -2   64.30    2.38
   2  -4  -2   93.52    3.31
  -2  -4   2   93.05    3.31
   2  -4  -2   92.00    3.31
   2  -4  -2   94.41    3.30
  -2  -4   2   97.13    3.31
   2  -4  -2   94.01    3.28
   2   4  -2   97.46    3.29
   2   4  -2   94.90    3.28
  -2   4   2   96.01    3.30
  -2   4   2   97.18    3.32
   2   4  -2   93.42    3.29
  -1  -4   2  206.72    7.02
  -1  -4   2  209.54    7.00
   1  -4  -2  212.59    7.03
   1  -4  -2  200.14    7.03
   1  -4  -2  211.40    7.02
  -1  -4   2  203.32    6.99
   1   4  -2  209.11    6.99
   1   4  -2  207.98    7.00
  -1   4   2  208.58    7.03
   1   4  -2  208.92    7.00
  -1   4   2  215.74    7.03
   0  -4   2   16.71    0.69
   0  -4  -2   17.12    0.72
   0  -4  -2   17.15    0.74
   0  -4  -2   16.16    0.70
   0   4   2   15.28    0.71
   0   4  -2   13.73    0.63
   0   4  -2   14.68    0.64
   0   4   2   15.03    0.69
  -1  -4  -2  116.31    3.99
   1  -4   2  111.52    3.92
  -1  -4  -2  114.78    3.99
  -1  -4  -2  117.57    3.97
  -1  -4  -2  117.82    3.99
   1   4   2  113.76    3.98
   1   4   2  118.71    3.96
   2  -4   2  133.56    4.66
  -2  -4  -2  136.17    4.74
  -2  -4  -2  140.61    4.73
  -2  -4  -2  139.59    4.72
   2   4   2  137.74    4.74
   2   4   2  134.00    4.69
   2   4   2  141.37    4.70
  -3  -4  -2   34.00    1.36
  -3  -4  -2   32.02    1.38
  -3  -4  -2   33.06    1.36
   3  -4   2   30.47    1.30
   3   4   2   34.30    1.38
  -3   4  -2   35.04    1.33
   3   4   2   34.42    1.32
   3   4   2   34.49    1.33
  -4  -4  -2   13.04    0.81
  -4  -4  -2   12.91    0.78
   4  -4   2   11.55    0.75
  -4  -4  -2   12.37    0.82
   4   4   2   12.65    0.78
   4   4   2   14.04    0.73
  -4   4  -2   14.50    0.80
   4   4   2   13.18    0.74
  -5  -4  -2    7.77    0.74
   5  -4   2    7.84    0.74
  -5  -4  -2    9.64    0.81
   5   4   2    8.46    0.74
   5   4   2    9.07    0.68
   5   4   2    8.34    0.65
  -5   4  -2    9.47    0.76
  -6  -4  -2   21.20    1.32
   6  -4   2   24.12    1.31
  -6   4  -2   24.24    1.32
   6   4   2   22.99    1.17
   6   4   2   25.21    1.27
   6   4   2   25.86    1.33
  -7  -4  -2    0.19    0.56
   7  -4   2    0.61    0.54
  -7   4  -2    1.36    0.58
   7   4   2    1.24    0.49
   7   4   2    0.99    0.54
   7  -5  -2    0.63    0.51
   7  -5  -2    0.23    0.55
  -7  -5   2    0.57    0.57
  -7  -5   2   -0.03    0.54
  -7   5   2    0.21    0.57
   7   5  -2   -0.10    0.50
   7   5  -2    1.11    0.45
   7   5  -2    0.89    0.46
   6  -5  -2   58.07    2.39
  -6  -5   2   57.23    2.42
  -6  -5   2   57.57    2.38
   6   5  -2   57.09    2.33
   6   5  -2   53.80    2.25
   6   5  -2   57.17    2.33
  -6   5   2   53.91    2.37
   5  -5  -2    8.30    0.82
  -5  -5   2    8.02    0.81
  -5  -5   2    8.39    0.77
   5  -5  -2    8.62    0.69
   5  -5  -2    8.48    0.72
   5   5  -2    9.41    0.77
   5   5  -2    9.07    0.68
   5   5  -2    8.21    0.67
  -5   5   2    8.32    0.79
  -4  -5   2  164.72    5.71
  -4  -5   2  163.89    5.69
   4  -5  -2  160.34    5.61
   4  -5  -2  163.37    5.68
   4   5  -2  164.14    5.63
  -4   5   2  164.08    5.63
   4   5  -2  160.58    5.65
   4   5  -2  164.03    5.67
  -4   5   2  160.97    5.69
   3  -5  -2   27.72    1.19
   3  -5  -2   27.60    1.14
   3  -5  -2   28.33    1.19
  -3  -5   2   27.51    1.19
   3  -5  -2   28.79    1.16
  -3  -5   2   28.72    1.21
  -3   5   2   25.48    1.18
   3   5  -2   25.91    1.14
   3   5  -2   27.38    1.14
   3   5  -2   26.11    1.16
  -3   5   2   26.47    1.15
  -2  -5   2   94.00    3.35
  -2  -5   2   99.47    3.39
   2  -5  -2   96.85    3.35
  -2  -5   2   96.57    3.39
   2  -5  -2   98.80    3.38
   2  -5  -2   96.24    3.40
  -2   5   2   95.77    3.39
   2   5  -2   97.07    3.35
   2   5  -2   94.34    3.36
   2   5  -2   95.94    3.36
  -2   5   2   94.45    3.37
   1  -5  -2  141.34    4.77
   1  -5  -2  137.24    4.80
   1  -5  -2  144.68    4.80
  -1  -5   2  132.81    4.73
  -1  -5   2  139.14    4.75
  -1  -5   2  140.85    4.78
  -1   5   2  139.96    4.79
   1   5  -2  137.94    4.75
   1   5  -2  138.53    4.75
  -1   5   2  140.27    4.78
   1   5  -2  144.30    4.75
   0  -5  -2   50.15    1.82
   0  -5   2   48.91    1.79
   0  -5  -2   48.62    1.83
   0  -5  -2   48.95    1.80
   0   5  -2   49.03    1.76
   0   5   2   47.38    1.81
   0   5   2   50.56    1.80
   0   5  -2   49.46    1.75
  -1  -5  -2   91.84    3.18
   1  -5   2   88.56    3.11
  -1  -5  -2   86.97    3.17
  -1  -5  -2   89.52    3.15
   1   5   2   89.97    3.14
   1   5   2   89.06    3.17
  -1   5  -2   93.88    3.11
   2  -5   2   32.14    1.30
  -2  -5  -2   33.26    1.37
  -2  -5  -2   33.81    1.38
  -2  -5  -2   34.49    1.36
  -2   5  -2   36.40    1.31
   2   5   2   34.29    1.33
   2   5   2   32.75    1.32
   2   5   2   33.95    1.38
  -3  -5  -2   82.71    2.99
  -3  -5  -2   80.29    3.00
   3  -5   2   78.68    2.94
  -3  -5  -2   83.43    3.04
  -3   5  -2   85.32    2.97
   3   5   2   82.77    3.02
   3   5   2   84.14    2.96
   3   5   2   87.56    2.99
  -4  -5  -2   15.23    0.90
   4  -5   2   16.10    0.89
  -4  -5  -2   16.31    0.93
  -4  -5  -2   15.76    0.95
   4   5   2   17.02    0.93
  -4   5  -2   16.27    0.89
   4   5   2   17.08    0.85
   4   5   2   17.03    0.86
  -5  -5  -2   26.60    1.36
   5  -5   2   26.08    1.32
  -5  -5  -2   27.78    1.33
  -5   5  -2   27.68    1.33
   5   5   2   25.90    1.23
   5   5   2   27.12    1.25
   5   5   2   26.54    1.32
   6  -5   2   20.20    1.24
  -6  -5  -2   20.11    1.25
   6   5   2   19.62    1.08
   6   5   2   18.39    1.17
  -6   5  -2   19.78    1.21
   6   5   2   21.50    1.14
  -7  -5  -2    2.75    0.73
   7  -5   2    4.45    0.77
   7   5   2    3.01    0.56
   7   5   2    3.50    0.69
  -7   5  -2    4.95    0.80
  -7  -6   2   18.85    1.40
  -7  -6   2   20.23    1.39
   7  -6  -2   20.17    1.38
   7   6  -2   20.68    1.30
  -7   6   2   17.10    1.29
   7   6  -2   18.45    1.15
   7   6  -2   17.74    1.19
  -6  -6   2    5.71    0.86
   6  -6  -2    6.06    0.88
   6  -6  -2    6.34    0.74
  -6  -6   2    5.80    0.82
   6   6  -2    6.43    0.80
  -6   6   2    5.52    0.81
   6   6  -2    5.73    0.70
   6   6  -2    5.34    0.72
   5  -6  -2   17.79    0.99
  -5  -6   2   18.51    1.09
  -5  -6   2   18.21    1.11
   5  -6  -2   15.09    1.05
   5  -6  -2   17.41    1.08
  -5   6   2   20.40    1.11
   5   6  -2   18.25    0.99
   5   6  -2   19.30    1.10
   5   6  -2   19.50    1.04
   4  -6  -2   14.63    0.90
   4  -6  -2   13.68    0.80
  -4  -6   2   14.53    0.88
   4  -6  -2   14.30    0.81
   4  -6  -2   13.33    0.89
  -4  -6   2   14.12    0.89
  -4   6   2   12.46    0.86
   4   6  -2   14.41    0.86
   4   6  -2   14.54    0.82
  -4   6   2   13.48    0.81
   4   6  -2   12.83    0.79
  -3  -6   2   39.15    1.64
   3  -6  -2   38.94    1.64
   3  -6  -2   40.30    1.59
   3  -6  -2   39.67    1.57
  -3  -6   2   40.95    1.64
  -3   6   2   39.87    1.60
   3   6  -2   39.92    1.60
   3   6  -2   40.85    1.59
  -3   6   2   38.65    1.62
   3   6  -2   41.72    1.58
  -2  -6   2  143.93    4.93
   2  -6  -2  143.74    4.91
  -2  -6   2  137.30    4.89
  -2  -6   2  142.18    4.95
   2  -6  -2  138.67    4.95
   2  -6  -2  148.40    4.94
  -2   6   2  144.93    4.94
   2   6  -2  144.17    4.92
  -2   6   2  141.62    4.94
   2   6  -2  144.89    4.91
   2   6  -2  140.48    4.91
   1  -6  -2    5.98    0.49
  -1  -6   2    6.21    0.46
   1  -6  -2    6.37    0.54
  -1  -6   2    6.57    0.51
  -1  -6   2    5.67    0.44
   1  -6  -2    6.20    0.52
  -1   6   2    6.78    0.51
   1   6  -2    6.80    0.45
   1   6  -2    5.90    0.45
  -1   6   2    6.32    0.49
   0  -6  -2  230.64    7.53
   0  -6  -2  224.09    7.50
   0  -6   2  215.59    7.43
   0  -6   2  221.69    7.49
   0  -6  -2  220.54    7.54
   0   6   2  220.15    7.50
   0   6  -2  221.01    7.45
   0   6   2  222.48    7.52
   0   6  -2  218.36    7.46
  -1  -6  -2  112.71    3.96
   1  -6   2  112.78    3.94
  -1  -6  -2  113.93    3.99
  -1  -6  -2  117.10    4.01
  -1   6  -2  116.96    3.92
   1   6   2  112.28    3.95
  -1   6  -2  112.31    3.89
   1   6   2  112.41    3.99
  -2  -6  -2   76.65    2.75
  -2  -6  -2   75.35    2.77
  -2  -6  -2   73.35    2.76
   2  -6   2   75.41    2.71
   2   6   2   74.09    2.71
   2   6   2   76.68    2.73
   2   6   2   74.03    2.77
  -2   6  -2   80.03    2.71
  -3  -6  -2   37.90    1.61
   3  -6   2   35.52    1.52
  -3  -6  -2   38.18    1.57
   3  -6   2   38.46    1.53
  -3  -6  -2   37.16    1.58
   3   6   2   38.81    1.59
  -3   6  -2   40.89    1.54
   3   6   2   38.19    1.52
   3   6   2   37.99    1.53
  -4  -6  -2    9.28    0.78
   4  -6   2    7.71    0.70
  -4  -6  -2    9.01    0.73
  -4  -6  -2   10.35    0.78
   4   6   2    8.36    0.64
  -4   6  -2    8.10    0.70
   4   6   2    9.50    0.76
   4   6   2    9.20    0.65
  -5  -6  -2   46.26    2.10
  -5  -6  -2   49.06    2.06
   5  -6   2   50.99    2.07
   5   6   2   50.88    2.04
   5   6   2   50.53    2.08
  -5   6  -2   49.39    2.06
   5   6   2   49.57    1.98
   6  -6   2    1.04    0.60
  -6  -6  -2    1.40    0.56
   6   6   2    0.98    0.51
   6   6   2    1.31    0.46
  -6   6  -2    1.08    0.52
   6   6   2    1.10    0.42
  -6  -7   2    1.75    0.58
   6  -7  -2    1.63    0.61
   6  -7  -2    1.63    0.62
  -6  -7   2    0.86    0.57
   6  -7  -2    2.05    0.51
   6   7  -2    1.25    0.53
   6   7  -2    1.70    0.51
  -6   7   2    0.96    0.51
   6   7  -2    1.00    0.47
  -5  -7   2   12.83    0.96
  -5  -7   2   12.39    0.93
   5  -7  -2   10.71    0.96
   5  -7  -2   10.17    0.80
   5  -7  -2   10.09    0.96
   5   7  -2   12.71    0.91
   5   7  -2   11.93    0.83
   5   7  -2   10.94    0.81
  -5   7   2   11.25    0.93
   4  -7  -2   15.16    0.97
  -4  -7   2   15.23    0.94
   4  -7  -2   14.29    0.86
  -4  -7   2   14.81    0.93
   4  -7  -2   14.72    0.86
   4   7  -2   13.38    0.84
   4   7  -2   13.54    0.89
  -4   7   2   14.85    0.93
   4   7  -2   14.56    0.84
   3  -7  -2    7.39    0.63
   3  -7  -2    8.20    0.74
  -3  -7   2    8.12    0.66
   3  -7  -2    7.90    0.64
  -3  -7   2    7.77    0.68
  -3   7   2    7.73    0.67
   3   7  -2    7.74    0.60
   3   7  -2    7.80    0.64
   3   7  -2    8.13    0.59
  -3   7   2    8.72    0.68
  -2  -7   2   15.37    0.81
  -2  -7   2   15.16    0.79
  -2  -7   2   15.31    0.85
   2  -7  -2   14.24    0.78
   2  -7  -2   14.53    0.83
   2  -7  -2   16.31    0.89
  -2   7   2   15.43    0.83
   2   7  -2   14.15    0.77
   2   7  -2   15.55    0.80
  -2   7   2   15.28    0.83
   2   7  -2   15.53    0.79
  -1  -7   2   72.63    2.68
   1  -7  -2   74.89    2.68
   1  -7  -2   76.91    2.74
   1  -7  -2   72.99    2.66
  -1  -7   2   72.60    2.62
  -1  -7   2   71.06    2.61
  -1   7   2   74.59    2.68
   1   7  -2   72.41    2.63
   1   7  -2   74.26    2.64
  -1   7   2   72.48    2.68
   0  -7  -2  197.40    6.60
   0  -7   2  193.26    6.60
   0  -7   2  182.63    6.52
   0  -7  -2  190.18    6.64
   0  -7  -2  196.35    6.62
   0  -7  -2  198.74    6.63
   0   7   2  192.78    6.60
   0   7   2  197.15    6.63
   0   7  -2  194.15    6.57
   0   7  -2  189.86    6.55
  -1  -7  -2   25.90    1.14
  -1  -7  -2   26.12    1.19
  -1  -7  -2   24.75    1.16
   1  -7   2   26.38    1.14
   1   7   2   24.78    1.11
  -1   7  -2   27.06    1.10
  -1   7  -2   26.07    1.05
   1   7   2   27.28    1.17
   2  -7   2  100.59    3.58
  -2  -7  -2  102.54    3.64
  -2  -7  -2  100.85    3.60
  -2  -7  -2  101.43    3.64
   2   7   2  101.21    3.58
   2   7   2   99.83    3.64
   2   7   2   99.45    3.59
  -2   7  -2  102.43    3.56
   3  -7   2   47.46    1.86
  -3  -7  -2   46.94    1.91
  -3  -7  -2   46.76    1.93
  -3  -7  -2   46.09    1.88
   3   7   2   46.92    1.84
  -3   7  -2   45.51    1.84
   3   7   2   47.72    1.83
   3   7   2   47.30    1.91
  -4  -7  -2   47.73    2.00
  -4  -7  -2   47.55    1.97
   4  -7   2   43.48    1.92
  -4  -7  -2   47.86    1.94
   4   7   2   46.85    1.88
   4   7   2   46.65    1.95
  -4   7  -2   46.85    1.92
   4   7   2   49.45    1.92
   5  -7   2   37.90    1.73
  -5  -7  -2   36.89    1.73
  -5  -7  -2   35.11    1.77
   5   7   2   40.40    1.69
   5   7   2   36.71    1.63
  -5   7  -2   38.45    1.71
   5   7   2   40.19    1.75
  -6  -7  -2   11.26    1.04
   6  -7   2   10.87    1.06
  -6   7  -2   10.68    0.96
   6   7   2   11.75    0.97
   6   7   2   11.02    0.86
   6   7   2   12.31    0.91
  -6  -8   2    6.29    0.92
  -6  -8   2    4.57    0.77
   6  -8  -2    4.43    0.83
   6   8  -2    6.60    0.77
   6   8  -2    6.62    0.87
  -6   8   2    6.25    0.90
   6   8  -2    4.71    0.71
  -5  -8   2   11.38    0.97
   5  -8  -2   11.12    1.00
  -5  -8   2   10.14    0.92
   5  -8  -2   12.50    0.88
   5   8  -2   11.91    0.86
  -5   8   2   10.73    0.94
   5   8  -2   12.67    0.94
   5   8  -2   12.45    0.88
   4  -8  -2   38.24    1.71
  -4  -8   2   37.13    1.65
   4  -8  -2   33.73    1.52
  -4  -8   2   35.63    1.63
   4   8  -2   34.83    1.56
   4   8  -2   37.33    1.61
   4   8  -2   35.59    1.55
  -4   8   2   35.68    1.64
   3  -8  -2   34.04    1.51
   3  -8  -2   37.25    1.64
  -3  -8   2   38.43    1.60
   3  -8  -2   39.44    1.57
  -3  -8   2   38.67    1.63
   3   8  -2   37.84    1.54
  -3   8   2   32.10    1.90
   3   8  -2   35.36    1.53
  -3   8   2   37.12    1.59
   3   8  -2   35.81    1.55
  -2  -8   2  190.31    6.47
   2  -8  -2  186.12    6.52
  -2  -8   2  182.57    6.43
   2  -8  -2  183.04    6.44
  -2  -8   2  184.91    6.50
   2  -8  -2  191.56    6.47
   2   8  -2  185.02    6.45
  -2   8   2  194.93    6.49
   2   8  -2  191.53    6.46
  -2   8   2  183.78    6.49
   2   8  -2  190.79    6.45
  -1  -8   2   61.64    2.39
   1  -8  -2   67.68    2.53
   1  -8  -2   64.76    2.48
  -1  -8   2   65.43    2.49
   1  -8  -2   67.02    2.46
  -1  -8   2   64.63    2.41
  -1   8   2   69.78    2.49
  -1   8   2   67.86    2.49
   1   8  -2   66.64    2.44
   1   8  -2   65.03    2.42
   0  -8   2   50.47    1.95
   0  -8  -2   53.67    2.04
   0  -8   2   51.88    2.05
   0  -8  -2   53.31    2.10
   0  -8  -2   53.39    2.07
   0   8  -2   54.52    2.01
   0   8   2   54.56    2.05
   0   8   2   52.03    2.06
   0   8  -2   55.14    1.99
  -1  -8  -2   11.37    0.79
   1  -8   2   11.58    0.78
  -1  -8  -2   12.33    0.77
  -1  -8  -2   12.59    0.80
   1   8   2   12.83    0.79
   1   8   2   12.22    0.73
  -1   8  -2   12.89    0.72
   2  -8   2   76.80    2.83
  -2  -8  -2   77.40    2.89
  -2  -8  -2   75.58    2.84
  -2  -8  -2   75.66    2.88
   2   8   2   77.01    2.88
  -2   8  -2   77.78    2.80
   2   8   2   75.88    2.82
   2   8   2   76.10    2.82
  -3  -8  -2  146.55    5.12
   3  -8   2  144.76    5.11
  -3  -8  -2  140.92    5.14
  -3  -8  -2  144.88    5.17
  -3   8  -2  146.94    5.09
   3   8   2  147.01    5.11
   3   8   2  143.11    5.08
   3   8   2  146.28    5.15
   4  -8   2    8.83    0.83
  -4  -8  -2   10.05    0.87
  -4  -8  -2    9.78    0.86
  -4  -8  -2    9.64    0.84
   4   8   2    9.66    0.74
   4   8   2    8.37    0.71
  -4   8  -2    9.95    0.79
   4   8   2    9.28    0.83
  -5  -8  -2   28.61    1.52
  -5  -8  -2   27.05    1.44
   5  -8   2   27.51    1.45
   5   8   2   27.94    1.38
   5   8   2   30.30    1.48
  -5   8  -2   26.71    1.40
   5   8   2   26.22    1.34
   6  -8   2    1.16    0.62
  -6  -8  -2    0.69    0.56
   6   8   2   -0.07    0.44
   6   8   2    0.88    0.51
  -6   8  -2    0.79    0.53
   6   8   2    0.91    0.55
  -6  -9   2   47.92    2.18
   6  -9  -2   44.32    2.20
  -6  -9   2   45.65    2.13
   6   9  -2   48.36    2.10
   6   9  -2   42.63    2.04
  -6   9   2   43.16    2.11
   6   9  -2   43.25    1.98
   5  -9  -2    7.49    0.74
  -5  -9   2    9.53    0.93
   5  -9  -2    8.07    1.03
  -5  -9   2    8.94    0.90
   5   9  -2    8.70    0.80
   5   9  -2    9.55    0.82
   5   9  -2    9.27    0.88
  -5   9   2    8.70    0.91
  -4  -9   2   81.59    3.12
  -4  -9   2   82.68    3.11
   4  -9  -2   81.23    3.15
   4  -9  -2   80.27    3.00
   4   9  -2   80.56    3.07
  -4   9   2   77.90    3.09
   4   9  -2   81.70    3.03
   4   9  -2   75.55    3.03
   3  -9  -2   19.53    1.14
   3  -9  -2   17.86    1.00
   3  -9  -2   17.70    0.97
  -3  -9   2   17.29    1.05
  -3  -9   2   18.71    1.03
   3   9  -2   16.45    0.95
   3   9  -2   16.62    1.00
  -3   9   2   16.48    1.03
   3   9  -2   17.72    0.97
   2  -9  -2   78.65    2.91
  -2  -9   2   78.02    2.95
  -2  -9   2   73.79    2.85
  -2  -9   2   79.62    2.90
   2  -9  -2   79.29    3.00
   2  -9  -2   75.35    2.88
   2   9  -2   79.42    2.88
   2   9  -2   81.26    2.90
  -2   9   2   78.42    2.93
  -2   9   2   77.04    2.93
   2   9  -2   77.57    2.89
   1  -9  -2  111.28    3.85
   1  -9  -2  106.87    3.91
  -1  -9   2  107.67    3.87
  -1  -9   2  101.80    3.75
   1  -9  -2  104.28    3.81
   1  -9  -2  107.06    3.83
  -1  -9   2  103.40    3.77
  -1   9   2  108.14    3.86
   1   9  -2  106.28    3.81
   1   9  -2  108.86    3.80
  -1   9   2  108.03    3.86
   0  -9  -2   30.55    1.35
   0  -9   2   26.42    1.20
   0  -9  -2   31.52    1.41
   0  -9  -2   31.34    1.32
   0  -9   2   30.81    1.36
   0   9   2   29.00    1.34
   0   9  -2   27.72    1.27
   0   9   2   27.85    1.31
  -1  -9  -2   36.57    1.58
  -1  -9  -2   38.92    1.62
   1  -9   2   37.57    1.60
  -1  -9  -2   36.69    1.65
   1   9   2   37.80    1.58
   1   9   2   36.94    1.61
  -1   9  -2   37.20    1.55
  -2  -9  -2   10.38    0.82
  -2  -9  -2   11.22    0.88
  -2  -9  -2   11.98    0.90
   2  -9   2   11.56    0.84
   2   9   2   12.24    0.79
   2   9   2   13.42    0.89
   2   9   2   11.89    0.80
  -2   9  -2   12.49    0.79
   3  -9   2   36.51    1.66
  -3  -9  -2   37.37    1.68
  -3  -9  -2   39.58    1.71
  -3  -9  -2   38.95    1.66
  -3   9  -2   34.77    1.57
   3   9   2   36.16    1.67
   3   9   2   35.68    1.58
   3   9   2   38.08    1.61
  -4  -9  -2   25.79    1.34
  -4  -9  -2   25.80    1.37
  -4  -9  -2   24.13    1.37
   4  -9   2   26.08    1.36
  -4   9  -2   24.69    1.29
   4   9   2   25.62    1.35
   4   9   2   25.25    1.26
   4   9   2   26.15    1.28
  -5  -9  -2   28.41    1.59
   5  -9   2   28.16    1.57
  -5  -9  -2   30.39    1.55
   5   9   2   29.35    1.47
   5   9   2   29.86    1.44
   5   9   2   30.58    1.55
  -5   9  -2   30.51    1.53
  -5 -10   2   13.15    1.08
  -5 -10   2   13.30    1.07
   5 -10  -2   12.76    1.20
   5  10  -2   11.26    0.93
   5  10  -2   12.89    0.96
  -5  10   2   11.86    1.04
   5  10  -2    9.48    1.38
  -4 -10   2    5.23    0.75
   4 -10  -2    4.72    0.74
   4 -10  -2    6.14    0.94
  -4 -10   2    4.87    0.77
  -4  10   2    3.82    0.66
   4  10  -2    5.99    0.86
   4  10  -2    6.08    0.67
   4  10  -2    5.29    0.71
  -3 -10   2    3.40    0.60
   3 -10  -2    3.65    0.66
   3 -10  -2    3.12    0.55
  -3 -10   2    3.69    0.59
   3  10  -2    2.77    0.50
  -3  10   2    3.59    0.59
   3  10  -2    2.84    0.51
   2 -10  -2    5.38    0.79
   2 -10  -2    5.02    0.66
   2 -10  -2    4.65    0.67
  -2 -10   2    6.50    0.67
  -2 -10   2    6.00    0.67
   2 -10  -2    4.91    0.66
  -2 -10   2    6.20    0.74
   2  10  -2    5.98    0.63
   2  10  -2    7.73    0.68
  -2  10   2    6.37    0.71
  -1 -10   2    5.73    0.60
   1 -10  -2    4.27    0.66
   1 -10  -2    4.41    0.74
   1 -10  -2    4.62    0.63
  -1 -10   2    5.23    0.67
  -1 -10   2    4.80    0.58
   1  10  -2    4.78    0.60
  -1  10   2    4.52    0.67
   1  10  -2    5.08    0.60
  -1  10   2    4.84    0.65
   0 -10  -2    6.04    0.77
   0 -10   2    5.54    0.56
   0 -10   2    5.16    0.71
   0 -10  -2    5.43    0.68
   0 -10  -2    5.42    0.65
   0  10   2    5.18    0.64
   0  10   2    6.10    0.69
   0  10  -2    5.26    0.61
   1 -10   2    4.78    0.69
  -1 -10  -2    5.88    0.69
  -1 -10  -2    3.93    0.72
  -1 -10  -2    4.94    0.67
  -1  10  -2    5.59    0.64
   1  10   2    4.28    0.67
   1  10   2    4.72    0.62
  -2 -10  -2    7.84    0.81
  -2 -10  -2    7.17    0.76
  -2 -10  -2    7.68    0.79
   2 -10   2    5.33    0.78
  -2  10  -2    6.70    0.68
   2  10   2    7.57    0.72
   2  10   2    6.67    0.79
   2  10   2    7.41    0.70
   3 -10   2   14.27    1.02
  -3 -10  -2   15.84    1.05
  -3 -10  -2   13.97    0.98
  -3 -10  -2   15.38    1.05
   3  10   2   15.09    0.94
   3  10   2   12.77    0.92
  -3  10  -2   13.59    0.94
   3  10   2   13.47    1.00
  -4 -10  -2   12.17    1.01
  -4 -10  -2   12.39    1.00
  -4 -10  -2   12.19    1.02
   4 -10   2   10.68    1.03
   4  10   2   12.33    0.90
   4  10   2   14.15    1.04
   4  10   2   11.71    0.90
  -4  10  -2   12.03    0.91
   5 -10   2    1.71    0.65
  -5 -10  -2    2.98    0.67
  -5 -10  -2    2.70    0.64
  -5  10  -2    2.77    0.61
   5  10   2    1.95    0.55
   5  10   2    3.62    0.62
   5  10   2    3.06    0.67
   4 -11  -2    9.50    0.88
   4 -11  -2   11.24    1.12
  -4 -11   2   10.47    0.98
  -4 -11   2   12.41    1.00
   4  11  -2   11.49    0.90
  -4  11   2    9.58    0.98
   4  11  -2    9.97    0.85
  -3 -11   2   24.47    1.26
  -3 -11   2   21.71    1.28
   3 -11  -2   20.28    1.16
   3 -11  -2   20.05    1.33
   3  11  -2   21.79    1.19
   3  11  -2   22.24    1.18
  -3  11   2   21.38    1.26
   2 -11  -2   -0.52    0.53
  -2 -11   2    1.26    0.52
   2 -11  -2    0.02    0.45
  -2 -11   2    0.85    0.46
   2  11  -2    0.36    0.36
   2  11  -2    0.57    0.44
  -2  11   2    0.52    0.44
  -1 -11   2   47.92    2.06
  -1 -11   2   45.09    1.90
   1 -11  -2   47.14    1.98
   1 -11  -2   49.98    2.03
   1 -11  -2   48.99    2.12
  -1  11   2   47.29    2.04
   1  11  -2   50.63    1.99
   1  11  -2   47.89    1.99
   0 -11  -2    7.58    0.89
   0 -11   2    8.52    0.82
   0 -11  -2    7.96    0.78
   0 -11  -2    7.25    0.76
   0  11  -2    8.09    0.72
   0  11   2    7.70    0.76
  -1 -11  -2   33.46    1.52
   1 -11   2   31.18    1.55
  -1 -11  -2   29.74    1.56
  -1 -11  -2   30.26    1.54
   1  11   2   31.56    1.55
   1  11   2   31.28    1.49
  -1  11  -2   33.96    1.50
   1  11   2   33.83    1.52
  -2 -11  -2   25.73    1.44
   2 -11   2   24.88    1.42
  -2 -11  -2   29.36    1.41
  -2 -11  -2   27.54    1.44
   2  11   2   27.96    1.43
  -2  11  -2   27.36    1.35
   2  11   2   27.98    1.37
   2  11   2   27.81    1.37
  -3 -11  -2    8.35    0.89
   3 -11   2    7.14    0.89
  -3 -11  -2    8.43    0.87
  -3 -11  -2    8.11    0.92
   3  11   2    8.14    0.88
   3  11   2    8.74    0.82
  -3  11  -2    7.78    0.80
   3  11   2    7.15    0.77
  -4 -11  -2   17.50    1.16
  -4 -11  -2   16.26    1.19
   4 -11   2   14.43    1.18
  -4 -11  -2   15.28    1.16
   4  11   2   15.44    1.15
   4  11   2   17.11    1.09
  -4  11  -2   15.25    1.10
   4  11   2   16.77    1.07
  -3 -12   2    6.00    0.91
   3 -12  -2    7.87    0.82
   3 -12  -2    7.02    1.01
   3  12  -2    6.83    0.80
   3  12  -2    9.03    0.85
  -3  12   2    5.88    0.84
  -2 -12   2    0.96    0.56
   2 -12  -2    0.84    0.49
  -2 -12   2    0.77    0.49
   2 -12  -2    0.80    0.61
  -2  12   2    0.47    0.48
   2  12  -2    1.77    0.50
   2  12  -2    0.18    0.40
   1 -12  -2   40.56    1.77
   1 -12  -2   38.89    1.91
  -1 -12   2   41.77    1.89
  -1 -12   2   39.31    1.69
   1  12  -2   40.02    1.76
  -1  12   2   39.97    1.83
   1  12  -2   38.92    1.77
   0 -12  -2   16.24    1.07
   0 -12  -2   18.07    1.14
   0 -12   2   16.38    1.14
   0 -12  -2   19.09    1.23
   0  12   2   18.84    1.11
   0  12  -2   19.62    1.08
  -1 -12  -2   49.48    2.16
   1 -12   2   48.05    2.17
  -1 -12  -2   50.36    2.11
  -1 -12  -2   50.53    2.22
   1  12   2   51.41    2.14
  -1  12  -2   47.97    2.09
   1  12   2   50.62    2.14
   2 -12   2   19.11    1.29
  -2 -12  -2   19.77    1.28
  -2 -12  -2   21.08    1.21
  -2 -12  -2   21.56    1.28
   2  12   2   19.48    1.20
   2  12   2   19.79    1.18
  -2  12  -2   19.18    1.19
  -3 -12  -2   12.48    1.03
   3 -12   2   11.68    1.12
  -3 -12  -2   13.78    1.12
  -3 -12  -2   13.28    1.09
   3  12   2   12.86    1.06
  -3  12  -2   11.93    0.98
   3  12   2   12.46    0.99
   3  12   2   14.07    1.03
   2 -13  -2    5.08    0.89
   2 -13  -2    4.58    0.76
  -2 -13   2    4.45    0.78
  -2  13   2    4.58    0.73
   2  13  -2    5.30    0.77
   2  13  -2    4.25    0.66
   1 -13  -2    9.59    0.90
   1 -13  -2    8.61    1.08
  -1 -13   2   10.40    1.02
  -1 -13   2    8.96    0.83
   1  13  -2   10.18    0.90
   1  13  -2    9.34    0.90
  -1  13   2   10.05    0.94
   0 -13  -2   16.16    1.09
   0 -13   2   15.02    1.17
   0 -13  -2   16.89    1.23
   0  13  -2   16.14    1.08
   0  13   2   15.53    1.09
   1 -13   2    3.18    0.74
  -1 -13  -2    2.95    0.66
  -1 -13  -2    4.35    0.80
  -1 -13  -2    3.38    0.79
   1  13   2    2.83    0.66
  -1  13  -2    3.00    0.61
   1  13   2    3.53    0.63
  -8   0   3   -1.17    0.56
   8   0  -3   -0.31    0.44
   8   0  -3   -0.68    0.55
   7   0  -3   15.86    1.15
   7   0  -3   13.13    1.02
  -7   0   3   15.37    1.18
   7   0  -3   14.53    1.02
   6   0  -3    8.26    0.73
   6   0  -3    8.37    0.81
  -6   0   3    7.25    0.80
  -6   0   3    6.00    0.82
   6   0  -3    7.12    0.75
   5   0  -3   11.61    0.76
   5   0  -3   12.79    0.83
  -5   0   3   11.95    0.83
  -5   0   3   12.08    0.85
   5   0  -3   11.40    0.80
  -4   0   3    0.91    0.37
  -4   0   3    0.75    0.35
   4   0  -3    1.19    0.35
   4   0  -3    1.22    0.33
   4   0  -3    0.86    0.34
   3   0  -3   47.32    1.81
  -3   0   3   48.23    1.84
   3   0  -3   49.04    1.81
  -3   0   3   49.22    1.84
   3   0  -3   52.57    1.84
  -2   0   3    2.60    0.34
   2   0  -3    2.28    0.33
   2   0  -3    2.74    0.32
  -2   0   3    2.53    0.37
   2   0  -3    2.87    0.33
  -1   0   3    0.28    0.17
   1   0  -3    0.56    0.18
   1   0  -3    0.11    0.16
   1   0  -3    0.35    0.18
  -1   0   3    0.25    0.20
   0   0   3  106.47    3.60
   1   0   3  138.83    4.70
   2   0   3    0.36    0.19
   2   0   3    0.97    0.30
   3   0   3   17.94    0.82
   3   0   3   20.10    0.93
  -3   0  -3   18.96    0.80
  -3   0  -3   20.41    0.86
   4   0   3    2.69    0.46
  -4   0  -3    2.54    0.43
   4   0   3    3.35    0.58
  -4   0  -3    2.56    0.47
  -5   0  -3   62.56    2.50
   5   0   3   67.09    2.46
   6   0   3    0.79    0.50
  -6   0  -3    0.04    0.53
  -7   0  -3    3.02    0.67
   7   0   3    2.61    0.60
  -8  -1   3    1.36    0.69
   8  -1  -3    1.71    0.69
   8  -1  -3    1.61    0.57
  -8   1   3    2.72    0.75
   8   1  -3    2.60    0.64
   8   1  -3    1.85    0.72
   7  -1  -3   26.51    1.40
   7  -1  -3   29.27    1.55
   7  -1  -3   28.57    1.42
  -7  -1   3   26.41    1.55
   7   1  -3   26.63    1.38
   7   1  -3   29.26    1.53
   7   1  -3   29.72    1.48
  -7   1   3   28.60    1.58
  -6  -1   3   33.19    1.59
  -6  -1   3   34.14    1.56
   6  -1  -3   31.35    1.46
   6  -1  -3   34.15    1.56
   6  -1  -3   32.33    1.49
   6   1  -3   33.86    1.54
   6   1  -3   33.51    1.52
  -6   1   3   32.19    1.56
   6   1  -3   30.74    1.44
  -6   1   3   30.42    1.57
   5  -1  -3   14.55    0.86
  -5  -1   3   14.56    0.95
   5  -1  -3   15.25    0.89
  -5  -1   3   14.79    0.93
   5  -1  -3   15.57    0.92
  -5   1   3   14.67    0.94
   5   1  -3   15.32    0.86
  -5   1   3   14.91    0.93
   5   1  -3   15.73    0.90
   5   1  -3   16.00    0.91
   4  -1  -3  122.28    4.32
  -4  -1   3  121.11    4.35
   4  -1  -3  122.95    4.31
  -4  -1   3  121.99    4.34
   4  -1  -3  118.47    4.28
   4   1  -3  127.26    4.34
   4   1  -3  123.42    4.31
   4   1  -3  129.48    4.32
  -4   1   3  121.00    4.34
  -4   1   3  124.38    4.34
  -3  -1   3   62.19    2.23
  -3  -1   3   62.24    2.24
   3  -1  -3   58.72    2.20
   3  -1  -3   59.52    2.19
   3  -1  -3   60.09    2.22
   3   1  -3   62.89    2.23
   3   1  -3   59.95    2.20
  -3   1   3   59.20    2.22
  -3   1   3   61.75    2.23
   3   1  -3   63.77    2.21
   2  -1  -3   77.06    2.84
  -2  -1   3   83.46    2.85
   2  -1  -3   83.22    2.84
  -2  -1   3   84.79    2.87
   2  -1  -3   86.57    2.87
   2   1  -3   85.76    2.86
   2   1  -3   82.62    2.83
   2   1  -3   73.89    2.82
  -2   1   3   82.10    2.86
  -2   1   3   82.11    2.86
   1  -1  -3  142.66    4.64
   1  -1  -3  124.23    4.64
  -1  -1   3  133.46    4.63
   1  -1  -3  146.64    4.66
  -1  -1   3  137.30    4.63
   1   1  -3  137.44    4.62
   1   1  -3  150.69    4.64
   1   1  -3  129.11    4.62
  -1   1   3  144.04    4.66
  -1   1   3  136.61    4.64
   0  -1  -3  363.78   12.15
   0  -1  -3  381.15   12.15
   0  -1  -3  358.49   12.14
   0   1   3  355.71   12.15
   0   1   3  380.52   12.19
   0   1   3  359.94   12.14
   1  -1   3  508.26   16.11
  -1  -1  -3  457.99   16.06
  -1  -1  -3  495.19   16.06
  -1  -1  -3  493.00   16.06
   1   1   3  497.98   16.10
   1   1   3  457.37   16.06
   2  -1   3   11.75    0.64
  -2  -1  -3    9.89    0.55
  -2  -1  -3   10.92    0.52
  -2  -1  -3   11.21    0.55
   2   1   3   11.87    0.62
   2   1   3   11.39    0.56
   3  -1   3   92.99    3.17
   3  -1   3   90.38    3.26
  -3  -1  -3   95.56    3.19
  -3  -1  -3   92.51    3.21
  -3  -1  -3   89.21    3.18
   3   1   3   90.60    3.19
   3   1   3   89.60    3.15
  -3   1  -3   91.91    3.19
   3   1   3   90.97    3.23
  -4  -1  -3   84.09    3.15
  -4  -1  -3   92.27    3.22
   4  -1   3   90.74    3.16
  -4   1  -3   90.18    3.19
   4   1   3   87.48    3.22
   4   1   3   90.13    3.18
   5  -1   3   50.79    1.94
  -5  -1  -3   46.39    1.98
  -5   1  -3   47.24    1.96
   5   1   3   47.72    1.84
   5   1   3   51.00    1.94
  -6  -1  -3   23.03    1.26
   6  -1   3   20.54    1.18
   6   1   3   23.40    1.20
  -6   1  -3   21.31    1.26
   7  -1   3    1.92    0.57
  -7  -1  -3    2.05    0.64
  -7   1  -3    1.90    0.63
   7   1   3    2.35    0.61
  -8  -2   3   43.82    2.22
   8  -2  -3   44.45    2.15
   8  -2  -3   43.43    1.96
  -8   2   3   41.18    2.16
   8   2  -3   44.34    2.14
   8   2  -3   43.12    1.96
   7  -2  -3   32.49    1.64
  -7  -2   3   31.23    1.63
   7  -2  -3   26.50    1.54
  -7  -2   3   32.16    1.68
   7  -2  -3   27.83    1.46
  -7   2   3   30.59    1.65
   7   2  -3   31.99    1.59
   7   2  -3   30.82    1.48
   7   2  -3   33.87    1.58
  -6  -2   3   44.95    2.06
   6  -2  -3   45.70    1.94
  -6  -2   3   50.27    2.06
   6  -2  -3   51.78    2.06
   6  -2  -3   50.90    1.98
   6   2  -3   45.68    1.94
  -6   2   3   46.30    2.06
   6   2  -3   47.90    2.00
   6   2  -3   51.55    2.05
  -6   2   3   40.07    1.95
  -5  -2   3   86.34    3.14
   5  -2  -3   88.56    3.12
   5  -2  -3   81.21    3.06
  -5  -2   3   84.46    3.16
   5  -2  -3   86.59    3.09
  -5   2   3   81.50    3.09
   5   2  -3   84.10    3.11
   5   2  -3   82.01    3.08
  -5   2   3   80.74    3.13
   5   2  -3   80.44    3.06
   4  -2  -3   83.67    3.06
   4  -2  -3   86.57    3.09
  -4  -2   3   86.09    3.12
   4  -2  -3   85.84    3.08
  -4  -2   3   85.39    3.11
  -4   2   3   82.73    3.08
   4   2  -3   85.25    3.09
   4   2  -3   85.49    3.06
  -4   2   3   83.20    3.10
   4   2  -3   89.55    3.09
   3  -2  -3  261.72    8.84
  -3  -2   3  261.84    8.87
   3  -2  -3  256.88    8.85
  -3  -2   3  268.78    8.88
   3  -2  -3  274.69    8.86
  -3   2   3  255.35    8.86
   3   2  -3  261.09    8.84
   3   2  -3  263.64    8.85
   3   2  -3  264.74    8.83
  -3   2   3  257.65    8.86
   2  -2  -3  104.77    3.81
  -2  -2   3  110.94    3.81
   2  -2  -3  114.62    3.80
  -2  -2   3  117.33    3.82
   2  -2  -3  116.09    3.82
   2   2  -3  114.96    3.81
  -2   2   3  111.93    3.83
   2   2  -3  103.00    3.79
   2   2  -3  110.28    3.79
  -2   2   3  108.78    3.82
   1  -2  -3  545.38   18.75
   1  -2  -3  562.86   18.73
   1  -2  -3  595.57   18.75
  -1  -2   3  552.69   18.73
  -1  -2   3  607.55   18.72
   1   2  -3  550.04   18.71
   1   2  -3  550.69   18.71
  -1   2   3  571.80   18.75
  -1   2   3  573.35   18.75
   1   2  -3  545.39   18.71
   0  -2  -3    0.51    0.22
   0  -2  -3    0.39    0.18
   0  -2  -3    0.50    0.19
   0   2   3    0.86    0.19
   0   2   3    0.55    0.20
  -1  -2  -3   38.66    1.45
   1  -2   3   39.46    1.49
  -1  -2  -3   39.01    1.46
  -1  -2  -3   40.47    1.46
   1   2   3   41.66    1.48
   1   2   3   41.62    1.43
   1   2   3   39.86    1.46
   1   2   3   41.47    1.43
   2  -2   3   81.07    2.81
  -2  -2  -3   77.27    2.76
  -2  -2  -3   78.74    2.74
  -2  -2  -3   79.56    2.74
   2   2   3   81.73    2.72
   2   2   3   74.46    2.75
   2   2   3   78.00    2.71
  -3  -2  -3   38.26    1.51
  -3  -2  -3   38.08    1.47
  -3  -2  -3   41.16    1.49
   3  -2   3   38.84    1.44
   3   2   3   38.00    1.49
   3   2   3   37.19    1.51
   3   2   3   39.93    1.45
   3   2   3   38.37    1.44
  -4  -2  -3   27.81    1.22
   4  -2   3   27.96    1.20
  -4  -2  -3   28.46    1.28
   4   2   3   30.14    1.19
   4   2   3   29.20    1.18
   4   2   3   29.29    1.24
  -4   2  -3   28.96    1.24
  -5  -2  -3    4.63    0.66
   5  -2   3    4.53    0.59
   5   2   3    5.19    0.51
  -5   2  -3    5.18    0.65
   5   2   3    5.24    0.61
  -6  -2  -3   33.55    1.67
   6  -2   3   35.64    1.62
   6   2   3   36.58    1.63
  -6   2  -3   35.74    1.67
   6   2   3   36.56    1.50
  -7  -2  -3    2.24    0.68
   7  -2   3    2.28    0.62
   7   2   3    1.88    0.55
  -7   2  -3    2.31    0.63
   7  -3  -3   24.53    1.23
  -7  -3   3   20.70    1.36
  -7  -3   3   21.42    1.34
   7  -3  -3   21.48    1.36
   7   3  -3   20.47    1.29
   7   3  -3   20.11    1.20
   7   3  -3   19.47    1.23
  -7   3   3   22.03    1.37
   6  -3  -3    4.37    0.79
   6  -3  -3    4.54    0.69
  -6  -3   3    3.35    0.62
   6  -3  -3    4.94    0.69
  -6  -3   3    3.26    0.65
   6   3  -3    2.68    0.50
   6   3  -3    2.81    0.54
   6   3  -3    2.65    0.58
  -6   3   3    5.90    0.79
   5  -3  -3   69.53    2.61
  -5  -3   3   69.00    2.65
   5  -3  -3   66.72    2.53
   5  -3  -3   71.44    2.56
  -5  -3   3   67.43    2.62
   5   3  -3   66.38    2.57
  -5   3   3   66.41    2.62
  -5   3   3   67.61    2.57
   5   3  -3   65.50    2.57
   5   3  -3   63.27    2.52
   4  -3  -3   39.64    1.49
   4  -3  -3   36.41    1.50
  -4  -3   3   35.38    1.50
  -4  -3   3   34.56    1.51
   4  -3  -3   35.98    1.45
  -4   3   3   35.27    1.48
   4   3  -3   35.37    1.44
   4   3  -3   35.65    1.47
  -4   3   3   34.35    1.50
   4   3  -3   36.79    1.48
  -3  -3   3  110.62    3.79
   3  -3  -3  104.75    3.77
   3  -3  -3  112.24    3.77
  -3  -3   3  107.02    3.77
   3  -3  -3  105.95    3.74
   3   3  -3  108.35    3.74
   3   3  -3  108.39    3.76
  -3   3   3  105.10    3.78
   3   3  -3  108.44    3.75
  -3   3   3  107.88    3.77
  -2  -3   3   61.46    2.12
   2  -3  -3   55.70    2.12
   2  -3  -3   60.72    2.13
  -2  -3   3   56.57    2.12
   2  -3  -3   56.96    2.10
   2   3  -3   61.22    2.10
  -2   3   3   61.51    2.14
   2   3  -3   55.62    2.09
  -2   3   3   62.46    2.14
   2   3  -3   60.24    2.10
   1  -3  -3  162.46    5.35
   1  -3  -3  167.35    5.37
  -1  -3   3  158.97    5.34
   1  -3  -3  153.29    5.36
  -1   3   3  159.71    5.37
   1   3  -3  155.21    5.32
   1   3  -3  153.32    5.31
  -1   3   3  161.49    5.36
   1   3  -3  154.75    5.32
   0  -3  -3  224.36    7.56
   0  -3  -3  224.12    7.58
   0  -3  -3  223.35    7.57
   0   3   3  226.68    7.57
   0   3   3  229.56    7.56
  -1  -3  -3   70.37    2.49
  -1  -3  -3   68.95    2.47
   1  -3   3   71.05    2.49
  -1  -3  -3   70.69    2.48
   1   3   3   68.82    2.48
   1   3   3   71.68    2.46
   1   3   3   72.00    2.46
  -2  -3  -3   38.44    1.43
  -2  -3  -3   37.87    1.43
  -2  -3  -3   36.91    1.45
   2   3   3   36.76    1.44
   2   3   3   36.65    1.39
   2   3   3   39.37    1.40
  -3  -3  -3    1.62    0.36
  -3  -3  -3    1.71    0.31
   3  -3   3    2.04    0.34
  -3  -3  -3    2.21    0.37
   3   3   3    2.05    0.35
   3   3   3    1.65    0.27
   3   3   3    1.45    0.33
  -4  -3  -3   49.81    1.96
  -4  -3  -3   49.73    2.01
   4  -3   3   50.77    1.94
  -4  -3  -3   53.47    1.99
   4   3   3   52.76    1.94
  -4   3  -3   50.16    1.96
   4   3   3   51.75    1.92
   4   3   3   52.10    1.99
   5  -3   3   19.35    1.00
  -5  -3  -3   16.93    1.04
   5   3   3   17.90    1.00
   5   3   3   17.03    0.90
   5   3   3   17.99    0.93
  -5   3  -3   17.95    1.00
  -6  -3  -3    3.66    0.64
   6  -3   3    5.30    0.76
   6   3   3    4.31    0.57
   6   3   3    5.40    0.75
  -6   3  -3    3.86    0.64
   7  -3   3    7.81    0.93
  -7  -3  -3    7.72    0.95
   7   3   3    6.45    0.84
   7   3   3    6.93    0.71
  -7   3  -3    6.14    0.89
   7  -4  -3    8.37    1.02
  -7  -4   3    7.54    0.90
  -7  -4   3    7.21    0.97
   7  -4  -3    8.23    0.80
  -7   4   3    9.96    1.02
   7   4  -3    6.79    0.84
   7   4  -3    7.20    0.77
   7   4  -3    9.08    0.95
   6  -4  -3    7.32    0.86
   6  -4  -3    9.01    0.76
  -6  -4   3    6.69    0.85
   6  -4  -3    7.65    0.75
  -6  -4   3    7.55    0.86
   6   4  -3    6.94    0.74
  -6   4   3    7.05    0.84
   6   4  -3    6.66    0.69
   6   4  -3    7.46    0.82
   5  -4  -3   75.95    2.89
  -5  -4   3   77.59    2.98
   5  -4  -3   81.43    2.99
   5  -4  -3   79.83    2.92
  -5  -4   3   74.25    2.99
  -5   4   3   77.67    2.98
  -5   4   3   77.01    2.93
   5   4  -3   79.75    2.95
   5   4  -3   80.08    2.95
   5   4  -3   80.49    2.91
  -4  -4   3    8.25    0.67
  -4  -4   3    8.37    0.68
   4  -4  -3    7.99    0.66
   4  -4  -3    8.15    0.62
   4  -4  -3    7.17    0.58
  -4   4   3    7.13    0.61
  -4   4   3    6.67    0.64
   4   4  -3    7.23    0.58
   4   4  -3    6.95    0.56
   4   4  -3    7.34    0.63
  -3  -4   3   33.13    1.36
   3  -4  -3   35.91    1.36
   3  -4  -3   33.59    1.36
  -3  -4   3   32.75    1.35
   3  -4  -3   34.09    1.33
   3   4  -3   34.83    1.35
  -3   4   3   31.18    1.35
   3   4  -3   32.74    1.32
  -3   4   3   32.26    1.35
   3   4  -3   32.90    1.31
  -2  -4   3  118.06    4.12
   2  -4  -3  117.48    4.10
  -2  -4   3  120.24    4.11
   2  -4  -3  116.36    4.13
   2  -4  -3  121.21    4.12
  -2   4   3  120.48    4.13
   2   4  -3  118.47    4.09
  -2   4   3  120.08    4.12
   2   4  -3  122.15    4.09
   2   4  -3  118.76    4.10
   1  -4  -3  363.28   11.78
   1  -4  -3  334.03   11.77
   1  -4  -3  356.47   11.75
  -1  -4   3  359.51   11.72
  -1  -4   3  356.04   11.75
   1   4  -3  350.58   11.72
  -1   4   3  344.96   11.77
  -1   4   3  357.83   11.77
   1   4  -3  338.29   11.71
   1   4  -3  360.74   11.72
   0  -4   3  273.44    9.50
   0  -4  -3  286.31    9.57
   0  -4  -3  295.94    9.57
   0  -4  -3  287.24    9.55
   0   4   3  283.72    9.57
   0   4   3  285.16    9.54
  -1  -4  -3   49.82    1.83
  -1  -4  -3   51.70    1.84
  -1  -4  -3   48.35    1.82
   1   4   3   49.86    1.80
   1   4   3   49.13    1.83
  -2  -4  -3  268.37    8.99
  -2  -4  -3  260.13    8.97
  -2  -4  -3  269.00    8.97
   2   4   3  274.18    8.95
   2   4   3  268.18    8.94
   2   4   3  258.52    8.98
  -3  -4  -3  114.98    4.02
  -3  -4  -3  109.84    3.97
  -3  -4  -3  113.22    3.97
   3   4   3  117.41    3.96
   3   4   3  112.45    3.99
   3   4   3  113.71    3.94
  -4  -4  -3   34.75    1.49
  -4  -4  -3   36.59    1.52
  -4  -4  -3   35.40    1.54
   4  -4   3   35.36    1.46
   4   4   3   35.56    1.44
   4   4   3   36.40    1.47
  -4   4  -3   36.03    1.49
   4   4   3   37.50    1.53
   5  -4   3   55.09    2.18
  -5  -4  -3   52.34    2.25
   5   4   3   57.36    2.22
  -5   4  -3   55.66    2.20
   5   4   3   52.63    2.11
   5   4   3   59.43    2.17
  -6  -4  -3   10.63    0.95
   6  -4   3   10.69    0.90
  -6   4  -3    9.76    0.91
   6   4   3   10.27    0.75
   6   4   3    8.52    0.87
   7  -4   3   14.31    1.11
  -7  -4  -3   13.09    1.14
   7   4   3   12.25    0.93
  -7   4  -3   14.08    1.12
   7   4   3   14.25    1.07
   7  -5  -3    7.52    0.85
  -7  -5   3    8.03    0.96
   7  -5  -3    7.08    1.07
  -7  -5   3    6.89    0.97
   7   5  -3    6.87    0.91
   7   5  -3    8.43    0.81
   7   5  -3    6.83    0.84
  -7   5   3    7.42    0.98
  -6  -5   3   23.05    1.37
   6  -5  -3   22.59    1.22
   6  -5  -3   25.34    1.41
  -6  -5   3   26.59    1.38
   6  -5  -3   22.18    1.50
   6   5  -3   22.74    1.26
   6   5  -3   23.51    1.22
  -6   5   3   26.42    1.39
   6   5  -3   22.97    1.30
   5  -5  -3   11.43    0.80
  -5  -5   3   12.22    0.87
   5  -5  -3   11.18    0.90
   5  -5  -3   11.48    0.82
  -5  -5   3   11.70    0.90
   5   5  -3   10.32    0.75
   5   5  -3   11.94    0.77
  -5   5   3    9.80    0.81
   5   5  -3   11.60    0.84
  -5   5   3   10.28    0.85
   4  -5  -3  107.34    3.79
   4  -5  -3  109.19    3.85
   4  -5  -3  110.57    3.81
  -4  -5   3  111.71    3.86
  -4  -5   3  105.33    3.85
   4   5  -3  104.64    3.81
  -4   5   3  109.31    3.82
   4   5  -3  106.81    3.78
  -4   5   3   98.40    3.83
   4   5  -3  103.89    3.81
   3  -5  -3   14.78    0.85
   3  -5  -3   15.61    0.83
   3  -5  -3   15.15    0.80
   3  -5  -3   15.87    0.86
  -3  -5   3   16.54    0.84
  -3  -5   3   16.37    0.85
  -3   5   3   16.83    0.85
   3   5  -3   16.88    0.83
   3   5  -3   15.50    0.78
   3   5  -3   16.53    0.79
  -3   5   3   16.95    0.83
   2  -5  -3    8.46    0.59
   2  -5  -3    9.34    0.63
  -2  -5   3   10.07    0.57
  -2  -5   3    9.48    0.61
   2  -5  -3    9.01    0.58
   2   5  -3   11.11    0.57
  -2   5   3   10.43    0.62
   2   5  -3   10.57    0.56
  -2   5   3    9.65    0.61
   2   5  -3   10.67    0.56
   1  -5  -3   82.30    2.84
  -1  -5   3   79.17    2.83
  -1  -5   3   79.40    2.79
   1  -5  -3   76.51    2.86
   1  -5  -3   80.90    2.85
  -1   5   3   81.65    2.85
   1   5  -3   78.01    2.79
  -1   5   3   83.70    2.87
   1   5  -3   82.30    2.80
   1   5  -3   80.16    2.80
   0  -5   3   97.99    3.40
   0  -5  -3   99.41    3.46
   0  -5  -3   97.59    3.43
   0  -5  -3   98.39    3.46
   0   5  -3   97.73    3.38
   0   5   3   99.95    3.46
   0   5   3   99.83    3.43
  -1  -5  -3   67.98    2.46
  -1  -5  -3   68.71    2.44
  -1  -5  -3   69.15    2.46
  -1  -5  -3   68.55    2.46
   1  -5   3   62.16    2.36
   1   5   3   68.77    2.46
   1   5   3   68.93    2.42
  -2  -5  -3    5.00    0.50
  -2  -5  -3    4.99    0.50
  -2  -5  -3    4.98    0.52
   2   5   3    5.52    0.44
   2   5   3    4.93    0.50
   2   5   3    4.83    0.44
  -3  -5  -3   93.62    3.44
  -3  -5  -3   97.52    3.48
   3  -5   3   93.47    3.36
  -3  -5  -3   98.79    3.44
   3   5   3   95.50    3.45
   3   5   3   95.76    3.39
   3   5   3   98.30    3.41
   4  -5   3   31.56    1.37
  -4  -5  -3   31.03    1.44
  -4  -5  -3   33.25    1.41
  -4  -5  -3   31.97    1.41
  -4   5  -3   30.99    1.37
   4   5   3   32.53    1.43
   4   5   3   31.54    1.33
   4   5   3   33.14    1.36
   5  -5   3    1.07    0.44
  -5  -5  -3    1.01    0.48
   5   5   3    1.26    0.38
   5   5   3    1.38    0.38
  -5   5  -3    1.13    0.45
   5   5   3    0.51    0.42
  -6  -5  -3    9.72    0.95
   6  -5   3    9.67    0.90
   6   5   3    9.70    0.90
  -6   5  -3   10.80    0.93
   6   5   3    9.38    0.77
   7  -6  -3    5.78    0.81
  -7  -6   3    4.40    0.80
  -7  -6   3    5.75    0.95
   7  -6  -3    4.33    0.82
   7   6  -3    4.12    0.67
   7   6  -3    4.18    0.68
   7   6  -3    4.79    0.80
  -7   6   3    5.18    0.91
  -6  -6   3    1.96    0.57
   6  -6  -3    1.05    0.49
  -6  -6   3    2.49    0.63
   6  -6  -3    2.08    0.60
   6   6  -3    3.02    0.57
  -6   6   3    1.91    0.57
   6   6  -3    2.84    0.57
   6   6  -3    2.38    0.50
  -5  -6   3    1.17    0.51
   5  -6  -3    0.70    0.50
   5  -6  -3    1.77    0.47
   5  -6  -3    1.66    0.44
  -5  -6   3    1.68    0.50
  -5   6   3    1.52    0.48
   5   6  -3    1.61    0.48
   5   6  -3    1.24    0.42
   5   6  -3    1.80    0.43
  -4  -6   3   29.31    1.36
   4  -6  -3   31.18    1.41
   4  -6  -3   30.64    1.40
  -4  -6   3   28.83    1.36
   4  -6  -3   28.78    1.30
   4  -6  -3   30.52    1.32
   4   6  -3   28.53    1.30
  -4   6   3   28.97    1.33
  -4   6   3   28.17    1.36
   4   6  -3   30.37    1.30
   4   6  -3   30.23    1.34
   3  -6  -3   18.73    0.94
   3  -6  -3   19.20    1.00
  -3  -6   3   19.32    0.94
  -3  -6   3   18.64    0.95
   3  -6  -3   18.67    0.92
  -3   6   3   17.65    0.93
  -3   6   3   17.39    0.95
   3   6  -3   17.45    0.88
   3   6  -3   18.32    0.92
   3   6  -3   17.46    0.87
  -2  -6   3   40.71    1.60
   2  -6  -3   39.44    1.62
  -2  -6   3   41.53    1.56
   2  -6  -3   39.34    1.57
   2  -6  -3   41.59    1.60
  -2   6   3   39.63    1.59
   2   6  -3   40.95    1.54
  -2   6   3   39.87    1.59
   2   6  -3   40.71    1.55
   2   6  -3   38.25    1.54
   1  -6  -3    2.77    0.39
   1  -6  -3    2.88    0.46
  -1  -6   3    2.33    0.36
  -1  -6   3    3.04    0.41
  -1  -6   3    2.65    0.34
   1  -6  -3    2.77    0.48
   1   6  -3    3.52    0.35
   1   6  -3    3.05    0.36
   1   6  -3    2.83    0.35
  -1   6   3    3.65    0.45
  -1   6   3    2.72    0.42
   0  -6  -3   12.41    0.68
   0  -6  -3   12.08    0.70
   0  -6   3   11.58    0.65
   0  -6  -3   12.39    0.73
   0   6   3   12.40    0.67
   0   6   3   11.96    0.70
   0   6  -3   10.92    0.55
   0   6  -3   11.88    0.61
  -1  -6  -3   33.15    1.37
  -1  -6  -3   34.79    1.39
  -1  -6  -3   32.98    1.37
  -1  -6  -3   33.24    1.35
   1  -6   3   32.76    1.31
  -1   6  -3   34.72    1.28
   1   6   3   32.39    1.37
   1   6   3   33.38    1.33
   2  -6   3    6.77    0.54
  -2  -6  -3    7.26    0.62
  -2  -6  -3    7.05    0.60
  -2  -6  -3    7.49    0.62
   2   6   3    7.64    0.62
   2   6   3    8.17    0.55
   2   6   3    8.18    0.56
  -3  -6  -3   10.13    0.74
   3  -6   3    8.13    0.63
  -3  -6  -3   11.13    0.77
   3  -6   3    9.41    0.65
  -3  -6  -3    9.16    0.70
   3   6   3    9.27    0.73
   3   6   3    9.14    0.63
   3   6   3    9.50    0.62
  -4  -6  -3   40.34    1.65
  -4  -6  -3   39.26    1.66
   4  -6   3   37.45    1.60
  -4  -6  -3   38.93    1.70
  -4   6  -3   36.85    1.61
   4   6   3   40.61    1.68
   4   6   3   40.35    1.61
   4   6   3   36.62    1.57
   5  -6   3    2.48    0.56
  -5  -6  -3    1.79    0.54
  -5   6  -3    2.11    0.51
   5   6   3    1.55    0.43
   5   6   3    2.18    0.54
   5   6   3    2.53    0.47
  -6  -6  -3    8.80    0.93
   6  -6   3    7.96    0.94
  -6   6  -3    7.38    0.86
   6   6   3    7.50    0.74
   6   6   3    9.69    0.90
   7  -7  -3   22.24    1.52
   6  -7  -3   36.93    1.85
  -6  -7   3   36.42    1.78
  -6  -7   3   37.60    1.83
   6  -7  -3   35.09    1.64
   6  -7  -3   35.77    1.84
  -6   7   3   36.87    1.81
   6   7  -3   34.95    1.70
   6   7  -3   39.18    1.76
   6   7  -3   36.36    1.67
  -5  -7   3   40.37    1.78
   5  -7  -3   38.50    1.66
  -5  -7   3   41.79    1.78
   5  -7  -3   31.77    1.71
   5  -7  -3   39.43    1.81
   5   7  -3   39.19    1.66
   5   7  -3   40.00    1.72
  -5   7   3   37.18    1.75
   5   7  -3   37.32    1.69
   4  -7  -3   47.01    1.92
   4  -7  -3   48.48    2.03
   4  -7  -3   51.31    1.96
  -4  -7   3   50.99    2.01
  -4  -7   3   47.08    1.98
   4   7  -3   48.62    1.96
  -4   7   3   46.94    1.99
   4   7  -3   49.24    1.93
   4   7  -3   45.54    1.93
  -4   7   3   46.71    1.97
   3  -7  -3    7.51    0.74
   3  -7  -3    7.08    0.66
  -3  -7   3    7.08    0.63
   3  -7  -3    7.81    0.66
  -3  -7   3    8.13    0.69
   3   7  -3    9.09    0.64
   3   7  -3    8.29    0.59
  -3   7   3    8.29    0.68
   3   7  -3    8.66    0.65
  -3   7   3    6.16    0.66
  -2  -7   3  266.93    8.86
   2  -7  -3  266.36    8.94
   2  -7  -3  261.76    8.88
   2  -7  -3  265.24    8.91
  -2  -7   3  260.62    8.90
   2   7  -3  264.09    8.85
  -2   7   3  262.51    8.91
   2   7  -3  251.71    8.85
   2   7  -3  256.83    8.86
  -2   7   3  262.15    8.91
   1  -7  -3   42.55    1.66
  -1  -7   3   41.30    1.63
   1  -7  -3   41.53    1.63
  -1  -7   3   38.81    1.55
  -1  -7   3   41.68    1.56
   1  -7  -3   42.39    1.70
   1   7  -3   41.99    1.58
  -1   7   3   41.64    1.66
  -1   7   3   41.50    1.65
   1   7  -3   40.02    1.56
   1   7  -3   41.16    1.58
   0  -7  -3   85.11    3.07
   0  -7  -3   88.68    3.04
   0  -7  -3   88.91    3.07
   0  -7   3   88.01    3.02
   0   7  -3   83.36    2.97
   0   7   3   82.34    3.05
   0   7   3   83.76    3.03
   0   7  -3   74.40    2.92
  -1  -7  -3   47.56    1.84
   1  -7   3   45.50    1.77
  -1  -7  -3   46.51    1.84
  -1  -7  -3   47.25    1.80
  -1   7  -3   46.86    1.73
   1   7   3   44.22    1.82
   1   7   3   44.85    1.78
  -2  -7  -3   90.65    3.30
   2  -7   3   87.20    3.20
  -2  -7  -3   89.41    3.29
  -2  -7  -3   88.82    3.25
   2   7   3   90.11    3.24
   2   7   3   90.33    3.23
   2   7   3   89.71    3.29
  -2   7  -3   93.98    3.19
  -3  -7  -3   46.90    1.89
  -3  -7  -3   45.80    1.89
   3  -7   3   42.41    1.81
  -3  -7  -3   47.86    1.94
   3   7   3   48.60    1.92
   3   7   3   47.98    1.84
  -3   7  -3   46.90    1.82
   3   7   3   46.17    1.82
  -4  -7  -3   20.75    1.13
   4  -7   3   20.15    1.09
  -4  -7  -3   21.48    1.11
  -4  -7  -3   21.14    1.17
   4   7   3   18.13    1.00
   4   7   3   20.07    1.12
  -4   7  -3   19.07    1.05
   4   7   3   19.63    1.03
   5  -7   3   33.78    1.60
  -5  -7  -3   33.07    1.67
   5   7   3   34.21    1.53
   5   7   3   36.24    1.57
   5   7   3   35.29    1.66
  -5   7  -3   34.01    1.58
   6  -7   3    0.80    0.58
  -6  -7  -3    0.54    0.56
   6   7   3    0.35    0.50
  -6   7  -3    1.85    0.56
   6   7   3    0.37    0.45
   6  -8  -3   14.45    1.21
  -6  -8   3   12.23    1.12
   6  -8  -3   14.02    0.99
  -6  -8   3   14.60    1.13
   6   8  -3   12.05    0.96
   6   8  -3   14.00    1.08
   6   8  -3   11.77    0.95
  -6   8   3   14.01    1.13
   5  -8  -3   18.30    1.23
  -5  -8   3   17.72    1.13
  -5  -8   3   16.68    1.12
   5  -8  -3   15.48    1.02
   5   8  -3   17.50    1.02
   5   8  -3   15.47    1.01
  -5   8   3   16.79    1.13
   5   8  -3   17.23    1.10
  -4  -8   3   56.92    2.25
   4  -8  -3   54.75    2.31
   4  -8  -3   56.36    2.20
  -4  -8   3   54.93    2.26
   4  -8  -3   55.69    2.19
   4   8  -3   54.82    2.22
   4   8  -3   55.48    2.18
  -4   8   3   53.95    2.25
   4   8  -3   53.80    2.20
   3  -8  -3   26.70    1.26
  -3  -8   3   28.51    1.34
  -3  -8   3   28.99    1.30
   3  -8  -3   28.57    1.30
   3  -8  -3   28.86    1.39
   3   8  -3   27.95    1.25
  -3   8   3   26.65    1.31
  -3   8   3   28.44    1.33
   3   8  -3   28.09    1.28
   3   8  -3   27.96    1.25
  -2  -8   3  137.93    4.83
   2  -8  -3  140.96    4.88
   2  -8  -3  141.63    4.83
  -2  -8   3  139.95    4.77
   2  -8  -3  138.05    4.79
   2   8  -3  133.32    4.77
   2   8  -3  138.90    4.77
   2   8  -3  131.02    4.76
  -2   8   3  128.94    4.82
  -2   8   3  136.61    4.82
  -1  -8   3   21.23    0.98
  -1  -8   3   22.17    1.09
   1  -8  -3   23.14    1.16
   1  -8  -3   23.33    1.08
  -1  -8   3   21.82    0.98
   1  -8  -3   24.31    1.13
   1   8  -3   22.45    1.01
  -1   8   3   21.97    1.09
  -1   8   3   22.70    1.11
   1   8  -3   23.78    1.04
   1   8  -3   23.64    1.04
   0  -8  -3   97.03    3.57
   0  -8  -3  100.00    3.56
   0  -8  -3   99.03    3.53
   0  -8   3   98.64    3.51
   0  -8  -3   97.43    3.55
   0   8  -3   98.63    3.47
   0   8   3   97.76    3.52
   0   8   3   96.32    3.55
  -1  -8  -3   77.14    2.93
  -1  -8  -3   79.64    2.93
   1  -8   3   76.33    2.86
  -1  -8  -3   79.64    2.89
  -1   8  -3   80.22    2.83
   1   8   3   78.42    2.93
   1   8   3   77.15    2.87
   2  -8   3   13.20    0.81
  -2  -8  -3   12.44    0.83
  -2  -8  -3   12.27    0.85
  -2  -8  -3   11.40    0.86
   2   8   3   13.14    0.79
  -2   8  -3   14.11    0.76
   2   8   3   12.55    0.87
   2   8   3   12.70    0.78
  -3  -8  -3   18.60    1.07
  -3  -8  -3   21.49    1.13
   3  -8   3   19.18    1.03
  -3  -8  -3   18.06    1.07
   3   8   3   19.45    1.01
   3   8   3   19.55    1.09
  -3   8  -3   18.65    0.99
   3   8   3   18.31    0.99
   4  -8   3    4.91    0.72
  -4  -8  -3    6.76    0.79
  -4  -8  -3    4.60    0.75
  -4  -8  -3    7.46    0.76
   4   8   3    4.67    0.62
  -4   8  -3    5.10    0.67
   4   8   3    6.70    0.66
   4   8   3    5.25    0.73
  -5  -8  -3   24.64    1.40
   5   8   3   22.47    1.23
   5   8   3   25.64    1.29
  -5   8  -3   24.56    1.31
   5   8   3   25.28    1.35
   6  -8   3    1.08    0.62
   6   8   3    0.96    0.58
  -6  -9   3    0.80    0.66
  -6  -9   3    0.21    0.57
   6  -9  -3    1.09    0.52
   6  -9  -3    1.48    0.66
   6   9  -3    1.44    0.55
   6   9  -3    0.99    0.55
  -6   9   3    1.57    0.59
   6   9  -3    0.80    0.50
  -5  -9   3    1.42    0.54
   5  -9  -3    1.39    0.50
  -5  -9   3    2.53    0.64
   5  -9  -3    2.47    0.71
   5   9  -3    2.13    0.52
   5   9  -3    1.56    0.49
   5   9  -3    2.98    0.62
  -5   9   3    1.65    0.59
   4  -9  -3    2.28    0.61
   4  -9  -3    1.84    0.48
  -4  -9   3    1.42    0.50
  -4  -9   3    1.80    0.52
   4   9  -3    1.68    0.51
   4   9  -3    2.13    0.49
   4   9  -3    2.05    0.43
  -4   9   3    1.80    0.50
   3  -9  -3   18.09    1.01
  -3  -9   3   17.70    0.99
  -3  -9   3   17.09    1.05
   3  -9  -3   16.95    0.99
   3  -9  -3   16.51    1.12
   3   9  -3   18.00    0.96
  -3   9   3   15.23    1.00
   3   9  -3   16.37    0.95
   3   9  -3   17.61    1.05
  -2  -9   3   28.54    1.31
   2  -9  -3   29.51    1.36
  -2  -9   3   31.04    1.40
   2  -9  -3   28.75    1.44
   2  -9  -3   28.18    1.37
  -2   9   3   30.47    1.39
   2   9  -3   31.06    1.32
   2   9  -3   30.24    1.33
  -2   9   3   30.89    1.41
   1  -9  -3   16.93    0.93
  -1  -9   3   16.31    0.94
   1  -9  -3   16.23    1.01
  -1  -9   3   14.28    0.81
   1  -9  -3   16.67    0.97
   1   9  -3   16.91    0.87
  -1   9   3   16.98    0.97
   1   9  -3   16.34    0.88
  -1   9   3   15.51    0.93
   0  -9   3   45.62    1.84
   0  -9  -3   46.14    1.88
   0  -9  -3   44.59    1.83
   0  -9  -3   46.12    1.91
   0   9   3   44.09    1.83
   0   9  -3   44.04    1.78
   0   9   3   45.15    1.87
  -1  -9  -3   13.73    0.92
  -1  -9  -3   13.49    0.93
  -1  -9  -3   13.51    0.87
   1  -9   3   14.10    0.89
  -1   9  -3   15.98    0.83
   1   9   3   13.31    0.84
   1   9   3   14.87    0.92
  -2  -9  -3   89.91    3.45
  -2  -9  -3   95.28    3.42
   2  -9   3   86.32    3.38
  -2  -9  -3   95.84    3.47
   2   9   3   91.20    3.45
  -2   9  -3   95.17    3.35
   2   9   3   92.28    3.38
   2   9   3   92.60    3.39
  -3  -9  -3   15.16    1.02
  -3  -9  -3   16.99    1.05
  -3  -9  -3   15.84    1.00
   3  -9   3   15.07    0.99
   3   9   3   14.84    0.92
   3   9   3   14.88    0.92
   3   9   3   15.99    1.04
  -3   9  -3   14.91    0.89
  -4  -9  -3   34.20    1.69
  -4  -9  -3   35.95    1.65
  -4  -9  -3   36.06    1.68
   4  -9   3   33.88    1.63
   4   9   3   34.52    1.57
   4   9   3   36.00    1.59
  -4   9  -3   35.89    1.59
   4   9   3   34.15    1.67
  -5  -9  -3   13.76    1.11
   5  -9   3   13.00    1.13
   5   9   3   15.59    0.98
  -5   9  -3   12.69    1.01
   5   9   3   14.87    0.99
   5   9   3   13.20    1.04
   5 -10  -3   19.08    1.16
  -5 -10   3   19.80    1.27
   5 -10  -3   18.66    1.38
  -5 -10   3   19.88    1.26
   5  10  -3   19.54    1.18
  -5  10   3   17.71    1.25
   5  10  -3   19.80    1.17
   4 -10  -3   20.07    1.11
  -4 -10   3   18.78    1.15
   4 -10  -3   18.52    1.30
  -4 -10   3   18.67    1.19
   4  10  -3   18.48    1.07
  -4  10   3   16.60    1.16
   4  10  -3   16.99    1.05
   3 -10  -3   29.29    1.52
  -3 -10   3   27.96    1.43
  -3 -10   3   28.28    1.36
   3 -10  -3   26.90    1.36
   3 -10  -3   29.55    1.43
   3  10  -3   27.86    1.33
   3  10  -3   27.16    1.33
  -3  10   3   26.08    1.40
   2 -10  -3   35.32    1.62
  -2 -10   3   34.82    1.63
  -2 -10   3   43.38    1.81
   2 -10  -3   36.16    1.73
   2 -10  -3   33.58    1.59
   2  10  -3   36.33    1.57
   2  10  -3   37.78    1.59
  -2  10   3   34.75    1.63
   1 -10  -3   24.89    1.26
   1 -10  -3   25.71    1.25
   1 -10  -3   26.60    1.28
   1 -10  -3   25.19    1.34
  -1 -10   3   24.23    1.27
  -1 -10   3   23.18    1.12
   1  10  -3   25.65    1.20
  -1  10   3   26.02    1.30
  -1  10   3   24.98    1.26
   1  10  -3   25.03    1.19
   0 -10  -3   48.95    1.98
   0 -10   3   46.64    1.98
   0 -10  -3   48.75    2.01
   0 -10  -3   45.77    2.04
   0  10   3   50.32    2.03
   0  10  -3   48.14    1.92
   0  10   3   47.88    1.97
  -1 -10  -3    1.96    0.53
  -1 -10  -3    3.43    0.59
  -1 -10  -3    2.72    0.53
   1 -10   3    2.18    0.54
  -1  10  -3    2.88    0.47
   1  10   3    2.10    0.47
   1  10   3    3.47    0.57
   2 -10   3   63.61    2.61
  -2 -10  -3   68.17    2.62
  -2 -10  -3   67.10    2.67
  -2 -10  -3   69.75    2.69
  -2  10  -3   65.63    2.55
   2  10   3   65.23    2.65
   2  10   3   66.42    2.59
   2  10   3   67.14    2.59
   3 -10   3   29.71    1.53
  -3 -10  -3   31.58    1.58
  -3 -10  -3   31.72    1.54
  -3 -10  -3   32.68    1.60
   3  10   3   33.93    1.50
   3  10   3   32.47    1.58
   3  10   3   33.84    1.52
  -3  10  -3   31.55    1.47
  -4 -10  -3    5.26    0.84
   4 -10   3    5.01    0.85
  -4 -10  -3    2.98    0.65
  -4 -10  -3    4.84    0.81
  -4  10  -3    5.00    0.70
   4  10   3    4.27    0.67
   4  10   3    4.56    0.71
   4  10   3    5.18    0.79
  -4 -11   3   15.86    1.55
   4 -11  -3   15.01    1.27
   4 -11  -3   13.00    1.01
  -4 -11   3   14.73    1.12
  -4  11   3   13.22    1.10
   4  11  -3   13.84    1.00
   4  11  -3   14.12    0.98
   3 -11  -3   24.79    1.28
   3 -11  -3   22.82    1.42
  -3 -11   3   25.55    1.37
  -3  11   3   21.55    1.31
   3  11  -3   23.33    1.24
   3  11  -3   23.67    1.25
  -2 -11   3    5.09    0.77
   2 -11  -3    6.04    0.73
   2 -11  -3    7.25    0.91
   2 -11  -3    5.28    0.73
   2  11  -3    5.08    0.66
   2  11  -3    5.35    0.69
  -2  11   3    4.97    0.73
   1 -11  -3   24.40    1.32
  -1 -11   3   23.82    1.15
   1 -11  -3   23.69    1.28
   1 -11  -3   27.51    1.44
  -1 -11   3   24.08    1.32
  -1  11   3   25.42    1.32
   1  11  -3   26.72    1.25
   1  11  -3   25.37    1.24
   0 -11  -3    4.25    0.65
   0 -11  -3    3.85    0.70
   0 -11  -3    3.45    0.62
   0 -11   3    3.36    0.58
   0  11   3    3.58    0.56
   0  11  -3    3.60    0.59
   0  11   3    4.22    0.62
  -1 -11  -3    9.21    0.92
   1 -11   3   10.08    0.91
  -1 -11  -3   10.89    0.89
  -1 -11  -3   11.31    0.88
   1  11   3    8.77    0.87
   1  11   3    9.76    0.83
  -1  11  -3    9.25    0.80
   1  11   3    8.77    0.82
  -2 -11  -3   31.33    1.52
  -2 -11  -3   31.26    1.57
   2 -11   3   27.50    1.51
  -2 -11  -3   31.26    1.57
  -2  11  -3   30.21    1.45
   2  11   3   31.22    1.48
   2  11   3   32.98    1.58
   2  11   3   30.83    1.48
  -3 -11  -3    0.87    0.56
  -3 -11  -3    0.24    0.53
   3 -11   3    0.55    0.53
  -3 -11  -3    1.59    0.58
   3  11   3    1.05    0.55
   3  11   3    1.43    0.51
   3  11   3    1.24    0.46
  -3  11  -3    1.13    0.48
  -4 -11  -3   12.84    1.04
  -4 -11  -3   11.91    1.07
   4 -11   3   12.42    1.09
  -4 -11  -3   11.73    1.07
   4  11   3   11.87    0.97
  -4  11  -3   12.32    0.98
   4  11   3   11.18    0.92
   4  11   3   12.76    1.06
   3 -12  -3    7.95    0.86
  -3 -12   3    9.66    1.00
   3 -12  -3    8.66    1.09
  -3  12   3    7.17    0.92
   3  12  -3    9.75    0.85
   3  12  -3    9.42    0.86
   2 -12  -3   13.04    0.99
  -2 -12   3   11.75    1.04
   2 -12  -3   11.77    1.13
  -2  12   3   14.58    1.06
   2  12  -3   14.27    0.97
   2  12  -3   13.06    0.94
  -1 -12   3   29.58    1.53
   1 -12  -3   30.77    1.51
   1 -12  -3   29.20    1.60
   1 -12  -3   28.25    1.45
   1  12  -3   27.59    1.40
  -1  12   3   29.30    1.51
   1  12  -3   29.03    1.43
   0 -12  -3    3.06    0.60
   0 -12  -3    2.87    0.68
   0 -12  -3    2.89    0.61
   0 -12   3    1.90    0.59
   0  12  -3    1.70    0.47
   0  12   3    2.58    0.54
  -1 -12  -3   29.70    1.53
  -1 -12  -3   29.12    1.55
   1 -12   3   27.35    1.50
  -1 -12  -3   26.97    1.44
   1  12   3   30.80    1.48
   1  12   3   28.23    1.45
  -1  12  -3   26.60    1.40
   1  12   3   28.22    1.73
  -2 -12  -3    5.99    0.84
  -2 -12  -3    5.18    0.85
  -2 -12  -3    6.84    0.90
   2 -12   3    4.79    0.87
   2  12   3    6.83    0.82
   2  12   3    5.40    0.85
  -2  12  -3    4.94    0.79
   2  12   3    5.99    0.76
  -3 -12  -3   45.36    2.00
  -3 -12  -3   44.96    2.06
  -3 -12  -3   42.48    2.03
   3  12   3   43.10    1.93
  -3  12  -3   40.54    1.90
   3  12   3   42.34    1.95
   3  12   3   42.63    2.02
   2 -13  -3    2.99    0.65
   2 -13  -3    2.41    0.76
  -2 -13   3    2.91    0.68
  -2  13   3    3.44    0.69
   2  13  -3    2.85    0.58
   2  13  -3    3.05    0.59
   1 -13  -3   30.27    1.53
   1 -13  -3   29.43    1.71
  -1 -13   3   31.05    1.62
   1  13  -3   30.25    1.50
  -1  13   3   28.98    1.57
   1  13  -3   30.79    1.52
   0 -13  -3    6.65    0.88
   0 -13  -3    7.82    1.25
   0 -13   3    6.19    0.89
   0 -13  -3    7.51    0.98
   0  13  -3    6.78    0.79
   0  13   3    7.13    0.82
   0  13  -3    6.82    0.81
   1 -13   3   73.89    3.03
  -1 -13  -3   76.15    2.99
  -1 -13  -3   77.16    3.12
  -1 -13  -3   77.98    3.06
  -1  13  -3   71.49    2.93
   1  13   3   74.08    2.99
   1  13   3   72.32    2.99
  -8   0   4    3.85    0.81
   8   0  -4    3.31    0.69
   8   0  -4    3.90    0.83
   7   0  -4   15.14    1.07
   7   0  -4   18.19    1.18
  -7   0   4   16.16    1.21
  -7   0   4   14.74    1.19
   7   0  -4   16.72    1.10
   6   0  -4    8.78    0.84
   6   0  -4    8.52    0.80
  -6   0   4    7.71    0.82
   6   0  -4    8.28    0.74
  -6   0   4    8.93    0.88
   5   0  -4   33.95    1.48
   5   0  -4   34.58    1.48
  -5   0   4   34.07    1.48
   5   0  -4   31.51    1.40
  -5   0   4   30.17    1.47
  -4   0   4   46.15    1.79
   4   0  -4   46.44    1.74
   4   0  -4   44.66    1.77
   4   0  -4   45.59    1.78
  -4   0   4   42.66    1.78
   3   0  -4   47.50    1.73
   3   0  -4   45.48    1.73
  -3   0   4   46.27    1.76
  -3   0   4   47.25    1.76
   3   0  -4   46.12    1.75
  -2   0   4   40.19    1.48
  -2   0   4   40.50    1.50
   2   0  -4   39.89    1.46
   2   0  -4   41.68    1.49
   2   0  -4   37.98    1.46
   1   0  -4   10.15    0.47
  -1   0   4   11.18    0.50
  -1   0   4   10.27    0.47
   1   0  -4    9.27    0.47
   1   0  -4   11.42    0.49
   0   0   4  110.35    3.76
   1   0   4  170.74    5.78
   2   0   4   72.30    2.59
  -3   0  -4    1.06    0.28
   3   0   4    1.24    0.36
   3   0   4    0.57    0.22
   4   0   4   21.21    0.97
   4   0   4   22.14    1.09
  -4   0  -4   19.63    0.99
   5   0   4   19.67    1.01
  -5   0  -4   18.64    1.04
  -6   0  -4    7.37    0.85
   6   0   4    9.80    0.81
   7   0   4    1.91    0.61
  -7   0  -4    0.88    0.63
   8  -1  -4   12.54    1.21
   8  -1  -4   12.14    1.01
  -8  -1   4   12.30    1.22
  -8   1   4   13.41    1.21
   8   1  -4   12.17    1.05
   8   1  -4   11.87    1.19
   8   1  -4   12.17    1.07
  -7  -1   4   13.49    1.09
   7  -1  -4   13.19    0.98
   7  -1  -4   12.37    1.07
   7  -1  -4   12.66    1.00
  -7  -1   4   13.74    1.14
   7   1  -4   14.70    0.98
  -7   1   4   13.29    1.12
   7   1  -4   13.25    1.03
   7   1  -4   14.59    1.12
  -6  -1   4   10.32    0.93
   6  -1  -4    9.36    0.81
   6  -1  -4   10.26    0.90
  -6  -1   4    9.92    0.91
   6  -1  -4   10.01    0.80
  -6   1   4    9.89    0.91
   6   1  -4   11.02    0.87
  -6   1   4    8.96    0.89
   6   1  -4    9.55    0.78
   6   1  -4   10.82    0.88
   5  -1  -4   32.37    1.46
  -5  -1   4   32.74    1.50
   5  -1  -4   35.14    1.49
  -5  -1   4   33.77    1.50
   5  -1  -4   32.33    1.43
   5   1  -4   31.64    1.41
   5   1  -4   34.20    1.47
   5   1  -4   34.07    1.47
  -5   1   4   33.37    1.49
  -5   1   4   31.75    1.49
   4  -1  -4   50.12    1.92
   4  -1  -4   51.89    1.90
  -4  -1   4   47.07    1.92
  -4  -1   4   50.67    1.94
   4  -1  -4   50.67    1.91
  -4   1   4   47.61    1.93
   4   1  -4   47.64    1.91
   4   1  -4   49.01    1.89
  -4   1   4   50.90    1.94
   4   1  -4   48.64    1.90
   3  -1  -4  180.17    6.08
  -3  -1   4  179.14    6.06
  -3  -1   4  182.10    6.09
   3  -1  -4  178.45    6.04
   3  -1  -4  177.30    6.05
  -3   1   4  174.50    6.07
   3   1  -4  177.10    6.08
   3   1  -4  181.52    6.05
  -3   1   4  177.63    6.08
   3   1  -4  169.39    6.03
  -2  -1   4   54.62    1.98
   2  -1  -4   52.06    1.96
  -2  -1   4   55.15    1.96
   2  -1  -4   56.86    1.98
   2  -1  -4   56.14    1.96
  -2   1   4   55.37    1.99
   2   1  -4   57.05    1.98
   2   1  -4   53.23    1.95
   2   1  -4   54.34    1.95
  -2   1   4   55.21    1.97
  -1  -1   4  343.78   11.44
   1  -1  -4  352.34   11.44
   1  -1  -4  317.86   11.44
   1  -1  -4  370.02   11.47
  -1   1   4  328.63   11.44
  -1   1   4  352.28   11.46
   1   1  -4  331.55   11.42
   1   1  -4  345.66   11.42
   1   1  -4  356.91   11.44
   0  -1  -4  103.14    3.44
   0  -1  -4  106.56    3.45
   0  -1   4  101.46    3.48
   0  -1  -4   97.71    3.45
   0   1   4  100.80    3.50
   0   1   4  102.86    3.45
   1  -1   4   32.53    1.23
   1   1   4   29.87    1.15
   1   1   4   32.73    1.22
  -2  -1  -4  243.64    8.07
   2  -1   4  243.34    8.16
  -2  -1  -4  231.94    8.09
  -2  -1  -4  244.68    8.08
   2   1   4  244.54    8.15
  -3  -1  -4  214.67    7.48
   3  -1   4  226.37    7.56
  -3  -1  -4  217.84    7.46
   3   1   4  223.06    7.48
   3   1   4  225.64    7.54
   4  -1   4   32.11    1.30
   4  -1   4   32.20    1.45
  -4  -1  -4   29.81    1.35
   4   1   4   32.33    1.33
  -4   1  -4   32.67    1.34
   4   1   4   33.85    1.42
   5  -1   4   32.17    1.43
  -5  -1  -4   33.82    1.50
  -5   1  -4   31.68    1.47
   5   1   4   35.12    1.46
  -6  -1  -4    7.72    0.85
   6  -1   4    8.08    0.81
   6   1   4    8.80    0.79
  -6   1  -4    6.56    0.85
   7  -1   4   52.05    2.21
  -7  -1  -4   51.35    2.29
  -7   1  -4   48.38    2.26
   7   1   4   52.85    2.23
  -8  -2   4    1.54    0.70
   8  -2  -4    2.85    0.76
   8  -2  -4    3.06    0.67
   8   2  -4    1.35    0.60
  -8   2   4    3.13    0.78
   8   2  -4    1.67    0.57
   8   2  -4    1.35    0.66
  -7  -2   4   11.64    1.03
   7  -2  -4    8.60    0.98
  -7  -2   4   10.46    1.04
   7  -2  -4    9.68    0.93
   7  -2  -4   10.71    0.90
   7   2  -4   10.66    0.99
   7   2  -4    9.12    0.93
   7   2  -4    9.75    0.88
  -7   2   4   10.82    1.03
   6  -2  -4   23.00    1.22
  -6  -2   4   19.40    1.26
   6  -2  -4   25.07    1.28
   6  -2  -4   20.81    1.17
  -6  -2   4   22.86    1.28
  -6   2   4   21.49    1.28
   6   2  -4   21.62    1.17
   6   2  -4   24.38    1.26
  -6   2   4   22.65    1.24
   6   2  -4   21.51    1.20
   5  -2  -4   38.50    1.64
   5  -2  -4   37.51    1.59
   5  -2  -4   38.97    1.62
  -5  -2   4   37.23    1.66
  -5  -2   4   36.41    1.65
   5   2  -4   38.20    1.59
  -5   2   4   36.89    1.63
  -5   2   4   35.82    1.64
   5   2  -4   37.22    1.62
   5   2  -4   39.48    1.63
   4  -2  -4  104.72    3.57
  -4  -2   4   99.41    3.58
   4  -2  -4   96.47    3.55
  -4  -2   4   96.74    3.57
   4  -2  -4   97.06    3.53
  -4   2   4   98.07    3.57
  -4   2   4   98.23    3.56
   4   2  -4  104.22    3.55
   4   2  -4   95.66    3.55
   4   2  -4  102.25    3.54
  -3  -2   4    6.00    0.49
   3  -2  -4    5.56    0.50
  -3  -2   4    5.61    0.48
   3  -2  -4    5.51    0.47
   3  -2  -4    5.73    0.45
   3   2  -4    4.08    0.43
  -3   2   4    4.59    0.48
  -3   2   4    5.15    0.47
   3   2  -4    5.21    0.44
   3   2  -4    4.89    0.43
   2  -2  -4  149.91    5.05
   2  -2  -4  153.14    5.08
   2  -2  -4  138.69    5.06
  -2  -2   4  146.46    5.04
  -2  -2   4  145.92    5.06
   2   2  -4  146.23    5.04
   2   2  -4  156.50    5.06
   2   2  -4  149.66    5.04
  -2   2   4  148.55    5.07
  -2   2   4  153.90    5.08
   1  -2  -4  392.13   12.15
   1  -2  -4  347.34   12.14
  -1  -2   4  359.16   12.11
   1  -2  -4  369.95   12.13
   1   2  -4  365.89   12.10
   1   2  -4  356.85   12.10
  -1   2   4  380.36   12.15
  -1   2   4  353.59   12.13
   1   2  -4  356.08   12.09
   0  -2  -4  329.48   10.75
   0  -2  -4  324.32   10.75
   0  -2  -4  312.90   10.73
   0   2   4  324.38   10.73
   0   2   4  313.68   10.75
   0   2   4  331.56   10.79
  -1  -2  -4  149.80    4.99
   1  -2   4  148.84    5.03
  -1  -2  -4  142.13    4.98
  -1  -2  -4  149.57    5.00
   1   2   4  148.56    4.96
   1   2   4  149.11    5.03
   1   2   4  145.34    4.99
   1   2   4  149.49    4.97
  -2  -2  -4   56.34    2.02
  -2  -2  -4   55.30    1.99
   2  -2   4   57.57    2.08
  -2  -2  -4   57.39    2.00
   2   2   4   56.28    1.96
   2   2   4   52.91    2.00
   2   2   4   55.46    2.04
  -3  -2  -4  263.01    8.84
   3  -2   4  271.37    8.91
  -3  -2  -4  273.57    8.81
  -3  -2  -4  247.56    8.78
   3   2   4  252.02    8.76
   3   2   4  262.57    8.85
   3   2   4  261.43    8.82
  -4  -2  -4    4.71    0.56
   4  -2   4    5.08    0.51
   4   2   4    3.93    0.41
   4   2   4    4.36    0.63
  -4   2  -4    3.55    0.51
   4   2   4    3.67    0.50
   5  -2   4   26.22    1.22
  -5  -2  -4   25.29    1.29
   5   2   4   29.18    1.33
   5   2   4   25.76    1.24
  -5   2  -4   26.07    1.26
   6  -2   4   26.09    1.29
  -6  -2  -4   22.93    1.33
   6   2   4   25.40    1.28
  -6   2  -4   24.27    1.32
  -7  -2  -4   13.89    1.20
   7  -2   4   17.52    1.13
  -7   2  -4   15.40    1.14
   7   2   4   16.15    1.13
   7  -3  -4    6.27    0.83
  -7  -3   4    6.83    0.93
   7  -3  -4    5.25    0.80
   7  -3  -4    6.27    0.93
  -7  -3   4    5.80    0.92
   7   3  -4    5.50    0.76
  -7   3   4    5.71    0.90
   7   3  -4    5.27    0.79
   7   3  -4    5.19    0.86
   6  -3  -4   91.87    3.62
  -6  -3   4  102.09    3.77
   6  -3  -4  103.10    3.75
  -6  -3   4   98.03    3.77
   6  -3  -4  102.91    3.68
   6   3  -4   93.82    3.69
  -6   3   4   96.32    3.75
   6   3  -4  104.90    3.73
  -6   3   4  101.47    3.70
   6   3  -4   95.83    3.66
  -5  -3   4   42.02    1.81
   5  -3  -4   40.17    1.73
  -5  -3   4   44.20    1.82
   5  -3  -4   45.06    1.81
   5  -3  -4   42.65    1.77
  -5   3   4   43.18    1.79
   5   3  -4   43.61    1.77
   5   3  -4   40.90    1.76
   5   3  -4   39.36    1.72
  -5   3   4   39.92    1.80
   4  -3  -4   73.10    2.60
   4  -3  -4   72.29    2.60
  -4  -3   4   69.94    2.61
  -4  -3   4   67.94    2.60
   4  -3  -4   68.94    2.55
  -4   3   4   68.13    2.59
   4   3  -4   68.59    2.54
   4   3  -4   71.73    2.58
  -4   3   4   67.91    2.58
   4   3  -4   66.43    2.57
  -3  -3   4  188.96    6.54
   3  -3  -4  195.93    6.55
   3  -3  -4  185.89    6.50
  -3  -3   4  192.80    6.54
   3  -3  -4  187.34    6.53
   3   3  -4  186.82    6.52
   3   3  -4  195.15    6.52
  -3   3   4  193.27    6.55
  -3   3   4  193.12    6.54
   3   3  -4  196.94    6.51
   2  -3  -4  111.60    4.03
   2  -3  -4  124.02    4.05
   2  -3  -4  114.44    4.03
   2  -3  -4  116.72    4.01
  -2  -3   4  121.46    4.01
  -2  -3   4  113.77    4.02
   2   3  -4  117.51    3.99
  -2   3   4  117.83    4.05
   2   3  -4  119.13    4.01
  -2   3   4  117.62    4.04
   2   3  -4  112.13    3.99
   1  -3  -4  144.54    4.76
  -1  -3   4  144.90    4.74
   1  -3  -4  148.94    4.78
   1  -3  -4  137.76    4.78
  -1   3   4  140.10    4.77
   1   3  -4  128.29    4.70
  -1   3   4  141.47    4.78
   1   3  -4  138.32    4.72
   1   3  -4  138.76    4.71
   0  -3  -4   88.23    3.08
   0  -3  -4   89.48    3.10
   0  -3  -4   90.93    3.11
   0   3   4   89.60    3.10
   0   3   4   89.18    3.07
  -1  -3  -4  425.22   13.66
  -1  -3  -4  414.49   13.66
   1  -3   4  412.96   13.68
  -1  -3  -4  397.68   13.66
   1   3   4  413.90   13.63
   1   3   4  408.46   13.67
   1   3   4  406.26   13.63
   1   3   4  401.42   13.67
   2  -3   4   70.51    2.55
  -2  -3  -4   69.46    2.48
  -2  -3  -4   71.68    2.51
  -2  -3  -4   71.51    2.49
   2   3   4   66.06    2.49
   2   3   4   72.16    2.45
   2   3   4   69.56    2.50
   2   3   4   67.61    2.44
  -3  -3  -4   26.08    1.19
  -3  -3  -4   28.46    1.17
  -3  -3  -4   25.35    1.13
   3   3   4   27.82    1.18
   3   3   4   27.96    1.19
   3   3   4   28.20    1.10
   3   3   4   28.75    1.11
  -4  -3  -4   90.10    3.35
  -4  -3  -4   94.44    3.31
  -4  -3  -4   87.97    3.33
   4   3   4   96.29    3.27
   4   3   4   90.65    3.24
   4   3   4   93.68    3.33
  -5  -3  -4    2.38    0.51
   5  -3   4    1.98    0.43
   5   3   4    2.13    0.38
  -5   3  -4    2.16    0.48
   5   3   4    1.92    0.46
  -6  -3  -4   17.13    1.16
   6  -3   4   18.47    1.12
   6   3   4   19.45    1.11
  -6   3  -4   18.59    1.13
   7  -3   4    3.02    0.69
  -7  -3  -4    2.58    0.67
  -7   3  -4    1.98    0.64
   7   3   4    2.64    0.60
   7  -4  -4    6.23    0.95
   7  -4  -4    6.19    0.80
  -7  -4   4    3.15    0.66
  -7  -4   4    4.73    0.80
   7   4  -4    5.95    0.73
  -7   4   4    4.94    0.81
   7   4  -4    4.69    0.85
   7   4  -4    4.72    0.77
  -6  -4   4    7.18    0.85
   6  -4  -4    5.77    0.74
   6  -4  -4    8.12    0.79
  -6  -4   4    8.08    0.89
   6  -4  -4    7.33    0.86
  -6   4   4    6.99    0.84
   6   4  -4    7.10    0.75
   6   4  -4    6.34    0.70
   6   4  -4    7.58    0.82
   5  -4  -4    5.69    0.64
  -5  -4   4    4.57    0.68
   5  -4  -4    6.26    0.67
   5  -4  -4    5.98    0.71
  -5  -4   4    4.87    0.69
   5   4  -4    4.97    0.67
   5   4  -4    4.38    0.59
  -5   4   4    4.91    0.69
  -5   4   4    5.22    0.67
   5   4  -4    4.96    0.61
  -4  -4   4   63.39    2.37
   4  -4  -4   63.51    2.35
   4  -4  -4   63.69    2.37
   4  -4  -4   61.69    2.32
  -4  -4   4   59.11    2.35
  -4   4   4   61.39    2.35
   4   4  -4   60.36    2.33
  -4   4   4   57.87    2.35
   4   4  -4   63.31    2.31
   4   4  -4   62.64    2.33
  -3  -4   4  155.11    5.40
  -3  -4   4  158.45    5.39
   3  -4  -4  157.62    5.41
   3  -4  -4  159.59    5.37
   3  -4  -4  165.37    5.42
  -3   4   4  155.58    5.41
   3   4  -4  157.08    5.36
   3   4  -4  148.54    5.36
  -3   4   4  153.29    5.41
   3   4  -4  154.82    5.38
   2  -4  -4   15.15    0.76
   2  -4  -4   14.85    0.73
   2  -4  -4   15.16    0.74
  -2  -4   4   14.93    0.72
  -2  -4   4   14.61    0.69
   2   4  -4   14.06    0.67
   2   4  -4   13.66    0.67
   2   4  -4   14.17    0.67
  -2   4   4   14.31    0.73
  -2   4   4   14.00    0.73
   1  -4  -4   95.21    3.46
   1  -4  -4  100.52    3.44
  -1  -4   4   99.94    3.42
   1  -4  -4  103.19    3.46
   1   4  -4  100.41    3.39
   1   4  -4   99.52    3.39
  -1   4   4   96.93    3.45
  -1   4   4   99.15    3.47
   0  -4  -4   26.62    1.06
   0  -4  -4   28.30    1.08
   0  -4  -4   27.42    1.09
   0   4   4   25.42    1.05
   0   4   4   24.33    1.07
   1  -4   4  102.49    3.62
  -1  -4  -4  106.52    3.62
  -1  -4  -4  103.94    3.63
  -1  -4  -4  107.34    3.61
   1   4   4  101.68    3.62
   1   4   4  101.92    3.58
   1   4   4  104.11    3.61
  -2  -4  -4   35.82    1.42
  -2  -4  -4   37.83    1.40
  -2  -4  -4   36.05    1.40
   2   4   4   34.25    1.34
   2   4   4   33.42    1.40
   2   4   4   35.59    1.35
  -3  -4  -4   25.56    1.16
  -3  -4  -4   26.40    1.18
  -3  -4  -4   27.11    1.21
   3   4   4   27.87    1.20
   3   4   4   28.31    1.12
   3   4   4   26.72    1.11
  -4  -4  -4  104.37    3.63
   4  -4   4   98.05    3.56
  -4  -4  -4   99.39    3.61
  -4  -4  -4   95.52    3.66
   4   4   4  103.26    3.65
   4   4   4  101.69    3.56
   4   4   4  105.63    3.59
   5  -4   4    8.62    0.75
  -5  -4  -4    8.35    0.81
   5   4   4   10.15    0.68
   5   4   4    9.74    0.78
  -5   4  -4    7.05    0.74
  -6  -4  -4   51.63    2.27
   6  -4   4   49.96    2.17
  -6   4  -4   57.79    2.23
   6   4   4   49.81    2.07
   6   4   4   53.28    2.20
   7   4   4    0.91    0.48
   7   4   4    0.98    0.56
  -7  -5   4    1.01    0.58
   7  -5  -4    0.43    0.52
  -7  -5   4    0.18    0.59
   7  -5  -4    0.06    0.61
   7   5  -4    0.82    0.46
   7   5  -4    0.56    0.46
  -7   5   4    0.69    0.56
   7   5  -4    1.07    0.57
   6  -5  -4   15.09    1.12
  -6  -5   4   14.01    1.05
   6  -5  -4   14.73    0.98
  -6  -5   4   14.42    1.07
   6  -5  -4   13.45    0.99
   6   5  -4   13.88    0.93
  -6   5   4   13.45    1.04
   6   5  -4   15.35    1.05
   6   5  -4   12.66    0.95
  -5  -5   4    8.12    0.77
   5  -5  -4    9.71    0.85
   5  -5  -4    7.33    0.75
   5  -5  -4    8.41    0.75
  -5  -5   4    8.54    0.81
   5   5  -4    8.09    0.70
  -5   5   4    8.17    0.77
   5   5  -4    9.36    0.77
   5   5  -4    7.93    0.69
  -5   5   4    8.25    0.79
   4  -5  -4   12.42    0.79
   4  -5  -4   13.78    0.85
  -4  -5   4   11.34    0.79
  -4  -5   4   11.64    0.80
   4  -5  -4   12.94    0.77
   4   5  -4   10.15    0.70
  -4   5   4   10.71    0.78
   4   5  -4   10.99    0.71
  -4   5   4   11.18    0.79
   4   5  -4   11.45    0.75
  -3  -5   4   30.46    1.30
  -3  -5   4   31.97    1.29
   3  -5  -4   30.31    1.29
   3  -5  -4   30.61    1.32
   3  -5  -4   31.72    1.28
   3   5  -4   28.43    1.24
  -3   5   4   30.50    1.31
   3   5  -4   28.19    1.24
   3   5  -4   30.07    1.24
  -3   5   4   30.52    1.30
   2  -5  -4    8.83    0.58
   2  -5  -4    8.48    0.59
  -2  -5   4    9.19    0.59
  -2  -5   4    9.35    0.54
   2  -5  -4    7.94    0.61
  -2   5   4    8.89    0.60
   2   5  -4    8.98    0.53
  -2   5   4    9.78    0.59
   2   5  -4    8.22    0.52
   2   5  -4    8.32    0.52
   1  -5  -4  104.19    3.69
  -1  -5   4  107.68    3.64
   1  -5  -4  107.77    3.66
   1  -5  -4  107.06    3.68
   1   5  -4  104.68    3.60
   1   5  -4  100.52    3.58
  -1   5   4  103.67    3.66
  -1   5   4  103.36    3.68
   1   5  -4  105.64    3.60
   0  -5  -4   89.97    3.17
   0  -5  -4   89.71    3.16
   0  -5   4   88.34    3.08
   0  -5  -4   89.99    3.13
   0   5   4   89.17    3.13
   0   5   4   87.33    3.15
  -1  -5  -4    5.60    0.50
  -1  -5  -4    5.80    0.48
  -1  -5  -4    5.36    0.50
   1   5   4    5.37    0.44
   1   5   4    5.23    0.51
  -2  -5  -4   14.80    0.79
  -2  -5  -4   15.69    0.80
  -2  -5  -4   14.21    0.80
   2   5   4   15.35    0.74
   2   5   4   14.96    0.74
   2   5   4   14.72    0.80
  -3  -5  -4   12.12    0.77
  -3  -5  -4   12.90    0.77
  -3  -5  -4   12.65    0.81
   3   5   4   12.54    0.68
   3   5   4   11.38    0.78
   3   5   4   12.41    0.69
  -4  -5  -4   11.47    0.83
  -4  -5  -4   12.08    0.79
  -4  -5  -4   12.24    0.82
   4   5   4   11.88    0.72
   4   5   4   11.33    0.82
   4   5   4   11.39    0.71
  -5  -5  -4   40.81    1.89
   5  -5   4   39.92    1.80
   5   5   4   45.65    1.89
   5   5   4   42.53    1.75
   5   5   4   47.48    1.82
  -5   5  -4   44.46    1.84
  -6  -5  -4    2.70    0.64
   6  -5   4    1.76    0.54
   6   5   4    2.85    0.58
  -6   5  -4    2.70    0.61
   6   5   4    3.59    0.59
   7  -6  -4   47.42    2.23
   7  -6  -4   45.59    2.04
  -7  -6   4   49.19    2.24
  -7  -6   4   47.37    2.22
   7   6  -4   47.96    2.15
   7   6  -4   42.48    2.03
  -7   6   4   46.78    2.21
   7   6  -4   45.50    2.12
  -6  -6   4   29.21    1.51
   6  -6  -4   31.17    1.60
   6  -6  -4   28.12    1.43
   6  -6  -4   22.56    1.65
  -6  -6   4   30.52    1.56
  -6   6   4   28.82    1.51
   6   6  -4   28.91    1.47
   6   6  -4   27.36    1.44
   6   6  -4   29.20    1.41
   5  -6  -4   71.81    2.76
  -5  -6   4   69.61    2.74
   5  -6  -4   68.70    2.66
   5  -6  -4   74.38    2.71
  -5  -6   4   73.21    2.76
   5  -6  -4   69.21    2.75
   5   6  -4   70.11    2.66
  -5   6   4   66.91    2.81
   5   6  -4   69.94    2.69
  -5   6   4   67.06    2.74
   5   6  -4   64.53    2.68
   4  -6  -4   31.84    1.40
   4  -6  -4   29.10    1.36
  -4  -6   4   29.60    1.40
   4  -6  -4   31.66    1.46
  -4  -6   4   31.26    1.42
   4   6  -4   31.97    1.35
   4   6  -4   29.98    1.35
  -4   6   4   29.50    1.40
  -4   6   4   32.04    1.41
   4   6  -4   32.32    1.37
   3  -6  -4   56.01    2.13
   3  -6  -4   56.62    2.19
  -3  -6   4   59.29    2.14
   3  -6  -4   56.19    2.15
  -3  -6   4   60.12    2.17
   3   6  -4   56.52    2.10
  -3   6   4   55.18    2.15
   3   6  -4   53.43    2.10
   3   6  -4   53.04    2.10
  -3   6   4   53.10    2.16
   2  -6  -4  201.31    6.82
  -2  -6   4  203.10    6.82
   2  -6  -4  195.61    6.85
  -2  -6   4  204.79    6.77
   2  -6  -4  201.48    6.84
   2   6  -4  201.24    6.77
  -2   6   4  198.15    6.83
   2   6  -4  194.24    6.77
  -2   6   4  200.35    6.84
   2   6  -4  195.29    6.78
   1  -6  -4   18.65    0.90
   1  -6  -4   17.06    0.92
  -1  -6   4   17.69    0.85
   1  -6  -4   18.15    0.87
  -1   6   4   18.94    0.92
   1   6  -4   18.24    0.78
   1   6  -4   18.43    0.81
   1   6  -4   18.57    0.81
  -1   6   4   19.75    0.89
   0  -6  -4  173.44    5.90
   0  -6  -4  171.68    5.93
   0  -6   4  167.84    5.84
   0  -6  -4  173.38    5.92
   0   6   4  173.29    5.92
   0   6   4  173.10    5.89
  -1  -6  -4   36.73    1.48
   1  -6   4   36.22    1.38
  -1  -6  -4   35.89    1.47
  -1  -6  -4   35.21    1.45
  -1  -6  -4   36.42    1.48
   1   6   4   35.98    1.42
   1   6   4   34.59    1.47
  -2  -6  -4  134.72    4.67
  -2  -6  -4  133.14    4.63
  -2  -6  -4  133.88    4.65
   2   6   4  132.49    4.60
   2   6   4  130.13    4.66
   2   6   4  130.36    4.59
  -3  -6  -4   41.65    1.64
  -3  -6  -4   40.60    1.63
   3  -6   4   33.77    1.51
  -3  -6  -4   39.96    1.67
   3   6   4   38.54    1.55
   3   6   4   39.42    1.57
   3   6   4   39.68    1.66
  -4  -6  -4   28.67    1.35
  -4  -6  -4   27.24    1.38
  -4  -6  -4   30.09    1.36
   4  -6   4   25.69    1.27
   4   6   4   30.24    1.39
   4   6   4   30.30    1.30
   4   6   4   29.62    1.27
   5  -6   4   21.71    1.19
  -5  -6  -4   20.78    1.23
   5   6   4   21.55    1.20
   5   6   4   21.89    1.11
   5   6   4   22.93    1.10
  -5   6  -4   20.13    1.15
  -6  -6  -4   17.10    1.22
   6  -6   4   20.01    1.23
   6   6   4   19.14    1.20
   6   6   4   17.06    1.04
  -6   6  -4   19.39    1.18
   6  -7  -4   12.82    0.97
   6  -7  -4   11.61    1.13
  -6  -7   4   11.12    1.01
  -6  -7   4   10.90    1.03
   6  -7  -4   12.53    1.13
  -6   7   4   11.46    1.01
   6   7  -4   10.09    0.94
   6   7  -4    9.49    0.88
   6   7  -4   10.71    0.89
   5  -7  -4    8.14    0.81
  -5  -7   4    9.30    0.88
  -5  -7   4    9.59    0.87
   5  -7  -4   10.41    0.95
   5  -7  -4    8.83    0.82
   5   7  -4    9.01    0.76
  -5   7   4    8.20    0.85
   5   7  -4    8.76    0.77
   5   7  -4    9.03    0.81
   4  -7  -4   15.12    1.02
  -4  -7   4   15.13    0.94
  -4  -7   4   15.44    0.95
   4  -7  -4   14.03    0.91
   4  -7  -4   16.29    0.96
  -4   7   4   13.66    0.94
   4   7  -4   14.00    0.86
  -4   7   4   15.65    0.95
   4   7  -4   15.01    0.91
   4   7  -4   14.89    0.88
   3  -7  -4  115.16    4.08
   3  -7  -4  114.28    4.05
   3  -7  -4  116.27    4.12
  -3  -7   4  118.86    4.05
  -3  -7   4  113.02    4.09
  -3   7   4  107.01    4.07
   3   7  -4  109.33    4.02
  -3   7   4  111.95    4.08
   3   7  -4  118.64    4.03
   3   7  -4  113.47    4.03
  -2  -7   4   28.20    1.24
  -2  -7   4   27.10    1.15
   2  -7  -4   28.34    1.26
   2  -7  -4   27.06    1.22
   2  -7  -4   27.67    1.29
   2   7  -4   28.33    1.17
  -2   7   4   27.86    1.26
   2   7  -4   26.69    1.16
  -2   7   4   28.11    1.24
   2   7  -4   25.77    1.15
   1  -7  -4   33.04    1.47
  -1  -7   4   37.10    1.47
   1  -7  -4   36.44    1.52
   1  -7  -4   37.16    1.55
  -1   7   4   37.75    1.49
   1   7  -4   36.43    1.42
   1   7  -4   37.14    1.41
  -1   7   4   36.73    1.52
   1   7  -4   34.17    1.37
   0  -7  -4  279.82    9.44
   0  -7  -4  279.26    9.41
   0  -7   4  271.99    9.36
   0  -7  -4  274.98    9.44
   0   7   4  280.41    9.44
   0   7   4  279.13    9.40
  -1  -7  -4   12.77    0.78
  -1  -7  -4   13.66    0.81
   1  -7   4   12.40    0.72
  -1  -7  -4   13.45    0.80
  -1  -7  -4   12.20    0.80
   1   7   4   11.57    0.72
   1   7   4   12.64    0.81
  -1   7  -4   13.79    0.68
  -2  -7  -4   30.27    1.35
  -2  -7  -4   29.97    1.31
  -2  -7  -4   28.32    1.32
   2   7   4   29.05    1.33
   2   7   4   27.90    1.25
   2   7   4   28.76    1.25
   3  -7   4   14.41    0.83
  -3  -7  -4   17.34    0.95
  -3  -7  -4   16.08    0.98
  -3  -7  -4   15.16    0.93
   3   7   4   14.97    0.84
   3   7   4   15.12    0.96
   3   7   4   14.78    0.83
  -4  -7  -4   86.82    3.21
  -4  -7  -4   84.39    3.22
  -4  -7  -4   82.97    3.25
   4   7   4   83.40    3.13
   4   7   4   90.36    3.26
   4   7   4   84.92    3.16
   5  -7   4    2.32    0.54
  -5  -7  -4    2.53    0.63
  -5  -7  -4    2.39    0.61
   5   7   4    4.61    0.64
  -5   7  -4    4.18    0.67
   5   7   4    4.60    0.72
   5   7   4    3.72    0.54
   6  -7   4    3.44    0.71
  -6  -7  -4    3.42    0.69
   6   7   4    2.53    0.54
  -6   7  -4    3.54    0.65
   6   7   4    5.13    0.84
  -6  -8   4   16.21    1.17
   6  -8  -4   16.52    1.08
   6  -8  -4   13.83    1.23
  -6  -8   4   14.49    1.15
   6   8  -4   14.08    1.01
  -6   8   4   14.40    1.12
   6   8  -4   14.52    1.08
   6   8  -4   12.13    0.98
   5  -8  -4   23.01    1.25
   5  -8  -4   22.99    1.40
   5  -8  -4   19.69    1.51
  -5  -8   4   25.07    1.34
  -5  -8   4   24.14    1.33
   5   8  -4   22.93    1.21
   5   8  -4   23.18    1.24
   5   8  -4   25.37    1.28
  -5   8   4   22.09    1.32
   4  -8  -4   29.18    1.44
   4  -8  -4   27.10    1.32
  -4  -8   4   27.75    1.35
  -4  -8   4   28.69    1.39
   4  -8  -4   30.62    1.37
   4   8  -4   26.92    1.27
  -4   8   4   24.62    1.34
   4   8  -4   23.78    1.26
   4   8  -4   26.87    1.32
   3  -8  -4   19.77    1.07
  -3  -8   4   20.32    1.10
   3  -8  -4   21.34    1.10
  -3  -8   4   22.35    1.05
   3  -8  -4   20.89    1.17
   3   8  -4   19.22    1.00
  -3   8   4   19.23    1.10
   3   8  -4   19.99    1.01
   3   8  -4   20.54    1.03
  -3   8   4   19.39    1.08
   2  -8  -4   89.53    3.25
   2  -8  -4   85.45    3.20
  -2  -8   4   90.32    3.23
  -2  -8   4   87.88    3.14
   2  -8  -4   87.01    3.28
   2   8  -4   86.72    3.15
   2   8  -4   88.61    3.17
  -2   8   4   88.33    3.25
  -2   8   4   86.50    3.24
   1  -8  -4    5.46    0.69
   1  -8  -4    5.75    0.62
  -1  -8   4    6.28    0.61
   1  -8  -4    6.01    0.65
  -1   8   4    5.49    0.59
   1   8  -4    6.12    0.53
  -1   8   4    4.95    0.66
   1   8  -4    6.63    0.54
   0  -8  -4   23.67    1.17
   0  -8  -4   24.07    1.12
   0  -8  -4   23.44    1.19
   0  -8   4   23.69    1.10
   0   8  -4   22.98    1.04
   0   8   4   22.42    1.16
   0   8   4   24.26    1.12
  -1  -8  -4   32.66    1.44
   1  -8   4   31.25    1.35
  -1  -8  -4   33.73    1.45
  -1  -8  -4   31.55    1.39
   1   8   4   30.19    1.43
   1   8   4   31.20    1.37
  -1   8  -4   31.86    1.31
  -2  -8  -4   18.01    1.02
   2  -8   4   16.49    0.91
  -2  -8  -4   17.11    1.01
  -2  -8  -4   17.38    0.98
   2   8   4   16.20    0.91
   2   8   4   17.20    0.92
  -2   8  -4   17.42    0.86
   2   8   4   16.38    1.00
  -3  -8  -4   17.94    1.02
   3  -8   4   15.07    0.92
  -3  -8  -4   16.06    1.01
  -3  -8  -4   16.15    1.06
  -3   8  -4   17.98    0.91
   3   8   4   14.16    0.89
   3   8   4   17.25    1.06
   3   8   4   16.62    0.93
  -4  -8  -4   16.28    1.05
  -4  -8  -4   15.66    1.07
  -4  -8  -4   14.75    1.02
   4  -8   4   14.30    0.96
   4   8   4   16.35    0.96
  -4   8  -4   16.44    0.96
   4   8   4   15.53    1.05
   4   8   4   15.80    0.95
  -5  -8  -4   24.30    1.38
   5  -8   4   22.48    1.30
  -5  -8  -4   24.61    1.35
   5   8   4   22.44    1.22
   5   8   4   24.57    1.26
   5   8   4   25.86    1.36
  -5   8  -4   23.57    1.28
   6  -9  -4   12.12    1.02
   6  -9  -4   13.23    1.28
  -6  -9   4   13.02    1.14
  -6  -9   4   13.63    1.15
   6   9  -4   11.76    0.99
   6   9  -4   12.06    0.98
  -6   9   4   11.90    1.10
  -5  -9   4   18.37    1.22
   5  -9  -4   22.01    1.22
   5  -9  -4   20.49    1.37
  -5  -9   4   25.43    1.33
   5   9  -4   19.19    1.15
   5   9  -4   17.98    1.14
  -5   9   4   20.10    1.26
  -4  -9   4   53.03    2.20
   4  -9  -4   55.45    2.28
   4  -9  -4   51.74    2.13
  -4  -9   4   54.17    2.16
   4  -9  -4   49.25    2.13
   4   9  -4   50.98    2.09
  -4   9   4   49.27    2.17
   4   9  -4   49.33    2.10
  -3  -9   4    3.41    0.58
   3  -9  -4    2.38    0.58
   3  -9  -4    1.62    0.44
   3  -9  -4    4.58    0.69
  -3  -9   4    2.51    0.55
   3   9  -4    2.51    0.44
  -3   9   4    3.40    0.55
  -3   9   4    2.77    0.55
   3   9  -4    2.00    0.45
  -2  -9   4   57.96    2.30
  -2  -9   4   66.67    2.34
   2  -9  -4   60.88    2.33
   2  -9  -4   59.39    2.39
   2  -9  -4   54.99    2.26
   2   9  -4   57.92    2.22
  -2   9   4   54.67    2.29
  -2   9   4   55.81    2.31
   2   9  -4   54.64    2.22
   1  -9  -4   11.63    0.84
   1  -9  -4   14.28    0.90
  -1  -9   4   12.90    0.85
   1  -9  -4   12.13    0.93
   1   9  -4   13.60    0.77
  -1   9   4   12.01    0.84
   1   9  -4   13.14    0.77
  -1   9   4   13.11    0.89
   0  -9  -4   20.98    1.10
   0  -9  -4   20.68    1.10
   0  -9  -4   20.73    1.16
   0  -9   4   20.30    1.05
   0  -9  -4   20.89    1.08
   0   9   4   19.69    1.05
   0   9   4   18.70    1.09
   0   9  -4   20.56    0.98
  -1  -9  -4   34.28    1.48
  -1  -9  -4   32.04    1.52
   1  -9   4   32.06    1.44
  -1  -9  -4   34.79    1.54
   1   9   4   32.83    1.45
  -1   9  -4   33.05    1.39
   1   9   4   31.63    1.51
   2  -9   4   16.21    0.96
  -2  -9  -4   17.17    1.02
  -2  -9  -4   17.03    1.05
  -2  -9  -4   16.50    1.05
   2   9   4   17.50    0.95
   2   9   4   15.48    1.03
   2   9   4   15.97    0.95
  -2   9  -4   17.29    0.90
  -3  -9  -4   46.10    1.90
  -3  -9  -4   45.40    1.95
   3  -9   4   43.02    1.83
  -3  -9  -4   42.17    1.89
   3   9   4   40.94    1.82
   3   9   4   42.51    1.92
   3   9   4   43.09    1.81
  -3   9  -4   45.72    1.80
  -4  -9  -4   16.03    1.11
   4  -9   4   14.60    1.04
  -4  -9  -4   14.10    1.07
  -4  -9  -4   15.27    1.07
  -4   9  -4   17.45    1.00
   4   9   4   16.87    1.00
   4   9   4   16.56    1.10
   4   9   4   15.24    0.96
   5  -9   4   32.23    1.61
  -5  -9  -4   32.00    1.63
  -5  -9  -4   30.67    1.65
   5   9   4   31.06    1.51
   5   9   4   31.45    1.63
  -5   9  -4   31.15    1.55
   5   9   4   31.53    1.54
  -5 -10   4    9.36    0.97
   5 -10  -4    8.84    1.11
  -5 -10   4    8.72    0.95
   5 -10  -4    7.87    0.82
  -5  10   4    9.26    0.94
   5  10  -4    7.74    0.83
   5  10  -4    8.40    0.85
   4 -10  -4    0.88    0.62
  -4 -10   4    2.10    0.62
   4 -10  -4    1.25    0.55
  -4 -10   4    2.04    0.58
   4  10  -4    1.72    0.49
  -4  10   4    0.67    0.48
   4  10  -4    1.41    0.43
   3 -10  -4   21.79    1.21
  -3 -10   4   21.94    1.27
   3 -10  -4   24.56    1.39
   3 -10  -4   24.58    1.27
   3  10  -4   23.68    1.18
   3  10  -4   23.43    1.19
  -3  10   4   21.41    1.25
  -2 -10   4    8.76    0.81
   2 -10  -4   10.00    0.85
   2 -10  -4    9.41    0.91
   2 -10  -4    8.04    0.79
  -2  10   4    8.76    0.80
   2  10  -4    9.69    0.72
  -2  10   4    8.00    0.84
   2  10  -4    9.12    0.72
   1 -10  -4   35.85    1.59
  -1 -10   4   35.77    1.60
   1 -10  -4   35.37    1.62
   1 -10  -4   37.21    1.69
   1 -10  -4   37.12    1.63
   1  10  -4   34.81    1.52
   1  10  -4   35.42    1.51
  -1  10   4   32.67    1.59
  -1  10   4   37.01    1.65
   0 -10  -4   38.09    1.67
   0 -10  -4   36.71    1.61
   0 -10   4   34.01    1.59
   0 -10  -4   36.27    1.70
   0  10  -4   35.17    1.53
   0  10   4   37.09    1.66
   0  10   4   37.09    1.61
  -1 -10  -4   22.14    1.26
  -1 -10  -4   23.54    1.21
  -1 -10  -4   21.62    1.24
   1 -10   4   22.01    1.18
   1  10   4   21.33    1.22
  -1  10  -4   22.37    1.12
   1  10   4   23.81    1.18
  -2 -10  -4   10.30    0.90
   2 -10   4    9.93    0.85
  -2 -10  -4   10.99    0.92
  -2 -10  -4   11.07    0.88
   2  10   4    8.77    0.78
   2  10   4   10.14    0.80
   2  10   4   11.04    0.91
  -2  10  -4    9.81    0.75
  -3 -10  -4   12.54    1.01
  -3 -10  -4    9.88    0.94
   3 -10   4   10.96    0.91
  -3 -10  -4   12.06    0.98
   3  10   4   11.37    0.87
   3  10   4   11.38    0.97
  -3  10  -4   11.62    0.84
   3  10   4   11.85    0.88
  -4 -10  -4   36.48    1.75
   4 -10   4   37.87    1.73
  -4 -10  -4   37.80    1.83
  -4 -10  -4   35.80    1.77
   4  10   4   38.20    1.81
   4  10   4   36.87    1.68
   4  10   4   34.81    1.66
  -4  10  -4   35.46    1.65
  -4 -11   4   13.47    1.10
   4 -11  -4   12.21    1.19
   4 -11  -4   11.51    1.02
   4  11  -4   14.51    0.96
  -4  11   4   12.30    1.07
   4  11  -4   13.11    0.97
   3 -11  -4   40.59    2.03
   3 -11  -4   40.50    1.88
  -3 -11   4   43.85    1.95
   3  11  -4   45.93    1.85
  -3  11   4   40.65    1.93
   3  11  -4   43.18    1.86
  -2 -11   4   14.02    1.03
   2 -11  -4   16.36    1.06
   2 -11  -4   14.24    1.00
   2 -11  -4   16.66    1.18
   2 -11  -4   14.86    1.03
  -2  11   4   14.48    1.04
   2  11  -4   13.94    0.93
   2  11  -4   14.09    0.93
  -1 -11   4   21.14    1.21
   1 -11  -4   20.81    1.30
   1 -11  -4   21.00    1.23
   1 -11  -4   20.42    1.17
  -1  11   4   19.54    1.17
   1  11  -4   19.68    1.09
   1  11  -4   20.90    1.10
  -1  11   4   22.02    1.24
   0 -11  -4   18.05    1.23
   0 -11  -4   19.97    1.14
   0 -11   4   19.72    1.15
   0 -11  -4   18.37    1.18
   0  11   4   19.81    1.13
   0  11  -4   19.09    1.03
   0  11   4   21.56    1.22
   1 -11   4   89.74    3.40
  -1 -11  -4   88.00    3.48
  -1 -11  -4   86.22    3.41
  -1 -11  -4   88.13    3.46
   1  11   4   91.16    3.41
   1  11   4   93.88    3.43
   1  11   4   93.99    3.49
  -1  11  -4   91.29    3.34
  -2 -11  -4   34.71    1.65
  -2 -11  -4   35.88    1.72
   2 -11   4   33.00    1.64
  -2 -11  -4   36.20    1.73
   2  11   4   33.83    1.61
  -2  11  -4   35.43    1.57
   2  11   4   34.83    1.71
   2  11   4   34.85    1.62
   3 -11   4    1.75    0.60
  -3 -11  -4    1.65    0.59
  -3 -11  -4    2.94    0.69
  -3 -11  -4    1.34    0.57
   3  11   4    2.50    0.56
   3  11   4    3.72    0.71
   3  11   4    2.65    0.58
  -3  11  -4    2.24    0.52
   3 -12  -4   28.60    1.73
   3 -12  -4   28.72    1.52
  -3 -12   4   31.34    1.62
  -3  12   4   28.77    1.59
   3  12  -4   30.82    1.49
   3  12  -4   31.27    1.51
  -2 -12   4   14.86    1.10
   2 -12  -4   14.15    1.20
   2 -12  -4   10.30    1.00
  -2  12   4   14.48    1.09
   2  12  -4   12.81    0.93
   2  12  -4   15.00    0.99
   1 -12  -4   51.15    2.29
  -1 -12   4   51.35    2.20
   1 -12  -4   50.73    2.16
   1 -12  -4   49.35    2.20
   1  12  -4   49.85    2.11
   1  12  -4   51.39    2.10
  -1  12   4   50.64    2.21
   0 -12  -4   44.08    1.92
   0 -12  -4   44.21    2.03
   0 -12  -4   44.01    1.97
   0 -12   4   40.82    1.92
   0  12  -4   42.52    1.84
   0  12   4   41.56    1.90
   0  12  -4   43.19    1.83
  -1 -12  -4   38.71    1.86
  -1 -12  -4   42.28    1.93
   1 -12   4   38.88    1.87
  -1 -12  -4   39.41    1.93
   1  12   4   41.39    1.87
  -1  12  -4   42.59    1.80
   1  12   4   40.44    1.86
   1  12   4   43.34    1.96
  -2 -12  -4   21.76    1.38
  -2 -12  -4   22.98    1.33
   2 -12   4   22.49    1.34
  -2 -12  -4   22.76    1.39
   2  12   4   22.70    1.29
   2  12   4   23.18    1.29
  -2  12  -4   20.97    1.24
   2  12   4   22.36    1.39
  -1 -13   4    8.67    0.97
   1 -13  -4   10.58    0.96
   1 -13  -4   10.55    1.15
   1  13  -4   10.30    0.91
  -1  13   4    9.11    0.97
   1  13  -4    8.96    0.88
   0 -13  -4   11.12    1.11
   0 -13   4   11.74    1.03
   0 -13  -4   17.64    1.15
   0 -13  -4   10.96    1.01
   0  13  -4   11.82    0.95
   0  13   4   10.73    0.99
  -1 -13  -4    2.93    0.73
   8   0  -5    0.85    0.53
  -8   0   5    0.96    0.68
   8   0  -5    0.46    0.65
   8   0  -5    0.96    0.51
  -7   0   5    0.20    0.54
  -7   0   5    0.49    0.55
   7   0  -5   -0.50    0.44
   7   0  -5    0.39    0.56
   7   0  -5    0.09    0.47
  -6   0   5    2.77    0.62
   6   0  -5    2.74    0.59
  -6   0   5    2.49    0.62
   6   0  -5    2.49    0.57
   6   0  -5    3.21    0.56
  -5   0   5   41.91    1.75
   5   0  -5   38.23    1.71
   5   0  -5   40.00    1.67
   5   0  -5   43.49    1.73
  -5   0   5   40.25    1.75
   4   0  -5   75.08    2.71
  -4   0   5   71.70    2.74
   4   0  -5   73.54    2.74
   4   0  -5   77.52    2.74
  -4   0   5   73.30    2.74
  -3   0   5   95.17    3.39
   3   0  -5   97.92    3.36
   3   0  -5   96.87    3.39
   3   0  -5   94.86    3.36
  -3   0   5   95.03    3.38
   2   0  -5  127.15    4.24
  -2   0   5  119.91    4.23
  -2   0   5  126.31    4.22
   2   0  -5  120.13    4.21
   2   0  -5  123.59    4.20
  -1   0   5    8.34    0.47
   1   0  -5    9.78    0.46
   1   0  -5    9.34    0.44
   1   0  -5    8.27    0.44
   0   0   5  485.75   16.16
   1   0   5    6.13    0.50
   2   0   5   94.68    3.35
   3   0   5   75.12    2.72
   3   0   5   80.06    2.84
   4   0   5   36.55    1.56
  -4   0  -5   34.34    1.44
   4   0   5   34.82    1.41
   5   0   5   15.40    0.88
  -5   0  -5   14.02    0.93
  -6   0  -5    3.30    0.64
   6   0   5    4.40    0.69
   7   0   5    2.95    0.65
  -7   0  -5    3.04    0.71
   8  -1  -5    6.76    1.00
   8  -1  -5    7.80    0.92
   8  -1  -5    9.76    1.13
  -8  -1   5   12.52    1.19
   8   1  -5    8.80    0.98
   8   1  -5   10.16    1.14
   8   1  -5    8.79    0.97
  -8   1   5    9.74    1.18
  -7  -1   5   16.88    1.23
   7  -1  -5   15.21    1.07
  -7  -1   5   16.19    1.18
   7  -1  -5   17.00    1.20
   7  -1  -5   17.09    1.13
   7   1  -5   17.44    1.22
  -7   1   5   18.54    1.26
  -7   1   5   18.87    1.20
   7   1  -5   14.50    1.05
   7   1  -5   16.75    1.15
   6  -1  -5  103.98    3.76
   6  -1  -5   94.97    3.67
  -6  -1   5   97.89    3.78
   6  -1  -5  101.90    3.75
  -6  -1   5  105.17    3.76
   6   1  -5   98.04    3.73
  -6   1   5  103.35    3.77
   6   1  -5   96.41    3.66
   6   1  -5  103.45    3.76
  -6   1   5   94.11    3.76
  -5  -1   5   35.24    1.60
  -5  -1   5   37.09    1.62
   5  -1  -5   35.35    1.54
   5  -1  -5   37.94    1.60
   5  -1  -5   36.25    1.58
  -5   1   5   36.09    1.61
   5   1  -5   36.60    1.58
   5   1  -5   36.78    1.59
  -5   1   5   38.77    1.63
   5   1  -5   34.03    1.52
   4  -1  -5  265.32    9.05
  -4  -1   5  261.94    9.06
  -4  -1   5  269.96    9.08
   4  -1  -5  268.28    9.04
   4  -1  -5  257.52    9.06
  -4   1   5  274.36    9.09
   4   1  -5  262.50    9.04
   4   1  -5  276.86    9.04
   4   1  -5  267.19    9.07
  -4   1   5  261.45    9.07
   3  -1  -5  116.33    4.01
  -3  -1   5  117.67    4.02
  -3  -1   5  114.92    4.05
   3  -1  -5  112.08    4.01
   3  -1  -5  114.35    4.04
   3   1  -5  114.85    4.00
   3   1  -5  114.49    4.04
  -3   1   5  113.55    4.02
  -3   1   5  119.12    4.05
   3   1  -5  117.68    4.01
   2  -1  -5  285.42   10.17
  -2  -1   5  302.54   10.20
   2  -1  -5  318.16   10.21
  -2  -1   5  303.72   10.16
   2  -1  -5  307.67   10.18
   2   1  -5  310.01   10.18
   2   1  -5  289.09   10.15
  -2   1   5  301.27   10.18
   2   1  -5  311.33   10.20
  -2   1   5  314.22   10.21
  -1  -1   5   37.55    1.28
   1  -1  -5   38.25    1.29
   1  -1  -5   35.54    1.29
   1  -1  -5   37.68    1.28
   1   1  -5   31.06    1.23
   1   1  -5   35.25    1.26
  -1   1   5   33.49    1.29
  -1   1   5   31.35    1.26
   0  -1  -5  344.09   10.90
   0  -1  -5  331.08   10.89
   0  -1   5  319.37   10.94
   0   1   5  328.62   10.91
   0   1   5  316.25   10.96
   1  -1   5  789.59   25.74
   1   1   5  758.27   25.66
   1   1   5  779.25   25.74
  -2  -1  -5    1.56    0.26
  -2  -1  -5    2.40    0.31
   2  -1   5    2.91    0.40
   2   1   5    2.16    0.32
   2   1   5    2.08    0.37
   3  -1   5  129.57    4.54
  -3  -1  -5  130.58    4.42
  -3  -1  -5  127.75    4.45
   3   1   5  130.40    4.52
   3   1   5  126.72    4.43
   4  -1   5   44.76    1.88
  -4  -1  -5   44.58    1.77
   4  -1   5   46.16    1.72
  -4   1  -5   42.22    1.74
   4   1   5   46.34    1.86
   4   1   5   45.85    1.75
   5  -1   5   79.18    2.83
  -5  -1  -5   71.41    2.87
   5   1   5   79.07    2.96
  -5   1  -5   76.25    2.86
   5   1   5   76.13    2.84
   6  -1   5   22.99    1.22
  -6  -1  -5   22.95    1.28
  -6   1  -5   22.65    1.26
   6   1   5   25.12    1.24
   7  -1   5   16.59    1.15
  -7  -1  -5   15.76    1.21
   7   1   5   15.71    1.12
  -7   1  -5   16.03    1.18
  -8  -2   5   23.95    1.55
   8  -2  -5   20.81    1.50
   8  -2  -5   20.27    1.34
  -8   2   5   20.31    1.48
   8   2  -5   23.46    1.48
   8   2  -5   22.13    1.37
   8   2  -5   20.46    1.30
   7  -2  -5    2.52    0.66
   7  -2  -5    2.11    0.60
  -7  -2   5    1.99    0.68
   7  -2  -5    2.28    0.58
  -7  -2   5    0.84    0.61
   7   2  -5    1.85    0.61
   7   2  -5    1.59    0.57
  -7   2   5    1.49    0.60
   7   2  -5    1.64    0.56
   6  -2  -5   41.61    1.82
  -6  -2   5   42.31    1.88
  -6  -2   5   39.31    1.87
   6  -2  -5   45.74    1.90
   6  -2  -5   38.29    1.77
   6   2  -5   41.15    1.83
  -6   2   5   39.85    1.86
   6   2  -5   40.46    1.81
  -6   2   5   41.42    1.84
   6   2  -5   39.79    1.76
  -5  -2   5   28.91    1.43
   5  -2  -5   32.75    1.46
   5  -2  -5   32.33    1.41
   5  -2  -5   32.47    1.44
  -5  -2   5   31.73    1.46
  -5   2   5   30.32    1.44
   5   2  -5   32.02    1.43
  -5   2   5   33.09    1.47
   5   2  -5   29.61    1.42
   5   2  -5   31.17    1.39
   4  -2  -5    0.38    0.29
  -4  -2   5   -0.34    0.34
   4  -2  -5    0.18    0.32
   4  -2  -5    0.66    0.33
  -4  -2   5   -0.04    0.34
   4   2  -5    0.09    0.30
   4   2  -5    0.06    0.29
  -4   2   5    0.22    0.30
   4   2  -5   -0.04    0.30
  -4   2   5   -0.11    0.31
   3  -2  -5  151.79    5.17
  -3  -2   5  150.86    5.14
  -3  -2   5  147.76    5.16
   3  -2  -5  146.79    5.14
   3  -2  -5  152.62    5.14
  -3   2   5  148.70    5.17
   3   2  -5  153.23    5.12
   3   2  -5  142.00    5.11
   3   2  -5  152.92    5.15
  -3   2   5  148.47    5.16
   2  -2  -5   56.37    2.12
   2  -2  -5   62.60    2.15
   2  -2  -5   56.53    2.12
  -2  -2   5   59.12    2.12
   2  -2  -5   60.11    2.12
  -2  -2   5   59.26    2.09
   2   2  -5   62.15    2.12
   2   2  -5   57.03    2.09
  -2   2   5   58.96    2.15
   2   2  -5   59.52    2.09
  -2   2   5   58.74    2.12
   1  -2  -5   54.06    2.00
   1  -2  -5   57.16    1.99
   1  -2  -5   60.52    2.02
  -1  -2   5   54.87    1.97
  -1   2   5   57.54    2.02
  -1   2   5   53.92    1.99
   0  -2  -5  169.53    5.62
   0  -2  -5  168.08    5.61
   0  -2  -5  163.86    5.62
   0   2   5  167.55    5.68
   0   2   5  166.21    5.63
   0   2   5  165.81    5.60
  -1  -2  -5   30.71    1.19
   1  -2   5   33.56    1.27
  -1  -2  -5   33.23    1.19
  -1  -2  -5   30.01    1.17
   1   2   5   29.87    1.19
   1   2   5   31.79    1.26
   2  -2   5    0.11    0.31
  -2  -2  -5    0.19    0.23
  -2  -2  -5    0.22    0.19
  -2  -2  -5    0.42    0.25
  -2  -2  -5    0.17    0.20
   2   2   5    0.41    0.24
   2   2   5    0.54    0.30
   3  -2   5   15.88    0.96
  -3  -2  -5   16.48    0.84
  -3  -2  -5   17.28    0.82
   3   2   5   17.92    0.91
   3   2   5   16.88    0.84
   4  -2   5   54.28    2.08
  -4  -2  -5   58.50    2.14
  -4  -2  -5   55.94    2.17
   4   2   5   57.80    2.15
   4   2   5   56.32    2.20
   5  -2   5    1.97    0.42
  -5  -2  -5    1.66    0.48
   5   2   5    2.04    0.54
   5   2   5    1.77    0.44
  -5   2  -5    1.90    0.45
   6  -2   5    6.45    0.78
  -6  -2  -5    7.34    0.83
  -6   2  -5    6.73    0.81
   6   2   5    8.55    0.81
  -7  -2  -5   11.24    1.08
   7  -2   5   12.60    1.03
   7   2   5   12.11    1.01
  -7   2  -5   11.80    1.05
  -7  -3   5   14.29    1.18
  -7  -3   5   13.95    1.18
   7  -3  -5   15.93    1.20
   7  -3  -5   15.76    1.09
   7  -3  -5   13.33    1.05
   7   3  -5   13.13    1.05
   7   3  -5   13.01    1.01
  -7   3   5   13.25    1.15
   7   3  -5   12.96    1.10
   6  -3  -5    1.65    0.56
   6  -3  -5    1.89    0.57
  -6  -3   5    1.58    0.54
   6  -3  -5    0.66    0.47
  -6  -3   5    1.88    0.59
   6   3  -5    0.75    0.44
   6   3  -5    0.85    0.51
   6   3  -5    0.72    0.42
  -6   3   5    1.23    0.51
  -6   3   5    1.79    0.55
  -5  -3   5   28.89    1.40
   5  -3  -5   29.36    1.39
   5  -3  -5   25.91    1.32
  -5  -3   5   28.85    1.41
   5  -3  -5   29.89    1.41
   5   3  -5   32.50    1.36
   5   3  -5   30.20    1.37
   5   3  -5   28.39    1.36
  -5   3   5   30.68    1.41
  -5   3   5   28.28    1.39
   4  -3  -5    6.11    0.58
  -4  -3   5    6.23    0.64
   4  -3  -5    6.21    0.61
  -4  -3   5    5.23    0.60
   4  -3  -5    6.28    0.63
   4   3  -5    5.22    0.54
   4   3  -5    5.50    0.54
   4   3  -5    6.08    0.60
  -4   3   5    6.18    0.63
  -4   3   5    6.36    0.61
   3  -3  -5   39.40    1.54
  -3  -3   5   37.67    1.53
  -3  -3   5   38.25    1.50
   3  -3  -5   38.75    1.50
   3  -3  -5   38.12    1.53
   3   3  -5   39.48    1.48
   3   3  -5   37.64    1.49
  -3   3   5   38.57    1.53
  -3   3   5   38.55    1.55
   3   3  -5   38.67    1.51
   2  -3  -5   67.17    2.49
   2  -3  -5   69.93    2.47
  -2  -3   5   68.90    2.47
  -2  -3   5   69.76    2.44
   2  -3  -5   71.37    2.50
   2   3  -5   71.54    2.46
  -2   3   5   70.30    2.49
   2   3  -5   66.07    2.43
   2   3  -5   70.92    2.44
  -2   3   5   69.88    2.51
   1  -3  -5    0.42    0.26
  -1  -3   5    0.08    0.17
   1  -3  -5    0.11    0.21
   1  -3  -5    0.21    0.24
  -1   3   5   -0.08    0.19
  -1   3   5    0.24    0.23
   0  -3  -5   74.43    2.55
   0  -3  -5   72.61    2.54
   0  -3  -5   70.15    2.55
   0   3   5   72.59    2.56
   0   3   5   71.60    2.52
   0   3   5   72.74    2.59
  -1  -3  -5   46.04    1.69
  -1  -3  -5   46.00    1.68
   1  -3   5   46.89    1.73
  -1  -3  -5   47.65    1.68
   1   3   5   43.82    1.69
   1   3   5   44.19    1.72
   1   3   5   43.60    1.64
   1   3   5   47.24    1.64
  -2  -3  -5   30.91    1.22
  -2  -3  -5   28.24    1.20
  -2  -3  -5   29.41    1.19
   2  -3   5   32.06    1.30
  -2  -3  -5   29.39    1.18
   2   3   5   29.92    1.25
   2   3   5   29.86    1.22
   2   3   5   29.72    1.14
   2   3   5   30.12    1.14
  -3  -3  -5   35.19    1.41
  -3  -3  -5   34.45    1.43
  -3  -3  -5   31.91    1.36
   3  -3   5   35.88    1.52
   3   3   5   36.05    1.43
   3   3   5   36.32    1.34
   3   3   5   33.69    1.33
   3   3   5   34.94    1.45
  -4  -3  -5   22.70    1.11
  -4  -3  -5   22.81    1.09
   4   3   5   22.57    1.14
   4   3   5   22.57    1.09
  -5  -3  -5    0.57    0.43
   5  -3   5    0.39    0.38
   5   3   5    0.71    0.40
   6  -3   5   12.28    0.95
  -6  -3  -5   10.92    0.95
  -6   3  -5   10.67    0.91
   6   3   5   11.90    0.91
   7  -4  -5   61.02    2.59
  -7  -4   5   69.17    2.76
  -7  -4   5   66.13    2.76
   7  -4  -5   66.32    2.76
   7   4  -5   68.40    2.70
   7   4  -5   62.26    2.64
   7   4  -5   55.70    2.54
  -7   4   5   62.37    2.74
  -6  -4   5   20.65    1.23
   6  -4  -5   20.68    1.16
  -6  -4   5   19.41    1.23
   6  -4  -5   21.19    1.26
   6  -4  -5   18.52    1.13
  -6   4   5   17.66    1.21
  -6   4   5   19.01    1.19
   6   4  -5   18.09    1.10
   6   4  -5   19.53    1.15
   6   4  -5   20.72    1.20
  -5  -4   5   78.93    3.01
  -5  -4   5   81.56    3.00
   5  -4  -5   82.02    3.01
   5  -4  -5   74.92    2.92
   5  -4  -5   80.09    2.97
   5   4  -5   76.15    2.91
  -5   4   5   76.89    3.00
   5   4  -5   78.95    2.94
   5   4  -5   76.64    2.96
  -5   4   5   76.30    2.97
   4  -4  -5   40.29    1.65
  -4  -4   5   40.84    1.67
  -4  -4   5   39.23    1.68
   4  -4  -5   40.39    1.68
   4  -4  -5   42.49    1.70
  -4   4   5   39.25    1.68
  -4   4   5   39.53    1.68
   4   4  -5   40.25    1.65
   4   4  -5   42.01    1.63
   4   4  -5   41.65    1.65
  -3  -4   5  310.74   10.30
   3  -4  -5  304.96   10.28
   3  -4  -5  300.62   10.31
   3  -4  -5  308.77   10.31
   3  -4  -5  306.21   10.32
  -3  -4   5  312.97   10.28
   3   4  -5  300.14   10.26
  -3   4   5  293.89   10.30
   3   4  -5  306.99   10.26
   3   4  -5  300.27   10.28
  -3   4   5  310.43   10.32
  -2  -4   5  128.42    4.26
  -2  -4   5  123.84    4.21
   2  -4  -5  124.22    4.29
   2  -4  -5  125.85    4.28
   2  -4  -5  126.58    4.26
   2   4  -5  121.62    4.21
   2   4  -5  116.29    4.20
   2   4  -5  117.99    4.22
  -2   4   5  122.72    4.28
  -2   4   5  123.30    4.27
   1  -4  -5  151.56    5.03
  -1  -4   5  152.86    4.98
   1  -4  -5  147.21    5.03
   1  -4  -5  149.75    5.01
  -1   4   5  137.15    5.00
  -1   4   5  144.03    5.03
   1   4  -5  142.83    4.94
   0  -4  -5  343.82   11.44
   0  -4  -5  347.47   11.46
   0  -4  -5  341.19   11.46
   0   4   5  338.83   11.42
   0   4   5  338.15   11.46
  -1  -4  -5   68.06    2.41
  -1  -4  -5   67.06    2.43
   1  -4   5   66.86    2.44
  -1  -4  -5   67.22    2.42
   1   4   5   67.20    2.44
   1   4   5   65.41    2.42
   1   4   5   67.80    2.38
  -2  -4  -5  213.96    7.25
   2  -4   5  214.46    7.28
  -2  -4  -5  214.32    7.22
  -2  -4  -5  209.69    7.22
   2   4   5  219.88    7.19
   2   4   5  203.88    7.24
   2   4   5  213.86    7.23
   2   4   5  211.65    7.18
  -3  -4  -5   31.25    1.32
  -3  -4  -5   29.88    1.29
  -3  -4  -5   31.80    1.35
   3   4   5   31.90    1.34
   3   4   5   32.02    1.25
   3   4   5   29.42    1.23
  -4  -4  -5   53.85    2.09
  -4  -4  -5   51.60    2.12
   4   4   5   54.20    2.01
   4   4   5   53.61    2.01
   4   4   5   54.84    2.11
  -5  -4  -5    8.47    0.80
   5   4   5    9.17    0.67
   5   4   5   10.14    0.81
  -6  -4  -5   30.87    1.58
   6  -4   5   29.89    1.49
  -6   4  -5   31.43    1.52
   6   4   5   30.06    1.52
   7  -5  -5   29.60    1.68
   7  -5  -5   27.73    1.51
  -7  -5   5   30.22    1.65
  -7  -5   5   31.64    1.67
   7   5  -5   28.65    1.58
  -7   5   5   26.73    1.60
   7   5  -5   28.52    1.54
   7   5  -5   26.63    1.46
  -6  -5   5   95.95    3.64
   6  -5  -5   93.07    3.54
   6  -5  -5   86.93    3.49
   6  -5  -5  101.95    3.66
  -6  -5   5   95.95    3.62
   6   5  -5   95.88    3.55
   6   5  -5   91.45    3.51
   6   5  -5   89.71    3.55
  -6   5   5   91.75    3.61
  -5  -5   5    5.31    0.72
   5  -5  -5    6.11    0.73
  -5  -5   5    5.66    0.72
   5  -5  -5    5.44    0.75
   5  -5  -5    5.99    0.74
  -5   5   5    5.53    0.76
   5   5  -5    7.18    0.74
   5   5  -5    6.42    0.65
  -5   5   5    5.50    0.72
   5   5  -5    5.47    0.63
  -4  -5   5   44.83    1.75
   4  -5  -5   41.61    1.75
   4  -5  -5   44.21    1.74
   4  -5  -5   40.84    1.70
   4  -5  -5   42.37    1.75
  -4  -5   5   43.40    1.72
   4   5  -5   38.53    1.67
  -4   5   5   38.13    1.72
   4   5  -5   41.75    1.66
  -4   5   5   37.28    1.71
   4   5  -5   42.82    1.69
   3  -5  -5   42.50    1.66
   3  -5  -5   41.70    1.67
  -3  -5   5   41.64    1.66
   3  -5  -5   41.99    1.69
  -3  -5   5   42.15    1.62
   3   5  -5   40.13    1.61
   3   5  -5   40.97    1.60
  -3   5   5   39.59    1.67
  -3   5   5   39.85    1.67
   3   5  -5   42.78    1.61
  -2  -5   5   77.59    2.74
   2  -5  -5   77.45    2.78
   2  -5  -5   74.32    2.78
   2  -5  -5   76.55    2.75
   2   5  -5   75.78    2.70
   2   5  -5   71.79    2.67
  -2   5   5   77.82    2.78
  -2   5   5   75.00    2.76
   2   5  -5   80.11    2.70
   1  -5  -5  225.83    7.66
  -1  -5   5  221.96    7.58
   1  -5  -5  229.92    7.65
   1  -5  -5  228.88    7.63
   1   5  -5  223.45    7.55
  -1   5   5  220.04    7.62
   1   5  -5  226.36    7.56
  -1   5   5  224.00    7.65
   0  -5  -5   16.75    0.82
   0  -5  -5   16.09    0.85
   0  -5  -5   18.11    0.83
   0   5   5   16.47    0.86
   0   5   5   17.30    0.80
  -1  -5  -5  152.69    5.30
  -1  -5  -5  153.93    5.29
  -1  -5  -5  155.63    5.28
   1   5   5  150.06    5.30
   1   5   5  152.15    5.25
   1   5   5  156.06    5.29
  -2  -5  -5    4.69    0.54
  -2  -5  -5    4.62    0.51
  -2  -5  -5    4.56    0.52
   2   5   5    3.70    0.52
   2   5   5    4.47    0.43
   2   5   5    4.60    0.46
  -3  -5  -5  100.16    3.63
  -3  -5  -5  101.85    3.67
  -3  -5  -5   99.89    3.63
   3   5   5  106.61    3.60
   3   5   5  103.03    3.67
   3   5   5   97.56    3.56
  -4  -5  -5   45.45    1.82
  -4  -5  -5   42.53    1.85
   4   5   5   43.76    1.74
   4   5   5   45.83    1.84
   4   5   5   42.58    1.73
   5  -5   5    3.23    0.54
  -5  -5  -5    3.93    0.62
   5   5   5    2.80    0.53
   5   5   5    3.40    0.54
  -6  -5  -5   21.62    1.33
   6  -5   5   19.81    1.23
  -6   5  -5   23.84    1.27
   6   5   5   21.69    1.11
   6   5   5   22.01    1.27
   7  -6  -5    8.37    1.14
  -7  -6   5    5.48    0.98
  -7  -6   5    5.35    0.94
   7   6  -5    5.60    0.83
   7   6  -5    6.09    0.95
   7   6  -5    5.51    0.80
  -7   6   5    7.49    1.00
  -6  -6   5   20.82    1.28
   6  -6  -5   22.19    1.34
   6  -6  -5   20.06    1.31
  -6  -6   5   20.25    1.29
   6  -6  -5   20.88    1.23
   6  -6  -5   21.67    1.25
   6   6  -5   17.53    1.16
  -6   6   5   19.17    1.27
   6   6  -5   20.02    1.22
   6   6  -5   19.63    1.15
   5  -6  -5   56.08    2.39
   5  -6  -5   62.90    2.44
  -5  -6   5   60.10    2.46
  -5  -6   5   62.20    2.45
   5  -6  -5   60.97    2.50
   5  -6  -5   61.78    2.50
   5   6  -5   57.89    2.40
  -5   6   5   64.68    2.46
  -5   6   5   59.34    2.46
   5   6  -5   60.27    2.41
   5   6  -5   61.67    2.37
   4  -6  -5    5.64    0.68
  -4  -6   5    5.72    0.64
  -4  -6   5    5.96    0.69
   4  -6  -5    5.87    0.65
   4  -6  -5    6.63    0.74
  -4   6   5    5.90    0.68
   4   6  -5    6.36    0.61
   4   6  -5    5.92    0.58
  -4   6   5    6.39    0.67
   4   6  -5    6.81    0.62
   3  -6  -5   40.24    1.70
   3  -6  -5   40.37    1.67
   3  -6  -5   40.80    1.64
  -3  -6   5   41.68    1.60
  -3  -6   5   38.97    1.64
  -3   6   5   39.22    1.65
   3   6  -5   38.53    1.57
   3   6  -5   42.12    1.59
  -3   6   5   40.23    1.67
   3   6  -5   37.90    1.58
   2  -6  -5    4.73    0.56
  -2  -6   5    4.62    0.44
  -2  -6   5    4.98    0.53
   2  -6  -5    5.16    0.55
   2  -6  -5    4.97    0.60
   2   6  -5    5.46    0.47
  -2   6   5    5.30    0.59
   2   6  -5    5.09    0.46
   2   6  -5    4.68    0.44
  -2   6   5    5.41    0.54
   1  -6  -5   84.01    2.94
   1  -6  -5   82.75    2.98
   1  -6  -5   81.21    2.96
  -1  -6   5   81.98    2.89
   1   6  -5   82.88    2.85
  -1   6   5   79.74    2.96
   1   6  -5   80.57    2.85
  -1   6   5   77.37    2.93
   0  -6  -5   21.47    1.04
   0  -6  -5   21.48    1.00
   0  -6  -5   22.01    1.05
   0   6   5   23.01    1.00
   0   6   5   21.98    1.05
  -1  -6  -5   36.14    1.48
  -1  -6  -5   34.50    1.45
  -1  -6  -5   34.59    1.48
   1   6   5   35.31    1.49
   1   6   5   36.99    1.43
  -2  -6  -5   56.18    2.14
  -2  -6  -5   55.06    2.14
  -2  -6  -5   56.09    2.18
   2   6   5   55.95    2.17
   2   6   5   57.71    2.10
   2   6   5   54.35    2.09
  -3  -6  -5   52.43    2.10
  -3  -6  -5   52.37    2.06
  -3  -6  -5   51.04    2.06
   3   6   5   54.39    2.02
   3   6   5   52.74    2.10
   3   6   5   51.05    1.98
  -4  -6  -5  110.16    3.99
  -4  -6  -5  108.64    4.04
   4   6   5  107.81    3.91
   4   6   5  111.48    4.03
   4   6   5  111.94    3.94
  -5  -6  -5   24.27    1.34
  -5  -6  -5   23.86    1.31
   5   6   5   25.02    1.32
   5   6   5   25.21    1.19
  -6  -6  -5   29.17    1.61
   6  -6   5   32.21    1.58
   6   6   5   30.83    1.57
   6   6   5   29.77    1.43
  -6   6  -5   30.19    1.53
  -6  -7   5   15.93    1.15
   6  -7  -5   15.29    1.23
  -6  -7   5   15.36    1.15
   6  -7  -5   14.41    1.08
  -6   7   5   15.53    1.15
   6   7  -5   16.92    1.06
   6   7  -5   17.66    1.16
   6   7  -5   16.24    1.07
  -5  -7   5   30.33    1.51
   5  -7  -5   28.64    1.55
   5  -7  -5   30.88    1.48
  -5  -7   5   30.03    1.48
   5  -7  -5   29.82    1.46
   5   7  -5   30.77    1.45
   5   7  -5   29.93    1.43
  -5   7   5   28.15    1.49
   5   7  -5   28.56    1.39
  -4  -7   5   51.66    2.08
  -4  -7   5   51.34    2.04
   4  -7  -5   51.19    2.08
   4  -7  -5   51.81    2.05
   4  -7  -5   52.78    2.14
  -4   7   5   50.72    2.09
   4   7  -5   49.37    2.01
   4   7  -5   50.44    2.00
   4   7  -5   47.75    2.01
  -4   7   5   47.44    2.07
   3  -7  -5   13.29    0.85
  -3  -7   5   13.10    0.75
   3  -7  -5   10.38    0.78
   3  -7  -5   12.18    0.90
  -3  -7   5   11.85    0.81
   3   7  -5   10.85    0.72
  -3   7   5   11.64    0.84
   3   7  -5   10.77    0.71
   3   7  -5   11.07    0.71
  -3   7   5   11.42    0.80
   2  -7  -5  103.97    3.69
   2  -7  -5  101.71    3.66
  -2  -7   5  103.14    3.65
   2  -7  -5   99.88    3.70
  -2   7   5  104.23    3.70
   2   7  -5  100.44    3.60
   2   7  -5  100.29    3.58
  -2   7   5  101.48    3.67
   1  -7  -5   48.01    1.92
   1  -7  -5   49.22    1.96
  -1  -7   5   49.26    1.87
   1  -7  -5   49.83    1.91
   1   7  -5   49.84    1.82
  -1   7   5   45.82    1.92
  -1   7   5   46.81    1.89
   1   7  -5   48.65    1.81
   0  -7  -5   21.11    1.05
   0  -7  -5   21.32    1.06
   0  -7  -5   21.74    1.02
   0  -7   5   18.30    0.93
   0   7   5   20.25    1.04
   0   7   5   20.65    0.99
  -1  -7  -5   29.10    1.33
  -1  -7  -5   31.55    1.32
  -1  -7  -5   29.32    1.34
   1  -7   5   28.25    1.21
  -1  -7  -5   30.38    1.34
   1   7   5   30.72    1.28
   1   7   5   28.15    1.34
  -2  -7  -5   17.03    0.96
  -2  -7  -5   16.96    0.95
  -2  -7  -5   17.12    0.98
   2   7   5   17.29    0.89
   2   7   5   16.88    0.88
   2   7   5   16.07    0.97
  -3  -7  -5   46.29    1.93
  -3  -7  -5   43.22    1.88
  -3  -7  -5   47.17    1.89
   3   7   5   44.23    1.92
   3   7   5   46.17    1.81
   3   7   5   46.79    1.83
  -4  -7  -5    8.27    0.83
  -4  -7  -5    8.20    0.82
   4   7   5    8.95    0.71
   4   7   5    8.34    0.70
   4   7   5    8.77    0.85
   5  -7   5    1.64    0.50
  -5  -7  -5    2.04    0.57
   5  -7   5    0.91    0.49
  -5  -7  -5    1.14    0.56
   5   7   5    2.20    0.47
  -5   7  -5    1.95    0.49
   5   7   5    1.20    0.51
  -6  -8   5    1.59    0.60
   6  -8  -5    0.39    0.64
   6  -8  -5    1.21    0.56
  -6  -8   5    1.22    0.60
  -6   8   5    0.64    0.56
   6   8  -5    0.72    0.46
   6   8  -5    2.09    0.59
   5  -8  -5   34.10    1.62
  -5  -8   5   35.23    1.67
   5  -8  -5   34.96    1.63
  -5  -8   5   35.81    1.65
   5  -8  -5   33.73    1.73
   5   8  -5   31.39    1.56
   5   8  -5   33.44    1.55
  -5   8   5   32.83    1.66
   4  -8  -5   16.79    1.06
  -4  -8   5   18.60    1.09
  -4  -8   5   20.41    1.06
   4  -8  -5   18.11    1.10
   4  -8  -5   18.96    1.17
  -4   8   5   16.57    1.08
   4   8  -5   15.88    0.97
  -4   8   5   17.30    1.07
   4   8  -5   17.27    0.99
   3  -8  -5   37.65    1.72
   3  -8  -5   38.01    1.66
   3  -8  -5   37.55    1.64
  -3  -8   5   39.38    1.65
  -3  -8   5   38.18    1.57
  -3   8   5   34.23    1.63
  -3   8   5   37.95    1.68
   3   8  -5   35.25    1.55
   3   8  -5   39.29    1.57
  -2  -8   5   44.93    1.80
   2  -8  -5   41.31    1.85
   2  -8  -5   43.62    1.83
   2  -8  -5   44.05    1.79
   2   8  -5   43.01    1.72
  -2   8   5   43.30    1.84
   2   8  -5   44.64    1.72
  -2   8   5   43.82    1.81
   1  -8  -5    0.98    0.47
   1  -8  -5    0.94    0.40
   1  -8  -5    1.14    0.41
  -1  -8   5    2.11    0.41
  -1   8   5    1.60    0.44
   1   8  -5    0.86    0.32
  -1   8   5    0.93    0.37
   1   8  -5    1.26    0.30
   0  -8   5   42.36    1.81
   0  -8  -5   45.10    1.93
   0  -8  -5   49.89    1.94
   0  -8  -5   46.93    1.89
   0   8   5   48.47    1.87
   0   8   5   47.20    1.93
   0   8  -5   48.66    1.78
  -1  -8  -5    3.68    0.60
  -1  -8  -5    4.84    0.61
   1  -8   5    4.10    0.55
  -1  -8  -5    3.48    0.61
  -1  -8  -5    3.91    0.60
   1   8   5    3.63    0.54
   1   8   5    3.90    0.63
  -1   8  -5    3.55    0.47
  -2  -8  -5   16.93    1.00
  -2  -8  -5   17.00    0.97
  -2  -8  -5   17.84    1.03
   2  -8   5   14.72    0.87
   2   8   5   16.06    0.91
   2   8   5   16.76    1.01
   2   8   5   16.72    0.92
  -3  -8  -5   17.33    1.05
  -3  -8  -5   18.01    1.10
  -3  -8  -5   17.10    1.06
   3   8   5   16.34    0.95
   3   8   5   16.83    1.08
   3   8   5   17.74    0.95
  -4  -8  -5   23.30    1.27
  -4  -8  -5   21.68    1.29
   4   8   5   22.24    1.28
   4   8   5   23.09    1.17
   4   8   5   22.18    1.15
  -5  -8  -5   22.29    1.38
   5  -8   5   22.88    1.28
  -5  -8  -5   25.13    1.36
  -5   8  -5   23.34    1.25
   5   8   5   22.87    1.35
   5   8   5   24.14    1.22
  -6  -9   5   10.14    1.02
   6  -9  -5    9.25    1.19
   6  -9  -5    9.00    0.98
   6   9  -5    8.32    0.87
  -5  -9   5    6.68    0.89
   5  -9  -5    7.80    0.87
   5  -9  -5    8.04    1.02
  -5  -9   5    5.45    0.82
   5   9  -5    6.55    0.77
   5   9  -5    6.68    0.76
  -5   9   5    6.90    0.86
  -4  -9   5   36.78    1.62
   4  -9  -5   33.34    1.70
  -4  -9   5   31.97    1.61
   4  -9  -5   34.79    1.60
   4  -9  -5   33.96    1.62
  -4   9   5   30.79    1.60
   4   9  -5   32.64    1.53
   4   9  -5   34.66    1.54
   3  -9  -5   19.22    1.15
   3  -9  -5   19.42    1.19
  -3  -9   5   18.91    1.11
   3  -9  -5   17.47    1.07
  -3   9   5   18.78    1.15
  -3   9   5   18.49    1.11
   3   9  -5   19.14    1.02
   3   9  -5   19.08    1.01
  -2  -9   5   62.10    2.47
   2  -9  -5   64.61    2.51
   2  -9  -5   62.36    2.47
   2  -9  -5   63.28    2.57
  -2   9   5   62.69    2.50
   2   9  -5   62.40    2.40
   2   9  -5   65.37    2.40
  -2   9   5   64.73    2.52
   1  -9  -5   56.44    2.32
  -1  -9   5   58.10    2.26
   1  -9  -5   55.56    2.27
   1  -9  -5   58.56    2.35
   1   9  -5   59.87    2.19
  -1   9   5   58.34    2.33
   1   9  -5   58.09    2.19
  -1   9   5   57.33    2.28
   0  -9  -5   32.49    1.49
   0  -9   5   28.70    1.38
   0  -9  -5   33.50    1.52
   0  -9  -5   33.14    1.45
   0  -9  -5   34.26    1.51
   0   9  -5   31.88    1.34
   0   9   5   30.99    1.42
   0   9   5   30.73    1.48
  -1  -9  -5   19.04    1.06
   1  -9   5   18.41    1.01
  -1  -9  -5   19.05    1.11
  -1  -9  -5   19.09    1.11
  -1   9  -5   18.52    0.94
   1   9   5   18.46    1.11
   1   9   5   19.10    1.02
  -2  -9  -5   13.98    0.97
  -2  -9  -5   14.71    0.94
  -2  -9  -5   13.25    0.96
   2   9   5   12.66    0.85
   2   9   5   13.54    0.96
   2   9   5   11.96    0.84
  -3  -9  -5   66.73    2.67
  -3  -9  -5   65.60    2.68
  -3  -9  -5   69.59    2.75
   3  -9   5   64.60    2.57
   3   9   5   68.59    2.62
   3   9   5   67.80    2.60
  -3   9  -5   67.43    2.54
   3   9   5   70.00    2.74
  -4  -9  -5   15.33    1.11
  -4  -9  -5   16.64    1.16
   4   9   5   16.85    1.02
   4   9   5   16.55    1.00
   4   9   5   17.37    1.15
  -5  -9  -5   17.33    1.22
  -5  -9  -5   15.63    1.17
   5  -9   5   16.02    1.13
   5   9   5   15.68    1.04
   5   9   5   16.66    1.19
   5 -10  -5   26.27    1.45
  -5 -10   5   28.59    1.56
   5 -10  -5   26.20    1.65
  -5  10   5   26.19    1.53
   5  10  -5   28.45    1.46
   5  10  -5   27.70    1.42
   4 -10  -5    2.29    0.63
   4 -10  -5    2.10    0.56
  -4 -10   5    2.20    0.56
   4 -10  -5    3.34    0.75
  -4  10   5    2.74    0.63
   4  10  -5    2.37    0.50
   4  10  -5    1.62    0.49
   3 -10  -5   57.81    2.38
  -3 -10   5   58.68    2.38
   3 -10  -5   57.13    2.47
   3 -10  -5   54.37    2.34
   3  10  -5   59.31    2.29
   3  10  -5   55.65    2.29
  -3  10   5   59.75    2.41
   2 -10  -5   12.84    0.96
  -2 -10   5   11.85    0.93
   2 -10  -5   12.29    1.02
   2 -10  -5   11.48    0.92
  -2  10   5   13.14    0.98
   2  10  -5   12.51    0.82
  -2  10   5   10.98    0.90
   2  10  -5   11.16    0.79
   1 -10  -5   67.09    2.78
   1 -10  -5   70.55    2.75
   1 -10  -5   73.94    2.85
  -1 -10   5   69.09    2.73
  -1  10   5   69.39    2.76
  -1  10   5   74.63    2.82
   1  10  -5   70.27    2.66
   1  10  -5   72.59    2.66
   0 -10   5  109.31    4.05
   0 -10  -5  112.83    4.16
   0 -10  -5  115.38    4.15
   0 -10  -5  109.66    4.09
   0 -10  -5  113.49    4.14
   0  10   5  113.99    4.15
   0  10   5  113.00    4.09
   0  10  -5  108.92    3.98
  -1 -10  -5   14.86    0.98
  -1 -10  -5   16.29    1.05
  -1 -10  -5   14.58    1.05
   1 -10   5   14.45    0.95
  -1  10  -5   14.07    0.87
   1  10   5   14.32    1.01
   1  10   5   13.87    0.93
  -2 -10  -5   48.98    2.11
  -2 -10  -5   48.41    2.09
  -2 -10  -5   48.53    2.06
   2 -10   5   47.14    1.98
   2  10   5   47.40    2.00
  -2  10  -5   47.42    1.92
   2  10   5   49.80    2.12
   2  10   5   46.52    1.99
  -3 -10  -5    5.89    0.84
  -3 -10  -5    6.07    0.83
  -3 -10  -5    6.88    0.89
   3 -10   5    6.87    0.76
  -3  10  -5    6.12    0.69
   3  10   5    5.92    0.87
   3  10   5    6.43    0.73
   3  10   5    6.37    0.74
  -4 -10  -5   31.80    1.67
  -4 -10  -5   30.39    1.60
   4 -10   5   30.46    1.55
   4  10   5   32.76    1.67
   4  10   5   31.08    1.51
   4  10   5   33.94    1.56
  -4  10  -5   30.65    1.47
  -4 -11   5    3.90    0.70
   4 -11  -5    3.74    0.68
   4 -11  -5    4.45    0.84
   4  11  -5    4.17    0.68
  -4  11   5    4.14    0.73
   4  11  -5    4.68    0.71
   3 -11  -5    9.39    0.94
  -3 -11   5   10.65    0.95
   3 -11  -5    9.78    0.96
   3 -11  -5    8.90    1.03
  -3  11   5    7.37    0.88
   3  11  -5    8.71    0.79
   3  11  -5    8.51    0.82
   2 -11  -5   14.43    1.09
   2 -11  -5   15.42    1.15
  -2 -11   5   13.95    1.04
   2 -11  -5   14.05    1.03
   2  11  -5   13.30    0.91
   2  11  -5   14.54    0.93
  -2  11   5   14.13    1.04
   1 -11  -5    2.86    0.60
  -1 -11   5    2.90    0.57
   1 -11  -5    4.01    0.74
   1 -11  -5    3.85    0.64
   1 -11  -5    3.15    0.61
  -1  11   5    3.55    0.67
   1  11  -5    3.60    0.53
  -1  11   5    3.91    0.63
   1  11  -5    3.35    0.54
   0 -11   5    2.61    0.55
   0 -11  -5    2.19    0.59
   0 -11  -5    2.60    0.67
   0 -11  -5    3.09    0.60
   0  11   5    1.77    0.50
   0  11  -5    1.63    0.41
   0  11   5    2.47    0.60
   0  11  -5    1.63    0.69
   1 -11   5    2.45    0.58
  -1 -11  -5    4.61    0.68
  -1 -11  -5    4.87    0.73
  -1 -11  -5    5.10    0.73
  -1  11  -5    4.38    0.65
   1  11   5    4.66    0.79
   1  11   5    4.28    0.69
   1  11   5    3.58    0.57
  -2 -11  -5   44.53    2.02
  -2 -11  -5   45.27    2.01
  -2 -11  -5   42.32    1.94
   2 -11   5   44.26    1.91
   2  11   5   42.86    1.91
  -2  11  -5   44.85    1.85
   2  11   5   43.13    1.91
   2  11   5   41.29    2.01
   3 -11   5    8.95    0.93
  -3 -11  -5    9.49    0.98
  -3 -11  -5    9.62    1.02
  -3 -11  -5    9.43    0.98
   3  11   5    8.89    0.99
   3  11   5    9.75    0.87
  -3  11  -5    8.37    0.80
   3  11   5    9.63    0.87
   3 -12  -5   12.02    1.21
   3 -12  -5   11.29    1.02
  -3 -12   5   11.83    1.02
   3  12  -5   10.07    0.90
  -3  12   5    9.63    1.00
   3  12  -5   11.12    0.88
   2 -12  -5    0.83    0.65
   2 -12  -5    1.40    0.53
  -2 -12   5    0.77    0.55
   2 -12  -5    1.27    0.54
   2 -12  -5    1.39    0.56
  -2  12   5    0.45    0.52
   2  12  -5    1.69    0.49
   2  12  -5    1.35    0.47
  -1 -12   5    4.46    0.78
   1 -12  -5    3.63    0.78
   1 -12  -5    3.04    0.67
   1 -12  -5    4.10    0.69
  -1  12   5    3.65    0.66
   1  12  -5    3.70    0.58
   1  12  -5    3.33    0.58
   0 -12   5    7.70    0.86
   0 -12  -5    8.43    0.89
   0 -12  -5    9.21    0.99
   0 -12  -5    9.20    0.97
   0  12  -5    9.12    0.79
   0  12   5    6.86    0.82
   0  12   5    8.40    0.92
   1 -12   5   62.64    2.71
  -1 -12  -5   69.22    2.78
  -1 -12  -5   71.13    2.86
  -1 -12  -5   69.11    2.84
   1  12   5   67.07    2.75
   1  12   5   69.19    2.84
  -1  12  -5   69.87    2.67
   1  12   5   68.81    2.76
  -2 -12  -5   10.18    1.06
  -2 -12  -5   10.17    1.04
   2 -12   5    9.79    0.97
  -2 -12  -5   10.93    1.00
  -2  12  -5   11.05    0.90
   2  12   5   10.78    1.05
   2  12   5    9.31    0.90
   2  12   5    9.61    0.92
   8   0  -6   -0.21    0.58
  -8   0   6    1.00    0.67
   8   0  -6   -0.71    0.45
   8   0  -6    0.38    0.46
   7   0  -6   -0.78    0.47
   7   0  -6   -0.42    0.54
  -7   0   6   -0.88    0.49
   7   0  -6   -0.98    0.47
  -7   0   6   -0.20    0.57
   6   0  -6   -0.06    0.42
   6   0  -6    0.08    0.47
  -6   0   6   -0.15    0.48
   6   0  -6   -0.33    0.44
  -6   0   6    0.22    0.48
  -5   0   6   26.48    1.29
   5   0  -6   27.50    1.29
  -5   0   6   28.12    1.32
   5   0  -6   24.48    1.22
   5   0  -6   24.83    1.26
   4   0  -6    3.47    0.51
   4   0  -6    3.03    0.46
  -4   0   6    4.31    0.57
   4   0  -6    3.22    0.48
  -4   0   6    2.84    0.47
   3   0  -6    1.39    0.33
   3   0  -6    1.73    0.33
  -3   0   6    1.36    0.32
   3   0  -6    1.34    0.31
  -3   0   6    1.06    0.33
   2   0  -6   10.49    0.57
  -2   0   6   10.84    0.56
  -2   0   6   11.39    0.61
   2   0  -6   11.27    0.60
   2   0  -6   10.92    0.57
   1   0  -6    5.64    0.39
   1   0  -6    5.75    0.37
  -1   0   6    6.46    0.40
   1   0  -6    6.03    0.38
  -1   0   6    5.53    0.47
   0   0   6   34.96    1.36
   1   0   6    4.20    0.48
   2   0   6    5.63    0.57
   3   0   6   18.09    0.99
  -4   0  -6   12.43    0.75
   4   0   6   14.29    0.74
   4   0   6   12.26    0.92
   5   0   6    3.29    0.62
   5   0   6    3.02    0.50
  -5   0  -6    3.22    0.55
  -6   0  -6   11.57    0.93
   6   0   6   11.49    0.87
   8  -1  -6    3.22    0.68
   8  -1  -6    4.91    0.77
  -8  -1   6    5.97    1.02
   8  -1  -6    4.60    0.86
   8   1  -6    2.45    0.63
   8   1  -6    4.01    0.74
  -8   1   6    4.96    0.88
   8   1  -6    4.02    0.81
  -7  -1   6   23.34    1.39
   7  -1  -6   22.59    1.40
  -7  -1   6   21.60    1.41
   7  -1  -6   22.65    1.34
   7  -1  -6   22.23    1.29
  -7   1   6   25.64    1.41
   7   1  -6   21.12    1.26
  -7   1   6   22.66    1.41
   7   1  -6   24.35    1.43
   7   1  -6   20.79    1.32
   6  -1  -6   30.77    1.53
   6  -1  -6   30.23    1.55
  -6  -1   6   30.93    1.58
   6  -1  -6   31.88    1.49
  -6  -1   6   33.27    1.58
   6   1  -6   30.54    1.53
  -6   1   6   30.98    1.58
   6   1  -6   33.31    1.57
  -6   1   6   34.44    1.60
   6   1  -6   32.75    1.49
   5  -1  -6    7.39    0.69
   5  -1  -6    6.53    0.70
   5  -1  -6    6.36    0.66
  -5  -1   6    7.03    0.76
  -5  -1   6    6.27    0.70
   5   1  -6    5.63    0.70
  -5   1   6    7.14    0.74
  -5   1   6    7.19    0.71
   5   1  -6    6.26    0.68
   5   1  -6    5.15    0.64
  -4  -1   6  159.42    5.54
  -4  -1   6  158.92    5.52
   4  -1  -6  162.06    5.52
   4  -1  -6  155.02    5.53
   4  -1  -6  165.00    5.50
   4   1  -6  152.32    5.52
  -4   1   6  154.99    5.51
   4   1  -6  161.85    5.49
  -4   1   6  161.16    5.55
   4   1  -6  156.21    5.49
  -3  -1   6   22.16    0.99
   3  -1  -6   19.99    0.94
   3  -1  -6   22.07    0.94
  -3  -1   6   21.19    0.94
   3  -1  -6   20.97    0.96
  -3   1   6   20.68    0.98
  -3   1   6   20.81    0.95
   3   1  -6   20.34    0.92
   3   1  -6   21.42    0.94
   3   1  -6   20.95    0.96
  -2  -1   6  255.07    8.62
   2  -1  -6  267.26    8.61
   2  -1  -6  264.91    8.63
   2  -1  -6  242.91    8.59
  -2  -1   6  251.04    8.57
   2   1  -6  249.10    8.57
  -2   1   6  257.01    8.63
   2   1  -6  257.31    8.59
  -2   1   6  254.72    8.59
   2   1  -6  261.74    8.62
   1  -1  -6   59.03    2.00
  -1  -1   6   58.29    1.99
   1  -1  -6   57.07    1.98
   1  -1  -6   50.90    1.98
  -1   1   6   55.56    2.00
   0  -1  -6  265.61    9.04
   0  -1   6  266.34    9.11
   0  -1  -6  277.90    9.06
   0   1   6  276.94    9.07
   0   1   6  270.72    9.14
   1  -1   6   90.16    3.10
   1   1   6   84.73    3.00
   1   1   6   87.30    3.09
   2  -1   6  131.33    4.47
   2   1   6  128.00    4.45
   2   1   6  123.44    4.35
   3  -1   6  137.31    4.70
  -3  -1  -6  127.71    4.58
   3   1   6  132.08    4.57
   3   1   6  135.10    4.68
   4  -1   6   14.90    0.79
   4  -1   6   15.20    1.02
  -4  -1  -6   15.35    0.85
   4   1   6   15.20    0.80
   4   1   6   15.50    0.98
   5  -1   6   51.94    2.04
  -5  -1  -6   50.46    2.11
   5   1   6   55.32    2.10
   5   1   6   53.83    2.22
  -5   1  -6   51.51    2.09
  -6  -1  -6    2.18    0.54
   6  -1   6    1.51    0.50
   6   1   6    1.48    0.48
  -6   1  -6    2.68    0.61
   7  -2  -6    3.52    0.66
  -7  -2   6    3.71    0.76
   7  -2  -6    4.14    0.74
   7  -2  -6    4.41    0.70
  -7  -2   6    3.89    0.79
   7   2  -6    3.32    0.70
  -7   2   6    4.84    0.85
   7   2  -6    4.21    0.73
  -7   2   6    4.11    0.74
   7   2  -6    3.23    0.69
  -6  -2   6    3.70    0.69
   6  -2  -6    4.91    0.71
   6  -2  -6    4.31    0.67
   6  -2  -6    4.93    0.79
  -6  -2   6    3.12    0.65
  -6   2   6    5.03    0.74
   6   2  -6    4.04    0.66
   6   2  -6    3.71    0.61
   6   2  -6    3.50    0.64
  -6   2   6    3.58    0.64
   5  -2  -6   17.14    0.99
   5  -2  -6   17.36    1.02
  -5  -2   6   16.65    1.07
   5  -2  -6   19.72    1.09
  -5  -2   6   16.99    1.03
  -5   2   6   18.59    1.05
   5   2  -6   17.19    1.00
   5   2  -6   19.08    1.02
   5   2  -6   17.33    0.95
  -5   2   6   19.87    1.06
   4  -2  -6   51.39    2.01
   4  -2  -6   49.80    1.99
   4  -2  -6   49.30    2.02
  -4  -2   6   51.51    2.05
  -4  -2   6   49.58    1.99
  -4   2   6   52.56    2.04
   4   2  -6   52.83    1.99
  -4   2   6   51.58    2.01
   4   2  -6   51.99    2.02
   4   2  -6   52.33    1.99
  -3  -2   6    3.80    0.48
  -3  -2   6    3.71    0.42
   3  -2  -6    2.46    0.42
   3  -2  -6    3.63    0.46
   3  -2  -6    3.69    0.47
   3   2  -6    3.99    0.44
  -3   2   6    3.73    0.45
   3   2  -6    3.43    0.41
   3   2  -6    3.75    0.43
  -3   2   6    4.07    0.49
  -2  -2   6    4.39    0.43
   2  -2  -6    5.45    0.44
   2  -2  -6    5.07    0.44
   2  -2  -6    4.74    0.44
   2   2  -6    5.22    0.39
   2   2  -6    4.56    0.39
  -2   2   6    5.51    0.43
  -2   2   6    5.44    0.47
   2   2  -6    4.73    0.38
   1  -2  -6    0.92    0.26
   1  -2  -6    0.79    0.23
  -1  -2   6    0.80    0.20
   1  -2  -6    0.81    0.23
  -1   2   6    0.94    0.24
  -1   2   6    0.75    0.21
   0  -2  -6   86.67    2.91
   0  -2   6   84.58    2.94
   0  -2  -6   85.41    2.89
   0  -2  -6   81.64    2.90
   0   2   6   81.45    2.97
   0   2   6   82.15    2.91
  -1  -2  -6    5.75    0.38
   1  -2   6    5.35    0.54
  -1  -2  -6    6.46    0.42
  -1  -2  -6    5.38    0.41
   1   2   6    4.53    0.52
   1   2   6    5.44    0.43
  -2  -2  -6   29.57    1.17
   2  -2   6   28.89    1.28
  -2  -2  -6   29.41    1.19
   2   2   6   31.12    1.27
   2   2   6   29.52    1.19
  -3  -2  -6    8.81    0.62
  -3  -2  -6    9.42    0.62
   3  -2   6    8.37    0.76
   3   2   6    8.18    0.71
   3   2   6    8.46    0.61
  -4  -2  -6    1.67    0.41
   4  -2   6    1.78    0.51
  -4  -2  -6    1.78    0.41
   4   2   6    2.80    0.52
   4   2   6    1.67    0.39
  -5  -2  -6    5.67    0.70
   5  -2   6    6.52    0.64
  -5   2  -6    6.15    0.67
   5   2   6    6.00    0.85
   5   2   6    4.98    0.66
   6  -2   6   17.41    1.06
  -6  -2  -6   16.61    1.11
   6   2   6   18.45    1.09
  -6   2  -6   16.37    1.10
   7  -3  -6    6.76    0.96
  -7  -3   6    6.06    0.96
  -7  -3   6    5.83    0.87
   7  -3  -6    7.20    0.89
   7  -3  -6    6.17    0.90
  -7   3   6    7.43    0.97
   7   3  -6    4.67    0.83
   7   3  -6    5.94    0.82
   7   3  -6    5.84    0.90
  -6  -3   6   45.75    2.05
  -6  -3   6   46.36    2.05
   6  -3  -6   45.45    2.03
   6  -3  -6   47.83    2.07
   6  -3  -6   45.84    1.99
   6   3  -6   43.50    1.94
  -6   3   6   49.70    2.06
   6   3  -6   50.18    2.04
  -6   3   6   44.41    2.05
   6   3  -6   45.58    2.01
  -5  -3   6    1.24    0.46
   5  -3  -6    1.57    0.49
   5  -3  -6    1.50    0.48
  -5  -3   6    1.39    0.47
   5  -3  -6    1.84    0.46
   5   3  -6    1.26    0.41
  -5   3   6    2.92    0.55
   5   3  -6    1.79    0.44
  -5   3   6    2.80    0.53
   5   3  -6    2.07    0.48
  -4  -3   6   20.04    1.01
   4  -3  -6   18.82    1.00
  -4  -3   6   18.75    0.96
   4  -3  -6   19.41    0.97
   4  -3  -6   20.32    1.01
  -4   3   6   18.51    1.00
   4   3  -6   15.71    0.93
  -4   3   6   18.23    0.97
   4   3  -6   17.90    0.94
   4   3  -6   18.11    0.92
   3  -3  -6   21.57    0.99
   3  -3  -6   21.04    0.96
  -3  -3   6   20.62    0.93
   3  -3  -6   21.01    0.99
   3  -3  -6   20.60    0.98
  -3  -3   6   21.23    0.98
   3   3  -6   21.11    0.93
  -3   3   6   20.40    0.97
   3   3  -6   18.99    0.90
  -3   3   6   20.00    1.00
   3   3  -6   20.98    0.94
   2  -3  -6   26.59    1.15
   2  -3  -6   27.16    1.12
   2  -3  -6   27.38    1.15
  -2  -3   6   26.04    1.11
   2   3  -6   27.15    1.07
   2   3  -6   28.73    1.10
  -2   3   6   28.67    1.17
   2   3  -6   28.32    1.08
  -2   3   6   27.73    1.13
   1  -3  -6    4.18    0.42
   1  -3  -6    4.16    0.41
   1  -3  -6    3.64    0.43
  -1   3   6    4.30    0.38
  -1   3   6    4.12    0.42
   0  -3  -6  157.87    5.36
   0  -3  -6  159.82    5.35
   0  -3  -6  158.41    5.36
   0   3   6  154.44    5.37
   0   3   6  156.80    5.32
   0   3   6  156.59    5.41
   1  -3   6   55.12    2.04
  -1  -3  -6   56.10    1.98
  -1  -3  -6   56.57    1.98
  -1  -3  -6   53.42    1.99
   1   3   6   51.52    1.99
   1   3   6   56.19    1.93
   1   3   6   53.72    1.94
   1   3   6   53.60    2.04
  -2  -3  -6    9.90    0.62
  -2  -3  -6   10.74    0.62
  -2  -3  -6   10.83    0.59
  -2  -3  -6   10.06    0.63
   2  -3   6   10.75    0.74
   2   3   6   10.86    0.64
   2   3   6   10.55    0.54
   2   3   6   10.62    0.71
  -3  -3  -6   22.42    1.08
   3  -3   6   23.22    1.20
  -3  -3  -6   23.33    1.07
   3   3   6   24.14    1.15
   3   3   6   25.83    1.10
  -4  -3  -6   31.16    1.46
  -4  -3  -6   35.15    1.44
   4   3   6   35.83    1.54
   4   3   6   33.58    1.46
   5  -3   6    4.32    0.60
  -5  -3  -6    2.70    0.52
   5   3   6    2.52    0.51
   5   3   6    3.54    0.62
   6  -3   6    1.89    0.54
  -6  -3  -6    1.09    0.52
  -6   3  -6    0.49    0.51
   6   3   6    1.50    0.50
  -7  -4   6    1.44    0.63
   7  -4  -6    2.01    0.68
  -7  -4   6    2.36    0.70
  -7   4   6    1.86    0.60
   7   4  -6    0.46    0.47
   7   4  -6   -0.16    0.51
   7   4  -6    0.06    0.50
   6  -4  -6   18.03    1.14
  -6  -4   6   19.95    1.22
  -6  -4   6   19.51    1.23
   6  -4  -6   18.98    1.18
   6  -4  -6   20.84    1.28
   6   4  -6   18.10    1.15
  -6   4   6   18.46    1.21
   6   4  -6   19.83    1.13
   6   4  -6   23.22    1.22
  -6   4   6   19.52    1.22
  -5  -4   6   63.20    2.51
   5  -4  -6   62.15    2.54
  -5  -4   6   66.91    2.59
   5  -4  -6   67.73    2.57
   5  -4  -6   62.38    2.49
   5   4  -6   67.44    2.50
   5   4  -6   62.91    2.52
  -5   4   6   61.98    2.54
   5   4  -6   66.84    2.51
  -5   4   6   62.14    2.54
   4  -4  -6    6.96    0.63
   4  -4  -6    6.79    0.69
   4  -4  -6    6.72    0.64
  -4  -4   6    7.47    0.67
  -4  -4   6    6.35    0.60
  -4   4   6    5.44    0.65
   4   4  -6    6.31    0.59
  -4   4   6    5.69    0.64
   4   4  -6    6.39    0.61
   4   4  -6    5.83    0.54
  -3  -4   6  105.27    3.55
  -3  -4   6  102.70    3.60
   3  -4  -6  102.76    3.58
   3  -4  -6  102.19    3.62
   3  -4  -6  100.48    3.61
   3   4  -6   97.17    3.55
   3   4  -6  101.80    3.54
  -3   4   6   97.68    3.59
   3   4  -6   97.10    3.53
  -3   4   6  101.18    3.62
  -2  -4   6   11.63    0.63
   2  -4  -6   11.10    0.67
   2  -4  -6   11.25    0.68
   2  -4  -6   12.15    0.71
   2   4  -6   11.20    0.59
  -2   4   6   11.60    0.65
  -2   4   6   11.34    0.69
   2   4  -6   11.26    0.56
   2   4  -6   12.04    0.59
  -1  -4   6  175.11    5.77
   1  -4  -6  169.24    5.84
   1  -4  -6  170.78    5.81
   1  -4  -6  176.26    5.85
  -1   4   6  164.90    5.80
  -1   4   6  167.19    5.84
   0  -4  -6   24.66    1.03
   0  -4  -6   23.51    1.00
   0  -4  -6   23.49    1.03
   0   4   6   23.62    0.98
   0   4   6   23.86    1.04
   0   4   6   23.35    1.08
  -1  -4  -6  100.46    3.52
  -1  -4  -6  101.22    3.51
   1  -4   6   98.66    3.55
  -1  -4  -6  102.43    3.54
   1   4   6  101.98    3.48
   1   4   6   97.52    3.48
   1   4   6  101.68    3.54
   1   4   6   99.88    3.56
  -2  -4  -6   64.52    2.42
   2  -4   6   66.80    2.51
  -2  -4  -6   62.67    2.43
  -2  -4  -6   67.05    2.45
  -2  -4  -6   65.13    2.41
   2   4   6   65.71    2.36
   2   4   6   68.20    2.45
   2   4   6   69.85    2.37
   2   4   6   67.19    2.47
  -3  -4  -6   65.09    2.31
  -3  -4  -6   60.84    2.33
   3   4   6   58.38    2.21
   3   4   6   61.10    2.34
   3   4   6   61.07    2.32
  -4  -4  -6   82.43    3.05
  -4  -4  -6   83.66    3.00
   4   4   6   80.41    3.01
   4   4   6   82.07    3.03
   4   4   6   77.02    2.89
  -5  -4  -6    9.81    0.83
   5   4   6    7.92    0.76
   5   4   6    7.34    0.87
  -6  -4  -6   23.87    1.44
   6  -4   6   25.42    1.36
  -6   4  -6   29.99    1.43
   6   4   6   27.04    1.41
   7  -5  -6    1.24    0.60
  -7  -5   6    1.04    0.64
   7  -5  -6    1.46    0.59
  -7  -5   6    1.54    0.60
   7  -5  -6    1.23    0.64
   7   5  -6    1.25    0.55
  -7   5   6    1.45    0.61
   7   5  -6    0.41    0.46
   7   5  -6    0.82    0.59
   6  -5  -6    2.20    0.59
  -6  -5   6    4.65    0.81
  -6  -5   6    3.48    0.66
   6  -5  -6    4.65    0.82
   6   5  -6    2.89    0.56
  -6   5   6    2.13    0.59
  -6   5   6    3.60    0.65
   6   5  -6    2.61    0.55
   6   5  -6    4.82    0.79
   5  -5  -6    0.64    0.45
  -5  -5   6    0.24    0.42
   5  -5  -6    0.98    0.49
   5  -5  -6    0.28    0.46
   5  -5  -6    0.73    0.49
  -5  -5   6    0.46    0.45
  -5   5   6    1.16    0.47
   5   5  -6    0.86    0.43
   5   5  -6    0.45    0.44
   5   5  -6    1.56    0.45
  -5   5   6    1.26    0.50
   4  -5  -6    0.69    0.40
  -4  -5   6    1.55    0.44
   4  -5  -6    1.40    0.43
  -4  -5   6    1.80    0.42
   4  -5  -6    1.87    0.48
   4  -5  -6    1.33    0.46
  -4   5   6    1.97    0.43
   4   5  -6    1.92    0.41
  -4   5   6    1.86    0.48
   4   5  -6    1.88    0.40
   4   5  -6    1.77    0.38
   3  -5  -6    0.84    0.37
  -3  -5   6    1.05    0.32
  -3  -5   6    1.16    0.35
   3  -5  -6    1.32    0.42
   3  -5  -6    1.11    0.40
  -3   5   6    1.54    0.41
   3   5  -6    0.93    0.31
   3   5  -6    1.04    0.30
  -3   5   6    0.78    0.34
   3   5  -6    1.28    0.32
   2  -5  -6   14.37    0.82
  -2  -5   6   15.74    0.77
   2  -5  -6   15.06    0.78
   2  -5  -6   15.80    0.81
   2   5  -6   12.69    0.66
   2   5  -6   13.38    0.68
  -2   5   6   13.17    0.76
  -2   5   6   12.51    0.79
   2   5  -6   14.57    0.70
   1  -5  -6   57.35    2.08
   1  -5  -6   55.36    2.09
  -1  -5   6   56.16    2.02
   1  -5  -6   54.81    2.11
  -1   5   6   54.51    2.06
  -1   5   6   54.52    2.10
   0  -5  -6   44.55    1.74
   0  -5  -6   43.43    1.71
   0  -5  -6   43.84    1.73
   0   5   6   44.42    1.75
   0   5   6   46.53    1.70
  -1  -5  -6   24.96    1.10
  -1  -5  -6   23.58    1.09
  -1  -5  -6   25.06    1.12
   1   5   6   24.66    1.13
   1   5   6   24.47    1.13
   1   5   6   25.15    1.05
  -2  -5  -6   48.12    1.89
  -2  -5  -6   48.46    1.91
  -2  -5  -6   48.93    1.89
  -2  -5  -6   49.65    1.93
   2   5   6   49.62    1.93
   2   5   6   49.72    1.92
   2   5   6   50.69    1.84
   2   5   6   46.51    1.83
  -3  -5  -6   33.19    1.79
  -3  -5  -6   39.92    1.63
  -3  -5  -6   40.47    1.68
   3   5   6   41.19    1.56
   3   5   6   39.03    1.55
   3   5   6   42.14    1.68
  -4  -5  -6    4.75    0.68
  -4  -5  -6    4.25    0.69
   4   5   6    4.28    0.52
   4   5   6    5.04    0.69
  -5  -5  -6   17.58    1.14
  -5  -5  -6   19.74    1.14
   5   5   6   19.42    0.99
   5   5   6   18.91    1.11
   6  -5   6    6.72    0.84
  -6  -5  -6    7.35    0.90
   6   5   6    8.12    0.86
  -7  -6   6   57.74    2.47
   7  -6  -6   59.04    2.54
   7  -6  -6   56.33    2.52
  -7  -6   6   55.40    2.48
   7  -6  -6   50.67    2.35
   7   6  -6   48.45    2.36
   7   6  -6   49.92    2.30
   7   6  -6   55.99    2.44
  -7   6   6   51.15    2.44
   6  -6  -6    9.61    1.03
   6  -6  -6    9.24    0.95
   6  -6  -6    8.84    0.95
  -6  -6   6   10.39    0.95
   6  -6  -6    8.77    0.99
  -6  -6   6    8.59    0.94
   6   6  -6    9.89    0.94
   6   6  -6    7.78    0.83
   6   6  -6    8.89    0.82
  -6   6   6    8.33    0.93
   5  -6  -6   61.72    2.51
   5  -6  -6   61.74    2.49
  -5  -6   6   63.78    2.54
  -5  -6   6   64.27    2.50
   5  -6  -6   64.68    2.57
   5   6  -6   61.60    2.45
   5   6  -6   57.91    2.45
   5   6  -6   64.17    2.44
  -5   6   6   60.61    2.52
  -5   6   6   63.34    2.53
  -4  -6   6    4.27    0.59
   4  -6  -6    4.33    0.64
   4  -6  -6    3.88    0.66
  -4  -6   6    3.89    0.65
   4  -6  -6    4.06    0.61
   4   6  -6    3.75    0.60
   4   6  -6    3.38    0.54
  -4   6   6    3.91    0.63
  -4   6   6    4.91    0.67
   4   6  -6    3.57    0.54
   3  -6  -6  131.81    4.49
   3  -6  -6  129.72    4.53
  -3  -6   6  129.53    4.42
  -3  -6   6  128.77    4.49
   3  -6  -6  124.18    4.51
  -3   6   6  123.55    4.49
   3   6  -6  132.02    4.44
  -3   6   6  125.21    4.52
   3   6  -6  119.71    4.44
   3   6  -6  123.26    4.42
   2  -6  -6   65.09    2.49
   2  -6  -6   66.95    2.46
   2  -6  -6   66.95    2.49
  -2  -6   6   65.51    2.43
  -2   6   6   64.47    2.46
   2   6  -6   64.12    2.38
  -2   6   6   67.11    2.50
   2   6  -6   65.56    2.38
  -1  -6   6  179.40    6.08
   1  -6  -6  183.49    6.17
   1  -6  -6  174.60    6.17
   1  -6  -6  179.49    6.13
  -1   6   6  179.18    6.13
   1   6  -6  176.40    6.04
  -1   6   6  178.35    6.17
   1   6  -6  174.60    6.03
   0  -6  -6   97.65    3.44
   0  -6  -6   96.42    3.41
   0  -6  -6   95.86    3.44
   0   6   6   92.94    3.38
   0   6   6   94.61    3.44
  -1  -6  -6   42.10    1.74
  -1  -6  -6   43.87    1.74
  -1  -6  -6   43.40    1.71
   1   6   6   43.47    1.67
   1   6   6   42.35    1.74
   1   6   6   43.28    1.76
  -2  -6  -6  122.33    4.27
  -2  -6  -6  119.84    4.27
  -2  -6  -6  117.33    4.30
   2   6   6  123.03    4.22
   2   6   6  122.33    4.22
   2   6   6  119.03    4.31
  -3  -6  -6    7.19    0.73
  -3  -6  -6    8.12    0.73
  -3  -6  -6    7.42    0.77
   3   6   6    7.32    0.61
   3   6   6    8.84    0.60
   3   6   6    8.24    0.76
  -4  -6  -6   43.71    1.89
  -4  -6  -6   45.52    1.84
   4   6   6   41.82    1.86
   4   6   6   41.11    1.72
  -5  -6  -6   17.97    1.10
  -5  -6  -6   13.87    1.07
   5   6   6   17.41    1.08
   5   6   6   15.43    0.93
   6  -6   6   15.27    1.12
   6   6   6   15.52    1.14
   6   6   6   16.97    0.97
   6  -7  -6   25.61    1.53
  -6  -7   6   23.54    1.40
   6  -7  -6   23.45    1.38
   6  -7  -6   25.60    1.42
  -6  -7   6   24.32    1.42
  -6   7   6   23.54    1.42
   6   7  -6   24.60    1.32
   6   7  -6   23.27    1.33
   5  -7  -6   19.31    1.18
  -5  -7   6   22.28    1.25
   5  -7  -6   22.22    1.32
  -5  -7   6   20.75    1.18
  -5   7   6   19.72    1.20
   5   7  -6   17.85    1.11
   5   7  -6   21.47    1.12
  -5   7   6   16.76    1.16
   4  -7  -6   13.83    0.94
   4  -7  -6   12.80    1.00
  -4  -7   6   13.21    0.91
  -4  -7   6   13.67    0.86
   4  -7  -6   12.98    0.94
  -4   7   6   12.66    0.91
  -4   7   6   13.17    0.95
   4   7  -6   11.97    0.81
   4   7  -6   14.43    0.85
  -3  -7   6   22.61    1.11
  -3  -7   6   20.41    1.00
   3  -7  -6   21.62    1.15
   3  -7  -6   20.93    1.17
   3  -7  -6   21.98    1.10
   3   7  -6   21.37    1.03
  -3   7   6   20.73    1.11
  -3   7   6   22.50    1.16
   3   7  -6   22.40    1.03
   2  -7  -6   18.69    0.99
   2  -7  -6   18.76    1.02
  -2  -7   6   19.50    0.96
   2  -7  -6   18.20    1.04
  -2   7   6   18.25    1.02
   2   7  -6   18.40    0.88
   2   7  -6   17.18    0.88
  -2   7   6   17.73    0.97
   1  -7  -6   44.85    1.82
   1  -7  -6   45.12    1.87
   1  -7  -6   48.28    1.87
  -1  -7   6   48.39    1.77
  -1   7   6   43.90    1.86
   1   7  -6   45.08    1.71
  -1   7   6   43.57    1.80
   1   7  -6   44.75    1.71
   0  -7  -6   19.53    1.04
   0  -7  -6   20.45    1.02
   0  -7  -6   19.16    1.00
   0  -7   6   18.34    0.90
   0   7   6   18.71    1.04
   0   7   6   18.99    0.95
  -1  -7  -6   55.36    2.12
  -1  -7  -6   52.18    2.14
  -1  -7  -6   55.11    2.14
   1   7   6   55.00    2.12
   1   7   6   52.98    2.07
   1   7   6   55.01    2.17
  -2  -7  -6    0.54    0.41
  -2  -7  -6    0.81    0.42
  -2  -7  -6    0.36    0.38
   2   7   6    0.57    0.31
   2   7   6   -0.13    0.31
   2   7   6    0.81    0.41
  -3  -7  -6   12.57    0.91
  -3  -7  -6   13.20    0.90
  -3  -7  -6   12.85    0.95
   3   7   6   10.88    0.77
   3   7   6   12.25    0.77
   3   7   6   10.25    0.90
  -4  -7  -6   27.81    1.46
  -4  -7  -6   28.80    1.41
   4   7   6   27.45    1.30
   4   7   6   30.78    1.40
   4   7   6   28.45    1.46
  -5  -7  -6   30.12    1.63
  -5  -7  -6   33.36    1.62
   5   7   6   34.19    1.65
   5   7   6   34.68    1.50
  -6  -8   6    6.23    0.92
   6  -8  -6    6.00    1.05
  -6  -8   6    5.25    0.87
   6  -8  -6    5.50    0.91
   6   8  -6    5.59    0.77
   6   8  -6    5.05    0.79
  -6   8   6    4.25    0.78
  -5  -8   6    2.38    0.59
   5  -8  -6    2.37    0.59
   5  -8  -6    2.00    0.55
   5  -8  -6    2.05    0.67
  -5  -8   6    2.55    0.62
   5   8  -6    3.42    0.58
   5   8  -6    2.64    0.54
  -5   8   6    2.20    0.60
   4  -8  -6    7.53    0.80
   4  -8  -6    7.37    0.90
  -4  -8   6    7.99    0.75
  -4  -8   6    7.80    0.78
   4  -8  -6    7.02    0.81
  -4   8   6    8.36    0.79
  -4   8   6    6.56    0.84
   4   8  -6    6.70    0.67
   4   8  -6    7.61    0.71
   3  -8  -6   10.89    0.86
   3  -8  -6   10.60    0.90
  -3  -8   6   10.80    0.84
   3  -8  -6   11.64    0.95
  -3   8   6   12.42    0.92
   3   8  -6   12.12    0.77
   3   8  -6   11.01    0.75
  -3   8   6   12.49    0.87
   2  -8  -6    7.10    0.75
   2  -8  -6    7.27    0.67
  -2  -8   6    6.77    0.67
   2  -8  -6    6.59    0.70
   2   8  -6    7.16    0.61
   2   8  -6    6.54    0.57
  -2   8   6    6.58    0.75
  -2   8   6    6.98    0.67
   1  -8  -6   35.85    1.60
  -1  -8   6   35.99    1.50
   1  -8  -6   36.01    1.55
   1  -8  -6   36.84    1.62
   1   8  -6   35.98    1.45
  -1   8   6   36.60    1.61
  -1   8   6   35.39    1.55
   1   8  -6   35.73    1.44
   0  -8  -6    6.32    0.69
   0  -8   6    5.94    0.58
   0  -8  -6    6.75    0.69
   0  -8  -6    5.14    0.73
   0   8  -6    6.05    0.51
   0   8   6    6.46    0.72
   0   8   6    6.43    0.62
  -1  -8  -6   17.99    1.03
  -1  -8  -6   18.03    1.04
  -1  -8  -6   18.98    1.05
  -1  -8  -6   17.81    1.00
   1   8   6   17.30    0.95
   1   8   6   16.73    1.04
  -2  -8  -6    3.89    0.67
  -2  -8  -6    3.54    0.59
  -2  -8  -6    3.96    0.65
   2   8   6    4.15    0.57
   2   8   6    4.95    0.56
   2   8   6    4.55    0.68
  -3  -8  -6   43.90    2.11
  -3  -8  -6   43.02    1.89
  -3  -8  -6   43.45    1.85
   3   8   6   40.97    1.88
   3   8   6   42.03    1.76
   3   8   6   41.61    1.75
  -4  -8  -6    3.13    0.62
  -4  -8  -6    1.94    0.57
   4   8   6    2.48    0.48
   4   8   6    2.18    0.59
   4   8   6    2.19    0.46
  -5  -8  -6   16.00    1.15
  -5  -8  -6   14.72    1.14
   5   8   6   15.35    0.99
   5   8   6   15.93    1.14
   5  -9  -6   14.24    1.22
  -5  -9   6   13.84    1.08
   5  -9  -6   11.92    1.06
   5  -9  -6   12.73    1.06
  -5   9   6   12.03    1.05
   5   9  -6   12.38    0.95
   5   9  -6   12.72    0.93
   4  -9  -6   56.64    2.35
  -4  -9   6   59.92    2.37
   4  -9  -6   58.63    2.39
   4  -9  -6   58.28    2.46
   4   9  -6   55.26    2.28
  -4   9   6   51.25    2.46
  -4   9   6   53.86    2.36
   4   9  -6   56.41    2.26
  -3  -9   6   15.79    1.01
   3  -9  -6   16.04    1.13
   3  -9  -6   15.95    1.02
   3  -9  -6   16.03    1.06
   3   9  -6   16.27    0.94
  -3   9   6   14.86    1.03
   3   9  -6   15.43    0.91
  -3   9   6   17.26    1.10
   2  -9  -6   29.10    1.51
  -2  -9   6   28.55    1.39
   2  -9  -6   31.05    1.44
   2  -9  -6   30.85    1.49
  -2   9   6   30.47    1.45
   2   9  -6   28.66    1.31
   2   9  -6   30.83    1.33
  -2   9   6   31.68    1.49
   1  -9  -6    8.15    0.78
   1  -9  -6    9.86    0.86
   1  -9  -6   10.10    0.85
  -1  -9   6    8.99    0.74
  -1   9   6    8.08    0.83
   1   9  -6    8.60    0.65
  -1   9   6    7.62    0.75
   1   9  -6    8.33    0.65
   0  -9  -6   51.32    2.10
   0  -9   6   47.28    2.00
   0  -9  -6   53.91    2.18
   0  -9  -6   53.76    2.16
   0   9  -6   51.51    1.96
   0   9   6   52.86    2.16
   0   9   6   50.74    2.07
  -1  -9  -6   50.21    2.15
  -1  -9  -6   50.22    2.10
  -1  -9  -6   52.48    2.15
  -1   9  -6   50.21    1.96
   1   9   6   52.81    2.07
   1   9   6   52.40    2.17
  -2  -9  -6   23.88    1.29
  -2  -9  -6   26.07    1.29
  -2  -9  -6   24.39    1.31
   2   9   6   22.80    1.19
   2   9   6   23.31    1.20
   2   9   6   24.36    1.32
  -3  -9  -6   18.59    1.19
  -3  -9  -6   17.96    1.13
   3   9   6   17.14    1.00
   3   9   6   16.93    1.01
   3   9   6   17.30    1.17
  -4  -9  -6    2.61    0.64
  -4  -9  -6    2.47    0.63
   4   9   6    2.45    0.51
   4   9   6    2.59    0.54
   4   9   6    3.63    0.70
   5 -10  -6   25.22    1.61
  -5 -10   6   25.49    1.48
  -5  10   6   24.98    1.48
   5  10  -6   22.63    1.35
   5  10  -6   24.03    1.34
   4 -10  -6   17.29    1.21
  -4 -10   6   18.13    1.16
   4 -10  -6   18.03    1.30
   4 -10  -6   16.34    1.11
   4  10  -6   15.14    1.02
  -4  10   6   16.66    1.18
   4  10  -6   16.98    1.05
   3 -10  -6   26.66    1.52
   3 -10  -6   28.60    1.49
  -3 -10   6   26.05    1.40
   3 -10  -6   26.14    1.41
  -3  10   6   24.14    1.40
   3  10  -6   27.22    1.31
  -3  10   6   30.25    1.50
   3  10  -6   27.68    1.32
   2 -10  -6   18.80    1.21
  -2 -10   6   20.04    1.14
   2 -10  -6   18.90    1.16
   2 -10  -6   17.58    1.24
   2  10  -6   20.68    1.05
  -2  10   6   19.77    1.18
  -2  10   6   18.93    1.20
   2  10  -6   20.46    1.04
   1 -10  -6   27.17    1.37
  -1 -10   6   25.80    1.30
   1 -10  -6   25.75    1.44
   1 -10  -6   26.12    1.41
   1  10  -6   26.21    1.22
  -1  10   6   27.74    1.44
  -1  10   6   26.27    1.34
   1  10  -6   26.98    1.24
   0 -10  -6   20.45    1.22
   0 -10  -6   18.79    1.15
   0 -10  -6   19.53    1.17
   0 -10   6   19.75    1.06
   0 -10  -6   18.82    1.17
   0  10   6   18.79    1.08
   0  10   6   19.17    1.19
   0  10  -6   18.59    0.97
   1 -10   6   32.93    1.52
  -1 -10  -6   33.84    1.65
  -1 -10  -6   34.75    1.65
  -1 -10  -6   33.63    1.60
  -1  10  -6   35.32    1.46
   1  10   6   33.65    1.56
   1  10   6   34.48    1.66
   1  10   6   34.09    1.56
  -2 -10  -6   55.65    2.26
  -2 -10  -6   52.15    2.20
   2 -10   6   50.93    2.09
  -2 -10  -6   53.11    2.26
   2  10   6   49.91    2.14
   2  10   6   50.74    2.25
   2  10   6   52.86    2.15
  -3 -10  -6   17.22    1.13
  -3 -10  -6   14.87    1.17
   3  10   6   18.16    1.04
   3  10   6   15.99    1.00
   3  10   6   13.50    1.15
  -4 -10  -6   18.12    1.25
  -4 -10  -6   18.05    1.28
   4  10   6   18.81    1.12
   4  10   6   19.95    1.39
   4  10   6   18.80    1.31
  -4 -11   6   44.70    2.05
   4 -11  -6   45.07    2.21
   4 -11  -6   41.01    1.99
   4  11  -6   43.93    1.96
   4  11  -6   45.30    1.95
  -4  11   6   42.31    2.06
   3 -11  -6    0.97    0.55
   3 -11  -6    1.56    0.59
   3 -11  -6    1.03    0.61
  -3 -11   6    0.75    0.49
   3  11  -6    0.92    0.41
   3  11  -6    1.44    0.47
  -3  11   6    0.89    0.53
  -2 -11   6   51.29    2.21
   2 -11  -6   53.28    2.34
   2 -11  -6   51.62    2.28
   2 -11  -6   50.43    2.23
  -2  11   6   54.67    2.31
   2  11  -6   50.03    2.12
   2  11  -6   53.85    2.12
  -2  11   6   52.66    2.25
   1 -11  -6   59.97    2.58
   1 -11  -6   65.30    2.65
   1 -11  -6   60.27    2.54
   1 -11  -6   63.91    2.61
  -1 -11   6   62.64    2.50
  -1  11   6   61.63    2.60
   1  11  -6   63.37    2.46
  -1  11   6   63.80    2.56
   1  11  -6   61.17    2.43
   0 -11   6    3.91    0.61
   0 -11  -6    4.43    0.80
   0 -11  -6    4.20    0.71
   0 -11  -6    4.44    0.69
   0  11  -6    4.81    0.61
   0  11   6    4.78    0.74
   0  11   6    4.05    0.61
  -1 -11  -6   27.69    1.48
  -1 -11  -6   25.11    1.40
   1 -11   6   27.60    1.35
  -1 -11  -6   26.54    1.49
   1  11   6   26.94    1.48
   1  11   6   27.08    1.38
  -1  11  -6   27.92    1.28
   1  11   6   25.06    1.37
  -2 -11  -6    3.47    0.70
  -2 -11  -6    4.58    0.74
  -2 -11  -6    4.04    0.70
   2 -11   6    3.46    0.62
   2  11   6    3.34    0.57
   2  11   6    4.06    0.74
   2  11   6    2.14    0.56
  -3 -11  -6   25.18    1.41
  -3 -11  -6   24.10    1.46
  -3  11  -6   23.80    1.21
   3  11   6   24.97    1.48
   3  11   6   23.35    1.28
   3  11   6   21.36    1.27
  -3 -12   6   51.45    2.18
   3 -12  -6   42.58    2.43
   3 -12  -6   47.65    2.32
   3 -12  -6   46.39    2.15
  -3  12   6   45.08    2.17
   3  12  -6   49.29    2.05
   3  12  -6   47.82    2.05
   2 -12  -6    9.46    0.99
   2 -12  -6    9.93    1.10
   2 -12  -6    7.61    0.92
  -2 -12   6    8.29    0.93
   2 -12  -6    9.61    0.99
   2  12  -6    9.61    0.82
  -2  12   6    8.68    0.96
   2  12  -6    8.19    0.81
   1 -12  -6   22.07    1.35
   1 -12  -6   21.08    1.39
   1 -12  -6   18.79    1.25
  -1 -12   6   21.46    1.24
   1  12  -6   20.31    1.13
  -1  12   6   19.63    1.30
  -1  12   6   21.43    1.28
   0 -12   6   69.23    2.84
   0 -12  -6   71.09    2.91
   0 -12  -6   77.41    3.02
   0 -12  -6   74.33    2.98
   0  12   6   68.39    2.88
   0  12   6   75.59    3.01
   0  12  -6   70.90    2.78
   1 -12   6    0.58    0.51
  -1 -12  -6    0.69    0.57
  -1 -12  -6    1.29    0.58
  -1 -12  -6    1.14    0.59
  -1  12  -6    1.04    0.44
   1  12   6    0.90    0.52
   1  12   6    0.78    0.58
   1  12   6    1.12    0.51
   8   0  -7   -0.47    0.64
   8   0  -7   -0.08    0.51
  -7   0   7    1.91    0.70
   7   0  -7    2.25    0.68
   7   0  -7    1.98    0.63
  -7   0   7    2.75    0.74
   7   0  -7    1.66    0.61
   6   0  -7    9.61    0.83
  -6   0   7   10.13    0.94
   6   0  -7    8.81    0.86
   6   0  -7   10.44    0.95
  -6   0   7    9.83    0.94
   5   0  -7  178.98    6.27
   5   0  -7  180.70    6.31
  -5   0   7  185.90    6.35
   5   0  -7  177.13    6.32
  -5   0   7  178.20    6.31
  -4   0   7    3.29    0.52
   4   0  -7    3.26    0.53
  -4   0   7    3.71    0.51
   4   0  -7    3.54    0.55
   4   0  -7    3.38    0.58
   3   0  -7   27.00    1.13
   3   0  -7   25.91    1.13
  -3   0   7   27.07    1.18
  -3   0   7   26.87    1.13
   3   0  -7   27.92    1.17
   2   0  -7   71.21    2.55
   2   0  -7   73.13    2.56
  -2   0   7   69.71    2.53
  -2   0   7   73.18    2.59
   2   0  -7   75.15    2.59
   1   0  -7   36.61    1.27
  -1   0   7   32.95    1.27
  -1   0   7   31.97    1.33
   1   0  -7   32.65    1.23
   0   0   7    5.90    0.52
   1   0   7    6.00    0.56
   2   0   7  168.05    5.81
   3   0   7   15.47    0.95
   4   0   7    5.61    0.78
   5   0   7   30.39    1.33
  -5   0  -7   28.05    1.35
   5   0   7   28.25    1.50
  -6   0  -7   -0.49    0.48
   6   0   7    0.46    0.42
   7  -1  -7   43.89    2.07
   7  -1  -7   50.10    2.20
  -7  -1   7   50.62    2.19
   7  -1  -7   42.97    2.10
  -7  -1   7   48.87    2.19
  -7   1   7   50.31    2.19
   7   1  -7   43.11    2.09
   7   1  -7   43.91    2.03
   7   1  -7   47.58    2.16
  -7   1   7   47.25    2.20
  -6  -1   7   75.02    2.86
   6  -1  -7   68.37    2.77
   6  -1  -7   65.58    2.81
  -6  -1   7   70.53    2.84
   6  -1  -7   76.64    2.86
  -6   1   7   71.72    2.85
   6   1  -7   70.37    2.82
   6   1  -7   67.44    2.74
  -6   1   7   69.77    2.84
   6   1  -7   75.22    2.83
  -5  -1   7   25.42    1.27
   5  -1  -7   22.64    1.17
  -5  -1   7   23.12    1.21
   5  -1  -7   23.23    1.22
   5  -1  -7   25.50    1.25
   5   1  -7   23.03    1.21
  -5   1   7   23.82    1.25
  -5   1   7   22.96    1.21
   5   1  -7   23.93    1.17
   5   1  -7   23.51    1.21
   4  -1  -7  279.52    9.57
   4  -1  -7  296.11    9.60
  -4  -1   7  286.77    9.58
   4  -1  -7  272.86    9.61
  -4  -1   7  281.58    9.62
   4   1  -7  265.07    9.59
   4   1  -7  279.20    9.55
   4   1  -7  282.76    9.57
  -4   1   7  284.81    9.59
  -4   1   7  292.80    9.64
  -3  -1   7   23.23    0.99
   3  -1  -7   24.22    1.01
   3  -1  -7   23.65    1.04
   3  -1  -7   22.16    1.01
  -3  -1   7   22.45    1.04
   3   1  -7   21.36    1.01
  -3   1   7   22.07    1.00
   3   1  -7   22.20    0.99
  -3   1   7   22.54    1.05
   3   1  -7   22.60    0.99
   2  -1  -7  144.02    4.68
  -2  -1   7  134.62    4.65
   2  -1  -7  142.25    4.65
   2  -1  -7  132.13    4.63
  -2   1   7  135.07    4.67
   2   1  -7  130.12    4.65
  -2   1   7  133.30    4.62
   2   1  -7  137.45    4.62
   2   1  -7  129.45    4.60
  -1  -1   7  123.82    4.18
   1  -1  -7  122.65    4.20
   1  -1  -7  123.33    4.19
  -1  -1   7  121.15    4.23
   1  -1  -7  124.00    4.18
  -1   1   7  121.12    4.21
  -1   1   7  123.08    4.27
   0  -1   7  205.38    6.99
   0   1   7  212.83    7.01
   0   1   7  199.74    6.92
   1  -1   7  233.93    7.79
   1   1   7  225.73    7.68
   1   1   7  227.70    7.79
   2  -1   7   57.07    2.14
   2   1   7   53.91    2.12
   3  -1   7  101.56    3.75
  -3  -1  -7  100.34    3.62
   3   1   7  106.40    3.62
   3   1   7  105.52    3.75
  -4  -1  -7   35.08    1.55
   4  -1   7   40.67    1.74
   4   1   7   39.48    1.70
   4   1   7   37.63    1.54
  -5  -1  -7   14.02    0.93
   5  -1   7   13.55    0.86
   5  -1   7   13.80    1.11
   5   1   7   14.34    0.88
   5   1   7   16.17    1.13
  -5   1  -7   13.57    0.90
  -6  -1  -7   15.49    1.05
   6  -1   7   14.27    0.98
  -6   1  -7   13.80    1.03
   6   1   7   15.16    0.99
  -7  -2   7   41.78    1.98
  -7  -2   7   41.85    2.01
   7  -2  -7   36.33    1.87
   7  -2  -7   43.17    2.00
   7  -2  -7   37.13    1.83
   7   2  -7   39.07    1.84
  -7   2   7   42.77    1.97
  -7   2   7   39.03    1.96
   7   2  -7   40.98    1.96
   7   2  -7   38.19    1.90
   6  -2  -7    6.26    0.78
   6  -2  -7    8.52    0.89
   6  -2  -7    5.27    0.74
  -6  -2   7    5.50    0.85
  -6  -2   7    5.39    0.80
  -6   2   7    6.32    0.82
  -6   2   7    6.91    0.86
   6   2  -7    6.90    0.83
   6   2  -7    4.92    0.75
   6   2  -7    5.34    0.74
   5  -2  -7   49.35    2.14
  -5  -2   7   51.67    2.17
   5  -2  -7   52.55    2.15
   5  -2  -7   48.15    2.10
  -5  -2   7   54.82    2.15
   5   2  -7   51.74    2.14
  -5   2   7   54.14    2.16
  -5   2   7   55.30    2.19
   5   2  -7   54.87    2.11
   5   2  -7   54.55    2.13
   4  -2  -7   37.69    1.57
   4  -2  -7   35.89    1.58
  -4  -2   7   39.04    1.55
  -4  -2   7   35.35    1.59
   4  -2  -7   38.89    1.56
   4   2  -7   37.47    1.54
  -4   2   7   36.47    1.59
   4   2  -7   37.21    1.54
  -4   2   7   37.16    1.56
   4   2  -7   36.04    1.57
   3  -2  -7   67.54    2.40
   3  -2  -7   62.32    2.42
  -3  -2   7   63.77    2.42
   3  -2  -7   68.38    2.41
  -3  -2   7   65.67    2.36
   3   2  -7   64.34    2.40
  -3   2   7   64.60    2.39
  -3   2   7   64.16    2.43
   3   2  -7   64.58    2.36
   3   2  -7   66.52    2.38
   2  -2  -7  126.89    4.35
   2  -2  -7  126.93    4.36
   2  -2  -7  127.99    4.33
  -2  -2   7  126.17    4.35
   2   2  -7  122.54    4.28
   2   2  -7  123.96    4.31
  -2   2   7  123.86    4.36
   2   2  -7  129.49    4.33
  -2   2   7  125.05    4.33
   1  -2  -7    8.99    0.54
  -1  -2   7    9.03    0.48
   1  -2  -7    9.34    0.54
   1  -2  -7    9.07    0.52
  -1   2   7    9.26    0.56
  -1   2   7    9.02    0.49
   0  -2  -7  107.24    3.53
   0  -2  -7  103.95    3.51
   0  -2  -7  102.62    3.52
   0  -2   7  101.83    3.58
   0   2   7  100.72    3.54
   0   2   7   96.89    3.60
   1  -2   7   59.21    2.10
  -1  -2  -7   54.05    1.99
  -1  -2  -7   54.19    1.98
   1   2   7   54.08    2.09
   1   2   7   55.02    2.01
   2  -2   7   97.01    3.38
  -2  -2  -7   91.84    3.26
  -2  -2  -7   91.92    3.24
   2   2   7   89.85    3.26
   2   2   7   94.99    3.35
  -3  -2  -7  140.49    4.76
   3  -2   7  138.70    4.90
  -3  -2  -7  139.48    4.79
   3   2   7  136.13    4.78
   3   2   7  134.74    4.86
  -4  -2  -7    2.61    0.46
  -4  -2  -7    3.86    0.57
   4  -2   7    4.64    0.75
   4   2   7    4.05    0.60
   4   2   7    3.86    0.56
  -5  -2  -7   53.83    2.20
   5   2   7   53.23    2.29
   5   2   7   55.81    2.16
   6  -2   7    3.05    0.60
  -6  -2  -7    5.29    0.78
  -6   2  -7    2.29    0.63
   6   2   7    5.31    0.73
   7  -3  -7    3.32    0.69
   7  -3  -7    4.10    0.71
   7  -3  -7    2.96    0.71
  -7  -3   7    3.84    0.74
  -7  -3   7    3.80    0.76
   7   3  -7    2.17    0.62
   7   3  -7    3.88    0.71
   7   3  -7    2.65    0.71
  -7   3   7    3.41    0.75
  -7   3   7    3.48    0.72
   6  -3  -7    2.47    0.65
   6  -3  -7    2.64    0.59
   6  -3  -7    2.01    0.57
  -6  -3   7    2.97    0.66
  -6  -3   7    1.75    0.57
   6   3  -7    2.97    0.58
  -6   3   7    3.48    0.66
   6   3  -7    2.55    0.60
  -6   3   7    2.26    0.56
   6   3  -7    2.39    0.55
  -5  -3   7   19.54    1.09
  -5  -3   7   20.35    1.16
   5  -3  -7   21.22    1.16
   5  -3  -7   19.68    1.09
   5  -3  -7   17.60    1.11
  -5   3   7   20.88    1.13
   5   3  -7   19.15    1.05
   5   3  -7   21.14    1.13
   5   3  -7   19.08    1.09
  -5   3   7   19.45    1.15
   4  -3  -7   15.68    0.91
  -4  -3   7   15.64    0.86
   4  -3  -7   16.03    0.89
  -4  -3   7   15.24    0.93
   4  -3  -7   14.74    0.92
   4   3  -7   16.07    0.87
   4   3  -7   15.45    0.84
   4   3  -7   15.18    0.87
  -4   3   7   14.63    0.88
  -4   3   7   15.06    0.92
   3  -3  -7   83.25    3.00
  -3  -3   7   84.02    3.03
   3  -3  -7   83.92    3.02
   3  -3  -7   87.95    3.03
   3  -3  -7   82.84    3.04
  -3  -3   7   83.31    2.95
  -3   3   7   79.94    3.00
   3   3  -7   86.98    2.98
  -3   3   7   83.78    3.05
   3   3  -7   81.67    2.99
   3   3  -7   79.51    2.95
   2  -3  -7   11.85    0.70
   2  -3  -7   11.98    0.66
   2  -3  -7   13.53    0.70
  -2  -3   7   11.92    0.65
   2   3  -7   11.13    0.58
   2   3  -7   13.30    0.64
   2   3  -7   11.52    0.60
  -2   3   7   11.49    0.65
  -2   3   7   12.65    0.70
   1  -3  -7  284.67    9.42
   1  -3  -7  271.04    9.40
   1  -3  -7  291.27    9.39
  -1   3   7  272.36    9.38
  -1   3   7  278.39    9.42
   0  -3  -7  122.07    4.19
   0  -3  -7  120.28    4.19
   0  -3  -7  122.53    4.20
   0   3   7  121.26    4.15
   0   3   7  122.38    4.22
   0   3   7  122.29    4.27
  -1  -3  -7   21.25    0.94
  -1  -3  -7   22.17    0.93
  -1  -3  -7   21.76    0.93
   1  -3   7   22.15    1.03
   1   3   7   21.12    1.03
   1   3   7   20.39    0.95
  -2  -3  -7  247.96    8.26
   2  -3   7  255.29    8.34
  -2  -3  -7  249.31    8.23
  -2  -3  -7  209.67    8.26
   2   3   7  244.52    8.26
   2   3   7  256.20    8.33
  -3  -3  -7    9.00    0.68
   3  -3   7    9.67    0.84
  -3  -3  -7    8.89    0.66
   3   3   7    9.72    0.79
   3   3   7    8.62    0.67
  -4  -3  -7   52.17    2.09
  -4  -3  -7   54.32    2.05
   4  -3   7   51.70    2.23
   4   3   7   51.50    2.14
   4   3   7   52.17    2.07
  -5  -3  -7    9.07    0.83
   5   3   7   10.33    0.96
   5   3   7   11.16    0.85
  -6  -3  -7   47.20    2.15
   6   3   7   49.59    2.10
   6   3   7   50.49    2.22
   7  -4  -7   40.57    2.00
   7  -4  -7   36.61    1.90
  -7  -4   7   40.22    1.98
   7  -4  -7   39.26    1.88
  -7  -4   7   40.27    1.97
   7   4  -7   42.74    1.97
  -7   4   7   40.90    1.99
   7   4  -7   39.68    1.86
   7   4  -7   36.49    1.86
   6  -4  -7   27.89    1.50
  -6  -4   7   26.88    1.48
   6  -4  -7   25.98    1.43
  -6  -4   7   28.80    1.45
   6  -4  -7   25.50    1.39
  -6   4   7   27.57    1.47
   6   4  -7   25.01    1.35
   6   4  -7   24.39    1.39
   6   4  -7   29.95    1.46
  -6   4   7   25.00    1.44
  -5  -4   7  105.01    3.85
  -5  -4   7  106.39    3.77
   5  -4  -7   99.31    3.76
   5  -4  -7   90.61    3.78
   5  -4  -7  111.57    3.84
   5   4  -7   97.07    3.78
  -5   4   7  106.16    3.84
   5   4  -7  100.80    3.74
  -5   4   7  104.03    3.81
   5   4  -7  104.06    3.76
  -4  -4   7    0.23    0.36
   4  -4  -7    1.01    0.43
  -4  -4   7    0.62    0.42
   4  -4  -7    0.88    0.41
   4  -4  -7    0.28    0.36
   4  -4  -7    0.51    0.40
   4   4  -7    0.06    0.33
   4   4  -7    0.14    0.34
  -4   4   7    0.59    0.35
  -4   4   7    0.28    0.38
   4   4  -7    0.50    0.33
  -3  -4   7  158.80    5.50
  -3  -4   7  162.59    5.58
   3  -4  -7  162.17    5.61
   3  -4  -7  161.36    5.60
   3  -4  -7  164.76    5.57
   3   4  -7  152.16    5.50
  -3   4   7  163.88    5.59
  -3   4   7  160.88    5.61
   3   4  -7  161.71    5.55
   3   4  -7  160.70    5.52
   2  -4  -7  100.22    3.38
   2  -4  -7   96.63    3.40
   2  -4  -7   97.72    3.41
  -2  -4   7   95.48    3.35
   2   4  -7   90.91    3.27
  -2   4   7   95.59    3.37
   2   4  -7   92.15    3.30
  -2   4   7   95.14    3.41
   2   4  -7   92.32    3.31
   1  -4  -7  234.34    7.98
   1  -4  -7  232.12    7.94
   1  -4  -7  238.49    7.98
  -1   4   7  235.42    7.98
  -1   4   7  234.23    7.94
   0  -4  -7  211.47    7.24
   0  -4  -7  217.93    7.22
   0  -4  -7  212.37    7.23
   0   4   7  212.26    7.18
   0   4   7  212.76    7.25
   0   4   7  210.22    7.28
   1  -4   7    1.68    0.40
  -1  -4  -7    1.06    0.32
  -1  -4  -7    1.20    0.35
  -1  -4  -7    1.04    0.31
   1   4   7    1.60    0.26
   1   4   7    1.64    0.40
   1   4   7    1.96    0.37
   1   4   7    1.43    0.29
  -2  -4  -7   37.40    1.62
  -2  -4  -7   41.62    1.59
  -2  -4  -7   41.22    1.61
   2  -4   7   42.19    1.73
  -2  -4  -7   41.34    1.64
   2   4   7   40.10    1.64
   2   4   7   43.31    1.69
   2   4   7   39.60    1.53
  -3  -4  -7    5.80    0.64
   3  -4   7    6.24    0.78
  -3  -4  -7    6.06    0.62
   3   4   7    5.57    0.62
   3   4   7    6.42    0.71
  -4  -4  -7   51.27    2.12
  -4  -4  -7   54.55    2.09
   4   4   7   53.07    2.16
   4   4   7   51.52    2.10
  -5  -4  -7   24.43    1.32
  -5  -4  -7   26.25    1.32
   5   4   7   26.61    1.30
   5   4   7   24.18    1.37
  -6  -4  -7   10.49    0.99
   6   4   7   10.50    0.94
  -7  -5   7   26.01    1.50
   7  -5  -7   24.15    1.49
  -7  -5   7   23.73    1.49
   7  -5  -7   22.74    1.44
   7  -5  -7   26.62    1.61
   7   5  -7   25.58    1.53
  -7   5   7   25.22    1.53
   7   5  -7   22.56    1.40
   7   5  -7   23.32    1.37
   6  -5  -7   28.80    1.56
  -6  -5   7   30.90    1.60
   6  -5  -7   29.69    1.53
  -6  -5   7   30.15    1.53
   6  -5  -7   32.93    1.64
   6   5  -7   29.71    1.48
  -6   5   7   29.75    1.58
  -6   5   7   31.25    1.60
   6   5  -7   27.08    1.49
   6   5  -7   31.17    1.53
  -5  -5   7    1.48    0.50
  -5  -5   7    1.19    0.51
   5  -5  -7    1.58    0.53
   5  -5  -7    0.70    0.48
   5  -5  -7    2.26    0.57
   5  -5  -7    1.06    0.51
  -5   5   7    1.36    0.53
   5   5  -7    1.64    0.46
   5   5  -7    1.08    0.45
   5   5  -7    1.79    0.47
  -5   5   7    1.46    0.49
   4  -5  -7   84.61    3.16
  -4  -5   7   86.27    3.19
   4  -5  -7   87.80    3.22
  -4  -5   7   88.71    3.12
   4  -5  -7   86.22    3.22
  -4   5   7   83.32    3.21
   4   5  -7   86.82    3.12
  -4   5   7   84.52    3.19
   4   5  -7   83.04    3.16
   4   5  -7   82.47    3.10
   3  -5  -7    8.18    0.70
   3  -5  -7    9.18    0.71
   3  -5  -7    8.33    0.75
  -3  -5   7    7.39    0.55
  -3  -5   7    7.79    0.66
  -3   5   7    7.74    0.70
   3   5  -7    7.23    0.58
   3   5  -7    6.92    0.58
   3   5  -7    7.95    0.57
  -3   5   7    6.92    0.63
   2  -5  -7   67.22    2.50
   2  -5  -7   67.25    2.50
  -2  -5   7   68.81    2.44
   2  -5  -7   69.46    2.47
   2   5  -7   64.16    2.38
   2   5  -7   64.21    2.39
  -2   5   7   65.37    2.50
  -2   5   7   65.93    2.46
   1  -5  -7   68.14    2.60
   1  -5  -7   68.81    2.59
  -1  -5   7   72.37    2.50
   1  -5  -7   69.90    2.57
  -1   5   7   71.74    2.55
  -1   5   7   69.72    2.61
   0  -5  -7   67.54    2.45
   0  -5  -7   65.12    2.46
   0  -5  -7   69.18    2.47
   0   5   7   65.36    2.50
   0   5   7   65.34    2.48
   0   5   7   66.07    2.40
  -1  -5  -7   53.86    2.06
  -1  -5  -7   50.39    2.06
  -1  -5  -7   54.23    2.05
   1   5   7   55.28    2.11
   1   5   7   55.21    2.00
   1   5   7   54.90    2.09
  -2  -5  -7    5.93    0.60
  -2  -5  -7    5.64    0.60
  -2  -5  -7    6.05    0.64
  -2  -5  -7    6.04    0.60
   2  -5   7    5.95    0.71
   2   5   7    7.19    0.49
   2   5   7    6.17    0.67
   2   5   7    6.42    0.64
   2   5   7    5.96    0.51
  -3  -5  -7   27.41    1.23
  -3  -5  -7   25.88    1.26
   3   5   7   23.54    1.12
   3   5   7   26.78    1.27
   3   5   7   27.35    1.28
   3   5   7   26.23    1.13
  -4  -5  -7   32.47    1.54
  -4  -5  -7   33.11    1.49
   4   5   7   33.58    1.52
   4   5   7   32.57    1.37
  -5  -5  -7    1.28    0.55
  -5  -5  -7    0.32    0.46
   5   5   7    1.02    0.49
  -7  -6   7   18.06    1.34
   7  -6  -7   17.76    1.43
   7  -6  -7   17.05    1.30
  -7  -6   7   17.50    1.27
   7  -6  -7   18.41    1.31
   7   6  -7   16.81    1.16
  -7   6   7   17.02    1.29
   7   6  -7   15.35    1.19
   6  -6  -7    7.80    0.94
   6  -6  -7    6.86    0.99
  -6  -6   7    9.20    0.97
  -6  -6   7    8.42    0.91
   6  -6  -7    9.58    1.04
   6  -6  -7    7.74    0.96
  -6   6   7    7.30    1.07
   6   6  -7    7.57    0.82
   6   6  -7    7.95    0.83
  -6   6   7    7.06    0.90
   5  -6  -7   20.54    1.21
   5  -6  -7   21.51    1.27
  -5  -6   7   21.79    1.15
  -5  -6   7   20.65    1.21
   5  -6  -7   19.69    1.22
   5   6  -7   20.04    1.11
  -5   6   7   18.90    1.19
   5   6  -7   16.83    1.07
  -5   6   7   20.79    1.23
  -4  -6   7   30.17    1.31
   4  -6  -7   31.09    1.46
   4  -6  -7   28.33    1.37
   4  -6  -7   30.98    1.44
  -4  -6   7   30.25    1.41
  -4   6   7   28.66    1.43
   4   6  -7   26.49    1.31
  -4   6   7   27.18    1.37
   4   6  -7   29.68    1.32
   3  -6  -7   63.35    2.41
  -3  -6   7   61.32    2.35
   3  -6  -7   59.60    2.35
   3  -6  -7   60.96    2.40
  -3   6   7   60.53    2.36
   3   6  -7   62.69    2.29
   3   6  -7   59.49    2.30
  -3   6   7   62.32    2.41
   2  -6  -7   71.16    2.67
   2  -6  -7   72.29    2.71
   2  -6  -7   69.69    2.70
  -2  -6   7   71.55    2.63
  -2   6   7   72.43    2.72
   2   6  -7   70.50    2.59
   2   6  -7   72.81    2.58
  -2   6   7   73.68    2.68
   1  -6  -7   31.47    1.33
  -1  -6   7   30.55    1.24
   1  -6  -7   30.68    1.35
   1  -6  -7   31.53    1.37
  -1   6   7   30.62    1.37
  -1   6   7   29.45    1.30
   1   6  -7   29.03    1.19
   0  -6  -7   60.19    2.32
   0  -6  -7   62.39    2.30
   0  -6  -7   59.66    2.32
   0   6   7   60.44    2.26
   0   6   7   62.76    2.37
   0   6   7   59.73    2.34
  -1  -6  -7  174.43    5.99
  -1  -6  -7  172.05    6.03
  -1  -6  -7  173.98    6.01
   1   6   7  178.97    6.03
   1   6   7  166.87    6.02
   1   6   7  172.63    5.94
  -2  -6  -7   72.72    2.72
  -2  -6  -7   71.64    2.76
  -2  -6  -7   73.17    2.72
   2   6   7   72.91    2.75
   2   6   7   74.45    2.78
   2   6   7   71.35    2.66
   2   6   7   74.47    2.66
  -3  -6  -7   73.83    2.72
  -3  -6  -7   73.62    2.77
   3   6   7   71.04    2.64
   3   6   7   71.65    2.76
   3   6   7   67.62    2.62
  -4  -6  -7   12.48    0.97
  -4  -6  -7   13.53    0.94
   4   6   7   11.98    0.78
   4   6   7   13.72    0.96
  -5  -6  -7   58.97    2.31
  -5  -6  -7   50.78    2.32
   5   6   7   54.52    2.31
   5   6   7   55.52    2.15
   6  -7  -7   55.51    2.48
   6  -7  -7   53.21    2.36
  -6  -7   7   57.92    2.36
  -6  -7   7   54.90    2.44
   6   7  -7   55.87    2.31
   6   7  -7   52.27    2.33
  -6   7   7   52.36    2.40
  -5  -7   7    1.77    0.57
   5  -7  -7    1.98    0.64
   5  -7  -7    0.36    0.48
   5  -7  -7    0.43    0.52
  -5  -7   7    1.42    0.47
  -5   7   7    1.72    0.52
   5   7  -7    1.48    0.50
   5   7  -7    1.39    0.45
  -5   7   7    1.48    0.58
   4  -7  -7   50.36    2.12
   4  -7  -7   48.24    2.04
   4  -7  -7   49.50    2.09
  -4  -7   7   48.43    2.00
  -4  -7   7   49.74    2.06
   4   7  -7   49.72    1.97
  -4   7   7   46.55    2.04
  -4   7   7   52.99    2.11
   4   7  -7   45.13    1.97
  -3  -7   7   15.55    0.93
   3  -7  -7   15.61    1.02
   3  -7  -7   15.07    0.95
   3  -7  -7   15.71    0.99
  -3   7   7   16.01    0.95
  -3   7   7   15.80    1.00
   3   7  -7   15.95    0.86
   3   7  -7   15.65    0.87
   2  -7  -7   23.89    1.26
   2  -7  -7   24.20    1.21
  -2  -7   7   25.01    1.16
   2  -7  -7   24.16    1.23
   2   7  -7   25.65    1.10
   2   7  -7   25.31    1.10
  -2   7   7   25.91    1.26
  -2   7   7   24.15    1.18
  -1  -7   7   88.80    3.09
   1  -7  -7   84.40    3.20
   1  -7  -7   85.54    3.20
   1  -7  -7   89.14    3.18
  -1   7   7   84.17    3.14
  -1   7   7   88.74    3.23
   1   7  -7   81.83    3.03
   0  -7  -7    4.38    0.61
   0  -7  -7    4.53    0.67
   0  -7  -7    4.00    0.60
   0   7   7    4.65    0.68
   0   7   7    4.81    0.66
   0   7   7    5.11    0.56
  -1  -7  -7   24.79    1.20
  -1  -7  -7   25.01    1.18
  -1  -7  -7   25.38    1.22
   1   7   7   23.28    1.22
   1   7   7   22.50    1.21
   1   7   7   23.31    1.10
  -2  -7  -7   14.45    0.92
  -2  -7  -7   15.42    0.97
  -2  -7  -7   16.47    0.95
   2   7   7   14.74    0.97
   2   7   7   15.58    0.86
   2   7   7   15.13    0.84
  -3  -7  -7   39.89    1.81
  -3  -7  -7   41.89    1.78
   3   7   7   41.44    1.69
   3   7   7   41.08    1.83
   3   7   7   40.96    1.68
  -4  -7  -7   42.40    1.84
  -4  -7  -7   39.03    1.88
   4   7   7   44.01    1.90
   4   7   7   41.47    1.73
  -5  -7  -7    1.95    0.60
  -5  -7  -7    3.09    0.66
   5   7   7    2.34    0.47
   5   7   7    2.36    0.60
  -6  -8   7    8.58    1.01
   6  -8  -7    8.65    1.06
   6  -8  -7    8.27    1.17
   6  -8  -7    8.03    1.01
  -6   8   7    8.84    1.03
   6   8  -7    8.85    0.91
   6   8  -7    9.58    0.91
   5  -8  -7    9.90    0.98
   5  -8  -7   12.19    1.11
  -5  -8   7   11.22    0.99
   5  -8  -7   10.99    1.03
   5   8  -7    9.24    0.85
   5   8  -7   10.25    0.87
  -5   8   7    9.69    1.10
  -5   8   7    9.14    0.94
   4  -8  -7   22.64    1.29
   4  -8  -7   19.71    1.23
   4  -8  -7   23.23    1.35
  -4  -8   7   22.16    1.25
   4   8  -7   22.51    1.14
  -4   8   7   21.95    1.29
  -4   8   7   22.75    1.26
   4   8  -7   21.32    1.15
   3  -8  -7   25.17    1.27
  -3  -8   7   23.50    1.22
   3  -8  -7   24.71    1.34
   3  -8  -7   25.60    1.32
   3   8  -7   23.21    1.14
   3   8  -7   22.52    1.14
  -3   8   7   23.56    1.31
  -3   8   7   24.87    1.27
   2  -8  -7   25.99    1.30
   2  -8  -7   26.28    1.35
  -2  -8   7   28.20    1.28
   2  -8  -7   27.94    1.39
   2   8  -7   27.05    1.19
  -2   8   7   26.55    1.37
  -2   8   7   26.71    1.30
   2   8  -7   27.55    1.21
  -1  -8   7   40.16    1.68
   1  -8  -7   42.57    1.82
   1  -8  -7   43.07    1.78
   1  -8  -7   43.15    1.83
  -1   8   7   42.95    1.76
   1   8  -7   40.18    1.61
   1   8  -7   42.38    1.64
  -1   8   7   40.98    1.81
   0  -8  -7   59.94    2.38
   0  -8  -7   61.06    2.39
   0  -8  -7   59.12    2.34
   0   8   7   58.56    2.30
   0   8   7   60.14    2.38
   0   8   7   59.55    2.40
  -1  -8  -7   82.38    3.15
  -1  -8  -7   82.58    3.15
  -1  -8  -7   83.93    3.14
  -1  -8  -7   82.56    3.12
   1   8   7   83.09    3.17
   1   8   7   83.32    3.06
  -2  -8  -7   18.28    1.06
  -2  -8  -7   18.09    1.08
  -2  -8  -7   18.97    1.11
   2   8   7   18.06    0.98
   2   8   7   17.59    1.09
   2   8   7   16.72    0.97
  -3  -8  -7   38.01    1.78
  -3  -8  -7   37.11    1.72
   3   8   7   38.72    1.79
   3   8   7   39.20    1.65
   3   8   7   38.03    1.64
  -4  -8  -7    5.89    0.85
  -4  -8  -7    5.20    0.82
   4   8   7    6.72    0.86
   4   8   7    6.81    0.69
   5  -9  -7    2.47    0.65
  -5  -9   7    1.29    0.58
   5  -9  -7    1.79    0.62
   5  -9  -7    1.79    0.68
  -5   9   7    1.72    0.59
   5   9  -7    0.96    0.49
   5   9  -7    1.22    0.49
   4  -9  -7   20.21    1.36
   4  -9  -7   20.28    1.31
  -4  -9   7   22.43    1.26
   4  -9  -7   21.50    1.30
   4   9  -7   19.39    1.14
   4   9  -7   24.11    1.19
  -4   9   7   19.26    1.25
  -4   9   7   23.56    1.37
   3  -9  -7    8.09    0.87
   3  -9  -7    9.42    0.87
   3  -9  -7    8.33    0.95
  -3  -9   7    8.18    0.83
   3   9  -7    9.79    0.75
  -3   9   7    8.21    0.92
  -3   9   7    8.69    0.86
   3   9  -7    8.58    0.70
   2  -9  -7   57.10    2.38
  -2  -9   7   57.85    2.28
   2  -9  -7   57.58    2.34
   2  -9  -7   58.68    2.41
   2   9  -7   55.69    2.21
  -2   9   7   56.18    2.32
   2   9  -7   58.20    2.20
  -2   9   7   58.07    2.41
  -1  -9   7   50.61    2.04
   1  -9  -7   51.57    2.13
   1  -9  -7   50.72    2.16
   1  -9  -7   56.10    2.21
  -1   9   7   52.09    2.11
  -1   9   7   51.72    2.19
   1   9  -7   49.07    1.98
   1   9  -7   51.00    1.98
   0  -9  -7    5.77    0.80
   0  -9   7    6.27    0.65
   0  -9  -7    6.74    0.73
   0  -9  -7    6.61    0.80
   0   9   7    6.40    0.80
   0   9  -7    6.43    0.57
   0   9   7    7.24    0.69
  -1  -9  -7   18.93    1.10
  -1  -9  -7   16.82    1.10
  -1  -9  -7   16.81    1.08
  -1  -9  -7   16.48    1.05
   1   9   7   16.58    1.11
   1   9   7   16.59    0.99
   1   9   7   17.95    1.00
  -2  -9  -7   11.81    0.98
  -2  -9  -7   12.97    0.95
  -2  -9  -7   13.68    0.98
   2   9   7   12.79    1.01
   2   9   7   11.85    0.84
   2   9   7   10.96    0.85
  -3  -9  -7   26.46    1.42
  -3  -9  -7   25.13    1.37
   3   9   7   25.36    1.26
   3   9   7   24.09    1.25
   3   9   7   25.25    1.43
  -4  -9  -7    1.66    0.62
  -4  -9  -7    2.92    0.66
   4   9   7    2.07    0.66
   4   9   7    2.86    0.53
   5 -10  -7   30.54    1.81
   5 -10  -7   32.32    1.67
   5 -10  -7   24.53    1.84
   5  10  -7   30.48    1.53
  -5  10   7   33.27    1.69
   5  10  -7   29.82    1.56
   4 -10  -7    7.56    0.90
   4 -10  -7    8.32    0.94
  -4 -10   7    7.64    0.86
   4 -10  -7    7.52    1.05
  -4  10   7    8.50    0.92
   4  10  -7    5.76    0.73
   4  10  -7    8.00    0.81
   3 -10  -7   94.00    3.60
   3 -10  -7   97.58    3.67
   3 -10  -7   94.93    3.72
  -3 -10   7   94.69    3.58
  -3  10   7   88.91    3.60
  -3  10   7   98.85    3.69
   3  10  -7   87.77    3.50
   3  10  -7   97.93    3.49
   2 -10  -7   16.71    1.17
   2 -10  -7   12.73    1.03
  -2 -10   7   15.11    1.01
   2 -10  -7   17.32    1.13
   2  10  -7   16.38    0.94
   2  10  -7   14.66    0.91
  -2  10   7   16.90    1.07
  -2  10   7   15.47    1.11
  -1 -10   7   29.26    1.38
   1 -10  -7   27.53    1.49
   1 -10  -7   28.27    1.44
   1 -10  -7   28.70    1.51
  -1  10   7   29.09    1.52
   1  10  -7   29.34    1.29
  -1  10   7   27.18    1.41
   0 -10  -7   30.77    1.56
   0 -10  -7   30.37    1.52
   0 -10   7   28.31    1.39
   0 -10  -7   32.05    1.59
   0 -10  -7   34.40    1.63
   0  10  -7   33.29    1.37
   0  10   7   29.47    1.58
   0  10   7   31.21    1.47
  -1 -10  -7   10.53    0.93
  -1 -10  -7   10.41    0.89
  -1 -10  -7    9.16    0.94
   1 -10   7    8.38    0.74
   1  10   7    9.49    0.82
   1  10   7    9.09    0.96
   1  10   7    9.41    0.82
  -2 -10  -7   24.52    1.38
  -2 -10  -7   24.06    1.41
  -2 -10  -7   26.40    1.46
   2  10   7   26.35    1.30
   2  10   7   25.14    1.30
   2  10   7   25.20    1.44
  -3 -10  -7    4.79    0.77
  -3 -10  -7    4.61    0.78
   3  10   7    4.60    0.70
   3  10   7    5.30    0.68
   3  10   7    5.63    0.91
  -4 -11   7    0.06    0.47
   4 -11  -7    0.18    0.67
   4 -11  -7    0.02    0.59
   4 -11  -7    0.42    0.60
   4  11  -7    0.57    0.47
  -4  11   7    0.21    0.53
   4  11  -7    0.27    0.38
   3 -11  -7    5.84    1.00
   3 -11  -7    7.56    0.97
   3 -11  -7    6.75    0.89
  -3 -11   7    6.84    0.87
  -3  11   7    6.88    0.89
   3  11  -7    6.03    0.73
   3  11  -7    6.58    0.77
   2 -11  -7    4.76    0.82
  -2 -11   7    3.81    0.64
   2 -11  -7    3.21    0.69
   2 -11  -7    3.80    0.73
   2  11  -7    2.34    0.48
  -2  11   7    3.50    0.72
  -2  11   7    4.85    0.81
   2  11  -7    3.76    0.57
   1 -11  -7   25.52    1.42
   1 -11  -7   26.07    1.52
   1 -11  -7   29.27    1.53
  -1 -11   7   27.76    1.37
  -1  11   7   27.89    1.42
   1  11  -7   24.78    1.26
  -1  11   7   27.13    1.52
   0 -11   7   18.79    1.09
   0 -11  -7   15.38    1.13
   0 -11  -7   18.29    1.23
   0 -11  -7   18.24    1.21
   0  11   7   17.15    1.09
   0  11   7   19.13    1.26
   0  11  -7   18.06    1.00
  -1 -11  -7    7.84    0.90
  -1 -11  -7    7.93    0.94
   1 -11   7    6.49    0.76
  -1 -11  -7    7.07    0.86
   1  11   7    7.53    0.82
   1  11   7    6.77    0.90
   1  11   7    7.04    0.81
  -1  11  -7    7.67    0.70
  -2 -11  -7   42.59    2.02
  -2 -11  -7   41.32    1.95
   2  11   7   42.05    1.87
   2  11   7   43.73    1.88
   2  11   7   39.81    2.00
   2 -12  -7    0.76    0.57
   2 -12  -7    0.76    0.63
   2 -12  -7    0.04    0.57
  -2 -12   7   -0.44    0.48
  -2  12   7    0.36    0.54
   2  12  -7   -0.10    0.40
   1 -12  -7   13.51    1.12
  -1 -12   7   13.77    1.04
   1 -12  -7   10.91    1.16
   1 -12  -7   13.68    1.13
   1 -12  -7   11.67    1.09
  -1  12   7   11.40    1.13
   1  12  -7   12.21    0.89
  -1  12   7   12.29    1.04
   0 -12  -7   12.29    1.09
   0 -12  -7   12.09    1.11
   0 -12  -7   12.00    1.04
   0 -12   7   11.05    0.95
   0  12  -7   11.88    0.86
   0  12   7   10.30    0.96
   0  12   7   12.50    1.13
  -1 -12  -7    4.00    0.77
  -1 -12  -7    5.27    0.82
  -1 -12  -7    4.66    0.76
   1 -12   7    2.82    0.60
   1  12   7    3.86    0.66
   1  12   7    4.22    0.77
   1  12   7    3.15    0.65
  -1  12  -7    3.28    0.52
   7   0  -8   -0.11    0.60
   7   0  -8    1.33    0.60
  -7   0   8   -0.36    0.62
  -7   0   8    0.12    0.60
   7   0  -8    0.17    0.55
  -6   0   8    1.59    0.58
   6   0  -8    1.58    0.60
   6   0  -8    1.03    0.49
   6   0  -8    0.75    0.54
  -6   0   8    0.64    0.56
  -5   0   8    7.99    0.80
   5   0  -8    7.75    0.74
   5   0  -8    6.23    0.69
  -5   0   8    6.64    0.72
   5   0  -8    7.96    0.77
  -4   0   8   20.50    1.09
  -4   0   8   19.99    1.03
   4   0  -8   22.16    1.06
   4   0  -8   21.21    1.03
   4   0  -8   20.87    1.07
   3   0  -8    0.48    0.29
   3   0  -8    0.75    0.33
   3   0  -8    0.51    0.29
  -3   0   8    0.27    0.32
  -3   0   8    0.18    0.27
  -2   0   8    4.48    0.46
   2   0  -8    4.67    0.42
  -2   0   8    4.17    0.37
   2   0  -8    5.12    0.41
   2   0  -8    4.65    0.44
   1   0  -8    0.16    0.20
  -1   0   8    0.06    0.20
  -1   0   8   -0.35    0.27
   0   0   8    0.74    0.33
   1   0   8    0.33    0.35
   2   0   8   87.14    3.20
   3   0   8    0.86    0.45
   4   0   8   -0.05    0.48
  -5   0  -8    6.83    0.72
   5   0   8    7.59    0.99
   5   0   8    8.00    0.69
  -6   0  -8    2.74    0.60
   6   0   8    2.48    0.52
  -7  -1   8   43.60    2.06
   7  -1  -8   46.67    2.10
   7  -1  -8   39.84    1.98
  -7  -1   8   45.22    2.06
   7  -1  -8   39.37    1.93
   7   1  -8   45.12    2.07
   7   1  -8   39.08    1.97
   7   1  -8   40.89    1.92
  -7   1   8   41.40    2.02
  -7   1   8   43.47    2.04
   6  -1  -8   24.77    1.35
  -6  -1   8   28.27    1.42
  -6  -1   8   26.23    1.42
   6  -1  -8   24.16    1.36
   6  -1  -8   26.90    1.44
   6   1  -8   23.48    1.36
   6   1  -8   24.98    1.31
  -6   1   8   23.68    1.38
   6   1  -8   28.58    1.42
  -6   1   8   27.20    1.45
  -5  -1   8   11.26    0.86
   5  -1  -8   14.13    0.88
   5  -1  -8   10.59    0.85
  -5  -1   8   12.10    0.92
   5  -1  -8   12.56    0.91
   5   1  -8   14.01    0.87
   5   1  -8   13.71    0.91
  -5   1   8   12.91    0.93
  -5   1   8   13.45    0.89
   5   1  -8   11.13    0.86
   4  -1  -8   16.17    0.88
  -4  -1   8   15.57    0.92
  -4  -1   8   15.91    0.86
   4  -1  -8   16.28    0.92
   4  -1  -8   14.87    0.88
   4   1  -8   13.62    0.86
   4   1  -8   14.10    0.84
  -4   1   8   13.93    0.84
   4   1  -8   15.40    0.87
  -4   1   8   15.17    0.91
   3  -1  -8   44.11    1.79
  -3  -1   8   44.95    1.71
   3  -1  -8   45.33    1.76
   3  -1  -8   46.10    1.76
  -3  -1   8   46.59    1.79
  -3   1   8   46.70    1.75
   3   1  -8   46.54    1.74
   3   1  -8   45.40    1.77
  -3   1   8   46.42    1.81
   3   1  -8   43.80    1.73
   2  -1  -8  109.22    3.69
   2  -1  -8  104.11    3.68
   2  -1  -8  109.64    3.73
  -2  -1   8  102.40    3.69
   2   1  -8  107.69    3.70
  -2   1   8  103.42    3.65
  -2   1   8  109.66    3.74
   2   1  -8  102.01    3.64
   2   1  -8  106.99    3.66
  -1  -1   8   18.52    0.89
   1  -1  -8   18.81    0.81
   1  -1  -8   19.67    0.83
   1  -1  -8   18.46    0.80
  -1  -1   8   18.52    0.80
  -1   1   8   18.54    0.84
  -1   1   8   19.64    0.93
   0  -1   8   85.47    3.00
   0   1   8   86.42    3.02
   0   1   8   78.88    2.90
   1  -1   8    4.01    0.57
   1   1   8    4.05    0.56
   1   1   8    3.86    0.39
   2  -1   8  137.06    4.79
   2   1   8  139.10    4.78
   2   1   8  130.47    4.63
   3  -1   8   11.11    0.84
   3   1   8   10.35    0.66
   3   1   8    9.01    0.83
  -4  -1  -8   20.55    1.03
   4  -1   8   21.27    1.24
   4   1   8   19.07    0.99
   4   1   8   21.32    1.20
  -5  -1  -8    7.46    0.76
   5  -1   8    7.49    0.96
   5   1   8    9.09    0.74
   5   1   8    8.91    0.99
   6  -1   8   15.56    1.03
  -6  -1  -8   15.22    1.08
   6   1   8   18.01    1.06
  -6   1  -8   15.04    1.08
  -7  -2   8    0.52    0.59
   7  -2  -8    0.86    0.57
   7  -2  -8    1.02    0.55
   7  -2  -8   -0.21    0.56
  -7  -2   8    2.04    0.66
   7   2  -8    1.19    0.59
   7   2  -8    0.58    0.60
   7   2  -8    1.22    0.57
  -7   2   8    0.53    0.54
  -7   2   8    0.98    0.60
   6  -2  -8   17.84    1.12
  -6  -2   8   18.24    1.15
   6  -2  -8   18.33    1.18
   6  -2  -8   16.79    1.15
  -6  -2   8   17.46    1.19
   6   2  -8   15.84    1.06
   6   2  -8   18.88    1.16
   6   2  -8   15.77    1.10
  -6   2   8   18.07    1.16
  -6   2   8   18.93    1.21
   5  -2  -8    1.47    0.45
   5  -2  -8    1.99    0.47
   5  -2  -8    1.80    0.52
  -5  -2   8    2.22    0.54
  -5  -2   8    2.00    0.47
  -5   2   8    1.61    0.45
  -5   2   8    2.46    0.55
   5   2  -8    1.39    0.43
   5   2  -8    2.57    0.52
   5   2  -8    1.45    0.46
  -4  -2   8    8.34    0.67
   4  -2  -8    9.09    0.72
   4  -2  -8    8.31    0.70
  -4  -2   8    9.12    0.76
   4  -2  -8    8.43    0.73
  -4   2   8    8.83    0.76
   4   2  -8    8.43    0.69
   4   2  -8    8.32    0.68
  -4   2   8    8.41    0.69
   4   2  -8    9.83    0.70
   3  -2  -8   29.97    1.37
   3  -2  -8   32.78    1.36
  -3  -2   8   32.58    1.30
   3  -2  -8   34.64    1.39
  -3  -2   8   33.91    1.40
   3  -2  -8   34.57    1.39
  -3   2   8   31.30    1.39
   3   2  -8   33.57    1.38
   3   2  -8   33.40    1.35
  -3   2   8   33.20    1.36
   3   2  -8   32.66    1.32
   2  -2  -8   14.10    0.74
   2  -2  -8   12.69    0.73
   2  -2  -8   13.73    0.71
  -2  -2   8   13.39    0.72
  -2   2   8   13.52    0.68
  -2   2   8   13.38    0.75
   2   2  -8   13.87    0.69
   2   2  -8   13.55    0.66
   1  -2  -8   39.48    1.45
   1  -2  -8   39.36    1.47
   1  -2  -8   39.36    1.47
  -1   2   8   36.53    1.55
  -1   2   8   37.48    1.41
  -1   2   8   36.47    1.48
   0  -2  -8   33.61    1.32
   0  -2   8   34.62    1.42
   0  -2  -8   35.40    1.34
   0   2   8   35.84    1.36
   0   2   8   34.71    1.45
  -1  -2  -8    7.06    0.50
  -1  -2  -8    8.58    0.52
   1  -2   8    7.44    0.66
   1   2   8    7.87    0.53
   1   2   8    7.33    0.67
  -2  -2  -8    4.67    0.50
   2  -2   8    4.14    0.66
   2   2   8    5.39    0.64
   2   2   8    4.04    0.50
   3  -2   8   12.54    0.92
  -3  -2  -8   10.90    0.75
  -3  -2  -8   11.79    0.73
   3   2   8   11.78    0.87
   3   2   8   11.53    0.73
   4  -2   8   27.23    1.47
  -4  -2  -8   28.60    1.25
  -4  -2  -8   26.53    1.28
   4   2   8   27.16    1.25
   4   2   8   27.72    1.41
  -5  -2  -8    3.69    0.66
   5   2   8    2.84    0.65
   5   2   8    4.70    0.64
  -6  -2  -8    6.45    0.85
   6   2   8    8.03    0.84
   6   2   8    6.94    1.01
  -7  -3   8   22.25    1.39
   7  -3  -8   22.01    1.43
  -7  -3   8   19.06    1.31
   7  -3  -8   19.06    1.28
   7  -3  -8   17.15    1.29
   7   3  -8   19.09    1.23
  -7   3   8   20.37    1.34
   7   3  -8   17.56    1.24
  -7   3   8   19.76    1.35
   7   3  -8   20.06    1.35
   6  -3  -8   12.47    1.03
   6  -3  -8   11.73    0.98
  -6  -3   8   11.56    0.99
   6  -3  -8   12.57    1.07
  -6  -3   8   10.63    1.02
   6   3  -8   13.11    0.95
  -6   3   8   12.50    1.01
   6   3  -8   10.99    0.93
  -6   3   8   13.76    1.06
   6   3  -8   10.75    0.98
   5  -3  -8   30.83    1.41
  -5  -3   8   27.25    1.39
   5  -3  -8   26.76    1.39
  -5  -3   8   28.83    1.33
   5  -3  -8   26.03    1.34
   5   3  -8   24.89    1.32
  -5   3   8   28.49    1.41
   5   3  -8   26.94    1.30
   5   3  -8   27.09    1.34
  -5   3   8   26.38    1.35
  -4  -3   8   40.93    1.68
  -4  -3   8   43.50    1.79
   4  -3  -8   44.94    1.77
   4  -3  -8   38.61    1.76
   4  -3  -8   40.68    1.71
   4  -3  -8   44.13    1.76
  -4   3   8   41.88    1.78
   4   3  -8   40.54    1.73
  -4   3   8   42.18    1.73
   4   3  -8   41.30    1.70
   4   3  -8   41.18    1.69
   3  -3  -8   24.48    1.15
   3  -3  -8   24.55    1.10
  -3  -3   8   23.05    1.02
   3  -3  -8   24.49    1.13
  -3  -3   8   23.89    1.14
   3   3  -8   23.32    1.05
  -3   3   8   25.17    1.11
   3   3  -8   25.57    1.08
   3   3  -8   24.79    1.10
  -3   3   8   23.36    1.15
   2  -3  -8   44.28    1.65
  -2  -3   8   42.25    1.64
   2  -3  -8   43.77    1.68
   2  -3  -8   44.12    1.67
   2   3  -8   40.72    1.58
  -2   3   8   42.78    1.69
   2   3  -8   40.47    1.60
  -2   3   8   42.13    1.63
   1  -3  -8   67.54    2.46
   1  -3  -8   71.04    2.47
   1  -3  -8   70.53    2.44
  -1   3   8   63.29    2.46
  -1   3   8   66.64    2.41
   0  -3  -8   94.34    3.31
   0  -3  -8   94.40    3.32
   0  -3  -8   95.15    3.33
   0   3   8   94.43    3.41
   0   3   8   94.80    3.35
  -1  -3  -8   37.14    1.43
   1  -3   8   37.23    1.55
  -1  -3  -8   35.53    1.44
   1   3   8   35.98    1.46
   1   3   8   37.23    1.55
  -2  -3  -8   18.20    0.87
   2  -3   8   18.06    1.02
  -2  -3  -8   18.65    0.90
   2   3   8   17.31    1.00
   2   3   8   16.36    0.89
  -3  -3  -8   13.25    0.81
  -3  -3  -8   12.43    0.77
   3  -3   8   12.41    0.97
   3   3   8   13.16    0.80
   3   3   8   12.59    0.92
   4  -3   8    8.24    0.91
  -4  -3  -8    6.66    0.74
  -4  -3  -8    7.51    0.72
   4   3   8    8.22    0.86
   4   3   8    7.80    0.73
  -5  -3  -8    0.79    0.44
   5   3   8    1.01    0.58
   5   3   8    1.17    0.42
  -6  -3  -8   13.80    1.10
   6   3   8   15.59    1.08
   6   3   8   16.18    1.24
   7  -4  -8   21.09    1.40
  -7  -4   8   19.04    1.30
  -7  -4   8   18.84    1.35
   7  -4  -8   18.92    1.26
   7  -4  -8   17.14    1.28
   7   4  -8   17.73    1.20
  -7   4   8   19.21    1.33
   7   4  -8   20.35    1.79
  -7   4   8   18.48    1.32
   7   4  -8   16.38    1.22
   6  -4  -8   16.17    1.08
   6  -4  -8   15.42    1.14
   6  -4  -8   17.45    1.22
  -6  -4   8   17.09    1.11
  -6  -4   8   14.75    1.12
   6   4  -8   15.80    1.03
   6   4  -8   16.40    1.14
  -6   4   8   15.70    1.15
   6   4  -8   13.40    1.04
  -6   4   8   17.11    1.15
   5  -4  -8    8.35    0.79
   5  -4  -8    9.99    0.88
  -5  -4   8    9.84    0.88
  -5  -4   8    8.67    0.78
   5  -4  -8    9.44    0.89
   5  -4  -8    7.96    0.86
   5   4  -8    8.07    0.75
   5   4  -8    8.77    0.82
  -5   4   8    8.10    0.85
   5   4  -8    8.38    0.76
  -5   4   8    8.49    0.81
   4  -4  -8   25.03    1.15
   4  -4  -8   20.97    1.15
  -4  -4   8   20.56    1.04
   4  -4  -8   23.74    1.18
  -4  -4   8   21.93    1.16
   4   4  -8   22.28    1.08
   4   4  -8   20.76    1.09
  -4   4   8   21.88    1.17
  -4   4   8   21.60    1.11
   4   4  -8   21.92    1.10
  -3  -4   8   65.39    2.47
   3  -4  -8   67.91    2.46
   3  -4  -8   64.15    2.47
   3  -4  -8   65.56    2.50
  -3   4   8   66.63    2.51
   3   4  -8   65.72    2.40
  -3   4   8   62.77    2.44
   3   4  -8   64.05    2.43
   2  -4  -8   66.57    2.44
   2  -4  -8   63.34    2.40
  -2  -4   8   64.98    2.37
   2  -4  -8   64.92    2.43
   2   4  -8   66.58    2.35
  -2   4   8   62.24    2.38
  -2   4   8   67.24    2.45
   2   4  -8   63.36    2.32
   1  -4  -8   18.93    0.96
   1  -4  -8   18.99    0.93
   1  -4  -8   19.24    0.95
  -1   4   8   21.65    0.92
  -1   4   8   20.61    0.98
   0  -4  -8   85.73    3.07
   0  -4  -8   88.09    3.08
   0  -4  -8   86.68    3.09
   0   4   8   86.24    3.16
   0   4   8   84.74    3.01
   0   4   8   84.98    3.11
   1  -4   8  153.07    5.51
  -1  -4  -8  158.23    5.45
  -1  -4  -8  161.99    5.49
  -1  -4  -8  164.03    5.47
   1   4   8  156.85    5.49
   1   4   8  155.08    5.40
   1   4   8  161.80    5.55
  -2  -4  -8    3.84    0.55
  -2  -4  -8    3.46    0.54
   2  -4   8    3.50    0.55
   2   4   8    3.81    0.65
   2   4   8    4.81    0.58
  -3  -4  -8   28.69    1.30
   3  -4   8   28.14    1.45
  -3  -4  -8   28.87    1.34
   3   4   8   29.98    1.40
   3   4   8   29.31    1.32
  -4  -4  -8   24.69    1.22
  -4  -4  -8   24.73    1.27
   4   4   8   24.13    1.33
   4   4   8   24.20    1.23
  -5  -4  -8   46.86    2.08
  -5  -4  -8   50.72    2.05
   5   4   8   48.33    2.14
   5   4   8   48.70    2.05
   7  -5  -8    2.68    0.71
  -7  -5   8    3.37    0.71
   7  -5  -8    6.23    1.03
  -7  -5   8    2.71    0.78
   7  -5  -8    2.55    0.70
   7  -5  -8    2.60    0.74
   7   5  -8    2.59    0.63
  -7   5   8    4.15    0.77
   7   5  -8    2.93    0.69
  -6  -5   8    1.58    0.57
   6  -5  -8    1.20    0.59
  -6  -5   8    1.94    0.61
   6  -5  -8    2.03    0.64
   6  -5  -8    2.54    0.65
   6  -5  -8    1.85    0.63
   6   5  -8    1.74    0.50
  -6   5   8    2.00    0.63
   6   5  -8    2.54    0.55
  -6   5   8    2.21    0.59
  -5  -5   8   17.69    1.14
   5  -5  -8   15.85    1.12
   5  -5  -8   15.60    1.09
   5  -5  -8   15.40    1.12
  -5  -5   8   16.89    1.02
   5   5  -8   19.41    1.04
   5   5  -8   16.63    1.03
  -5   5   8   18.05    1.09
  -5   5   8   17.73    1.16
  -4  -5   8   -0.28    0.35
   4  -5  -8    0.19    0.45
   4  -5  -8    0.67    0.45
  -4  -5   8    0.15    0.34
   4  -5  -8   -0.47    0.39
  -4   5   8    0.71    0.46
   4   5  -8    0.31    0.35
  -4   5   8    0.49    0.39
   4   5  -8    0.12    0.32
  -3  -5   8    1.54    0.43
   3  -5  -8    2.32    0.50
   3  -5  -8    3.11    0.50
   3  -5  -8    3.11    0.49
   3   5  -8    2.00    0.39
   3   5  -8    2.79    0.41
  -3   5   8    2.27    0.42
  -3   5   8    1.97    0.49
  -2  -5   8    5.36    0.54
   2  -5  -8    4.70    0.57
   2  -5  -8    5.28    0.62
   2  -5  -8    4.55    0.58
  -2   5   8    4.43    0.54
  -2   5   8    5.17    0.60
   2   5  -8    4.74    0.45
   2   5  -8    4.61    0.47
   1  -5  -8  107.20    3.76
   1  -5  -8  104.85    3.72
   1  -5  -8  106.64    3.76
  -1   5   8  103.41    3.70
  -1   5   8  102.34    3.76
   0  -5  -8   88.22    3.18
   0  -5  -8   88.55    3.18
   0  -5  -8   88.65    3.20
   0   5   8   87.64    3.22
   0   5   8   86.85    3.12
   0   5   8   89.23    3.25
  -1  -5  -8   16.82    0.92
  -1  -5  -8   17.49    0.91
  -1  -5  -8   17.52    0.92
   1  -5   8   17.74    0.99
   1   5   8   17.58    0.95
   1   5   8   16.45    0.84
   1   5   8   17.94    0.83
   1   5   8   18.63    1.02
   2  -5   8    5.34    0.71
  -2  -5  -8    4.77    0.61
  -2  -5  -8    5.14    0.61
  -2  -5  -8    6.47    0.64
   2   5   8    6.16    0.47
   2   5   8    5.62    0.51
   2   5   8    6.37    0.67
   2   5   8    5.31    0.68
  -3  -5  -8    3.14    0.54
  -3  -5  -8    3.86    0.65
   3   5   8    3.10    0.52
   3   5   8    3.96    0.73
   3   5   8    3.64    0.48
  -4  -5  -8   33.40    1.46
  -4  -5  -8   30.68    1.49
   4   5   8   30.49    1.46
   4   5   8   28.40    1.50
  -5  -5  -8   10.15    0.93
  -5  -5  -8    8.21    0.89
   5   5   8    9.39    0.88
  -6  -6   8   12.82    1.13
   6  -6  -8   12.68    1.12
  -6  -6   8   14.92    1.07
   6  -6  -8   12.65    1.15
   6   6  -8   14.35    1.03
  -6   6   8   14.58    1.19
  -6   6   8   15.40    1.12
   6   6  -8   13.97    1.00
  -5  -6   8   20.51    1.23
  -5  -6   8   19.68    1.10
   5  -6  -8   16.50    1.18
   5  -6  -8   18.62    1.22
   5  -6  -8   19.06    1.24
  -5   6   8   19.78    1.18
   5   6  -8   17.91    1.09
  -5   6   8   19.65    1.23
   5   6  -8   20.26    1.11
   4  -6  -8   10.55    0.92
   4  -6  -8    9.86    0.86
  -4  -6   8    9.31    0.85
  -4  -6   8    9.23    0.81
   4  -6  -8    8.63    0.81
   4   6  -8    8.74    0.73
   4   6  -8    8.22    0.72
  -4   6   8    8.61    0.84
  -4   6   8    8.38    0.77
  -3  -6   8   37.35    1.61
   3  -6  -8   38.35    1.64
   3  -6  -8   39.93    1.69
   3  -6  -8   37.79    1.68
   3   6  -8   35.92    1.55
   3   6  -8   38.37    1.55
  -3   6   8   38.42    1.63
  -3   6   8   38.48    1.68
   2  -6  -8    3.70    0.63
  -2  -6   8    3.29    0.51
   2  -6  -8    2.96    0.49
   2  -6  -8    3.20    0.50
   2   6  -8    3.23    0.45
  -2   6   8    3.21    0.54
  -2   6   8    3.27    0.52
   2   6  -8    3.26    0.42
   1  -6  -8  153.27    5.38
   1  -6  -8  154.40    5.38
  -1  -6   8  150.85    5.25
   1  -6  -8  154.81    5.35
  -1   6   8  153.03    5.32
  -1   6   8  152.53    5.39
   0  -6  -8    8.38    0.74
   0  -6  -8    8.95    0.70
   0  -6  -8    8.83    0.69
   0   6   8    8.75    0.63
   0   6   8    8.48    0.79
   0   6   8    8.46    0.75
  -1  -6  -8   13.58    0.88
  -1  -6  -8   14.67    0.86
  -1  -6  -8   12.34    0.83
   1   6   8   12.69    0.76
   1   6   8   13.20    0.77
   1   6   8   13.70    0.89
   1   6   8   15.42    0.92
  -2  -6  -8    0.60    0.38
  -2  -6  -8    1.03    0.43
  -2  -6  -8    0.57    0.40
   2   6   8    0.75    0.30
   2   6   8    1.00    0.34
   2   6   8    0.68    0.44
   2   6   8    2.34    0.52
  -3  -6  -8   24.39    1.20
  -3  -6  -8   23.98    1.24
   3   6   8   22.20    1.21
   3   6   8   22.49    1.24
   3   6   8   20.82    1.04
  -4  -6  -8    4.60    0.78
  -4  -6  -8    6.91    0.78
   4   6   8    5.63    0.59
   4   6   8    6.90    0.80
  -5  -6  -8    0.33    0.52
  -5  -6  -8    0.70    0.53
   5   6   8    0.62    0.50
   6  -7  -8    2.65    0.67
   6  -7  -8    2.82    0.70
   6  -7  -8    2.44    0.75
  -6  -7   8    1.60    0.63
   6   7  -8    2.27    0.57
  -6   7   8    2.34    0.64
   6   7  -8    2.68    0.60
   5  -7  -8    2.42    0.70
   5  -7  -8    1.77    0.59
   5  -7  -8    1.52    0.58
  -5  -7   8    3.00    0.62
   5   7  -8    2.08    0.51
   5   7  -8    2.29    0.51
  -5   7   8    2.23    0.62
  -5   7   8    2.44    0.60
   4  -7  -8   20.25    1.23
   4  -7  -8   21.43    1.19
  -4  -7   8   20.33    1.19
   4  -7  -8   20.70    1.25
  -4   7   8   19.74    1.16
  -4   7   8   20.95    1.24
   4   7  -8   20.36    1.10
   4   7  -8   20.83    1.10
   3  -7  -8   27.21    1.38
  -3  -7   8   26.89    1.29
   3  -7  -8   29.12    1.41
   3  -7  -8   26.39    1.33
  -3   7   8   28.09    1.39
   3   7  -8   27.01    1.22
  -3   7   8   27.24    1.32
   3   7  -8   25.18    1.21
   2  -7  -8    3.19    0.57
  -2  -7   8    3.39    0.55
   2  -7  -8    2.20    0.48
   2  -7  -8    2.67    0.51
  -2   7   8    2.36    0.45
  -2   7   8    3.22    0.56
   2   7  -8    3.20    0.48
   2   7  -8    2.74    0.43
   1  -7  -8   16.47    1.02
   1  -7  -8   18.54    1.07
   1  -7  -8   18.15    1.00
  -1  -7   8   18.08    0.91
  -1   7   8   19.47    0.99
  -1   7   8   19.88    1.10
   0  -7  -8    4.06    0.68
   0  -7  -8    4.44    0.57
   0  -7  -8    2.95    0.52
   0   7   8    3.20    0.51
   0   7   8    4.24    0.72
   0   7   8    2.79    0.54
  -1  -7  -8   13.75    0.86
  -1  -7  -8   12.30    0.89
  -1  -7  -8   13.40    0.88
   1   7   8   12.83    0.78
   1   7   8   12.42    0.93
   1   7   8   11.58    0.78
   1   7   8   12.82    0.91
  -2  -7  -8   18.20    1.09
  -2  -7  -8   19.02    1.05
   2   7   8   17.68    0.95
   2   7   8   18.03    1.10
   2   7   8   18.17    1.10
   2   7   8   17.64    0.93
  -3  -7  -8   16.36    1.06
  -3  -7  -8   15.32    1.01
   3   7   8   15.03    0.89
   3   7   8   14.92    1.07
  -4  -7  -8   18.02    1.13
  -4  -7  -8   15.98    1.15
   4   7   8   17.13    1.14
   4   7   8   16.10    0.94
  -5  -7  -8   12.10    1.03
  -6  -8   8    4.64    0.83
   6  -8  -8    3.80    0.74
   6  -8  -8    3.47    0.83
   6  -8  -8    3.08    0.71
   6   8  -8    5.04    0.81
  -6   8   8    5.46    0.90
   6   8  -8    3.10    0.65
  -5  -8   8   23.51    1.36
   5  -8  -8   21.44    1.37
   5  -8  -8   22.34    1.42
   5  -8  -8   19.85    1.32
  -5   8   8   20.69    1.31
   5   8  -8   20.97    1.24
   5   8  -8   22.10    1.22
  -5   8   8   23.02    1.39
   4  -8  -8   99.10    3.71
  -4  -8   8   96.44    3.62
   4  -8  -8   92.25    3.67
   4  -8  -8   97.25    3.64
   4   8  -8   93.13    3.56
  -4   8   8   91.99    3.61
   4   8  -8   97.60    3.53
  -4   8   8   97.71    3.69
   3  -8  -8    3.84    0.67
   3  -8  -8    2.81    0.60
  -3  -8   8    2.51    0.53
   3  -8  -8    3.99    0.66
  -3   8   8    2.30    0.52
   3   8  -8    2.95    0.52
  -3   8   8    2.87    0.61
   3   8  -8    3.74    0.57
   2  -8  -8   45.50    1.94
   2  -8  -8   49.51    2.03
  -2  -8   8   46.67    1.88
   2  -8  -8   45.84    1.99
   2   8  -8   43.98    1.80
  -2   8   8   45.44    2.01
  -2   8   8   44.46    1.91
   2   8  -8   46.03    1.81
   1  -8  -8   33.87    1.55
   1  -8  -8   33.65    1.50
  -1  -8   8   31.22    1.37
   1  -8  -8   31.45    1.53
  -1   8   8   32.48    1.55
   1   8  -8   31.42    1.31
  -1   8   8   30.06    1.43
   0  -8  -8   37.82    1.68
   0  -8  -8   36.61    1.64
   0  -8  -8   34.96    1.67
   0   8   8   37.39    1.57
   0   8   8   37.64    1.70
   0   8   8   36.38    1.69
  -1  -8  -8   27.44    1.37
  -1  -8  -8   26.63    1.38
  -1  -8  -8   28.38    1.37
   1   8   8   27.88    1.28
   1   8   8   23.97    1.25
   1   8   8   28.14    1.40
   1   8   8   29.28    1.44
  -2  -8  -8   15.54    1.07
  -2  -8  -8   16.93    1.03
   2   8   8   14.86    1.05
   2   8   8   15.58    0.93
   2   8   8   14.88    0.90
  -3  -8  -8   76.15    2.98
  -3  -8  -8   71.18    2.89
   3   8   8   76.34    2.98
   3   8   8   74.72    2.81
  -4  -8  -8    0.26    0.54
  -4  -8  -8    0.80    0.58
   4   8   8    1.38    0.58
   4   8   8    1.03    0.43
   5  -9  -8    3.87    0.76
   5  -9  -8    3.83    0.73
  -5  -9   8    4.65    0.79
   5  -9  -8    4.66    0.85
   5   9  -8    4.60    0.68
  -5   9   8    3.92    0.70
   5   9  -8    4.38    0.74
  -4  -9   8   25.80    1.39
   4  -9  -8   25.51    1.50
   4  -9  -8   23.04    1.40
   4  -9  -8   23.51    1.46
  -4   9   8   24.17    1.47
   4   9  -8   27.00    1.30
   4   9  -8   23.46    1.28
  -4   9   8   26.54    1.42
   3  -9  -8   14.75    1.07
   3  -9  -8   15.16    1.12
   3  -9  -8   13.42    1.03
  -3  -9   8   13.33    0.96
  -3   9   8   13.96    0.99
  -3   9   8   14.30    1.12
   3   9  -8   12.78    0.85
   3   9  -8   12.57    0.89
  -2  -9   8   10.35    0.82
   2  -9  -8    9.69    0.83
   2  -9  -8   10.06    0.91
   2  -9  -8   11.14    1.00
   2   9  -8   10.88    0.74
  -2   9   8    9.72    0.87
  -2   9   8   10.61    0.96
   2   9  -8    9.78    0.73
   1  -9  -8   38.36    1.75
  -1  -9   8   36.94    1.60
   1  -9  -8   37.42    1.71
   1  -9  -8   38.78    1.76
   1   9  -8   35.97    1.53
  -1   9   8   38.35    1.77
  -1   9   8   37.66    1.67
   0  -9  -8   19.55    1.23
   0  -9  -8   21.95    1.26
   0  -9  -8   22.97    1.22
   0   9   8   22.54    1.27
   0   9   8   19.76    1.11
   0   9   8   22.39    1.27
  -1  -9  -8   63.91    2.60
  -1  -9  -8   64.96    2.63
  -1  -9  -8   65.14    2.64
  -1  -9  -8   67.50    2.60
   1   9   8   60.93    2.51
   1   9   8   65.78    2.53
   1   9   8   65.30    2.66
  -2  -9  -8   12.21    0.98
  -2  -9  -8   11.63    1.01
   2   9   8   13.13    1.03
   2   9   8   13.18    0.89
   2   9   8   12.64    0.86
  -3  -9  -8   14.31    1.10
  -3  -9  -8   15.85    1.15
   3   9   8   16.77    1.00
   3   9   8   16.87    1.20
   4 -10  -8    1.27    0.59
  -4 -10   8    1.99    0.58
   4 -10  -8    0.51    0.54
   4 -10  -8    0.75    0.64
  -4  10   8    1.40    0.55
  -4  10   8    1.79    0.72
   4  10  -8    1.61    0.49
   4  10  -8    1.76    0.51
  -3 -10   8   18.16    1.14
   3 -10  -8   17.46    1.17
   3 -10  -8   18.20    1.29
   3 -10  -8   20.22    1.33
  -3  10   8   19.73    1.30
   3  10  -8   19.62    1.07
   3  10  -8   17.04    1.04
  -3  10   8   19.93    1.21
   2 -10  -8   43.89    2.01
  -2 -10   8   43.48    1.86
   2 -10  -8   39.59    1.90
   2 -10  -8   43.10    1.97
  -2  10   8   41.02    1.90
   2  10  -8   43.72    1.79
  -2  10   8   43.17    1.99
   1 -10  -8    7.42    0.93
   1 -10  -8    8.62    0.89
  -1 -10   8    9.45    0.80
   1 -10  -8    8.46    0.92
  -1  10   8    8.66    0.84
   1  10  -8    7.97    0.68
  -1  10   8    7.90    0.93
   0 -10  -8   16.55    1.08
   0 -10  -8   15.74    1.12
   0 -10   8   16.26    0.95
   0 -10  -8   17.00    1.15
   0  10   8   15.84    1.16
   0  10   8   15.27    1.00
   0  10  -8   16.77    0.89
  -1 -10  -8   29.92    1.56
  -1 -10  -8   27.36    1.48
  -1 -10  -8   30.25    1.50
   1  10   8   26.65    1.39
   1  10   8   29.30    1.56
   1  10   8   28.00    1.40
  -2 -10  -8   12.55    1.09
  -2 -10  -8   14.12    1.06
   2  10   8   13.11    1.09
   2  10   8   12.36    0.91
   2  10   8   12.47    0.94
  -3 -10  -8   11.13    1.08
  -3 -10  -8    9.71    1.02
   3  10   8   11.74    0.92
   3  10   8   11.50    1.11
   3 -11  -8   14.98    1.17
   3 -11  -8   17.44    1.32
   3 -11  -8   15.48    1.21
  -3 -11   8   15.37    1.10
  -3  11   8   16.36    1.24
   3  11  -8   17.70    1.04
   3  11  -8   16.34    1.02
  -3  11   8   16.04    1.18
   2 -11  -8   15.18    1.13
   2 -11  -8   14.81    1.22
   2 -11  -8   13.69    1.17
  -2 -11   8   15.91    1.06
   2  11  -8   14.45    0.95
  -2  11   8   14.75    1.11
  -2  11   8   16.63    1.21
  -1 -11   8    8.10    0.82
   1 -11  -8    7.13    0.94
   1 -11  -8    8.38    1.00
   1 -11  -8    8.02    0.89
  -1  11   8    6.80    0.96
   1  11  -8    6.14    0.67
  -1  11   8    6.10    0.82
   0 -11  -8   16.60    1.17
   0 -11  -8   18.54    1.22
   0 -11   8   16.06    1.03
   0 -11  -8   17.99    1.22
   0 -11  -8   17.53    1.21
   0  11  -8   16.85    0.97
   0  11   8   17.44    1.25
   0  11   8   16.86    1.10
  -1 -11  -8   20.99    1.25
  -1 -11  -8   15.81    1.63
  -1 -11  -8   23.12    1.35
   1  11   8   18.23    1.15
   1  11   8   17.34    1.28
   1  11   8   18.09    1.16
  -2 -11  -8   18.83    1.28
  -2 -11  -8   17.71    1.23
   2  11   8   18.65    1.13
   2  11   8   16.53    1.13
   2  11   8   19.04    1.32
   1 -12  -8    0.81    0.60
   1 -12  -8    1.61    0.66
   1 -12  -8    0.84    0.59
  -1 -12   8    0.47    0.49
   1 -12  -8    1.05    0.60
   1  12  -8    0.43    0.40
  -1  12   8   -0.05    0.60
  -1  12   8    1.05    0.54
   7   0  -9   22.53    1.44
   7   0  -9   18.27    1.28
  -7   0   9   20.67    1.39
   7   0  -9   17.65    1.24
  -7   0   9   19.39    1.33
  -6   0   9   18.96    1.21
   6   0  -9   19.19    1.18
   6   0  -9   18.18    1.19
  -6   0   9   19.46    1.26
   6   0  -9   20.53    1.28
   5   0  -9    4.81    0.73
  -5   0   9    5.04    0.75
   5   0  -9    4.01    0.67
  -5   0   9    4.60    0.67
   5   0  -9    4.39    0.67
   4   0  -9   33.29    1.38
  -4   0   9   31.71    1.45
   4   0  -9   31.71    1.39
  -4   0   9   28.55    1.33
   4   0  -9   29.45    1.39
   3   0  -9   30.24    1.26
   3   0  -9   29.94    1.29
  -3   0   9   27.84    1.30
  -3   0   9   29.74    1.22
   3   0  -9   30.47    1.26
  -2   0   9   59.67    2.28
   2   0  -9   60.24    2.24
  -2   0   9   61.82    2.25
   2   0  -9   59.55    2.19
   2   0  -9   63.79    2.21
  -1   0   9  125.43    4.42
   1   0  -9  135.37    4.42
  -1   0   9  125.61    4.50
   0   0   9    3.40    0.47
   1   0   9   33.08    1.45
   2   0   9    3.49    0.54
   3   0   9  102.78    3.80
   4   0   9   50.36    2.17
   5   0   9    5.82    0.97
   5   0   9    5.92    0.66
   7  -1  -9   20.23    1.38
   7  -1  -9   21.89    1.34
  -7  -1   9   22.58    1.42
  -7  -1   9   24.41    1.48
   7  -1  -9   24.38    1.49
  -7   1   9   23.43    1.44
  -7   1   9   22.20    1.43
   7   1  -9   24.32    1.39
   7   1  -9   21.86    1.42
   7   1  -9   19.52    1.33
   6  -1  -9   54.43    2.46
  -6  -1   9   62.63    2.54
   6  -1  -9   59.31    2.48
  -6  -1   9   62.26    2.47
   6  -1  -9   57.13    2.43
   6   1  -9   53.27    2.43
  -6   1   9   61.22    2.53
  -6   1   9   62.37    2.49
   6   1  -9   64.04    2.50
   6   1  -9   57.44    2.41
   5  -1  -9   20.34    1.18
   5  -1  -9   20.08    1.12
   5  -1  -9   19.45    1.14
  -5  -1   9   18.80    1.15
  -5  -1   9   20.99    1.10
  -5   1   9   19.96    1.18
   5   1  -9   21.07    1.15
  -5   1   9   21.72    1.13
   5   1  -9   21.72    1.10
   5   1  -9   18.49    1.12
   4  -1  -9   60.75    2.44
   4  -1  -9   65.71    2.42
   4  -1  -9   64.38    2.41
  -4  -1   9   64.16    2.37
  -4  -1   9   61.89    2.44
   4   1  -9   59.32    2.38
   4   1  -9   60.43    2.41
  -4   1   9   64.07    2.39
  -4   1   9   62.35    2.46
   4   1  -9   64.99    2.39
  -3  -1   9   97.04    3.55
   3  -1  -9  101.95    3.58
   3  -1  -9  102.28    3.53
  -3  -1   9   97.91    3.46
   3  -1  -9  102.60    3.54
   3  -1  -9  100.77    3.52
  -3   1   9   98.38    3.58
   3   1  -9   97.78    3.49
  -3   1   9   97.10    3.49
   3   1  -9   98.12    3.50
   3   1  -9   96.89    3.54
   2  -1  -9    9.51    0.59
  -2  -1   9    8.17    0.60
   2  -1  -9    8.95    0.60
   2  -1  -9   10.29    0.59
   2   1  -9    9.66    0.59
  -2   1   9    9.36    0.54
   2   1  -9    9.02    0.55
  -2   1   9    9.43    0.62
  -1  -1   9   37.79    1.46
   1  -1  -9   39.57    1.49
  -1  -1   9   38.32    1.56
   1  -1  -9   38.88    1.46
  -1   1   9   38.95    1.58
  -1   1   9   39.89    1.51
   0  -1  -9   29.89    1.17
   0  -1   9   30.93    1.32
   0   1   9   29.88    1.19
   0   1   9   29.82    1.33
   1  -1   9  123.19    4.30
   1   1   9  118.93    4.30
   2  -1   9   40.34    1.71
   2   1   9   39.78    1.70
   2   1   9   38.72    1.52
   3  -1   9    6.13    0.78
   3   1   9    5.84    0.77
  -4  -1  -9   36.74    1.61
   4  -1   9   39.95    1.83
   4   1   9   39.59    1.80
   4   1   9   39.11    1.58
  -5  -1  -9    4.53    0.68
   5  -1   9    3.33    0.70
   5   1   9    5.12    0.64
   5   1   9    5.26    0.94
  -7  -2   9   32.34    1.69
   7  -2  -9   34.89    1.78
   7  -2  -9   27.27    1.63
   7  -2  -9   27.75    1.58
  -7  -2   9   32.12    1.74
   7   2  -9   32.85    1.72
  -7   2   9   31.54    1.73
   7   2  -9   35.16    1.64
   7   2  -9   29.14    1.64
  -7   2   9   31.13    1.68
   6  -2  -9    6.25    0.85
   6  -2  -9    7.45    0.84
   6  -2  -9    9.20    0.97
  -6  -2   9    7.33    0.85
  -6  -2   9    8.20    0.92
   6   2  -9    6.77    0.83
   6   2  -9    5.79    0.81
  -6   2   9    5.92    0.82
  -6   2   9    8.51    0.92
   6   2  -9    6.09    0.88
  -5  -2   9   49.32    1.94
   5  -2  -9   50.57    2.02
   5  -2  -9   48.78    1.97
   5  -2  -9   42.45    1.96
  -5  -2   9   47.31    2.01
   5   2  -9   43.44    1.94
  -5   2   9   45.80    1.95
   5   2  -9   47.67    1.92
  -5   2   9   47.90    2.03
   5   2  -9   42.47    1.92
  -4  -2   9   65.56    2.53
   4  -2  -9   65.01    2.48
   4  -2  -9   66.09    2.49
  -4  -2   9   65.59    2.43
   4  -2  -9   66.08    2.49
   4  -2  -9   59.99    2.50
   4   2  -9   60.52    2.49
  -4   2   9   66.20    2.55
  -4   2   9   66.79    2.47
   4   2  -9   65.18    2.46
   4   2  -9   68.21    2.47
  -3  -2   9   55.37    2.09
   3  -2  -9   55.45    2.06
   3  -2  -9   52.41    2.08
   3  -2  -9   54.66    2.06
   3   2  -9   51.20    2.05
  -3   2   9   53.71    2.10
   3   2  -9   52.26    2.03
  -3   2   9   51.19    2.01
   3   2  -9   56.02    2.03
   2  -2  -9  177.76    5.93
  -2  -2   9  170.66    5.89
   2  -2  -9  174.59    5.88
   2  -2  -9  174.41    5.90
   2   2  -9  170.57    5.84
  -2   2   9  169.86    5.93
  -2   2   9  167.86    5.85
   2   2  -9  170.92    5.89
   1  -2  -9    5.45    0.48
   1  -2  -9    4.16    0.44
   1  -2  -9    4.44    0.45
  -1   2   9    4.73    0.50
  -1   2   9    4.83    0.60
   0  -2   9  327.91   10.94
   0  -2  -9  329.50   10.87
   0  -2  -9  322.11   10.85
   0   2   9  323.85   10.97
   0   2   9  317.19   10.88
   1  -2   9   77.72    2.89
  -1  -2  -9   74.98    2.76
  -1  -2  -9   80.14    2.75
   1   2   9   76.02    2.77
   1   2   9   79.41    2.90
   2  -2   9   62.30    2.40
  -2  -2  -9   60.48    2.24
   2   2   9   61.16    2.25
   2   2   9   59.27    2.37
   3  -2   9   94.02    3.48
  -3  -2  -9   92.39    3.32
   3   2   9   92.65    3.32
   3   2   9   90.70    3.45
  -4  -2  -9   28.55    1.35
   4  -2   9   28.23    1.55
   4   2   9   29.95    1.33
   4   2   9   29.91    1.51
   5  -2   9   41.34    1.98
  -5  -2  -9   36.22    1.72
   5   2   9   39.84    1.69
   5   2   9   40.05    1.91
   7  -3  -9   12.29    1.13
  -7  -3   9   11.01    1.14
   7  -3  -9    9.15    1.04
   7  -3  -9   13.81    1.23
  -7  -3   9   12.56    1.12
  -7   3   9   11.83    1.14
   7   3  -9   11.12    1.04
  -7   3   9   11.88    1.11
   7   3  -9   11.44    1.03
   6  -3  -9   19.43    1.29
   6  -3  -9   20.56    1.30
   6  -3  -9   20.13    1.24
  -6  -3   9   20.72    1.32
  -6  -3   9   19.63    1.24
   6   3  -9   20.20    1.23
  -6   3   9   20.89    1.27
   6   3  -9   22.52    1.23
  -6   3   9   23.13    1.34
   5  -3  -9   32.84    1.57
   5  -3  -9   33.14    1.63
  -5  -3   9   34.05    1.65
  -5  -3   9   35.00    1.54
   5  -3  -9   35.02    1.63
  -5   3   9   35.84    1.65
   5   3  -9   32.24    1.57
   5   3  -9   34.51    1.55
  -5   3   9   35.05    1.59
   4  -3  -9   19.71    1.13
  -4  -3   9   19.63    1.02
   4  -3  -9   21.42    1.11
   4  -3  -9   21.97    1.14
  -4  -3   9   21.04    1.14
   4   3  -9   22.51    1.11
  -4   3   9   22.78    1.18
  -4   3   9   21.62    1.08
   4   3  -9   20.78    1.07
   3  -3  -9  193.37    6.45
   3  -3  -9  182.29    6.48
  -3  -3   9  187.46    6.48
   3  -3  -9  191.11    6.46
   3   3  -9  185.66    6.42
   3   3  -9  180.56    6.44
  -3   3   9  186.35    6.50
  -3   3   9  189.76    6.43
   2  -3  -9    6.00    0.59
   2  -3  -9    6.37    0.58
  -2  -3   9    5.94    0.55
   2  -3  -9    5.96    0.58
  -2   3   9    7.80    0.64
   2   3  -9    7.01    0.51
  -2   3   9    7.68    0.54
   2   3  -9    6.36    0.49
   1  -3  -9  255.78    8.52
   1  -3  -9  248.35    8.48
   1  -3  -9  255.51    8.51
  -1   3   9  246.19    8.53
  -1   3   9  249.89    8.59
  -1   3   9  251.32    8.45
   0  -3  -9  147.35    5.04
   0  -3  -9  147.40    5.01
   0  -3   9  143.88    5.05
   0  -3  -9  142.52    4.98
   0   3   9  146.77    5.11
   0   3   9  142.00    5.02
   1  -3   9   60.28    2.39
  -1  -3  -9   60.59    2.30
  -1  -3  -9   63.31    2.28
   1   3   9   63.55    2.41
   1   3   9   63.93    2.32
   2  -3   9  100.30    3.70
  -2  -3  -9   99.09    3.58
  -2  -3  -9  102.95    3.56
   2   3   9  100.43    3.59
   2   3   9  100.39    3.69
  -3  -3  -9   23.72    1.10
   3  -3   9   23.00    1.30
  -3  -3  -9   22.89    1.13
   3   3   9   23.14    1.27
   3   3   9   22.44    1.12
  -4  -3  -9   92.09    3.46
   4   3   9   92.94    3.55
   4   3   9   95.28    3.44
  -5  -3  -9   12.51    0.94
   5   3   9   12.31    1.10
   5   3   9   12.47    0.89
   7  -4  -9   11.47    1.18
  -7  -4   9    7.96    1.08
   7  -4  -9    7.22    0.96
  -7  -4   9    7.47    0.96
   7  -4  -9    5.83    0.97
   7   4  -9    5.45    0.89
  -7   4   9    7.08    1.01
   7   4  -9    6.54    0.91
  -7   4   9    6.99    1.02
   6  -4  -9    6.18    0.85
  -6  -4   9    5.84    0.82
  -6  -4   9    6.86    0.98
   6  -4  -9    8.95    0.98
   6  -4  -9    9.80    0.98
   6  -4  -9    7.09    0.91
   6   4  -9    6.64    0.83
  -6   4   9    6.95    0.87
  -6   4   9    7.43    0.93
   6   4  -9    7.08    0.82
   5  -4  -9   63.64    2.48
   5  -4  -9   52.91    2.43
   5  -4  -9   57.22    2.39
   5  -4  -9   65.88    2.48
  -5  -4   9   59.90    2.34
  -5  -4   9   57.47    2.46
   5   4  -9   54.10    2.38
  -5   4   9   60.38    2.47
   5   4  -9   61.47    2.39
  -5   4   9   60.11    2.41
   4  -4  -9    1.84    0.48
   4  -4  -9    2.20    0.46
  -4  -4   9    1.20    0.38
   4  -4  -9    1.40    0.44
  -4  -4   9    0.70    0.46
   4   4  -9    1.46    0.42
  -4   4   9    1.67    0.43
  -4   4   9    1.27    0.46
   4   4  -9    1.09    0.40
   3  -4  -9   65.05    2.42
   3  -4  -9   63.77    2.39
   3  -4  -9   58.18    2.41
  -3  -4   9   61.48    2.40
   3   4  -9   65.72    2.34
  -3   4   9   63.95    2.37
  -3   4   9   61.92    2.44
   3   4  -9   60.42    2.35
   2  -4  -9   71.63    2.71
   2  -4  -9   74.73    2.70
   2  -4  -9   75.61    2.69
  -2  -4   9   70.53    2.64
  -2   4   9   71.92    2.65
   2   4  -9   68.82    2.59
   2   4  -9   75.42    2.63
  -2   4   9   74.04    2.73
   1  -4  -9    7.26    0.59
   1  -4  -9    7.10    0.61
   1  -4  -9    6.48    0.59
  -1   4   9    6.61    0.62
  -1   4   9    5.99    0.68
  -1   4   9    5.66    0.52
   0  -4  -9    7.37    0.61
   0  -4  -9    8.28    0.62
   0  -4  -9    7.55    0.63
   0   4   9    8.00    0.67
   0   4   9    7.90    0.52
   0   4   9    8.29    0.74
  -1  -4  -9    3.38    0.46
  -1  -4  -9    2.81    0.45
   1  -4   9    3.08    0.53
   1   4   9    3.47    0.53
   1   4   9    3.20    0.54
   2  -4   9   24.30    1.31
  -2  -4  -9   25.45    1.15
  -2  -4  -9   24.34    1.17
   2   4   9   24.19    1.28
   2   4   9   26.83    1.20
  -3  -4  -9    7.79    0.73
  -3  -4  -9    7.67    0.71
   3  -4   9    9.48    0.96
   3   4   9    8.22    0.85
   3   4   9    7.83    0.72
  -4  -4  -9    1.01    0.47
  -4  -4  -9    0.86    0.48
   4   4   9    1.08    0.57
   4   4   9    0.32    0.44
  -5  -4  -9    1.13    0.51
   5   4   9    1.22    0.46
   5   4   9    2.07    0.64
   7  -5  -9    7.49    1.07
   7  -5  -9   10.94    1.19
  -7  -5   9    9.17    1.14
   7  -5  -9   10.41    1.20
  -7  -5   9    9.96    1.05
   7  -5  -9    7.07    1.09
   7   5  -9    9.16    0.99
   7   5  -9    7.44    0.95
  -7   5   9    8.38    1.19
  -7   5   9    8.45    1.06
  -6  -5   9   22.45    1.40
   6  -5  -9   22.07    1.41
   6  -5  -9   18.73    1.29
   6  -5  -9   18.96    1.35
  -6  -5   9   23.35    1.28
  -6   5   9   22.68    1.41
  -6   5   9   21.52    1.31
   6   5  -9   21.25    1.23
   6   5  -9   20.49    1.28
   5  -5  -9   15.40    1.15
   5  -5  -9   18.04    1.21
  -5  -5   9   18.90    1.21
  -5  -5   9   18.23    1.13
   5  -5  -9   20.82    1.24
   5   5  -9   19.52    1.11
  -5   5   9   19.29    1.16
   5   5  -9   18.01    1.10
  -5   5   9   19.37    1.23
   4  -5  -9    6.62    0.82
  -4  -5   9    6.17    0.75
   4  -5  -9    6.83    0.79
   4  -5  -9    6.39    0.74
   4   5  -9    6.04    0.64
   4   5  -9    5.85    0.66
  -4   5   9    6.10    0.70
  -4   5   9    7.25    0.80
   3  -5  -9   16.84    1.01
  -3  -5   9   18.32    0.98
   3  -5  -9   18.58    1.01
   3  -5  -9   17.81    1.05
  -3   5   9   19.26    0.99
   3   5  -9   17.20    0.93
   3   5  -9   17.33    0.91
  -3   5   9   17.45    1.04
   2  -5  -9   97.79    3.55
   2  -5  -9  100.53    3.52
   2  -5  -9  104.33    3.56
  -2  -5   9   97.07    3.46
  -2   5   9   95.06    3.48
   2   5  -9   92.95    3.40
  -2   5   9   94.73    3.55
   2   5  -9   95.92    3.43
   1  -5  -9   27.76    1.26
   1  -5  -9   26.88    1.25
   1  -5  -9   27.45    1.23
  -1   5   9   26.75    1.29
  -1   5   9   28.40    1.19
   0  -5  -9   60.21    2.37
   0  -5  -9   64.24    2.37
   0  -5  -9   61.55    2.34
   0   5   9   61.73    2.43
   0   5   9   62.48    2.28
   0   5   9   62.92    2.40
  -1  -5  -9    6.66    0.67
  -1  -5  -9    7.51    0.65
   1   5   9    7.60    0.70
   1   5   9    7.17    0.76
   1   5   9    7.38    0.55
   1   5   9    8.05    0.54
  -2  -5  -9   35.22    1.52
   2  -5   9   36.72    1.68
  -2  -5  -9   35.62    1.57
   2   5   9   36.95    1.58
   2   5   9   34.30    1.61
   2   5   9   35.73    1.42
   3  -5   9   16.98    1.20
  -3  -5  -9   17.83    1.06
  -3  -5  -9   19.63    1.03
   3   5   9   17.96    1.13
   3   5   9   17.71    1.05
  -4  -5  -9   34.53    1.64
  -4  -5  -9   35.40    1.60
   4   5   9   35.96    1.64
   4   5   9   34.91    1.70
  -5  -5  -9    9.88    1.00
  -5  -5  -9    6.55    0.87
   5   5   9   10.31    0.91
   5   5   9   10.51    1.04
   6  -6  -9   17.13    1.28
   6  -6  -9   14.37    1.26
   6  -6  -9   17.83    1.26
  -6  -6   9   17.21    1.27
  -6   6   9   17.77    1.22
   6   6  -9   17.22    1.13
  -6   6   9   16.38    1.29
   6   6  -9   15.97    1.13
   5  -6  -9   34.69    1.79
   5  -6  -9   39.99    1.82
   5  -6  -9   33.81    1.74
  -5  -6   9   36.49    1.78
  -5   6   9   37.41    1.74
   5   6  -9   40.63    1.69
   5   6  -9   34.34    1.68
  -5   6   9   37.98    1.81
   4  -6  -9   93.83    3.55
   4  -6  -9   99.95    3.61
   4  -6  -9   86.89    3.57
  -4  -6   9   95.36    3.57
   4   6  -9   94.34    3.52
  -4   6   9   93.73    3.54
   4   6  -9   97.95    3.49
  -4   6   9   97.57    3.62
  -3  -6   9    4.07    0.61
   3  -6  -9    5.50    0.71
   3  -6  -9    4.23    0.69
   3  -6  -9    5.46    0.73
  -3   6   9    4.36    0.69
   3   6  -9    3.81    0.54
   3   6  -9    3.84    0.56
  -3   6   9    5.33    0.65
   2  -6  -9   61.60    2.46
   2  -6  -9   64.07    2.43
  -2  -6   9   58.61    2.34
   2  -6  -9   66.43    2.49
  -2   6   9   64.75    2.49
   2   6  -9   61.58    2.32
   2   6  -9   63.44    2.31
  -2   6   9   64.26    2.41
   1  -6  -9   14.91    0.94
   1  -6  -9   14.27    0.89
   1  -6  -9   14.54    0.91
  -1   6   9   16.35    0.98
  -1   6   9   14.67    0.84
   0  -6  -9   48.20    1.90
   0  -6  -9   47.25    1.87
   0  -6  -9   44.41    1.89
   0   6   9   43.27    1.91
   0   6   9   47.19    1.80
   0   6   9   45.41    1.94
  -1  -6  -9  100.48    3.61
  -1  -6  -9   98.38    3.64
   1   6   9  100.91    3.68
   1   6   9   96.32    3.64
   1   6   9  100.19    3.52
   1   6   9   98.38    3.53
  -2  -6  -9    7.21    0.75
  -2  -6  -9    6.61    0.72
  -2  -6  -9    7.56    0.73
   2   6   9    6.85    0.76
   2   6   9    6.09    0.59
   2   6   9    8.63    0.81
  -3  -6  -9   66.54    2.73
  -3  -6  -9   72.75    2.70
   3   6   9   70.48    2.74
   3   6   9   68.66    2.75
  -4  -6  -9   15.13    1.07
  -4  -6  -9   13.76    1.01
   4   6   9   15.10    1.05
   4   6   9   12.01    1.07
  -6  -7   9   55.06    2.41
   6  -7  -9   49.36    2.31
   6  -7  -9   48.22    2.34
   6  -7  -9   54.41    2.42
   6   7  -9   48.93    2.26
   6   7  -9   49.47    2.22
  -6   7   9   51.41    2.36
  -6   7   9   52.58    2.33
   5  -7  -9    9.72    1.02
  -5  -7   9    9.44    0.94
   5  -7  -9    8.29    0.97
   5  -7  -9    9.80    1.07
  -5   7   9    9.38    1.00
   5   7  -9    8.81    0.85
   5   7  -9   10.07    0.86
  -5   7   9   10.26    0.94
   4  -7  -9   30.56    1.52
   4  -7  -9   31.42    1.59
   4  -7  -9   29.27    1.56
  -4  -7   9   30.54    1.51
  -4   7   9   31.15    1.58
   4   7  -9   29.59    1.39
   4   7  -9   30.23    1.44
  -4   7   9   30.24    1.49
   3  -7  -9   48.09    2.00
  -3  -7   9   45.52    1.90
   3  -7  -9   46.00    1.96
   3  -7  -9   43.80    1.98
  -3   7   9   45.61    2.00
   3   7  -9   44.37    1.84
   3   7  -9   45.25    1.82
  -3   7   9   45.33    1.92
  -2  -7   9    9.89    0.72
   2  -7  -9   11.46    0.89
   2  -7  -9    9.38    0.81
   2  -7  -9    9.69    0.84
   2   7  -9    9.44    0.67
  -2   7   9   10.26    0.79
   2   7  -9   10.78    0.66
  -2   7   9   11.31    0.90
   1  -7  -9   79.78    3.15
   1  -7  -9   84.28    3.13
   1  -7  -9   84.05    3.16
  -1   7   9   83.68    3.19
  -1   7   9   85.68    3.08
   0  -7  -9    2.67    0.56
   0  -7  -9    2.30    0.49
   0  -7  -9    3.24    0.54
   0   7   9    1.77    0.38
   0   7   9    2.60    0.57
   0   7   9    2.95    0.55
  -1  -7  -9   98.28    3.59
  -1  -7  -9   97.37    3.55
   1   7   9   93.88    3.59
   1   7   9   96.79    3.60
   1   7   9   90.67    3.46
   1   7   9   99.62    3.47
  -2  -7  -9   10.97    0.85
  -2  -7  -9    9.52    0.86
   2   7   9   10.96    0.93
   2   7   9    9.20    0.72
   2   7   9    9.24    0.89
  -3  -7  -9   32.13    1.52
  -3  -7  -9   31.56    1.56
   3   7   9   32.15    1.56
   3   7   9   30.01    1.55
   3   7   9   30.97    1.38
  -4  -7  -9   22.19    1.27
  -4  -7  -9   20.95    1.32
   4   7   9   21.35    1.10
   4   7   9   21.78    1.30
   5  -8  -9   13.97    1.17
   5  -8  -9   15.86    1.23
  -5  -8   9   15.57    1.16
   5  -8  -9   14.63    1.24
  -5   8   9   16.77    1.15
   5   8  -9   14.26    1.02
  -5   8   9   16.83    1.24
   5   8  -9   14.75    1.05
  -4  -8   9   14.48    1.07
   4  -8  -9   14.90    1.15
   4  -8  -9   17.77    1.20
   4  -8  -9   16.15    1.13
  -4   8   9   15.65    1.17
   4   8  -9   13.50    0.96
  -4   8   9   14.20    1.06
   4   8  -9   15.25    0.96
  -3  -8   9   13.21    0.92
   3  -8  -9   14.65    1.07
   3  -8  -9   11.84    1.01
   3  -8  -9   13.19    1.00
  -3   8   9   14.48    1.07
   3   8  -9   12.79    0.83
   3   8  -9   12.24    0.83
  -3   8   9   13.71    0.95
   2  -8  -9  123.21    4.48
   2  -8  -9  127.78    4.54
   2  -8  -9  122.38    4.53
  -2  -8   9  118.36    4.38
   2   8  -9  120.72    4.35
  -2   8   9  124.19    4.55
  -2   8   9  124.46    4.45
   1  -8  -9   20.81    1.21
   1  -8  -9   22.60    1.22
   1  -8  -9   23.12    1.27
  -1  -8   9   22.98    1.08
  -1   8   9   21.41    1.28
  -1   8   9   23.54    1.17
   0  -8  -9   47.85    2.08
   0  -8  -9   48.61    2.05
   0  -8  -9   44.94    2.05
   0   8   9   49.65    2.12
   0   8   9   54.55    2.01
   0   8   9   48.33    2.11
  -1  -8  -9   58.32    2.47
  -1  -8  -9   59.50    2.43
   1   8   9   60.53    2.36
   1   8   9   62.41    2.35
   1   8   9   60.29    2.47
   1   8   9   62.49    2.52
  -2  -8  -9   16.32    1.10
  -2  -8  -9   15.67    1.03
   2   8   9   14.94    0.93
   2   8   9   16.92    1.11
   2   8   9   15.01    1.10
  -3  -8  -9   27.75    1.47
  -3  -8  -9   27.44    1.43
   3   8   9   27.56    1.30
   3   8   9   26.36    1.50
  -4  -8  -9    5.06    0.85
  -4  -8  -9    3.83    0.74
   4   8   9    5.12    0.89
   5  -9  -9    1.89    0.65
   5  -9  -9    1.63    0.72
   5  -9  -9    1.56    0.63
  -5  -9   9    1.82    0.63
   5   9  -9    1.24    0.54
   5   9  -9    0.84    0.53
  -5   9   9    0.92    0.68
  -5   9   9    1.84    0.63
   4  -9  -9    3.71    0.74
   4  -9  -9    3.12    0.75
   4  -9  -9    3.53    0.70
  -4  -9   9    3.48    0.66
  -4   9   9    4.63    0.77
  -4   9   9    3.75    0.65
   4   9  -9    4.96    0.70
   4   9  -9    3.86    0.68
  -3  -9   9    4.84    0.72
   3  -9  -9    5.02    0.81
   3  -9  -9    4.04    0.73
   3  -9  -9    3.36    0.66
  -3   9   9    5.21    0.74
  -3   9   9    4.55    0.81
   3   9  -9    5.19    0.62
   3   9  -9    4.37    0.64
   2  -9  -9   12.56    1.00
   2  -9  -9   12.23    0.94
  -2  -9   9   13.06    0.89
   2  -9  -9   13.11    1.06
  -2   9   9   13.48    0.97
   2   9  -9   12.19    0.79
  -2   9   9   13.28    1.06
  -1  -9   9   13.05    0.86
   1  -9  -9   12.49    1.00
   1  -9  -9   14.06    1.06
   1  -9  -9   12.82    0.97
  -1   9   9   13.98    0.94
  -1   9   9   13.69    1.06
   0  -9  -9   18.74    1.18
   0  -9  -9   15.84    1.11
   0  -9  -9   19.41    1.17
   0   9   9   17.34    1.19
   0   9   9   17.97    1.05
   0   9   9   19.49    1.21
  -1  -9  -9    6.80    0.86
  -1  -9  -9    5.47    0.79
  -1  -9  -9    5.40    0.79
   1   9   9    6.35    0.88
   1   9   9    7.16    0.72
  -2  -9  -9    7.60    0.92
  -2  -9  -9    8.59    0.88
   2   9   9   11.01    0.83
   2   9   9    8.03    0.93
  -3  -9  -9   12.07    1.04
  -3  -9  -9   10.90    1.01
   3   9   9    9.93    0.84
   3   9   9   10.39    1.07
   4 -10  -9    4.07    0.77
  -4 -10   9    4.06    0.71
   4 -10  -9    4.25    0.84
   4 -10  -9    3.01    0.70
  -4  10   9    4.28    0.72
  -4  10   9    5.57    0.90
   4  10  -9    3.12    0.60
   4  10  -9    4.77    0.73
   3 -10  -9    8.14    1.01
   3 -10  -9    6.14    0.83
   3 -10  -9    6.52    0.90
  -3 -10   9    5.56    0.79
   3  10  -9    6.17    0.71
  -3  10   9    7.64    0.86
  -3  10   9    7.43    0.97
   2 -10  -9   13.59    1.08
   2 -10  -9   14.40    1.16
  -2 -10   9   14.79    0.99
   2 -10  -9   15.74    1.19
   2  10  -9   14.63    0.90
  -2  10   9   15.39    1.17
  -2  10   9   16.83    1.09
   1 -10  -9   10.08    0.96
  -1 -10   9   10.54    0.83
   1 -10  -9    9.24    0.97
   1 -10  -9   12.16    1.04
  -1  10   9   10.36    0.89
   1  10  -9    9.70    0.74
  -1  10   9   11.19    1.04
   0 -10  -9    4.69    0.72
   0 -10  -9    4.70    0.79
   0 -10  -9    3.39    0.68
   0  10   9    5.18    0.79
   0  10   9    3.42    0.58
   0  10   9    4.67    0.72
  -1 -10  -9   12.67    1.03
  -1 -10  -9   11.20    1.06
   1  10   9   10.57    0.87
   1  10   9   10.95    0.90
   1  10   9   11.35    1.06
  -2 -10  -9   14.99    1.20
  -2 -10  -9   16.79    1.16
   2  10   9   15.62    1.21
   2  10   9   14.76    1.03
  -3 -11   9   27.34    1.46
   3 -11  -9   29.71    1.68
   3 -11  -9   24.83    1.59
   3 -11  -9   27.00    1.56
  -3  11   9   29.96    1.66
   3  11  -9   26.73    1.38
  -3  11   9   27.82    1.54
   2 -11  -9    4.04    0.74
  -2 -11   9    3.48    0.63
   2 -11  -9    4.33    0.79
   2 -11  -9    4.40    0.78
  -2  11   9    2.96    0.63
   2  11  -9    3.85    0.61
  -2  11   9    3.07    0.75
  -1 -11   9   24.03    1.28
   1 -11  -9   26.13    1.52
   1 -11  -9   25.14    1.44
   1 -11  -9   24.27    1.49
   1  11  -9   23.91    1.21
  -1  11   9   22.05    1.46
  -1  11   9   25.25    1.51
  -1  11   9   25.60    1.37
   0 -11  -9   24.91    1.44
   0 -11  -9   25.69    1.48
   0 -11   9   22.28    1.23
   0 -11  -9   24.14    1.47
   0  11   9   26.05    1.36
   0  11   9   24.85    1.53
  -1 -11  -9   37.03    1.93
  -1 -11  -9   40.07    1.89
   1  11   9   39.19    1.79
   1  11   9   38.04    1.96
   1  11   9   39.20    1.78
  -7   0  10    1.94    0.64
  -7   0  10    2.21    0.69
   7   0 -10    1.67    0.59
   7   0 -10    1.93    0.68
   7   0 -10    1.59    0.57
   6   0 -10   15.61    1.06
   6   0 -10   13.13    1.05
  -6   0  10   15.93    1.06
  -6   0  10   16.40    1.16
   6   0 -10   14.39    1.09
   5   0 -10   37.70    1.80
  -5   0  10   42.08    1.76
   5   0 -10   39.58    1.77
  -5   0  10   43.80    1.88
   5   0 -10   43.14    1.82
   4   0 -10   12.84    0.87
   4   0 -10   15.01    0.87
  -4   0  10   14.03    0.93
   4   0 -10   14.14    0.89
  -4   0  10   14.34    0.83
   3   0 -10   86.81    3.13
  -3   0  10   84.56    3.13
   3   0 -10   84.79    3.17
   3   0 -10   87.14    3.08
  -3   0  10   83.25    3.02
  -2   0  10   19.65    0.93
  -2   0  10   18.64    1.00
   2   0 -10   19.01    0.88
   2   0 -10   19.31    0.90
  -1   0  10  112.60    3.92
  -1   0  10  107.30    3.81
   1   0 -10  109.91    3.81
   0   0  10   72.45    2.72
   1   0  10   67.38    2.58
   2   0  10   32.17    1.51
   3   0  10    3.69    0.65
   4   0  10   17.89    1.22
   5   0  10    9.68    1.10
   7  -1 -10    6.59    0.87
   7  -1 -10    8.07    1.08
  -7  -1  10    6.63    0.93
   7  -1 -10    6.72    0.92
  -7  -1  10    6.18    0.99
   7   1 -10    6.36    0.89
  -7   1  10    5.98    0.94
  -7   1  10    5.22    0.89
   7   1 -10    5.18    0.84
   6  -1 -10    7.38    0.95
  -6  -1  10    6.67    0.84
   6  -1 -10    6.94    0.83
  -6  -1  10    7.53    0.93
   6  -1 -10    7.70    0.83
  -6   1  10    7.16    0.92
  -6   1  10    8.80    0.87
   6   1 -10    8.07    0.84
   6   1 -10    6.27    0.83
   6   1 -10    8.94    1.35
  -5  -1  10   24.55    1.22
  -5  -1  10   24.50    1.33
   5  -1 -10   25.14    1.27
   5  -1 -10   26.65    1.32
   5  -1 -10   24.24    1.29
   5   1 -10   22.82    1.40
  -5   1  10   24.10    1.32
   5   1 -10   20.81    1.25
  -5   1  10   25.48    1.25
   5   1 -10   23.93    1.24
  -4  -1  10    9.73    0.80
   4  -1 -10   10.07    0.79
  -4  -1  10    8.73    0.69
   4  -1 -10    9.73    0.76
   4  -1 -10   10.76    0.75
   4  -1 -10   10.37    0.79
  -4   1  10    8.80    0.70
   4   1 -10    9.15    0.77
  -4   1  10    9.65    0.80
   4   1 -10    9.61    0.73
  -3  -1  10   25.63    1.26
   3  -1 -10   26.97    1.26
   3  -1 -10   28.11    1.24
   3  -1 -10   27.22    1.23
   3   1 -10   28.30    1.26
  -3   1  10   29.21    1.20
   3   1 -10   28.82    1.22
  -3   1  10   30.88    1.32
   2  -1 -10    8.02    0.59
   2  -1 -10    9.14    0.60
  -2  -1  10    7.33    0.60
   2   1 -10    8.00    0.58
  -2   1  10    7.98    0.63
  -2   1  10    8.55    0.71
   2   1 -10    7.44    0.55
  -1  -1  10   75.23    2.74
   1  -1 -10   82.70    2.78
  -1  -1  10   76.70    2.85
   1  -1 -10   76.79    2.74
  -1   1  10   78.82    2.89
  -1   1  10   75.54    2.78
   0  -1  10    4.71    0.65
   0   1  10    5.70    0.49
   0   1  10    4.59    0.64
   1  -1  10   39.27    1.69
   1   1  10   40.12    1.71
   2  -1  10    0.46    0.49
   2   1  10    1.60    0.49
   3  -1  10   35.93    1.67
   3   1  10   33.28    1.63
   4  -1  10   24.41    1.45
   4   1  10   25.29    1.16
   4   1  10   24.52    1.41
  -5  -1 -10    2.47    0.56
   5  -1  10    3.14    0.71
   5   1  10    3.18    0.74
   5   1  10    3.45    0.54
  -7  -2  10    0.70    0.58
  -7  -2  10    1.42    0.65
   7  -2 -10    0.68    0.64
   7  -2 -10    1.12    0.61
   7  -2 -10    1.31    0.67
  -7   2  10    0.67    0.60
   7   2 -10    0.55    0.54
   7   2 -10    1.32    0.60
  -6  -2  10   24.79    1.40
   6  -2 -10   20.59    1.33
  -6  -2  10   23.79    1.30
   6  -2 -10   21.78    1.29
   6  -2 -10   25.74    1.42
  -6   2  10   21.88    1.36
   6   2 -10   20.22    1.30
   6   2 -10   24.20    1.29
  -6   2  10   23.49    1.33
  -5  -2  10    0.56    0.42
   5  -2 -10    0.45    0.47
  -5  -2  10    2.10    0.57
   5  -2 -10    0.99    0.53
   5  -2 -10    1.67    0.51
   5   2 -10    0.20    0.43
  -5   2  10    1.13    0.50
   5   2 -10    1.44    0.47
  -5   2  10    0.83    0.45
  -4  -2  10   36.52    1.53
  -4  -2  10   37.88    1.66
   4  -2 -10   43.80    1.68
   4  -2 -10   32.64    1.62
   4  -2 -10   39.69    1.63
   4   2 -10   35.66    1.62
   4   2 -10   39.08    1.60
  -4   2  10   36.83    1.68
  -4   2  10   39.40    1.60
  -3  -2  10   68.97    2.59
   3  -2 -10   67.76    2.57
   3  -2 -10   71.92    2.57
   3  -2 -10   67.55    2.60
  -3   2  10   68.84    2.62
   3   2 -10   70.62    2.53
  -3   2  10   68.32    2.53
   3   2 -10   67.94    2.58
   2  -2 -10    8.74    0.62
  -2  -2  10    7.67    0.60
   2  -2 -10    8.02    0.63
   2  -2 -10    7.60    0.58
  -2   2  10    7.81    0.54
   2   2 -10    8.75    0.57
  -2   2  10    7.68    0.64
   2   2 -10    7.31    0.53
  -2   2  10    7.80    0.75
   1  -2 -10    3.14    0.45
  -1  -2  10    3.44    0.57
   1  -2 -10    3.34    0.46
  -1   2  10    3.62    0.51
  -1   2  10    2.29    0.47
   0  -2  10   33.13    1.43
   0  -2 -10   33.54    1.29
   0  -2 -10   33.86    1.31
   0   2  10   31.50    1.45
   0   2  10   29.29    1.31
  -1  -2 -10   52.29    2.01
   1  -2  10   52.49    2.15
  -1  -2 -10   51.93    1.99
   1   2  10   56.03    2.16
   1   2  10   57.38    2.05
  -2  -2 -10   15.62    0.84
   2  -2  10   16.47    1.05
   2   2  10   15.05    0.84
   2   2  10   14.99    1.01
  -3  -2 -10   21.02    1.07
   3  -2  10   20.55    1.25
   3   2  10   21.81    1.07
   3   2  10   22.53    1.25
  -4  -2 -10   17.58    1.05
   4  -2  10   18.62    1.31
   4   2  10   20.01    1.26
   4   2  10   19.66    1.04
   5  -2  10    3.01    0.72
  -5  -2 -10    2.81    0.55
   5   2  10    2.51    0.50
   5   2  10    2.79    0.72
   7  -3 -10   23.74    1.57
  -7  -3  10   26.88    1.62
   7  -3 -10   32.79    1.71
  -7  -3  10   29.15    1.56
   7  -3 -10   23.91    1.51
  -7   3  10   27.60    1.64
  -7   3  10   27.21    1.58
   7   3 -10   27.47    1.50
   7   3 -10   25.05    1.53
  -6  -3  10   17.49    1.12
  -6  -3  10   15.91    1.23
   6  -3 -10   16.70    1.14
   6  -3 -10   20.54    1.28
   6  -3 -10   15.48    1.18
   6   3 -10   15.02    1.08
  -6   3  10   17.77    1.15
  -6   3  10   15.99    1.21
   6   3 -10   14.56    1.11
   5  -3 -10   48.99    2.09
   5  -3 -10   43.20    2.12
   5  -3 -10   53.37    2.17
   5  -3 -10   55.19    2.17
  -5  -3  10   51.91    2.04
  -5  -3  10   50.49    2.17
   5   3 -10   46.76    2.10
  -5   3  10   51.35    2.11
   5   3 -10   49.80    2.07
  -5   3  10   52.73    2.19
   4  -3 -10    9.11    0.82
  -4  -3  10    9.82    0.75
  -4  -3  10    9.80    0.86
   4  -3 -10   10.64    0.84
   4  -3 -10   10.87    0.82
  -4   3  10   11.16    0.77
   4   3 -10   10.74    0.79
  -4   3  10   10.77    0.87
   4   3 -10    9.13    0.76
  -3  -3  10   29.01    1.32
   3  -3 -10   29.48    1.34
   3  -3 -10   28.53    1.34
   3  -3 -10   29.06    1.30
  -3   3  10   29.87    1.37
   3   3 -10   29.59    1.30
  -3   3  10   29.63    1.27
   3   3 -10   27.48    1.24
  -2  -3  10   91.17    3.28
   2  -3 -10   93.48    3.33
   2  -3 -10   96.20    3.32
   2  -3 -10   96.05    3.30
  -2   3  10   94.92    3.26
   2   3 -10   89.90    3.26
   2   3 -10   82.47    3.22
  -2   3  10   91.10    3.35
   1  -3 -10   48.47    1.86
   1  -3 -10   49.53    1.89
  -1   3  10   47.66    1.99
  -1   3  10   49.48    1.92
   0  -3 -10   12.57    0.74
   0  -3 -10   14.28    0.76
   0  -3  10   12.10    0.86
   0   3  10   12.90    0.78
   0   3  10   13.83    0.91
   1  -3  10    8.56    0.79
  -1  -3 -10    9.76    0.64
  -1  -3 -10    8.74    0.63
   1   3  10    8.09    0.67
   1   3  10    8.51    0.81
  -2  -3 -10   10.11    0.73
  -2  -3 -10    9.81    0.69
   2  -3  10    9.04    0.88
   2   3  10   11.42    0.89
   2   3  10   10.01    0.74
  -3  -3 -10    9.90    0.77
   3  -3  10    9.09    0.97
   3   3  10   11.14    0.95
   3   3  10    9.95    0.75
   4  -3  10    5.25    0.92
  -4  -3 -10    5.93    0.74
   4   3  10    6.77    0.74
   4   3  10    5.91    0.92
  -5  -3 -10    0.60    0.49
   5   3  10    1.46    0.46
   5   3  10    1.41    0.65
  -7  -4  10    2.20    0.96
   7  -4 -10    1.59    0.76
  -7  -4  10    2.67    0.76
   7  -4 -10    2.00    0.70
   7  -4 -10    1.51    0.67
   7  -4 -10    1.19    0.62
  -7   4  10    1.30    0.64
  -7   4  10    1.43    0.63
   7   4 -10    2.97    0.70
   7   4 -10    2.74    0.64
   6  -4 -10    2.75    0.61
   6  -4 -10    2.13    0.68
  -6  -4  10    2.72    0.71
   6  -4 -10    2.50    0.68
   6  -4 -10    1.15    0.58
  -6  -4  10    2.68    0.71
   6   4 -10    1.25    0.56
   6   4 -10    2.47    0.64
  -6   4  10    3.10    0.63
  -6   4  10    2.67    0.66
   5  -4 -10   16.30    1.18
  -5  -4  10   19.72    1.20
   5  -4 -10   19.78    1.16
   5  -4 -10   21.78    1.25
  -5   4  10   20.84    1.16
   5   4 -10   18.80    1.10
   5   4 -10   18.53    1.15
  -5   4  10   19.56    1.23
  -4  -4  10    5.63    0.73
   4  -4 -10    5.52    0.67
   4  -4 -10    7.19    0.76
   4  -4 -10    4.49    0.71
  -4   4  10    5.99    0.77
  -4   4  10    6.75    0.68
   4   4 -10    5.17    0.64
   4   4 -10    7.11    0.65
   3  -4 -10   43.36    1.77
   3  -4 -10   40.16    1.77
  -3  -4  10   40.61    1.75
   3  -4 -10   42.89    1.74
  -3   4  10   40.69    1.69
   3   4 -10   41.56    1.71
   3   4 -10   43.67    1.69
  -3   4  10   40.92    1.79
   2  -4 -10   50.29    1.88
   2  -4 -10   50.20    1.85
  -2  -4  10   44.86    1.80
   2  -4 -10   42.33    1.85
   2   4 -10   42.25    1.75
  -2   4  10   48.20    1.90
  -2   4  10   46.45    1.80
   1  -4 -10   15.78    0.86
   1  -4 -10   15.15    0.88
   1  -4 -10   17.17    1.02
  -1   4  10   15.67    0.91
  -1   4  10   16.02    0.80
  -1   4  10   16.17    1.00
   0  -4 -10   51.61    2.01
   0  -4 -10   51.42    2.04
   0   4  10   53.53    2.07
   0   4  10   54.14    2.16
   1  -4  10    5.66    0.75
  -1  -4 -10    5.83    0.60
  -1  -4 -10    6.17    0.64
   1   4  10    5.97    0.63
   1   4  10    6.25    0.76
  -2  -4 -10   32.76    1.40
   2  -4  10   33.04    1.57
  -2  -4 -10   29.81    1.40
   2   4  10   32.27    1.54
   2   4  10   32.24    1.43
   3  -4  10   29.06    1.57
  -3  -4 -10   28.60    1.33
  -3  -4 -10   30.48    1.39
   3   4  10   29.20    1.51
   3   4  10   27.54    1.36
  -4  -4 -10   38.98    1.75
   4  -4  10   37.06    1.93
   4   4  10   39.89    1.86
   4   4  10   40.26    1.73
  -5  -4 -10    8.37    0.89
   5   4  10    8.66    1.06
   5   4  10    9.57    0.88
   6  -5 -10   13.35    1.20
   6  -5 -10   15.69    1.19
   6  -5 -10   17.40    1.26
  -6  -5  10   14.73    1.17
  -6   5  10   15.91    1.27
  -6   5  10   16.61    1.17
   6   5 -10   14.62    1.09
   6   5 -10   14.68    1.05
   5  -5 -10    2.99    0.63
   5  -5 -10    2.86    0.66
  -5  -5  10    2.59    0.62
   5  -5 -10    2.82    0.63
  -5   5  10    2.48    0.57
  -5   5  10    3.78    0.73
   5   5 -10    2.86    0.55
   5   5 -10    2.06    0.51
   4  -5 -10   21.42    1.21
  -4  -5  10   19.52    1.21
   4  -5 -10   19.46    1.22
   4  -5 -10   22.48    1.26
   4   5 -10   23.14    1.16
  -4   5  10   22.25    1.16
  -4   5  10   22.47    1.28
   4   5 -10   23.17    1.14
   3  -5 -10   37.19    1.63
   3  -5 -10   34.80    1.61
  -3  -5  10   35.68    1.57
   3  -5 -10   37.05    1.59
  -3   5  10   36.89    1.56
   3   5 -10   35.82    1.50
   3   5 -10   32.47    1.48
  -3   5  10   37.24    1.64
   2  -5 -10   61.62    2.54
   2  -5 -10   65.42    2.51
   2  -5 -10   70.94    2.57
  -2  -5  10   63.39    2.45
   2   5 -10   66.65    2.43
  -2   5  10   65.38    2.57
  -2   5  10   69.62    2.49
   1  -5 -10    7.40    0.69
   1  -5 -10    8.60    0.74
   1  -5 -10    8.75    0.71
  -1   5  10    8.41    0.63
  -1   5  10    7.27    0.73
  -1   5  10    9.48    0.83
   0  -5 -10   93.48    3.40
   0  -5 -10   93.13    3.36
   0   5  10   92.80    3.47
   0   5  10   91.02    3.41
   0   5  10   92.71    3.28
   1  -5  10   35.32    1.63
  -1  -5 -10   34.67    1.55
  -1  -5 -10   35.76    1.52
   1   5  10   35.45    1.56
   1   5  10   36.74    1.64
   2  -5  10   28.46    1.48
  -2  -5 -10   26.53    1.33
  -2  -5 -10   28.13    1.30
   2   5  10   28.20    1.44
   2   5  10   28.81    1.36
  -3  -5 -10   23.34    1.21
   3  -5  10   21.80    1.39
  -3  -5 -10   23.66    1.25
   3   5  10   24.37    1.36
   3   5  10   23.47    1.24
  -4  -5 -10   20.27    1.20
  -4  -5 -10   20.27    1.16
   4   5  10   20.07    1.19
   4   5  10   17.60    1.27
   6  -6 -10   15.78    1.29
   6  -6 -10   14.44    1.24
  -6  -6  10   13.02    1.20
   6  -6 -10   13.53    1.19
  -6   6  10   15.68    1.26
   6   6 -10   13.70    1.05
   6   6 -10   14.15    1.08
  -6   6  10   13.64    1.14
   5  -6 -10    7.96    0.99
  -5  -6  10    7.91    0.93
   5  -6 -10   10.59    1.04
   5  -6 -10    7.73    0.94
  -5   6  10    8.28    0.97
   5   6 -10    6.84    0.82
   5   6 -10    7.57    0.80
  -5   6  10    8.98    0.87
  -4  -6  10    9.90    0.91
   4  -6 -10   10.60    0.92
   4  -6 -10   10.73    0.97
   4  -6 -10   12.25    1.00
   4   6 -10   12.13    0.85
  -4   6  10   11.36    0.89
   4   6 -10   10.68    0.83
  -4   6  10   11.38    0.98
   3  -6 -10   18.55    1.15
   3  -6 -10   19.68    1.18
  -3  -6  10   20.75    1.09
   3  -6 -10   19.44    1.14
   3   6 -10   19.58    1.03
  -3   6  10   20.17    1.10
  -3   6  10   20.97    1.21
   3   6 -10   21.28    1.04
  -2  -6  10    6.54    0.63
   2  -6 -10    4.98    0.70
   2  -6 -10    6.33    0.75
   2  -6 -10    4.95    0.69
  -2   6  10    6.09    0.75
  -2   6  10    5.88    0.63
   2   6 -10    6.54    0.56
   1  -6 -10   11.17    0.83
   1  -6 -10   12.75    0.88
   1  -6 -10   12.54    0.84
  -1   6  10    9.98    0.89
  -1   6  10   11.66    0.77
  -1   6  10   11.10    0.95
   0  -6 -10    4.83    0.66
   0  -6 -10    3.96    0.63
   0   6  10    4.25    0.64
   0   6  10    4.14    0.53
   0   6  10    4.33    0.65
  -1  -6 -10    9.12    0.78
  -1  -6 -10    9.82    0.83
   1   6  10    9.13    0.65
   1   6  10    9.11    0.90
   1   6  10    8.07    0.81
  -2  -6 -10    6.19    0.74
   2  -6  10    4.02    0.69
  -2  -6 -10    5.81    0.71
  -2  -6 -10    7.01    0.73
   2   6  10    5.75    0.83
   2   6  10    5.12    0.75
   2   6  10    5.11    0.56
  -3  -6 -10    3.46    0.61
  -3  -6 -10    4.25    0.71
   3   6  10    3.63    0.68
   3   6  10    1.80    0.54
  -4  -6 -10    6.88    0.85
  -4  -6 -10    6.67    0.90
   4   6  10    8.67    1.00
   4   6  10    6.61    0.90
   6  -7 -10   17.38    1.38
   6  -7 -10   20.26    1.46
  -6  -7  10   18.78    1.37
   6  -7 -10   16.97    1.34
   6   7 -10   20.43    1.25
  -6   7  10   18.09    1.38
  -6   7  10   19.32    1.31
   6   7 -10   18.51    1.24
   5  -7 -10   34.89    1.75
   5  -7 -10   29.43    1.63
   5  -7 -10   28.53    1.68
  -5  -7  10   33.54    1.69
   5   7 -10   35.14    1.59
  -5   7  10   32.17    1.62
  -5   7  10   33.78    1.74
   5   7 -10   29.03    1.56
   4  -7 -10    6.67    0.92
   4  -7 -10    7.70    0.93
  -4  -7  10    7.49    0.84
   4  -7 -10    7.38    0.88
   4   7 -10    6.96    0.74
  -4   7  10    7.22    0.81
  -4   7  10    6.34    0.91
   4   7 -10    7.96    0.76
   3  -7 -10   12.51    0.95
   3  -7 -10    9.89    0.96
   3  -7 -10   11.09    0.97
  -3  -7  10   12.25    0.89
  -3   7  10   12.43    0.90
   3   7 -10   12.87    0.83
  -3   7  10   12.64    1.00
   3   7 -10   12.11    0.82
   2  -7 -10    0.98    0.47
   2  -7 -10    1.28    0.49
  -2  -7  10    1.89    0.43
   2  -7 -10    2.54    0.60
  -2   7  10    1.59    0.45
   2   7 -10    1.34    0.36
  -2   7  10    2.21    0.56
   1  -7 -10   25.36    1.32
   1  -7 -10   27.22    1.30
   1  -7 -10   27.15    1.35
  -1   7  10   25.53    1.23
  -1   7  10   25.54    1.37
  -1   7  10   23.93    1.39
   0  -7 -10   23.30    1.29
   0  -7 -10   24.87    1.27
   0   7  10   25.53    1.18
   0   7  10   25.98    1.38
   0   7  10   25.51    1.35
  -1  -7 -10   11.46    0.91
  -1  -7 -10   11.79    0.88
   1   7  10    9.92    0.96
   1   7  10    9.53    0.73
   1   7  10   10.92    0.94
  -2  -7 -10   33.30    1.52
  -2  -7 -10   31.33    1.57
  -2  -7 -10   31.49    1.53
   2   7  10   33.43    1.60
   2   7  10   31.42    1.58
   2   7  10   31.35    1.39
  -3  -7 -10    4.72    0.81
  -3  -7 -10    5.13    0.80
   3   7  10    5.03    0.77
   3   7  10    5.02    0.78
  -4  -7 -10   13.24    1.05
  -4  -7 -10   12.30    1.09
   4   7  10   14.42    1.11
   5  -8 -10   14.84    1.25
   5  -8 -10   13.72    1.18
  -5  -8  10   14.71    1.15
   5  -8 -10   16.36    1.30
   5   8 -10   15.58    1.07
   5   8 -10   15.34    1.07
  -5   8  10   15.71    1.16
  -5   8  10   16.73    1.27
  -4  -8  10   54.80    2.32
   4  -8 -10   57.17    2.39
   4  -8 -10   53.33    2.42
   4  -8 -10   56.68    2.42
   4   8 -10   51.37    2.25
  -4   8  10   57.61    2.45
  -4   8  10   52.51    2.32
   4   8 -10   57.15    2.24
  -3  -8  10    0.91    0.44
   3  -8 -10    0.15    0.47
   3  -8 -10    1.08    0.57
   3  -8 -10    0.78    0.53
  -3   8  10    1.19    0.56
  -3   8  10    0.39    0.42
   3   8 -10    0.98    0.42
   3   8 -10    0.88    0.39
  -2  -8  10   42.58    1.83
   2  -8 -10   45.95    2.03
   2  -8 -10   45.28    1.98
   2  -8 -10   47.16    2.03
  -2   8  10   46.87    1.93
  -2   8  10   46.38    2.06
   2   8 -10   44.18    1.81
   1  -8 -10   38.14    1.68
   1  -8 -10   36.41    1.70
   1  -8 -10   33.30    1.67
  -1   8  10   34.65    1.74
  -1   8  10   35.06    1.74
  -1   8  10   37.35    1.59
   0  -8 -10   31.87    1.57
   0  -8 -10   34.26    1.56
   0   8  10   31.54    1.44
   0   8  10   31.18    1.60
   0   8  10   31.86    1.60
  -1  -8 -10   20.77    1.21
  -1  -8 -10   22.18    1.26
   1   8  10   20.18    1.10
   1   8  10   20.68    1.30
   1   8  10   22.11    1.30
  -2  -8 -10   24.30    1.39
  -2  -8 -10   23.46    1.31
   2   8  10   25.66    1.24
   2   8  10   24.17    1.39
   2   8  10   24.35    1.38
  -3  -8 -10   45.60    2.10
  -3  -8 -10   45.43    2.04
   3   8  10   48.60    2.11
   3   8  10   46.75    2.12
   3   8  10   45.21    1.89
   4  -9 -10   25.94    1.51
   4  -9 -10   28.66    1.59
   4  -9 -10   25.51    1.55
  -4  -9  10   25.78    1.44
  -4   9  10   27.37    1.46
   4   9 -10   26.93    1.37
   4   9 -10   24.07    1.36
  -4   9  10   25.96    1.56
   3  -9 -10   16.94    1.17
   3  -9 -10   15.67    1.20
  -3  -9  10   14.82    1.05
   3  -9 -10   18.42    1.25
  -3   9  10   15.71    1.22
  -3   9  10   17.14    1.11
   3   9 -10   15.49    0.97
  -2  -9  10   18.23    1.04
   2  -9 -10   15.18    1.16
   2  -9 -10   20.58    1.26
   2  -9 -10   17.03    1.12
  -2   9  10   18.79    1.25
   2   9 -10   16.80    0.95
  -2   9  10   19.72    1.14
   1  -9 -10   16.40    1.08
   1  -9 -10   15.71    1.17
   1  -9 -10   14.00    1.11
  -1  -9  10   14.16    0.89
  -1   9  10   15.53    1.00
  -1   9  10   14.74    1.13
  -1   9  10   15.87    1.17
   0  -9 -10   29.00    1.53
   0  -9 -10   28.52    1.49
   0   9  10   27.68    1.38
   0   9  10   30.11    1.55
   0   9  10   29.27    1.57
  -1  -9 -10   53.02    2.37
  -1  -9 -10   53.18    2.36
  -1  -9 -10   57.66    2.34
   1   9  10   57.30    2.38
   1   9  10   55.51    2.42
   1   9  10   54.71    2.23
  -2  -9 -10    9.69    0.95
  -2  -9 -10   11.20    1.03
   2   9  10   11.09    0.84
   2   9  10    9.87    1.02
  -3 -10  10    0.59    0.48
   3 -10 -10    0.67    0.58
   3 -10 -10    1.05    0.66
   3 -10 -10    0.35    0.52
  -3  10  10    0.46    0.62
   3  10 -10    0.96    0.42
  -3  10  10    2.21    0.59
   2 -10 -10   26.45    1.48
   2 -10 -10   28.55    1.55
  -2 -10  10   26.25    1.33
   2 -10 -10   24.64    1.53
  -2  10  10   25.19    1.40
   2  10 -10   26.28    1.28
  -2  10  10   27.68    1.56
  -1 -10  10    9.88    0.81
   1 -10 -10   11.92    1.03
   1 -10 -10   11.34    1.06
  -1  10  10   12.30    1.10
  -1  10  10   11.94    1.12
  -1  10  10   12.33    0.93
   1  10 -10   10.59    0.77
   0 -10 -10   27.88    1.55
   0 -10 -10   28.70    1.61
   0  10  10   28.49    1.45
   0  10  10   32.10    1.67
   0  10  10   31.02    1.63
  -1 -10 -10   30.25    1.60
  -1 -10 -10   30.74    1.57
  -1 -10 -10   29.74    1.62
   1  10  10   27.27    1.61
   1  10  10   28.39    1.58
   1  10  10   27.64    1.43
   1 -11 -10   13.00    1.17
   1 -11 -10   13.71    1.13
  -1 -11  10   11.75    0.90
   1  11 -10   10.21    0.82
  -1  11  10   11.87    1.17
  -1  11  10   12.01    0.97
  -1  11  10   10.91    1.16
   7   0 -11   10.80    1.03
   7   0 -11   11.70    1.06
  -7   0  11   12.38    1.06
  -7   0  11   12.40    1.17
   6   0 -11   46.10    2.08
  -6   0  11   51.75    2.09
  -6   0  11   48.04    2.18
   6   0 -11   44.67    2.12
  -5   0  11    1.62    0.56
   5   0 -11    1.92    0.50
  -5   0  11    1.27    0.45
   5   0 -11    2.38    0.54
  -4   0  11  147.01    5.31
   4   0 -11  145.77    5.29
  -4   0  11  151.21    5.19
   4   0 -11  152.11    5.25
  -3   0  11   71.04    2.73
   3   0 -11   75.72    2.70
  -3   0  11   72.88    2.74
   3   0 -11   71.33    2.72
  -2   0  11   58.40    2.28
   2   0 -11   58.01    2.17
  -2   0  11   58.50    2.23
   2   0 -11   60.17    2.21
  -1   0  11   55.95    2.14
  -1   0  11   51.89    2.00
   0   0  11   35.36    1.56
   1   0  11  154.58    5.47
   2   0  11    2.73    0.59
   3   0  11  211.01    7.43
   4   0  11   53.92    2.37
   5   0  11   31.42    1.78
  -7  -1  11    0.20    0.53
   7  -1 -11    1.03    0.62
   7  -1 -11    0.46    0.60
  -7  -1  11    1.15    0.68
   7   1 -11    0.00    0.52
   7   1 -11    0.96    0.60
  -7   1  11    0.46    0.55
  -7   1  11    0.01    0.58
   6  -1 -11   12.21    1.02
   6  -1 -11    9.62    0.93
  -6  -1  11    9.46    1.07
  -6  -1  11   10.55    0.93
   6   1 -11    9.64    0.97
  -6   1  11   10.54    0.95
   6   1 -11    9.15    0.97
  -6   1  11   11.04    1.02
   5  -1 -11    1.41    0.46
   5  -1 -11    1.62    0.51
  -5  -1  11    2.36    0.49
  -5  -1  11    2.14    0.57
  -5   1  11    1.89    0.49
   5   1 -11    2.82    0.56
  -5   1  11    2.26    0.56
   5   1 -11    1.61    0.51
  -4  -1  11    0.98    0.51
   4  -1 -11    1.01    0.37
   4  -1 -11    1.37    0.43
  -4  -1  11    0.30    0.38
  -4   1  11    1.32    0.46
  -4   1  11    1.82    0.41
   4   1 -11    0.89    0.45
   4   1 -11    0.43    0.45
   3  -1 -11   37.22    1.56
   3  -1 -11   38.08    1.61
  -3  -1  11   37.00    1.62
  -3   1  11   38.51    1.63
   3   1 -11   38.94    1.57
   3   1 -11   38.25    1.60
  -2  -1  11   20.90    1.10
   2  -1 -11   22.68    1.06
  -2  -1  11   22.19    1.04
   2  -1 -11   23.07    1.03
  -2   1  11   23.10    1.16
  -2   1  11   22.38    1.07
   2   1 -11   22.65    0.99
   2   1 -11   22.09    1.02
  -1  -1  11   58.05    2.26
   1  -1 -11   57.41    2.15
  -1  -1  11   57.49    2.13
   1  -1 -11   59.87    2.13
  -1   1  11   59.30    2.29
  -1   1  11   56.26    2.17
   0  -1  11   20.98    1.15
   0  -1 -11   21.40    0.97
   0   1  11   22.03    1.18
   0   1  11   24.09    1.01
   1  -1  11   20.27    1.16
   1   1  11   21.32    1.16
   2  -1  11   38.16    1.75
   2   1  11   37.96    1.73
   3  -1  11    5.08    0.88
   3   1  11    5.85    0.86
   4  -1  11   19.57    1.36
   4   1  11   21.51    1.35
   5  -1  11   12.58    1.22
   5   1  11   12.20    1.20
   5   1  11   13.72    0.90
   7  -2 -11   15.13    1.31
  -7  -2  11   17.99    1.39
   7  -2 -11   17.81    1.31
   7  -2 -11   22.73    1.97
  -7  -2  11   19.79    1.32
  -7   2  11   19.25    1.31
  -7   2  11   19.15    1.39
   7   2 -11   17.10    1.28
   7   2 -11   18.97    1.26
   6  -2 -11   20.62    1.28
   6  -2 -11   19.96    1.35
   6  -2 -11   17.48    1.27
  -6  -2  11   18.97    1.31
  -6  -2  11   20.33    1.20
  -6   2  11   22.69    1.36
   6   2 -11   20.24    1.22
  -6   2  11   20.21    1.22
   6   2 -11   17.07    1.23
   5  -2 -11   32.59    1.64
   5  -2 -11   29.30    1.58
  -5  -2  11   31.97    1.61
   5  -2 -11   33.85    1.59
   5  -2 -11   36.08    1.67
  -5  -2  11   33.81    1.63
  -5   2  11   34.26    1.67
   5   2 -11   34.92    1.55
   5   2 -11   32.35    1.58
  -5   2  11   34.43    1.55
   4  -2 -11   11.41    0.85
   4  -2 -11   10.16    0.85
  -4  -2  11   11.50    0.89
   4  -2 -11   11.37    0.99
  -4   2  11   11.27    0.78
  -4   2  11   11.38    0.90
   4   2 -11   11.77    0.82
   4   2 -11   10.11    0.80
   3  -2 -11   56.32    2.08
   3  -2 -11   53.77    2.11
  -3  -2  11   53.13    2.09
  -3   2  11   53.12    2.01
   3   2 -11   51.19    2.02
   3   2 -11   51.25    2.06
  -3   2  11   51.63    2.11
   2  -2 -11   92.55    3.24
  -2  -2  11   86.90    3.19
   2  -2 -11   89.97    3.19
  -2   2  11   87.58    3.25
  -2   2  11   90.53    3.32
   2   2 -11   87.02    3.17
  -1  -2  11  103.86    3.82
   1  -2 -11  107.56    3.77
   1  -2 -11  106.12    3.73
  -1   2  11  105.04    3.77
  -1   2  11  109.71    3.89
   0  -2 -11   11.24    0.68
   0  -2  11   11.48    0.86
   0  -2 -11   10.80    0.66
   0   2  11   11.31    0.71
   0   2  11   10.37    0.85
   1  -2  11   19.84    1.15
  -1  -2 -11   19.89    0.96
   1   2  11   20.69    0.99
   1   2  11   19.24    1.12
  -2  -2 -11    6.71    0.63
   2  -2  11    6.48    0.87
   2   2  11    7.99    0.86
   2   2  11    6.61    0.65
  -3  -2 -11   21.07    1.10
   3  -2  11   21.28    1.31
   3   2  11   21.99    1.10
   3   2  11   21.86    1.31
  -4  -2 -11    3.20    0.55
   4  -2  11    1.75    0.67
   4   2  11    3.60    0.70
   4   2  11    3.85    0.63
   7  -3 -11   20.73    1.42
   7  -3 -11   18.99    1.42
   7  -3 -11   16.99    1.28
   7  -3 -11   14.61    1.30
   7   3 -11   15.31    1.23
   7   3 -11   15.19    1.19
  -6  -3  11    6.96    0.99
   6  -3 -11    6.73    0.94
   6  -3 -11    7.07    1.01
   6  -3 -11    9.17    0.94
   6  -3 -11    8.72    0.99
   6   3 -11    6.88    0.86
  -6   3  11    8.55    1.02
   6   3 -11    6.43    0.87
  -6   3  11    7.81    0.89
   5  -3 -11   33.94    1.77
  -5  -3  11   38.00    1.80
   5  -3 -11   37.48    1.75
   5  -3 -11   40.66    1.82
   5   3 -11   42.42    1.74
   5   3 -11   35.40    1.73
  -5   3  11   41.58    1.74
  -5   3  11   38.97    1.84
   4  -3 -11   34.60    1.51
  -4  -3  11   31.56    1.53
   4  -3 -11   29.82    1.52
   4  -3 -11   33.40    1.52
  -4   3  11   33.59    1.56
   4   3 -11   30.40    1.47
  -4   3  11   33.01    1.45
   4   3 -11   33.21    1.46
   3  -3 -11   76.65    3.03
  -3  -3  11   82.77    3.01
   3  -3 -11   81.55    2.98
  -3   3  11   82.39    2.94
   3   3 -11   76.77    2.98
  -3   3  11   80.00    3.05
   3   3 -11   83.89    2.94
  -2  -3  11   27.63    1.25
   2  -3 -11   31.18    1.30
   2  -3 -11   28.49    1.31
  -2   3  11   29.86    1.22
  -2   3  11   29.95    1.35
  -2   3  11   28.68    1.42
   2   3 -11   27.86    1.23
   1  -3 -11   51.60    2.04
   1  -3 -11   51.24    2.00
  -1   3  11   53.44    2.06
  -1   3  11   54.47    2.15
   0  -3 -11   52.15    1.98
   0  -3 -11   53.27    2.01
   0  -3  11   50.05    2.09
   0   3  11   50.15    2.13
   0   3  11   53.56    2.03
  -1  -3 -11    8.17    0.65
   1  -3  11    7.86    0.83
  -1  -3 -11    8.10    0.64
   1   3  11    6.75    0.81
   1   3  11    7.74    0.67
  -2  -3 -11   45.54    1.86
  -2  -3 -11   39.33    1.68
   2  -3  11   37.99    1.84
   2   3  11   39.96    1.84
   2   3  11   42.01    1.71
  -3  -3 -11    4.43    0.67
   3  -3  11    3.30    0.72
   3   3  11    4.28    0.63
   3   3  11    4.54    0.72
  -4  -3 -11   33.09    1.59
   4  -3  11   31.73    1.79
   4   3  11   36.23    1.58
   4   3  11   36.31    1.78
  -6  -4  11    0.15    0.61
   6  -4 -11    1.04    0.55
   6  -4 -11    0.39    0.54
   6  -4 -11    0.63    0.62
  -6   4  11    0.24    0.55
   6   4 -11    0.16    0.49
   6   4 -11    0.04    0.51
  -6   4  11    0.08    0.49
   5  -4 -11    1.46    0.55
   5  -4 -11    2.39    0.55
  -5  -4  11    3.11    0.67
   5  -4 -11    2.63    0.64
   5   4 -11    3.01    0.57
   5   4 -11    3.34    0.62
  -5   4  11    2.64    0.55
  -5   4  11    3.34    0.68
   4  -4 -11    6.25    0.83
   4  -4 -11    7.44    0.79
  -4  -4  11    5.55    0.74
   4  -4 -11    6.05    0.77
  -4   4  11    7.89    0.83
   4   4 -11    6.38    0.69
  -4   4  11    7.85    0.72
   4   4 -11    5.31    0.64
  -3  -4  11   10.10    0.80
   3  -4 -11   10.12    0.80
   3  -4 -11   10.81    0.85
   3  -4 -11   10.21    0.87
   3   4 -11   10.33    0.73
  -3   4  11   11.79    0.90
   3   4 -11   11.46    0.73
  -3   4  11   10.56    0.77
   2  -4 -11    4.41    0.60
   2  -4 -11    3.66    0.60
  -2  -4  11    3.53    0.54
  -2   4  11    4.74    0.64
  -2   4  11    5.20    0.76
  -2   4  11    4.26    0.54
   2   4 -11    3.57    0.50
   1  -4 -11   37.06    1.57
   1  -4 -11   37.22    1.55
  -1   4  11   34.68    1.58
  -1   4  11   38.87    1.69
   0  -4 -11    4.44    0.57
   0  -4 -11    3.32    0.55
   0   4  11    3.27    0.56
   0   4  11    3.01    0.51
  -1  -4 -11   45.90    1.83
   1  -4  11   42.33    1.91
  -1  -4 -11   44.20    1.78
   1   4  11   43.98    1.94
   1   4  11   44.02    1.82
  -2  -4 -11    7.39    0.71
   2  -4  11    7.11    0.92
  -2  -4 -11    7.35    0.72
   2   4  11    9.05    0.78
   2   4  11    8.33    0.90
  -3  -4 -11   10.65    0.85
   3  -4  11   12.37    1.10
   3   4  11   10.33    1.02
   3   4  11    9.62    0.83
   4  -4  11    8.17    1.08
  -4  -4 -11    7.45    0.86
   4   4  11    8.89    1.05
   4   4  11    9.14    0.85
   6  -5 -11   16.57    1.27
   6  -5 -11   12.80    1.19
   6  -5 -11   14.29    1.18
  -6  -5  11   12.58    1.22
   6   5 -11   12.68    1.06
   6   5 -11   14.03    1.08
  -6   5  11   14.61    1.13
  -6   5  11   14.93    1.23
   5  -5 -11   35.25    1.80
  -5  -5  11   40.62    1.90
   5  -5 -11   34.31    1.86
   5  -5 -11   43.48    1.93
  -5   5  11   39.49    1.91
   5   5 -11   37.50    1.81
   5   5 -11   39.38    1.78
  -5   5  11   42.85    1.81
   4  -5 -11   13.75    1.03
  -4  -5  11   11.83    0.95
   4  -5 -11   11.72    0.98
   4  -5 -11   12.35    0.97
   4   5 -11   14.68    0.90
  -4   5  11   14.64    0.93
  -4   5  11   12.46    1.02
   4   5 -11   11.78    0.89
  -3  -5  11   53.13    2.21
   3  -5 -11   56.74    2.26
   3  -5 -11   57.42    2.24
   3  -5 -11   52.75    2.26
  -3   5  11   56.24    2.30
   3   5 -11   55.51    2.15
   3   5 -11   55.24    2.17
  -3   5  11   56.25    2.19
   2  -5 -11   41.35    1.72
  -2  -5  11   39.69    1.64
   2  -5 -11   39.81    1.74
  -2   5  11   41.48    1.65
   2   5 -11   39.75    1.60
  -2   5  11   39.89    1.77
   1  -5 -11   22.61    1.16
   1  -5 -11   23.65    1.15
  -1   5  11   21.43    1.19
  -1   5  11   22.40    1.05
  -1   5  11   22.47    1.27
   0  -5 -11  112.37    4.07
   0  -5 -11  114.25    4.11
   0   5  11  115.77    4.20
   0   5  11  111.97    4.13
  -1  -5 -11   12.43    0.84
   1  -5  11   10.94    0.99
  -1  -5 -11   11.55    0.86
   1   5  11   10.97    0.98
   1   5  11   13.32    0.89
  -2  -5 -11  116.97    4.30
   2  -5  11  111.14    4.38
  -2  -5 -11  124.04    4.26
   2   5  11  120.09    4.39
   2   5  11  119.67    4.31
  -3  -5 -11   21.84    1.23
   3  -5  11   19.74    1.39
  -3  -5 -11   23.25    1.21
   3   5  11   22.62    1.23
   3   5  11   22.90    1.35
  -4  -5 -11   19.95    1.28
   4   5  11   22.80    1.27
   4   5  11   21.20    1.38
   6  -6 -11   14.56    1.28
   6  -6 -11   10.63    1.16
   6  -6 -11   11.27    1.20
  -6  -6  11   14.41    1.20
  -6   6  11   15.89    1.27
   6   6 -11   12.52    1.03
   6   6 -11   11.70    1.05
  -6   6  11   14.07    1.13
   5  -6 -11   24.86    1.48
  -5  -6  11   25.90    1.46
   5  -6 -11   21.89    1.44
   5  -6 -11   21.89    1.40
   5   6 -11   23.80    1.35
   5   6 -11   25.27    1.34
  -5   6  11   25.58    1.36
  -5   6  11   26.20    1.49
  -4  -6  11   42.31    1.92
   4  -6 -11   44.47    1.96
   4  -6 -11   42.92    1.92
   4  -6 -11   34.79    1.89
   4   6 -11   42.14    1.85
  -4   6  11   43.63    1.99
  -4   6  11   45.81    1.87
   4   6 -11   44.70    1.84
   3  -6 -11   12.48    0.96
  -3  -6  11   11.21    0.85
   3  -6 -11    9.60    0.90
   3  -6 -11   11.97    0.90
  -3   6  11   11.94    0.97
   3   6 -11    8.99    0.73
  -3   6  11   10.32    0.81
   3   6 -11    9.02    0.76
   2  -6 -11   29.16    1.45
   2  -6 -11   32.47    1.46
  -2  -6  11   28.95    1.33
  -2   6  11   31.86    1.38
  -2   6  11   29.16    1.50
   1  -6 -11   34.03    1.60
   1  -6 -11   35.12    1.57
  -1   6  11   34.87    1.64
  -1   6  11   33.68    1.69
  -1   6  11   36.66    1.49
   0  -6 -11   64.79    2.46
   0  -6 -11   62.73    2.49
   0   6  11   57.92    2.54
   0   6  11   65.21    2.53
  -1  -6 -11   45.22    1.91
  -1  -6 -11   43.88    1.87
   1   6  11   44.90    1.93
   1   6  11   43.72    1.98
   1   6  11   43.29    1.74
   2  -6  11   20.19    1.34
  -2  -6 -11   23.26    1.20
  -2  -6 -11   21.14    1.21
  -2  -6 -11   21.81    1.23
   2   6  11   22.63    1.28
   2   6  11   23.69    1.35
  -3  -6 -11   53.78    2.32
  -3  -6 -11   56.19    2.27
   3   6  11   55.10    2.39
   3   6  11   56.01    2.33
   5  -7 -11    6.91    1.01
  -5  -7  11    4.46    0.78
   5  -7 -11    6.45    0.98
   5  -7 -11    6.48    0.96
   5   7 -11    5.88    0.80
   5   7 -11    5.44    0.78
  -5   7  11    5.45    0.94
  -5   7  11    6.00    0.88
   4  -7 -11   28.55    1.52
   4  -7 -11   26.48    1.57
  -4  -7  11   29.08    1.52
   4  -7 -11   28.73    1.58
   4   7 -11   29.80    1.43
  -4   7  11   31.98    1.63
   4   7 -11   27.64    1.41
  -4   7  11   32.40    1.52
   3  -7 -11    0.42    0.50
   3  -7 -11   -0.01    0.50
   3  -7 -11   -0.27    0.44
  -3  -7  11    1.03    0.43
   3   7 -11    0.51    0.39
  -3   7  11    0.24    0.39
  -3   7  11    0.39    0.49
   2  -7 -11   23.56    1.34
   2  -7 -11   26.77    1.35
  -2  -7  11   24.32    1.20
   2   7 -11   25.99    1.18
  -2   7  11   25.68    1.27
  -2   7  11   27.20    1.43
   1  -7 -11   12.34    0.96
   1  -7 -11   12.47    0.92
  -1   7  11   14.84    0.87
  -1   7  11   12.84    1.03
  -1   7  11   12.85    1.07
   0  -7 -11   23.37    1.22
   0  -7 -11   23.05    1.27
   0   7  11   22.35    1.30
   0   7  11   21.73    1.33
  -1  -7 -11    8.64    0.82
  -1  -7 -11    8.89    0.86
   1   7  11    7.73    0.93
   1   7  11    8.08    0.89
   1   7  11    7.32    0.68
  -2  -7 -11    0.45    0.49
  -2  -7 -11    0.37    0.43
  -2  -7 -11    0.53    0.48
   2   7  11    0.53    0.55
   2   7  11   -0.08    0.50
   2   7  11    0.14    0.35
  -3  -7 -11    2.48    0.62
  -3  -7 -11    2.50    0.61
   3   7  11    2.56    0.59
   3   7  11    2.86    0.71
   5  -8 -11    0.71    0.62
   5  -8 -11    1.22    0.64
  -5  -8  11   -0.21    0.52
   5  -8 -11    0.92    0.70
  -5   8  11    1.16    0.67
  -5   8  11    1.37    0.59
   5   8 -11    1.29    0.52
   5   8 -11    0.65    0.50
  -4  -8  11   63.20    2.64
   4  -8 -11   66.65    2.75
   4  -8 -11   62.61    2.68
   4  -8 -11   58.29    2.72
   4   8 -11   64.09    2.59
  -4   8  11   64.86    2.64
   4   8 -11   65.90    2.55
  -4   8  11   67.16    2.78
  -3  -8  11    9.58    0.85
   3  -8 -11    7.19    0.93
   3  -8 -11    7.52    0.91
   3  -8 -11    9.75    0.98
  -3   8  11    9.14    0.99
   3   8 -11    9.68    0.77
  -3   8  11   10.87    0.89
   2  -8 -11    7.25    0.89
  -2  -8  11    6.04    0.69
   2  -8 -11    7.62    0.86
  -2   8  11    7.18    0.94
  -2   8  11    7.42    0.78
   2   8 -11    6.70    0.62
   1  -8 -11    8.43    0.86
   1  -8 -11    5.84    0.80
  -1   8  11    5.91    0.93
  -1   8  11    8.18    0.95
  -1   8  11    7.24    0.73
   0  -8 -11   46.42    2.12
   0  -8 -11   49.29    2.10
   0   8  11   50.52    2.18
   0   8  11   49.38    2.20
  -1  -8 -11   31.25    1.60
  -1  -8 -11   32.28    1.56
   1   8  11   29.74    1.42
   1   8  11   31.96    1.66
   1   8  11   31.95    1.64
  -2  -8 -11    7.68    0.94
  -2  -8 -11    7.34    0.87
   2   8  11    9.56    0.75
   2   8  11    7.21    0.92
   2   8  11    8.40    0.98
  -4  -9  11    4.23    0.72
   4  -9 -11    5.80    0.98
   4  -9 -11    4.84    0.82
   4  -9 -11    2.98    0.71
  -4   9  11    4.52    0.83
   4   9 -11    3.97    0.63
  -4   9  11    3.33    0.66
  -3  -9  11   21.23    1.23
   3  -9 -11   20.54    1.39
   3  -9 -11   21.55    1.35
   3  -9 -11   22.29    1.39
  -3   9  11   21.21    1.26
   3   9 -11   19.65    1.14
  -3   9  11   21.60    1.43
   2  -9 -11    4.91    0.84
  -2  -9  11    3.93    0.68
   2  -9 -11    3.93    0.67
  -2   9  11    4.70    0.80
  -2   9  11    5.01    0.73
   2   9 -11    4.66    0.59
   1  -9 -11   13.56    1.08
   1  -9 -11   14.58    1.15
  -1   9  11   14.61    1.20
  -1   9  11   15.62    1.18
  -1   9  11   15.41    0.99
   0  -9 -11   52.03    2.36
   0  -9 -11   56.32    2.33
   0   9  11   51.99    2.37
   0   9  11   54.59    2.39
  -1  -9 -11   11.27    1.06
  -1  -9 -11   12.62    1.04
  -1  -9 -11   13.62    1.06
   1   9  11   12.04    0.90
   1   9  11   13.66    1.16
   1   9  11   13.38    1.14
  -2  -9 -11   22.33    1.40
  -2  -9 -11   21.23    1.31
   2   9  11   22.31    1.17
   2   9  11   22.22    1.39
   2   9  11   20.51    1.37
   3 -10 -11    2.67    0.67
   3  10 -11    2.91    0.53
   2 -10 -11    6.11    0.92
  -2 -10  11    4.80    0.72
   2 -10 -11    3.86    0.78
  -2  10  11    6.07    0.85
  -2  10  11    4.44    0.81
   2  10 -11    5.26    0.64
   1 -10 -11   31.34    1.64
   1 -10 -11   28.14    1.64
  -1 -10  11   27.39    1.36
  -1  10  11   28.44    1.69
  -1  10  11   33.15    1.73
  -1  10  11   33.13    1.52
   0 -10 -11    6.20    0.90
   0 -10 -11    4.80    0.82
   0  10  11    6.90    1.04
   0  10  11    4.65    0.82
  -6   0  12   83.46    3.19
   6   0 -12   82.72    3.20
  -6   0  12   82.54    3.29
   6   0 -12   73.53    3.21
  -5   0  12   30.44    1.66
   5   0 -12   26.09    1.37
   5   0 -12   24.73    1.39
  -5   0  12   28.31    1.48
   4   0 -12   51.19    2.12
   4   0 -12   53.77    2.10
  -4   0  12   48.07    2.12
  -3   0  12  189.31    6.61
   3   0 -12  185.27    6.54
  -3   0  12  192.05    6.61
   3   0 -12  192.72    6.61
   2   0 -12    0.14    0.32
  -2   0  12    0.46    0.37
  -2   0  12   -0.06    0.40
   1   0 -12   76.86    2.71
  -1   0  12   75.91    2.86
  -1   0  12   73.46    2.73
   0   0  12   -0.06    0.43
   1   0  12   71.37    2.80
   2   0  12    6.43    0.87
   3   0  12    3.72    0.70
   4   0  12    5.36    0.97
  -6  -1  12    4.94    0.85
   6  -1 -12    5.93    0.86
   6  -1 -12    4.75    0.83
  -6   1  12    6.19    0.82
   6   1 -12    4.00    0.72
  -6   1  12    7.66    0.97
   6   1 -12    5.28    0.86
   5  -1 -12    6.42    0.80
   5  -1 -12    7.41    0.82
  -5  -1  12    5.99    0.85
  -5   1  12    6.84    0.86
  -5   1  12    6.97    0.73
   5   1 -12    6.12    0.81
   5   1 -12    5.63    0.78
   4  -1 -12   56.42    2.22
   4  -1 -12   53.37    2.26
  -4  -1  12   54.44    2.29
   4   1 -12   54.00    2.26
  -4   1  12   56.21    2.31
   4   1 -12   60.05    2.23
  -4   1  12   56.08    2.31
   3  -1 -12   11.35    0.75
   3  -1 -12   12.68    0.79
  -3  -1  12    9.95    0.80
  -3   1  12   10.03    0.88
   3   1 -12    9.58    0.72
   3   1 -12    9.32    0.76
  -3   1  12    9.62    0.80
  -2  -1  12   21.43    1.19
   2  -1 -12   24.93    1.13
  -2  -1  12   22.13    1.09
   2  -1 -12   22.75    1.07
   2   1 -12   25.23    1.09
   2   1 -12   23.35    1.05
  -2   1  12   24.26    1.14
  -2   1  12   25.35    1.24
   1  -1 -12   80.25    2.88
   1  -1 -12   79.70    2.91
  -1  -1  12   78.71    3.02
  -1   1  12   83.07    3.07
  -1   1  12   81.29    2.93
   0  -1  12   10.59    0.89
   0  -1 -12   10.53    0.66
   0   1  12   11.76    0.89
   0   1  12   11.09    0.69
   1  -1  12   20.68    1.18
   1   1  12   18.92    1.17
   2  -1  12   15.83    1.15
   2   1  12   17.35    1.15
   3  -1  12   21.50    1.39
   3   1  12   24.24    1.41
   4  -1  12   10.97    1.15
   4   1  12   12.98    1.17
  -6  -2  12    6.60    0.98
   6  -2 -12    7.42    0.95
   6  -2 -12    9.18    0.98
   6   2 -12    7.34    0.88
  -6   2  12    7.74    0.86
   6   2 -12    7.93    0.88
  -6   2  12    7.41    1.01
   5  -2 -12    5.31    0.79
  -5  -2  12    4.34    0.79
   5  -2 -12    2.97    0.62
   5   2 -12    3.92    0.64
  -5   2  12    3.75    0.57
  -5   2  12    3.84    0.71
   5   2 -12    2.94    0.59
  -4  -2  12   34.42    1.61
   4  -2 -12   33.15    1.58
   4  -2 -12   35.15    1.54
  -4   2  12   34.41    1.48
   4   2 -12   36.83    1.54
  -4   2  12   32.01    1.60
   4   2 -12   33.21    1.56
  -3  -2  12    9.92    0.79
   3  -2 -12   10.90    0.80
   3  -2 -12   11.37    0.79
  -3   2  12   10.66    0.88
  -3   2  12   11.97    0.85
   3   2 -12    9.66    0.74
   3   2 -12   11.46    0.75
   2  -2 -12   29.75    1.32
  -2  -2  12   29.05    1.28
   2  -2 -12   31.49    1.30
  -2   2  12   30.50    1.44
  -2   2  12   26.05    1.31
   2   2 -12   29.01    1.26
   1  -2 -12    3.82    0.53
  -1  -2  12    2.93    0.54
   1  -2 -12    3.65    0.53
  -1   2  12    3.02    0.55
  -1   2  12    3.22    0.55
   0  -2 -12   30.15    1.31
   0  -2  12   30.99    1.50
   0  -2 -12   32.24    1.34
   0   2  12   32.39    1.52
   0   2  12   32.18    1.37
   1  -2  12   59.57    2.45
  -1  -2 -12   61.56    2.28
   1   2  12   59.56    2.47
   1   2  12   61.37    2.30
  -2  -2 -12   30.85    1.38
   2  -2  12   29.01    1.59
   2   2  12   33.36    1.39
   2   2  12   32.00    1.60
   3  -2  12   81.84    3.31
  -3  -2 -12   83.56    3.10
   3   2  12   84.61    3.09
   3   2  12   84.35    3.32
  -4  -2 -12    3.61    0.60
   4  -2  12    4.14    0.80
   4   2  12    3.49    0.76
   4   2  12    4.14    0.66
  -6  -3  12    2.59    0.75
   6  -3 -12    3.10    0.70
   6  -3 -12    2.74    0.69
  -6   3  12    2.84    0.61
   6   3 -12    1.86    0.60
   6   3 -12    2.30    0.64
  -6   3  12    1.85    0.67
  -5  -3  12    5.71    0.83
   5  -3 -12    4.20    0.71
   5  -3 -12    5.37    0.76
  -5   3  12    5.36    0.73
   5   3 -12    4.23    0.72
   5   3 -12    5.56    0.77
  -5   3  12    5.98    0.87
   4  -3 -12   47.48    1.96
  -4  -3  12   47.19    1.98
   4  -3 -12   41.41    1.97
  -4   3  12   48.42    1.90
   4   3 -12   42.73    1.93
  -4   3  12   48.64    2.05
   4   3 -12   48.01    1.91
   3  -3 -12    4.31    0.67
  -3  -3  12    3.73    0.56
   3  -3 -12    3.42    0.54
  -3   3  12    3.87    0.68
   3   3 -12    3.81    0.56
   3   3 -12    3.45    0.56
  -3   3  12    3.34    0.53
  -2  -3  12    2.70    0.44
   2  -3 -12    2.85    0.49
   2  -3 -12    2.63    0.48
  -2   3  12    3.59    0.63
  -2   3  12    3.35    0.59
   1  -3 -12    9.75    0.71
   1  -3 -12    8.26    0.68
  -1   3  12   10.18    0.89
  -1   3  12   10.24    0.77
   0  -3  12   28.00    1.40
   0  -3 -12   27.83    1.27
   0  -3 -12   29.80    1.27
   0   3  12   28.78    1.44
   0   3  12   27.67    1.30
   1  -3  12    9.43    0.93
  -1  -3 -12   11.64    0.75
  -1  -3 -12    9.56    0.73
   1   3  12    9.13    0.91
   1   3  12   10.56    0.78
  -2  -3 -12    6.61    0.70
   2  -3  12    5.88    0.91
   2   3  12    7.25    0.91
   2   3  12    7.27    0.72
  -3  -3 -12    9.45    0.82
   3  -3  12    9.30    1.06
   3   3  12    9.01    1.01
   3   3  12    8.45    0.76
  -4  -3 -12   17.43    1.11
   4  -3  12   16.90    1.37
   4   3  12   17.35    1.31
   4   3  12   16.33    1.06
   6  -4 -12    5.76    0.97
  -6  -4  12    6.58    0.95
   6  -4 -12    7.21    0.91
  -6   4  12    6.10    0.87
  -6   4  12    6.32    0.96
   6   4 -12    5.13    0.86
   6   4 -12    6.28    0.87
   5  -4 -12   32.74    1.58
  -5  -4  12   28.03    1.56
   5  -4 -12   25.76    1.55
  -5   4  12   30.13    1.62
   5   4 -12   30.19    1.53
   5   4 -12   31.08    1.50
  -5   4  12   32.76    1.51
   4  -4 -12    4.66    0.78
   4  -4 -12    4.75    0.75
  -4  -4  12    4.40    0.75
  -4   4  12    5.37    0.83
   4   4 -12    5.38    0.68
   4   4 -12    4.83    0.70
  -4   4  12    5.63    0.69
   3  -4 -12   29.21    1.46
  -3  -4  12   30.75    1.41
   3  -4 -12   29.26    1.42
   3   4 -12   29.11    1.37
  -3   4  12   28.79    1.48
  -3   4  12   32.40    1.36
   3   4 -12   30.47    1.34
   2  -4 -12   20.50    1.07
   2  -4 -12   19.37    1.09
  -2  -4  12   19.22    0.99
  -2   4  12   20.28    1.21
  -2   4  12   18.95    1.11
   1  -4 -12    8.98    0.76
   1  -4 -12    9.81    0.79
  -1   4  12   10.15    0.81
  -1   4  12    8.95    0.90
   0  -4 -12   56.80    2.22
   0  -4 -12   58.43    2.20
   0   4  12   53.69    2.34
   0   4  12   56.76    2.26
   1  -4  12    1.14    0.57
  -1  -4 -12    1.66    0.46
  -1  -4 -12    0.92    0.44
   1   4  12    0.97    0.56
   1   4  12    1.24    0.49
   2  -4  12   15.36    1.18
  -2  -4 -12   15.55    0.99
   2   4  12   16.32    1.01
   2   4  12   15.35    1.13
   3  -4  12    6.57    1.07
  -3  -4 -12    8.53    0.82
   3   4  12    7.05    1.01
   3   4  12    9.04    0.82
   4  -4  12    6.44    1.09
  -4  -4 -12    6.00    0.86
   4   4  12    7.06    0.83
   4   4  12    7.56    1.08
   6  -5 -12   16.85    1.29
  -6  -5  12   18.79    1.38
   6  -5 -12   15.18    1.34
  -6   5  12   19.52    1.25
   6   5 -12   19.18    1.25
  -6   5  12   20.16    1.40
   6   5 -12   17.80    1.24
   5  -5 -12   44.63    2.26
   5  -5 -12   47.62    2.22
  -5  -5  12   50.08    2.27
  -5   5  12   50.32    2.31
   5   5 -12   49.98    2.22
   5   5 -12   59.13    2.22
  -5   5  12   54.41    2.18
  -4  -5  12   47.55    2.09
   4  -5 -12   46.55    2.07
   4  -5 -12   42.72    2.09
  -4   5  12   53.11    2.05
   4   5 -12   48.57    2.01
   4   5 -12   46.64    2.04
  -4   5  12   52.20    2.17
  -3  -5  12   39.62    1.74
   3  -5 -12   41.56    1.78
   3  -5 -12   36.61    1.77
  -3   5  12   37.16    1.80
   3   5 -12   40.96    1.71
  -3   5  12   43.00    1.71
  -2  -5  12   67.88    2.75
   2  -5 -12   74.11    2.88
   2  -5 -12   76.12    2.84
  -2   5  12   76.46    2.98
  -2   5  12   77.33    2.85
  -2   5  12   75.75    2.91
   1  -5 -12   32.78    1.48
   1  -5 -12   33.62    1.51
  -1   5  12   29.48    1.51
  -1   5  12   32.66    1.60
   0  -5 -12   80.61    3.04
   0  -5 -12   80.85    2.99
   0   5  12   81.21    3.07
   0   5  12   77.35    3.13
  -1  -5 -12   17.17    1.00
   1  -5  12   13.42    1.11
  -1  -5 -12   13.84    0.99
   1   5  12   16.11    1.14
   1   5  12   15.07    1.00
   2  -5  12   19.48    1.35
  -2  -5 -12   21.03    1.15
  -2  -5 -12   20.47    1.18
   2   5  12   20.45    1.32
   2   5  12   23.85    1.23
   3  -5  12   10.77    1.18
  -3  -5 -12   13.28    1.02
   3   5  12   14.77    1.20
   3   5  12   15.92    1.03
   5  -6 -12   11.41    1.13
   5  -6 -12   12.32    1.11
  -5  -6  12   13.73    1.13
  -5   6  12   12.29    1.16
   5   6 -12   12.55    1.01
  -5   6  12   13.49    1.04
   5   6 -12   13.63    0.99
   4  -6 -12    2.88    0.64
   4  -6 -12    2.35    0.62
  -4  -6  12    2.31    0.60
   4   6 -12    2.37    0.53
  -4   6  12    2.98    0.56
  -4   6  12    2.62    0.64
   4   6 -12    2.53    0.53
   3  -6 -12   25.03    1.31
  -3  -6  12   23.07    1.25
   3  -6 -12   21.55    1.31
  -3   6  12   26.14    1.25
  -3   6  12   24.95    1.38
   3   6 -12   24.13    1.21
  -2  -6  12    1.67    0.42
   2  -6 -12    1.97    0.52
   2  -6 -12    1.65    0.54
  -2   6  12    1.39    0.62
  -2   6  12    1.75    0.59
  -2   6  12    2.83    0.49
   1  -6 -12   38.38    1.66
   1  -6 -12   37.80    1.69
  -1   6  12   34.80    1.72
  -1   6  12   35.33    1.77
   0  -6 -12   44.68    1.85
   0  -6 -12   42.51    1.87
   0   6  12   41.38    1.90
   0   6  12   42.57    1.97
   1  -6  12   17.33    1.26
  -1  -6 -12   20.61    1.18
  -1  -6 -12   18.68    1.12
   1   6  12   20.67    1.29
   1   6  12   18.83    1.19
   2  -6  12    8.47    1.04
  -2  -6 -12    9.41    0.89
  -2  -6 -12   10.30    0.87
  -2  -6 -12    8.21    0.85
   2   6  12    9.17    1.04
   2   6  12    8.55    0.90
  -3  -6 -12    0.90    0.54
   3   6  12    2.09    0.57
   3   6  12    1.68    0.69
   5  -7 -12    6.76    1.05
   5  -7 -12    9.77    1.06
  -5  -7  12    8.65    1.01
   5   7 -12    7.65    0.90
  -5   7  12   10.22    0.99
   5   7 -12    9.01    0.89
  -5   7  12   10.17    1.13
   4  -7 -12   11.03    1.03
   4  -7 -12   10.21    1.05
  -4  -7  12    9.84    0.96
   4   7 -12   10.44    0.89
  -4   7  12   12.04    0.94
  -4   7  12   10.61    1.06
  -3  -7  12   17.09    1.06
   3  -7 -12   14.72    1.14
   3  -7 -12   18.24    1.15
   3   7 -12   15.65    0.96
  -3   7  12   17.79    1.05
  -3   7  12   17.89    1.23
   2  -7 -12    5.34    0.79
   2  -7 -12    6.40    0.79
  -2  -7  12    6.33    0.66
  -2   7  12    6.18    0.87
   2   7 -12    6.57    0.63
  -2   7  12    6.75    0.94
  -2   7  12    7.34    0.74
   1  -7 -12   53.81    2.28
   1  -7 -12   53.15    2.23
  -1   7  12   53.15    2.35
  -1   7  12   55.59    2.35
   0  -7 -12   20.24    1.17
   0  -7 -12   19.03    1.18
   0   7  12   18.24    1.27
   0   7  12   18.96    1.21
  -1  -7 -12   23.91    1.30
  -1  -7 -12   23.35    1.33
   1   7  12   23.77    1.44
   1   7  12   23.83    1.37
  -2  -7 -12   79.39    3.02
  -2  -7 -12   75.49    3.06
  -2  -7 -12   77.82    3.08
   2   7  12   78.88    3.11
   2   7  12   75.72    3.13
  -4  -8  12    5.99    0.87
   4  -8 -12    4.34    0.81
   4  -8 -12    6.25    0.96
   4   8 -12    7.26    0.79
  -4   8  12    6.39    1.01
  -4   8  12    6.64    0.83
  -3  -8  12    2.87    0.58
   3  -8 -12    4.17    0.75
   3  -8 -12    4.27    0.74
  -3   8  12    4.48    0.76
   3   8 -12    4.04    0.66
  -3   8  12    4.83    0.76
   2  -8 -12    1.15    0.56
   2  -8 -12    0.90    0.54
  -2  -8  12    1.84    0.48
  -2   8  12    2.10    0.52
  -2   8  12    2.11    0.71
   2   8 -12    2.44    0.45
  -2   8  12    2.48    0.65
   1  -8 -12   10.81    0.98
   1  -8 -12   12.92    1.02
  -1   8  12   12.71    1.15
  -1   8  12   11.36    1.09
   0  -8 -12   22.56    1.28
   0  -8 -12   21.96    1.31
   0   8  12   21.02    1.39
   0   8  12   21.99    1.37
  -1  -8 -12    7.41    0.91
  -1  -8 -12    5.87    0.89
   1   8  12    6.67    1.00
   1   8  12    7.35    0.74
   1   8  12    7.85    0.97
  -2  -8 -12    3.80    0.70
  -2  -8 -12    3.47    0.71
   2   8  12    4.11    0.76
   2   8  12    2.79    0.66
   3  -9 -12    1.85    0.67
  -3  -9  12    3.06    0.61
   3  -9 -12    2.20    0.68
  -3   9  12    2.21    0.75
  -3   9  12    2.99    0.62
   3   9 -12    2.80    0.52
   2  -9 -12   38.99    1.91
   2  -9 -12   37.41    1.92
  -2  -9  12   37.07    1.69
   2   9 -12   39.94    1.67
  -2   9  12   39.22    1.99
  -2   9  12   40.66    1.80
  -2   9  12   37.54    1.96
   1  -9 -12    1.37    0.61
   1  -9 -12    0.89    0.62
  -1   9  12    1.64    0.69
  -1   9  12    1.27    0.65
   0  -9 -12   14.87    1.12
   0  -9 -12   13.10    1.13
   0   9  12   13.59    1.17
   0   9  12   12.02    1.21
  -1  -9 -12    8.55    0.94
  -1  -9 -12    9.37    1.00
  -1  -9 -12    8.94    0.95
   1   9  12    6.81    0.78
   1   9  12    6.14    1.03
   1   9  12    8.37    1.03
  -6   0  13   63.70    2.66
   6   0 -13   55.10    2.55
   6   0 -13   61.79    2.56
  -5   0  13   20.07    1.26
   5   0 -13   19.09    1.19
   5   0 -13   18.19    1.14
   4   0 -13   39.76    1.67
   4   0 -13   35.32    1.69
  -4   0  13   38.80    1.74
   3   0 -13    0.33    0.38
  -3   0  13    0.73    0.47
  -3   0  13    0.07    0.40
   3   0 -13    0.07    0.32
   2   0 -13   78.79    2.77
  -2   0  13   76.82    2.82
   2   0 -13   74.93    2.81
  -2   0  13   74.12    2.91
  -1   0  13   59.87    2.28
   1   0 -13   60.68    2.27
  -1   0  13   62.51    2.45
   0   0  13   35.24    1.66
   1   0  13   62.77    2.57
   2   0  13   17.54    1.23
   3   0  13  131.25    4.91
   4   0  13    2.71    0.74
   6  -1 -13   -0.28    0.55
   6  -1 -13   -0.37    0.54
  -6  -1  13   -0.63    0.58
  -6   1  13    0.09    0.58
   6   1 -13   -0.20    0.51
   6   1 -13   -0.56    0.53
  -5  -1  13    8.07    0.93
   5  -1 -13    7.94    0.85
   5  -1 -13    7.32    0.84
  -5   1  13    9.56    0.93
   5   1 -13    7.03    0.83
   5   1 -13    9.04    0.87
   4  -1 -13    1.57    0.55
  -4  -1  13    0.33    0.51
   4  -1 -13    1.61    0.46
   4   1 -13    0.72    0.47
  -4   1  13    1.09    0.51
  -4   1  13    0.82    0.51
   4   1 -13    0.30    0.46
  -3  -1  13    1.71    0.44
   3  -1 -13    1.06    0.42
   3  -1 -13    1.43    0.45
  -3   1  13    1.58    0.48
  -3   1  13    1.98    0.55
   3   1 -13    2.18    0.41
   3   1 -13    1.88    0.42
   2  -1 -13    4.05    0.54
   2  -1 -13    5.30    0.60
  -2  -1  13    3.56    0.57
  -2  -1  13    2.57    0.48
  -2   1  13    3.16    0.57
  -2   1  13    3.50    0.60
   2   1 -13    3.44    0.51
  -1  -1  13    4.74    0.74
   1  -1 -13    4.50    0.54
  -1   1  13    4.58    0.75
  -1   1  13    4.96    0.59
   0  -1  13    1.58    0.52
   0   1  13    0.60    0.49
   0   1  13    1.33    0.38
   1  -1  13    8.58    0.93
   1   1  13    8.09    0.91
   2  -1  13   18.68    1.25
   2   1  13   17.18    1.24
   3  -1  13    5.72    1.00
   3   1  13    3.49    0.79
   6  -2 -13   16.30    1.21
   6  -2 -13   15.53    1.24
  -6  -2  13   17.08    1.30
   6   2 -13   13.89    1.16
  -6   2  13   16.17    1.29
   6   2 -13   17.77    1.19
   5  -2 -13    4.76    0.84
  -5  -2  13    4.78    0.84
   5  -2 -13    5.55    0.82
   5   2 -13    7.61    0.83
   5   2 -13    5.16    0.76
  -5   2  13    5.76    0.90
   4  -2 -13   26.19    1.31
   4  -2 -13   22.20    1.32
  -4  -2  13   25.19    1.35
   4   2 -13   27.48    1.30
   4   2 -13   25.89    1.32
  -4   2  13   25.40    1.38
  -3  -2  13   13.85    0.92
   3  -2 -13   15.33    0.96
   3  -2 -13   15.33    0.92
  -3   2  13   13.89    0.98
   3   2 -13   14.44    0.91
  -3   2  13   15.12    1.07
   3   2 -13   15.92    0.90
  -2  -2  13   21.71    1.09
   2  -2 -13   24.60    1.14
   2  -2 -13   21.69    1.13
  -2   2  13   24.56    1.29
   2   2 -13   24.02    1.09
  -2   2  13   23.42    1.20
   1  -2 -13   17.06    0.91
   1  -2 -13   17.13    0.92
  -1  -2  13   16.19    1.05
  -1   2  13   17.91    1.13
  -1   2  13   17.16    0.97
   0  -2  13   22.24    1.27
   0  -2 -13   24.92    1.11
   0   2  13   22.62    1.13
   0   2  13   21.67    1.30
  -1  -2 -13   15.35    0.87
   1  -2  13   13.39    1.08
   1   2  13   14.38    1.11
   1   2  13   14.92    0.88
   2  -2  13   13.62    1.14
   2   2  13   14.02    0.87
   2   2  13   11.18    1.07
  -3  -2 -13    6.53    0.74
   3  -2  13    6.69    1.02
   3   2  13    6.88    1.02
   6  -3 -13    3.91    0.73
   6  -3 -13    2.72    0.67
  -6  -3  13    3.51    0.79
   6   3 -13    3.04    0.66
  -6   3  13    3.26    0.75
  -6   3  13    2.94    0.66
   6   3 -13    3.09    0.69
  -5  -3  13   45.38    2.05
   5  -3 -13   37.99    2.01
   5  -3 -13   42.89    1.98
  -5   3  13   48.97    2.17
   5   3 -13   42.88    1.99
  -5   3  13   48.98    2.12
   5   3 -13   46.46    1.96
  -4  -3  13    3.02    0.59
   4  -3 -13    4.21    0.69
   4  -3 -13    3.21    0.62
   4   3 -13    3.19    0.57
   4   3 -13    2.81    0.56
  -4   3  13    3.39    0.64
   3  -3 -13   32.57    1.46
  -3  -3  13   30.53    1.42
   3  -3 -13   30.22    1.46
  -3   3  13   32.53    1.52
  -3   3  13   28.30    1.56
   3   3 -13   31.65    1.52
   3   3 -13   29.90    1.39
   2  -3 -13   31.35    1.37
   2  -3 -13   29.34    1.39
  -2  -3  13   27.88    1.30
  -2   3  13   30.23    1.41
  -2   3  13   32.11    1.54
   2   3 -13   27.57    1.28
   1  -3 -13   48.03    1.95
   1  -3 -13   50.55    1.93
  -1   3  13   48.37    2.10
  -1   3  13   47.18    1.98
   0  -3 -13   20.67    1.03
   0  -3 -13   19.93    1.05
   0  -3  13   19.03    1.21
   0   3  13   19.59    1.08
   0   3  13   20.65    1.25
   1  -3  13   15.37    1.20
  -1  -3 -13   17.99    0.99
   1   3  13   17.94    1.21
   1   3  13   20.28    1.05
   2  -3  13   39.79    1.96
  -2  -3 -13   39.92    1.76
   2   3  13   42.60    1.98
   2   3  13   43.36    1.78
  -3  -3 -13    2.13    0.53
   3  -3  13    2.70    0.74
   3   3  13    2.66    0.56
   3   3  13    2.69    0.70
   6  -4 -13   -0.65    0.52
  -6  -4  13   -1.17    0.58
   6  -4 -13   -0.07    0.59
  -6   4  13    0.18    0.50
   6   4 -13   -1.02    0.57
   6   4 -13   -0.44    0.53
   5  -4 -13    5.38    0.91
  -5  -4  13    7.22    0.94
   5  -4 -13    7.82    0.94
  -5   4  13    7.07    0.80
   5   4 -13    6.17    0.85
  -5   4  13   10.46    1.05
   5   4 -13    5.78    0.83
  -4  -4  13   35.99    1.69
   4  -4 -13   31.56    1.67
   4  -4 -13   35.44    1.67
  -4   4  13   37.74    1.77
   4   4 -13   35.20    1.65
   4   4 -13   37.87    1.61
   3  -4 -13    2.82    0.56
   3  -4 -13    4.15    0.62
  -3  -4  13    3.54    0.56
   3   4 -13    2.21    0.47
  -3   4  13    3.93    0.67
  -3   4  13    2.36    0.56
   2  -4 -13   17.46    1.04
  -2  -4  13   16.28    0.93
   2  -4 -13   17.77    1.04
  -2   4  13   18.18    1.19
  -2   4  13   17.55    1.07
   1  -4 -13   13.59    0.87
   1  -4 -13   12.85    0.90
  -1   4  13   11.30    0.92
  -1   4  13   14.07    1.07
   0  -4 -13   29.11    1.39
   0  -4 -13   30.30    1.37
   0   4  13   30.60    1.44
   0   4  13   27.87    1.54
  -1  -4 -13   27.35    1.35
   1  -4  13   26.01    1.49
   1   4  13   27.02    1.50
   1   4  13   29.42    1.38
   2  -4  13    5.86    1.00
  -2  -4 -13    7.70    0.79
   2   4  13    7.49    0.81
   2   4  13    6.90    0.95
   3  -4  13   16.40    1.38
  -3  -4 -13   17.53    1.12
   3   4  13   18.89    1.11
   3   4  13   18.87    1.35
   5  -5 -13   18.11    1.28
   5  -5 -13   15.75    1.27
  -5  -5  13   21.54    1.35
   5   5 -13   18.18    1.21
   5   5 -13   20.96    1.22
  -5   5  13   20.37    1.20
  -5   5  13   18.49    1.34
  -4  -5  13    6.44    0.86
   4  -5 -13    8.58    0.91
   4  -5 -13    6.50    0.87
  -4   5  13    9.39    0.96
   4   5 -13    6.53    0.87
  -4   5  13    7.16    0.79
   4   5 -13    7.18    0.79
   3  -5 -13   21.23    1.32
  -3  -5  13   26.35    1.31
   3  -5 -13   27.19    1.36
   3   5 -13   26.19    1.27
  -3   5  13   26.94    1.42
   2  -5 -13   22.22    1.27
  -2  -5  13   22.57    1.16
   2  -5 -13   26.62    1.30
  -2   5  13   25.97    1.37
  -2   5  13   26.38    1.45
   1  -5 -13   33.33    1.48
   1  -5 -13   31.33    1.51
  -1   5  13   30.68    1.54
  -1   5  13   31.46    1.63
   0  -5 -13   52.17    2.04
   0  -5 -13   49.43    2.06
   0   5  13   46.42    2.07
   0   5  13   47.65    2.18
   1  -5  13    7.08    1.00
  -1  -5 -13    7.55    0.80
  -1  -5 -13    8.00    0.81
   1   5  13    7.90    0.84
   1   5  13    9.12    0.98
   2  -5  13   22.89    1.54
  -2  -5 -13   26.43    1.39
   2   5  13   28.12    1.56
   2   5  13   29.54    1.42
   3  -5  13   -0.09    0.61
  -3  -5 -13    0.85    0.53
   3   5  13    0.73    0.50
   3   5  13    0.24    0.61
   5  -6 -13   10.03    1.10
   5  -6 -13    9.15    1.05
  -5  -6  13   10.08    1.08
   5   6 -13    9.51    0.97
   5   6 -13    9.92    0.95
  -5   6  13    9.65    0.96
  -5   6  13   10.17    1.12
   4  -6 -13   11.25    1.09
   4  -6 -13   12.95    1.07
  -4  -6  13   12.96    1.03
   4   6 -13   12.34    0.95
  -4   6  13   14.94    1.15
  -4   6  13   14.42    0.99
   3  -6 -13   20.02    1.19
   3  -6 -13   15.87    1.14
  -3  -6  13   17.12    1.08
  -3   6  13   18.97    1.23
   3   6 -13   19.44    1.07
   2  -6 -13    1.86    0.55
   2  -6 -13    2.39    0.57
  -2   6  13    2.82    0.67
  -2   6  13    3.15    0.65
   1  -6 -13    5.70    0.75
   1  -6 -13    3.61    0.62
  -1   6  13    4.24    0.73
  -1   6  13    3.38    0.66
   0  -6 -13   27.18    1.32
   0  -6 -13   23.72    1.31
   0   6  13   24.24    1.46
   0   6  13   25.05    1.38
  -1  -6 -13   36.73    1.76
  -1  -6 -13   38.25    1.72
   1   6  13   38.97    1.88
   1   6  13   36.85    1.78
  -2  -6 -13    2.67    0.57
   2  -6  13    3.50    0.73
  -2  -6 -13    2.74    0.58
  -2  -6 -13    4.06    1.03
   2   6  13    2.47    0.63
   2   6  13    3.18    0.74
   4  -7 -13    8.15    1.02
  -4  -7  13    7.87    0.93
   4  -7 -13    9.28    1.04
  -4   7  13    9.11    1.08
   4   7 -13    9.97    0.89
  -4   7  13    9.74    0.90
   3  -7 -13   27.50    1.56
   3  -7 -13   27.83    1.51
  -3  -7  13   27.94    1.43
   3   7 -13   27.74    1.38
  -3   7  13   31.50    1.64
   2  -7 -13    1.35    0.56
   2  -7 -13    1.66    0.56
  -2   7  13    1.41    0.61
  -2   7  13    1.43    0.64
   1  -7 -13   11.49    0.98
   1  -7 -13   12.51    0.93
  -1   7  13   10.61    1.09
  -1   7  13   11.45    1.04
   0  -7 -13    0.46    0.52
   0  -7 -13    0.49    0.49
   0   7  13    0.11    0.53
   0   7  13    1.43    0.45
   0   7  13   -0.17    0.60
  -1  -7 -13    7.94    0.87
  -1  -7 -13    9.21    0.94
   1   7  13    7.48    1.06
   1   7  13    9.47    1.00
  -2  -7 -13    1.45    0.59
  -2  -7 -13    1.61    0.54
  -2  -7 -13    1.48    0.59
   2   7  13    2.46    0.63
   2   7  13    1.68    0.72
   3  -8 -13    5.87    0.93
   3  -8 -13    5.52    0.98
  -3  -8  13    7.32    0.82
   3   8 -13    6.15    0.70
  -3   8  13    6.62    1.00
   2  -8 -13   40.27    1.88
   2  -8 -13   35.72    1.89
  -2   8  13   39.71    1.98
  -2   8  13   39.66    2.00
   1  -8 -13    7.58    0.93
   1  -8 -13    9.01    0.94
  -1   8  13    9.23    1.04
  -1   8  13    8.13    1.08
   0  -8 -13   14.12    1.11
   0  -8 -13   16.08    1.17
   0   8  13   17.30    1.24
   0   8  13   15.66    1.30
   0   8  13   17.00    1.01
  -1  -8 -13   19.94    1.30
  -1  -8 -13   18.98    1.26
   1   8  13   21.76    1.36
   1   8  13   17.78    1.41
   1  -9 -13   38.65    1.85
   1  -9 -13   34.72    1.87
  -1   9  13   36.21    1.93
  -6   0  14    9.69    1.11
   6   0 -14    8.14    0.99
   6   0 -14    5.64    0.93
   5   0 -14    0.49    0.44
   5   0 -14    0.59    0.53
  -5   0  14    0.66    0.55
   4   0 -14    7.95    0.79
   4   0 -14    8.54    0.81
  -4   0  14    8.72    0.89
   3   0 -14   21.87    1.15
  -3   0  14   21.36    1.23
  -3   0  14   20.07    1.18
   3   0 -14   23.15    1.13
  -2   0  14   -0.52    0.38
  -2   0  14    0.17    0.46
   2   0 -14   -0.32    0.34
  -1   0  14    0.50    0.37
  -1   0  14    0.99    0.53
   0   0  14    3.60    0.68
   1   0  14    0.20    0.57
   2   0  14    3.12    0.71
   3   0  14    0.41    0.66
   6  -1 -14   18.49    1.36
   6  -1 -14   20.03    1.36
  -6  -1  14   20.95    1.42
  -6   1  14   22.32    1.48
   6   1 -14   21.55    1.35
   6   1 -14   20.37    1.33
  -5  -1  14    1.96    0.60
   5  -1 -14    0.33    0.57
   5  -1 -14    1.74    0.59
   5   1 -14    1.04    0.50
   5   1 -14    1.77    0.54
  -5   1  14    1.62    0.65
   4  -1 -14   31.45    1.61
  -4  -1  14   36.25    1.66
   4  -1 -14   37.85    1.61
  -4   1  14   33.57    1.66
   4   1 -14   33.90    1.58
   4   1 -14   34.46    1.62
  -4   1  14   33.60    1.68
   3  -1 -14   35.54    1.49
   3  -1 -14   30.67    1.49
  -3  -1  14   31.91    1.50
  -3   1  14   32.92    1.59
  -3   1  14   31.09    1.52
   3   1 -14   33.14    1.47
   3   1 -14   31.05    1.47
   2  -1 -14   21.28    1.09
   2  -1 -14   22.28    1.12
  -2  -1  14   22.94    1.25
  -2  -1  14   20.92    1.09
  -2   1  14   21.11    1.14
   2   1 -14   21.92    1.06
  -2   1  14   23.15    1.26
  -1  -1  14   22.60    1.25
  -1   1  14   22.22    1.12
  -1   1  14   21.80    1.31
   0  -1  14   11.80    1.01
   0   1  14   11.57    1.02
   0   1  14   12.99    0.82
   1  -1  14   33.05    1.66
   1   1  14   30.52    1.63
   2  -1  14   17.98    1.30
   2   1  14   19.20    1.32
   3  -1  14    2.23    0.72
   3   1  14    0.52    0.66
   5  -2 -14   35.79    1.73
  -5  -2  14   38.80    1.81
   5  -2 -14   31.39    1.74
  -5   2  14   37.65    1.85
   5   2 -14   39.45    1.73
   5   2 -14   33.95    1.73
  -4  -2  14   28.47    1.49
   4  -2 -14   30.51    1.47
   4  -2 -14   26.14    1.47
   4   2 -14   30.51    1.50
  -4   2  14   30.54    1.58
  -4   2  14   30.82    1.54
   4   2 -14   32.66    1.45
  -3  -2  14   29.73    1.39
   3  -2 -14   31.84    1.41
   3  -2 -14   28.48    1.41
   3   2 -14   28.02    1.37
  -3   2  14   29.85    1.54
  -3   2  14   26.77    1.43
   2  -2 -14  111.97    4.17
   2  -2 -14  122.22    4.14
  -2  -2  14  113.16    4.12
  -2   2  14  118.20    4.20
  -2   2  14  112.79    4.29
  -1  -2  14    7.27    0.87
   1  -2 -14    8.13    0.72
  -1   2  14    8.47    0.92
  -1   2  14    7.17    0.74
   0  -2 -14  114.27    4.02
   0  -2  14  109.63    4.17
   0   2  14  111.29    4.04
   0   2  14  114.69    4.21
   1  -2  14   27.46    1.57
   1   2  14   28.69    1.57
   1   2  14   29.80    1.34
  -2  -2 -14   70.76    2.72
   2  -2  14   71.56    2.97
   2   2  14   72.67    2.96
   3  -2  14   31.16    1.75
   3   2  14   31.30    1.75
  -5  -3  14    1.62    0.64
   5  -3 -14    2.16    0.60
   5  -3 -14    1.28    0.58
   5   3 -14    2.77    0.63
   5   3 -14    1.62    0.55
  -5   3  14    0.40    0.55
  -4  -3  14   20.09    1.24
   4  -3 -14   22.86    1.26
   4  -3 -14   18.90    1.23
  -4   3  14   22.30    1.36
   4   3 -14   23.53    1.21
  -4   3  14   20.44    1.30
   4   3 -14   21.57    1.22
  -3  -3  14   13.33    0.94
   3  -3 -14   14.44    0.99
   3  -3 -14   16.36    1.01
  -3   3  14   13.35    1.03
  -3   3  14   15.44    1.15
   3   3 -14   14.58    0.94
   2  -3 -14   17.01    1.06
  -2  -3  14   16.92    0.97
   2  -3 -14   18.99    1.07
  -2   3  14   20.30    1.25
  -2   3  14   19.62    1.11
   1  -3 -14   60.18    2.29
   1  -3 -14   59.31    2.33
  -1   3  14   58.66    2.48
  -1   3  14   57.27    2.35
   0  -3  14    2.47    0.61
   0  -3 -14    2.48    0.47
   0   3  14    2.24    0.52
   0   3  14    3.23    0.68
  -1  -3 -14   56.06    2.29
   1  -3  14   54.73    2.48
   1   3  14   58.79    2.51
   1   3  14   62.87    2.33
   2  -3  14    0.00    0.62
  -2  -3 -14    0.09    0.47
   2   3  14    0.93    0.61
   2   3  14    0.84    0.48
   3  -3  14   18.73    1.42
   3   3  14   15.72    1.35
   3   3  14   19.42    1.11
   5  -4 -14   41.19    1.97
  -5  -4  14   42.63    2.00
   5  -4 -14   33.73    1.95
   5   4 -14   42.47    1.95
  -5   4  14   42.46    2.07
   5   4 -14   48.01    1.93
   4  -4 -14   20.24    1.22
   4  -4 -14   16.89    1.23
  -4  -4  14   19.74    1.21
   4   4 -14   20.89    1.18
  -4   4  14   21.31    1.32
   3  -4 -14    2.01    0.56
   3  -4 -14    1.05    0.48
  -3  -4  14    2.23    0.53
  -3   4  14    1.83    0.64
  -3   4  14    1.83    0.59
   3   4 -14    1.52    0.48
   2  -4 -14   25.84    1.29
   2  -4 -14   24.23    1.31
  -2   4  14   25.55    1.45
  -2   4  14   25.75    1.36
   1  -4 -14   -0.35    0.43
   1  -4 -14    0.05    0.39
  -1   4  14   -0.25    0.45
  -1   4  14    0.23    0.53
   0  -4  14   27.97    1.53
   0  -4 -14   29.53    1.42
   0   4  14   31.16    1.47
   0   4  14   28.49    1.58
   1  -4  14    3.91    0.76
  -1  -4 -14    5.38    0.73
   1   4  14    5.14    0.93
   1   4  14    4.87    0.74
  -2  -4 -14   13.47    0.99
   2  -4  14   11.70    1.22
   2   4  14   15.77    1.03
   2   4  14   14.19    1.23
  -5  -5  14    6.67    0.96
   5  -5 -14    6.48    1.01
   5  -5 -14    6.45    0.98
   5   5 -14    8.07    0.93
   5   5 -14    7.62    0.89
  -5   5  14    6.62    1.01
   4  -5 -14    3.16    0.68
  -4  -5  14    4.24    0.69
   4  -5 -14    2.79    0.67
  -4   5  14    4.24    0.77
   4   5 -14    3.37    0.61
   3  -5 -14   35.30    1.64
  -3  -5  14   33.14    1.55
   3  -5 -14   32.18    1.64
   3   5 -14   32.89    1.54
  -3   5  14   31.59    1.74
  -3   5  14   35.79    1.72
   2  -5 -14    4.72    0.76
   2  -5 -14    4.35    0.74
  -2   5  14    2.66    0.68
  -2   5  14    4.71    0.79
   1  -5 -14   15.15    1.03
   1  -5 -14   15.60    1.01
  -1   5  14   14.87    1.18
  -1   5  14   13.81    1.08
   0  -5 -14    3.95    0.70
   0  -5 -14    3.21    0.59
   0   5  14    3.22    0.65
   0   5  14    3.14    0.70
  -1  -5 -14   15.42    1.02
   1  -5  14   12.79    1.20
   1   5  14   14.92    1.07
   1   5  14   13.88    1.19
  -2  -5 -14   10.70    0.91
  -2  -5 -14   10.19    0.94
   2  -5  14    9.64    1.17
   2   5  14   11.09    0.96
   2   5  14    9.56    1.11
  -4  -6  14    7.30    0.89
   4  -6 -14    6.17    0.97
   4  -6 -14    6.67    0.98
  -4   6  14    5.51    1.00
   4   6 -14    6.76    0.80
   3  -6 -14   12.33    1.04
  -3  -6  14   12.31    0.94
   3  -6 -14   11.12    1.03
  -3   6  14   12.02    1.15
   3   6 -14   12.46    0.89
  -3   6  14   11.51    1.08
   2  -6 -14   14.51    1.06
   2  -6 -14   12.64    1.05
  -2   6  14   15.98    1.15
  -2   6  14   13.33    1.19
   1  -6 -14    8.63    0.85
   1  -6 -14    8.36    0.89
  -1   6  14    7.13    1.01
  -1   6  14    8.64    0.96
   0  -6 -14    8.01    0.84
   0  -6 -14    8.02    0.84
   0   6  14    8.12    1.07
   0   6  14    7.54    0.92
  -1  -6 -14    7.30    0.89
   1  -6  14    6.03    1.05
  -1  -6 -14    8.17    0.88
   1   6  14    6.95    0.90
   1   6  14    6.07    1.02
   3  -7 -14   45.77    2.15
   3  -7 -14   44.02    2.19
  -3  -7  14   46.35    2.04
  -3   7  14   52.95    2.30
  -3   7  14   46.85    2.30
   3   7 -14   51.76    2.06
   2  -7 -14    2.53    0.64
   2  -7 -14    3.47    0.71
  -2   7  14    1.96    0.69
  -2   7  14    3.11    0.75
   1  -7 -14   99.90    3.62
   1  -7 -14   87.57    3.62
  -1   7  14   93.82    3.67
  -1   7  14   93.34    3.74
   0  -7 -14   10.96    0.98
   0  -7 -14   10.52    1.01
   0   7  14   10.99    1.06
   0   7  14    9.09    1.13
  -1  -7 -14   51.09    2.27
   2  -8 -14    2.38    0.67
   2  -8 -14    4.00    0.74
   1  -8 -14   11.24    1.10
   1  -8 -14   13.96    1.19
  -1   8  14   15.82    1.34
  -1   8  14   16.58    1.26
   5   0 -15    6.26    0.86
  -5   0  15    7.41    0.94
   5   0 -15    6.13    0.84
   4   0 -15   12.25    0.95
  -4   0  15   13.57    1.03
   4   0 -15   11.81    0.97
  -3   0  15   10.29    0.96
  -3   0  15   11.21    0.89
   3   0 -15    9.17    0.83
  -2   0  15   22.70    1.17
  -2   0  15   20.95    1.30
   2   0 -15   23.76    1.17
  -1   0  15    0.57    0.54
  -1   0  15    1.63    0.42
   0   0  15   50.37    2.23
   1   0  15   12.49    1.12
   2   0  15    0.78    0.67
  -5  -1  15    5.88    0.88
   5  -1 -15    4.38    0.71
   5  -1 -15    3.66    0.71
   5   1 -15    4.44    0.79
  -5   1  15    5.74    0.94
   5   1 -15    6.09    0.80
   4  -1 -15    0.34    0.50
  -4  -1  15    0.18    0.52
   4  -1 -15    0.87    0.48
   4   1 -15    0.66    0.42
  -4   1  15    0.88    0.58
   4   1 -15    0.11    0.49
  -4   1  15    1.43    0.58
  -3  -1  15    4.09    0.69
   3  -1 -15    3.50    0.59
   3  -1 -15    2.88    0.53
  -3   1  15    3.02    0.56
  -3   1  15    2.38    0.61
   3   1 -15    2.86    0.50
  -2  -1  15   14.97    1.08
   2  -1 -15   13.19    0.88
  -2  -1  15   12.52    0.89
  -2   1  15   14.23    1.08
  -2   1  15   14.66    0.96
   2   1 -15   14.93    0.90
   1  -1 -15    5.25    0.64
  -1  -1  15    4.38    0.72
  -1   1  15    4.90    0.67
  -1   1  15    5.41    0.88
   0  -1  15   32.51    1.71
   0   1  15   34.32    1.49
   0   1  15   35.35    1.74
   1  -1  15    8.51    1.02
   1   1  15    7.56    1.01
   2  -1  15    4.58    0.82
   2   1  15    2.87    0.75
   5  -2 -15    1.69    0.61
   5  -2 -15    0.39    0.54
  -5  -2  15    1.86    0.63
  -5   2  15    1.04    0.63
   5   2 -15    0.97    0.52
  -5   2  15    1.29    0.62
   5   2 -15    0.64    0.51
  -4  -2  15    6.03    0.80
   4  -2 -15    5.61    0.75
   4  -2 -15    5.37    0.80
  -4   2  15    4.47    0.81
   4   2 -15    5.53    0.73
  -4   2  15    3.71    0.73
  -3  -2  15    7.84    0.76
   3  -2 -15    7.19    0.78
   3  -2 -15    7.68    0.81
  -3   2  15    7.22    0.94
  -3   2  15    8.35    0.87
   3   2 -15    6.80    0.71
  -2  -2  15    6.74    0.69
   2  -2 -15    6.92    0.75
  -2   2  15    7.88    0.78
  -2   2  15    7.29    0.92
   1  -2 -15   10.87    0.80
  -1  -2  15    8.49    0.98
  -1   2  15   11.10    1.04
  -1   2  15    9.40    0.81
   0  -2  15   23.41    1.44
   0  -2 -15   24.65    1.22
   0   2  15   28.38    1.30
   0   2  15   23.74    1.45
   1  -2  15    2.92    0.74
   1   2  15    4.39    0.68
   1   2  15    5.27    0.96
   2  -2  15   13.16    1.27
   2   2  15   16.05    1.29
   2   2  15   16.05    0.99
   5  -3 -15    0.39    0.58
   5  -3 -15    2.03    0.60
  -5  -3  15    0.96    0.57
   5   3 -15    0.43    0.52
   5   3 -15    0.45    0.53
  -5   3  15    0.73    0.60
  -5   3  15    0.81    0.67
   4  -3 -15   20.43    1.32
   4  -3 -15   25.16    1.34
  -4  -3  15   21.79    1.29
   4   3 -15   23.59    1.29
  -4   3  15   22.54    1.45
  -4   3  15   24.02    1.41
  -3  -3  15   19.64    1.13
   3  -3 -15   19.35    1.20
   3  -3 -15   21.53    1.20
   3   3 -15   20.90    1.12
  -3   3  15   20.70    1.24
  -3   3  15   20.10    1.33
  -2  -3  15    7.70    0.69
   2  -3 -15    8.43    0.81
   2  -3 -15    8.76    0.79
  -2   3  15    8.44    0.99
  -2   3  15    7.35    0.82
  -1  -3  15    7.30    0.92
   1  -3 -15    7.47    0.78
  -1   3  15    7.68    0.82
  -1   3  15    6.52    0.97
   0  -3  15   13.19    1.14
   0  -3 -15   15.46    0.97
   0   3  15   14.60    1.00
   0   3  15   14.28    1.18
   1  -3  15   27.24    1.65
  -1  -3 -15   31.85    1.44
   1   3  15   28.42    1.63
   1   3  15   27.80    1.40
   2  -3  15    5.80    1.05
  -2  -3 -15    5.34    0.76
   2   3  15    5.65    1.05
   2   3  15    6.93    0.80
   4  -4 -15    9.11    0.97
   4  -4 -15   11.36    1.02
  -4  -4  15    9.18    0.94
  -4   4  15    8.70    1.00
  -4   4  15   11.81    1.15
   4   4 -15   10.65    0.93
   3  -4 -15    1.37    0.55
   3  -4 -15    1.61    0.55
  -3  -4  15    1.00    0.49
  -3   4  15    2.02    0.59
  -3   4  15    0.88    0.61
   3   4 -15    0.67    0.50
   2  -4 -15   10.51    0.88
   2  -4 -15    9.99    0.91
  -2   4  15    9.48    1.07
  -2   4  15   10.86    0.93
   1  -4 -15   24.43    1.28
   1  -4 -15   23.18    1.31
  -1   4  15   22.80    1.44
  -1   4  15   22.66    1.30
   0  -4 -15   24.00    1.27
   0   4  15   22.70    1.46
   0   4  15   23.54    1.28
  -1  -4 -15    2.82    0.57
   1  -4  15    2.60    0.73
   1   4  15    2.02    0.72
   1   4  15    2.29    0.60
   4  -5 -15    1.02    0.61
  -4  -5  15    1.83    0.58
   4  -5 -15    2.00    0.64
  -4   5  15    1.52    0.64
   4   5 -15    1.70    0.57
  -4   5  15    2.77    0.73
   3  -5 -15    9.68    0.96
   3  -5 -15    9.82    0.99
  -3  -5  15   10.54    0.87
   3   5 -15   10.45    0.84
  -3   5  15   11.50    1.04
  -3   5  15   10.93    1.12
   2  -5 -15    2.36    0.56
   2  -5 -15    1.80    0.57
  -2   5  15    2.35    0.62
  -2   5  15    2.04    0.69
   1  -5 -15    9.43    0.89
  -1   5  15   10.46    0.98
  -1   5  15   10.45    1.11
   0  -5 -15    3.21    0.57
   0   5  15    1.88    0.60
   0   5  15    2.27    0.74
  -1  -5 -15    7.02    0.88
   1  -5  15    4.01    0.88
   1   5  15    8.01    0.90
   1   5  15    7.45    1.06
  -3  -6  15    2.92    0.56
   3  -6 -15    2.38    0.64
   3  -6 -15    2.69    0.68
  -3   6  15    2.66    0.71
  -3   6  15    2.49    0.75
   3   6 -15    2.17    0.51
   2  -6 -15   13.11    1.05
   2  -6 -15   13.48    1.09
  -2   6  15   13.77    1.13
  -2   6  15   13.45    1.23
   1  -6 -15   10.02    1.00
   1  -6 -15   10.80    0.93
  -1   6  15   10.69    1.04
  -1   6  15    9.54    1.12
   0  -6 -15    6.78    0.86
   0  -6 -15    4.99    0.75
   0   6  15    7.35    1.08
   0   6  15    6.74    0.91
  -4   0  16    6.51    0.90
   4   0 -16    8.44    1.21
  -4   0  16    7.63    0.95
   4   0 -16    7.03    0.88
  -3   0  16   -0.90    0.48
   3   0 -16   -0.56    0.44
  -3   0  16    0.56    0.54
  -2   0  16   11.05    1.06
   2   0 -16   10.56    0.83
  -2   0  16   11.96    0.89
  -1   0  16   40.56    1.68
  -1   0  16   37.25    1.88
   0   0  16    0.58    0.60
   1   0  16   16.79    1.31
   4  -1 -16   15.05    1.05
  -4  -1  16   14.96    1.10
   4  -1 -16   15.74    1.11
  -4   1  16   14.08    1.19
   4   1 -16   14.55    1.08
  -4   1  16   17.49    1.17
   3  -1 -16   42.60    1.95
  -3  -1  16   47.43    1.95
  -3  -1  16   45.55    2.03
   3   1 -16   43.41    1.91
  -3   1  16   48.05    2.01
  -3   1  16   43.52    2.06
  -2  -1  16    5.32    0.88
   2  -1 -16    6.29    0.72
  -2  -1  16    4.67    0.69
  -2   1  16    5.62    0.76
  -2   1  16    8.15    0.96
   2   1 -16    6.44    0.71
  -1  -1  16   65.57    2.81
   1  -1 -16   68.80    2.64
  -1   1  16   73.23    2.67
  -1   1  16   68.19    2.84
   0  -1  16   33.15    1.79
   0   1  16   38.45    1.86
   1   1  16   14.66    1.25
   4  -2 -16    9.07    0.95
   4  -2 -16   13.96    1.03
  -4  -2  16   10.27    0.97
  -4   2  16   12.22    1.11
   4   2 -16   10.16    0.92
  -4   2  16   10.65    1.02
   3  -2 -16   22.86    1.32
   3  -2 -16   20.83    1.22
  -3  -2  16   19.17    1.18
  -3   2  16   21.44    1.38
  -3   2  16   20.99    1.26
   3   2 -16   20.02    1.16
  -2  -2  16   24.51    1.23
   2  -2 -16   23.15    1.28
  -2   2  16   27.25    1.50
   2   2 -16   25.72    1.22
  -2   2  16   24.86    1.32
   1  -2 -16    8.38    0.80
  -1  -2  16    8.98    1.02
  -1   2  16    8.24    1.04
  -1   2  16    9.43    0.84
   0  -2  16   37.80    1.94
   0  -2 -16   39.31    1.71
   0   2  16   38.35    1.96
   0   2  16   42.48    1.76
   1  -2  16    2.71    0.73
   1   2  16    3.04    0.76
   4  -3 -16    1.77    0.58
  -4  -3  16    3.79    0.67
   4  -3 -16    2.62    0.63
   4   3 -16    3.05    0.62
  -4   3  16    4.12    0.76
  -4   3  16    3.33    0.76
   3  -3 -16    1.68    0.56
   3  -3 -16    1.74    0.58
  -3  -3  16    1.09    0.48
  -3   3  16    2.55    0.68
  -3   3  16    2.01    0.60
   3   3 -16    1.48    0.48
  -2  -3  16   20.65    1.11
   2  -3 -16   21.44    1.22
  -2   3  16   23.05    1.44
  -2   3  16   22.43    1.29
   1  -3 -16    6.23    0.74
  -1  -3  16    4.16    0.75
  -1   3  16    5.23    0.98
  -1   3  16    6.13    0.80
   0  -3 -16   10.59    0.87
   0  -3  16    6.69    1.06
   0   3  16   11.68    1.13
   0   3  16   10.23    0.89
  -1  -3 -16   12.47    0.96
   1  -3  16   10.40    1.19
   1   3  16   13.06    0.98
   1   3  16   12.63    1.22
   3  -4 -16    7.69    0.90
   3  -4 -16    7.73    0.91
  -3  -4  16    5.99    0.75
  -3   4  16    8.05    1.03
   3   4 -16    7.30    0.75
  -3   4  16    7.11    0.92
   2  -4 -16   39.20    1.88
   2  -4 -16   43.36    1.89
  -2   4  16   41.97    1.94
  -2   4  16   42.87    2.05
   1  -4 -16    7.33    0.85
  -1   4  16    7.02    0.88
  -1   4  16    7.05    1.02
   0  -4  16   34.75    1.92
   0  -4 -16   40.17    1.79
   0   4  16   40.80    1.83
   0   4  16   40.24    2.00
   2  -5 -16    2.36    0.62
   2  -5 -16    3.22    0.63
  -2   5  16    2.19    0.64
  -2   5  16    2.45    0.73
   1  -5 -16   18.17    1.22
  -1   5  16   18.65    1.39
  -1   5  16   20.64    1.30
  -3   0  17   38.89    1.76
   3   0 -17   37.75    1.75
  -3   0  17   37.47    1.88
   2   0 -17    2.04    0.49
  -2   0  17    1.95    0.52
  -2   0  17    1.77    0.64
  -1   0  17    0.83    0.61
   0   0  17    0.98    0.66
  -3  -1  17   20.76    1.37
   3  -1 -17   21.05    1.23
  -3  -1  17   20.86    1.27
   3   1 -17   21.88    1.25
  -3   1  17   25.24    1.32
  -3   1  17   21.74    1.41
   2  -1 -17    6.23    0.78
  -2  -1  17    6.29    0.98
  -2  -1  17    6.97    0.78
  -2   1  17    7.01    0.81
   2   1 -17    7.69    0.76
  -2   1  17    6.15    0.99
  -1  -1  17   22.33    1.41
   1  -1 -17   21.95    1.17
  -1   1  17   22.58    1.21
  -1   1  17   20.75    1.40
   3  -2 -17    0.69    0.54
   3   2 -17    0.17    0.45
  -2  -2  17   -0.43    0.39
   2  -2 -17    0.66    0.48
  -2  -2  17   -1.14    0.55
  -2   2  17    0.50    0.50
  -2   2  17    0.27    0.58
   1  -2 -17   17.71    1.09
  -1  -2  17   14.12    1.25
  -1   2  17   19.64    1.13
  -1   2  17   17.35    1.29
   0   0   0    0.00    0.00
;
_shelx_hkl_checksum              5108
loop_
_space_group_symop_operation_xyz
'x, y, z'
'-x, y+1/2, -z'
loop_
_atom_site_label
_atom_site_type_symbol
_atom_site_fract_x
_atom_site_fract_y
_atom_site_fract_z
_atom_site_U_iso_or_equiv
_atom_site_adp_type
_atom_site_occupancy
_atom_site_site_symmetry_order
_atom_site_calc_flag
_atom_site_refinement_flags_posn
_atom_site_refinement_flags_adp
_atom_site_refinement_flags_occupancy
_atom_site_disorder_assembly
_atom_site_disorder_group
Cl1 Cl 0.72078(7) 0.64899(4) 0.02895(4) 0.01883(9) Uani 1 1 d . . . . .
Cl2 Cl 0.27068(9) 0.57643(5) -0.10802(4) 0.02274(10) Uani 1 1 d . . . . .
Cl3 Cl 0.29282(7) 0.77686(4) 0.06687(4) 0.01814(9) Uani 1 1 d . . . . .
S1 S 0.69694(7) 0.30397(3) 0.49454(3) 0.01223(8) Uani 1 1 d . . . . .
O1 O 0.5168(2) 0.22318(13) 0.54003(11) 0.0173(2) Uani 1 1 d . . . . .
N1 N 0.0173(3) 0.34800(18) 0.27630(15) 0.0226(3) Uani 1 1 d . . . . .
N2 N 0.5786(3) 0.43629(14) 0.41714(12) 0.0136(3) Uani 1 1 d . . . . .
H2 H 0.525(4) 0.511(3) 0.445(2) 0.021(6) Uiso 1 1 d . . . . .
C1 C 0.2152(3) 0.37089(17) 0.28856(15) 0.0154(3) Uani 1 1 d . . . . .
C2 C 0.4709(3) 0.40579(16) 0.30259(14) 0.0130(3) Uani 1 1 d . . . . .
H2A H 0.547(4) 0.323(2) 0.279(2) 0.017(6) Uiso 1 1 d . . . . .
C3 C 0.5032(3) 0.52922(17) 0.22806(15) 0.0131(3) Uani 1 1 d . . . . .
H3A H 0.4337 0.6134 0.2540 0.016 Uiso 1 1 calc R U . . .
H3B H 0.6735 0.5463 0.2338 0.016 Uiso 1 1 calc R U . . .
C4 C 0.3863(3) 0.50195(16) 0.10771(14) 0.0140(3) Uani 1 1 d . . . . .
H4A H 0.4528 0.4158 0.0834 0.017 Uiso 1 1 calc R U . . .
H4B H 0.2157 0.4865 0.1027 0.017 Uiso 1 1 calc R U . . .
C5 C 0.4173(3) 0.61885(16) 0.02918(14) 0.0138(3) Uani 1 1 d . . . . .
C6 C 0.8640(3) 0.40299(16) 0.61325(14) 0.0128(3) Uani 1 1 d . . . . .
C7 C 1.0206(3) 0.50907(19) 0.57188(16) 0.0190(3) Uani 1 1 d . . . . .
H7A H 1.1093 0.4633 0.5229 0.029 Uiso 1 1 calc R U . . .
H7B H 1.1307 0.5494 0.6349 0.029 Uiso 1 1 calc R U . . .
H7C H 0.9222 0.5825 0.5313 0.029 Uiso 1 1 calc R U . . .
C8 C 0.6936(3) 0.47117(18) 0.67642(16) 0.0164(3) Uani 1 1 d . . . . .
H8A H 0.6042 0.5440 0.6308 0.025 Uiso 1 1 calc R U . . .
H8B H 0.7831 0.5118 0.7450 0.025 Uiso 1 1 calc R U . . .
H8C H 0.5845 0.4013 0.6939 0.025 Uiso 1 1 calc R U . . .
C9 C 1.0156(3) 0.29146(18) 0.68318(15) 0.0171(3) Uani 1 1 d . . . . .
H9A H 0.9134 0.2181 0.7014 0.026 Uiso 1 1 calc R U . . .
H9B H 1.1046 0.3333 0.7514 0.026 Uiso 1 1 calc R U . . .
H9C H 1.1254 0.2519 0.6413 0.026 Uiso 1 1 calc R U . . .
loop_
_atom_site_aniso_label
_atom_site_aniso_U_11
_atom_site_aniso_U_22
_atom_site_aniso_U_33
_atom_site_aniso_U_23
_atom_site_aniso_U_13
_atom_site_aniso_U_12
Cl1 0.01653(18) 0.01875(18) 0.0224(2) 0.00439(15) 0.00685(15) 0.00079(14)
Cl2 0.0301(2) 0.0223(2) 0.0132(2) 0.00029(15) -0.00139(16) -0.00134(16)
Cl3 0.02220(19) 0.01186(17) 0.0214(2) 0.00233(14) 0.00695(16) 0.00357(14)
S1 0.01594(17) 0.00710(15) 0.01311(18) 0.00075(13) 0.00184(14) 0.00089(12)
O1 0.0204(6) 0.0112(5) 0.0195(6) 0.0024(4) 0.0026(5) -0.0049(4)
N1 0.0209(8) 0.0234(7) 0.0240(9) 0.0004(6) 0.0056(7) -0.0020(6)
N2 0.0199(7) 0.0076(5) 0.0123(7) 0.0007(5) 0.0010(5) 0.0025(5)
C1 0.0204(8) 0.0114(7) 0.0145(8) 0.0011(6) 0.0038(6) 0.0002(6)
C2 0.0156(7) 0.0097(6) 0.0133(7) -0.0004(6) 0.0025(6) 0.0004(5)
C3 0.0157(7) 0.0103(6) 0.0127(8) 0.0007(5) 0.0019(6) -0.0012(5)
C4 0.0177(7) 0.0104(7) 0.0135(8) -0.0002(6) 0.0022(6) -0.0020(6)
C5 0.0151(7) 0.0119(7) 0.0139(8) -0.0007(5) 0.0016(6) 0.0003(5)
C6 0.0144(7) 0.0101(6) 0.0130(7) 0.0007(6) 0.0009(6) -0.0005(5)
C7 0.0186(8) 0.0178(8) 0.0197(9) 0.0028(6) 0.0019(7) -0.0064(6)
C8 0.0183(8) 0.0148(7) 0.0160(8) -0.0017(6) 0.0034(6) 0.0013(6)
C9 0.0178(7) 0.0144(7) 0.0175(8) 0.0019(6) 0.0002(6) 0.0017(6)
loop_
_atom_type_symbol
_atom_type_description
_atom_type_scat_dispersion_real
_atom_type_scat_dispersion_imag
_atom_type_scat_source
C C 0.0033 0.0016 'International Tables Vol C Tables 4.2.6.8 and 6.1.1.4'
H H 0.0000 0.0000 'International Tables Vol C Tables 4.2.6.8 and 6.1.1.4'
Cl Cl 0.1484 0.1585 'International Tables Vol C Tables 4.2.6.8 and 6.1.1.4'
N N 0.0061 0.0033 'International Tables Vol C Tables 4.2.6.8 and 6.1.1.4'
O O 0.0106 0.0060 'International Tables Vol C Tables 4.2.6.8 and 6.1.1.4'
S S 0.1246 0.1234 'International Tables Vol C Tables 4.2.6.8 and 6.1.1.4'
loop_
_geom_angle_atom_site_label_1
_geom_angle_atom_site_label_2
_geom_angle_atom_site_label_3
_geom_angle
_geom_angle_site_symmetry_1
_geom_angle_site_symmetry_3
_geom_angle_publ_flag
O1 S1 N2 112.32(7) . . ?
O1 S1 C6 105.02(7) . . ?
N2 S1 C6 98.43(7) . . ?
C2 N2 S1 116.71(11) . . ?
C2 N2 H2 115.3(16) . . ?
S1 N2 H2 122.9(16) . . ?
N1 C1 C2 177.90(18) . . ?
N2 C2 C1 111.78(14) . . ?
N2 C2 C3 110.27(13) . . ?
C1 C2 C3 110.27(13) . . ?
N2 C2 H2A 108.7(14) . . ?
C1 C2 H2A 106.2(13) . . ?
C3 C2 H2A 109.5(13) . . ?
C4 C3 C2 111.54(13) . . ?
C4 C3 H3A 109.3 . . ?
C2 C3 H3A 109.3 . . ?
C4 C3 H3B 109.3 . . ?
C2 C3 H3B 109.3 . . ?
H3A C3 H3B 108.0 . . ?
C5 C4 C3 114.10(13) . . ?
C5 C4 H4A 108.7 . . ?
C3 C4 H4A 108.7 . . ?
C5 C4 H4B 108.7 . . ?
C3 C4 H4B 108.7 . . ?
H4A C4 H4B 107.6 . . ?
C4 C5 Cl2 110.01(11) . . ?
C4 C5 Cl1 111.71(12) . . ?
Cl2 C5 Cl1 108.03(9) . . ?
C4 C5 Cl3 110.82(11) . . ?
Cl2 C5 Cl3 107.85(9) . . ?
Cl1 C5 Cl3 108.28(9) . . ?
C7 C6 C8 112.14(14) . . ?
C7 C6 C9 110.39(14) . . ?
C8 C6 C9 111.53(14) . . ?
C7 C6 S1 109.21(12) . . ?
C8 C6 S1 109.95(11) . . ?
C9 C6 S1 103.24(11) . . ?
C6 C7 H7A 109.5 . . ?
C6 C7 H7B 109.5 . . ?
H7A C7 H7B 109.5 . . ?
C6 C7 H7C 109.5 . . ?
H7A C7 H7C 109.5 . . ?
H7B C7 H7C 109.5 . . ?
C6 C8 H8A 109.5 . . ?
C6 C8 H8B 109.5 . . ?
H8A C8 H8B 109.5 . . ?
C6 C8 H8C 109.5 . . ?
H8A C8 H8C 109.5 . . ?
H8B C8 H8C 109.5 . . ?
C6 C9 H9A 109.5 . . ?
C6 C9 H9B 109.5 . . ?
H9A C9 H9B 109.5 . . ?
C6 C9 H9C 109.5 . . ?
H9A C9 H9C 109.5 . . ?
H9B C9 H9C 109.5 . . ?
loop_
_geom_bond_atom_site_label_1
_geom_bond_atom_site_label_2
_geom_bond_distance
_geom_bond_site_symmetry_2
_geom_bond_publ_flag
Cl1 C5 1.7860(17) . ?
Cl2 C5 1.7818(18) . ?
Cl3 C5 1.7909(16) . ?
S1 O1 1.5056(12) . ?
S1 N2 1.6572(15) . ?
S1 C6 1.8490(17) . ?
N1 C1 1.148(2) . ?
N2 C2 1.456(2) . ?
N2 H2 0.88(3) . ?
C1 C2 1.496(2) . ?
C2 C3 1.543(2) . ?
C2 H2A 0.99(2) . ?
C3 C4 1.526(2) . ?
C3 H3A 0.9900 . ?
C3 H3B 0.9900 . ?
C4 C5 1.525(2) . ?
C4 H4A 0.9900 . ?
C4 H4B 0.9900 . ?
C6 C7 1.527(2) . ?
C6 C8 1.533(2) . ?
C6 C9 1.537(2) . ?
C7 H7A 0.9800 . ?
C7 H7B 0.9800 . ?
C7 H7C 0.9800 . ?
C8 H8A 0.9800 . ?
C8 H8B 0.9800 . ?
C8 H8C 0.9800 . ?
C9 H9A 0.9800 . ?
C9 H9B 0.9800 . ?
C9 H9C 0.9800 . ?
loop_
_geom_hbond_atom_site_label_D
_geom_hbond_atom_site_label_H
_geom_hbond_atom_site_label_A
_geom_hbond_distance_DH
_geom_hbond_distance_HA
_geom_hbond_distance_DA
_geom_hbond_angle_DHA
_geom_hbond_site_symmetry_A
N2 H2 O1 0.88(3) 2.08(3) 2.8945(18) 154(2) 2_656
loop_
_geom_torsion_atom_site_label_1
_geom_torsion_atom_site_label_2
_geom_torsion_atom_site_label_3
_geom_torsion_atom_site_label_4
_geom_torsion
_geom_torsion_site_symmetry_1
_geom_torsion_site_symmetry_2
_geom_torsion_site_symmetry_3
_geom_torsion_site_symmetry_4
_geom_torsion_publ_flag
O1 S1 N2 C2 -83.06(13) . . . . ?
C6 S1 N2 C2 166.81(12) . . . . ?
S1 N2 C2 C1 90.53(14) . . . . ?
S1 N2 C2 C3 -146.43(12) . . . . ?
N2 C2 C3 C4 -178.47(13) . . . . ?
C1 C2 C3 C4 -54.55(18) . . . . ?
C2 C3 C4 C5 -178.53(13) . . . . ?
C3 C4 C5 Cl2 -179.23(11) . . . . ?
C3 C4 C5 Cl1 60.80(16) . . . . ?
C3 C4 C5 Cl3 -60.05(17) . . . . ?
O1 S1 C6 C7 -169.43(11) . . . . ?
N2 S1 C6 C7 -53.50(12) . . . . ?
O1 S1 C6 C8 -45.99(13) . . . . ?
N2 S1 C6 C8 69.95(12) . . . . ?
O1 S1 C6 C9 73.12(12) . . . . ?
N2 S1 C6 C9 -170.95(11) . . . . ?
