#------------------------------------------------------------------------------
#$Date: 2021-01-25 11:45:52 +0200 (Mon, 25 Jan 2021) $
#$Revision: 261186 $
#$URL: file:///home/coder/svn-repositories/cod/cif/1/56/01/1560194.cif $
#------------------------------------------------------------------------------
#
# This file is available in the Crystallography Open Database (COD),
# http://www.crystallography.net/
#
# All data on this site have been placed in the public domain by the
# contributors.
#
data_1560194
loop_
_publ_author_name
'Owen P. Missen'
'Anthony R. Kampf'
'Stuart J. Mills'
'Robert M. Housley'
'John Spratt'
'Mark D. Welch'
'Mark F. Coolbaugh'
'Joe Marty'
'Marek Chorazewicz'
'Cristiano Ferraris'
_publ_section_title
;
 The crystal structures of the mixed-valence tellurium oxysalts
 tlapallite, (Ca,Pb)3CaCu6[Te4+3Te6+O12]2(Te4+O3)2(SO4)2 . 3H2O, and
 carlfriesite, CaTe4+2Te6+O8
;
_journal_name_full               'Mineralogical Magazine'
_journal_page_first              439
_journal_page_last               549
_journal_paper_doi               10.1180/mgm.2019.9
_journal_volume                  83
_journal_year                    2019
_chemical_formula_moiety         'O16 Te6, 2(Ca)'
_chemical_formula_sum            'Ca O8 Te3'
_chemical_formula_weight         550.88
_chemical_name_common            carlfriesite
_space_group_crystal_system      monoclinic
_space_group_IT_number           15
_space_group_name_Hall           '-I 2ya'
_space_group_name_H-M_alt        'I 1 2/a 1'
_atom_sites_solution_hydrogens   .
_cell_angle_alpha                90
_cell_angle_beta                 111.913(7)
_cell_angle_gamma                90
_cell_formula_units_Z            4
_cell_length_a                   9.9866(7)
_cell_length_b                   5.67205(19)
_cell_length_c                   12.2351(14)
_cell_measurement_reflns_used    500
_cell_measurement_temperature    293(2)
_cell_measurement_theta_max      30.024
_cell_measurement_theta_min      3.590
_cell_volume                     642.98(9)
_computing_structure_refinement  'SHELXL-2018/3 (Sheldrick, 2018)'
_computing_structure_solution    'SHELXT 2014/5 (Sheldrick, 2014)'
_diffrn_ambient_temperature      293(2)
_diffrn_measured_fraction_theta_full 0.998
_diffrn_measured_fraction_theta_max 0.998
_diffrn_measurement_device_type
'three-circle diffractometer, Rigaku R-Axis Rapid II'
_diffrn_radiation_type           MoK\a
_diffrn_radiation_wavelength     0.71075
_diffrn_reflns_av_R_equivalents  0.0384
_diffrn_reflns_av_unetI/netI     0.0299
_diffrn_reflns_Laue_measured_fraction_full 0.998
_diffrn_reflns_Laue_measured_fraction_max 0.998
_diffrn_reflns_limit_h_max       14
_diffrn_reflns_limit_h_min       -11
_diffrn_reflns_limit_k_max       7
_diffrn_reflns_limit_k_min       -7
_diffrn_reflns_limit_l_max       17
_diffrn_reflns_limit_l_min       -17
_diffrn_reflns_number            4142
_diffrn_reflns_point_group_measured_fraction_full 0.998
_diffrn_reflns_point_group_measured_fraction_max 0.998
_diffrn_reflns_theta_full        25.242
_diffrn_reflns_theta_max         30.024
_diffrn_reflns_theta_min         3.590
_diffrn_source                   'fine-focus sealed tube'
_exptl_absorpt_coefficient_mu    14.327
_exptl_absorpt_correction_type   multi-scan
_exptl_absorpt_process_details   'ABSCOR (Higashi, 2001)'
_exptl_crystal_colour            'translucent white'
_exptl_crystal_density_diffrn    5.691
_exptl_crystal_description       blade
_exptl_crystal_F_000             960
_exptl_crystal_size_max          0.140
_exptl_crystal_size_mid          0.070
_exptl_crystal_size_min          0.010
_exptl_transmission_factor_max   0.870
_exptl_transmission_factor_min   0.239
_refine_diff_density_max         2.500
_refine_diff_density_min         -1.074
_refine_diff_density_rms         0.470
_refine_ls_extinction_coef       .
_refine_ls_extinction_method     none
_refine_ls_goodness_of_fit_ref   1.298
_refine_ls_hydrogen_treatment    undef
_refine_ls_matrix_type           full
_refine_ls_number_parameters     57
_refine_ls_number_reflns         928
_refine_ls_number_restraints     0
_refine_ls_restrained_S_all      1.298
_refine_ls_R_factor_all          0.0247
_refine_ls_R_factor_gt           0.0230
_refine_ls_shift/su_max          0.001
_refine_ls_shift/su_mean         0.000
_refine_ls_structure_factor_coef Fsqd
_refine_ls_weighting_details
'w=1/[\s^2^(Fo^2^)+(0.0211P)^2^+1.2698P] where P=(Fo^2^+2Fc^2^)/3'
_refine_ls_weighting_scheme      calc
_refine_ls_wR_factor_gt          0.0528
_refine_ls_wR_factor_ref         0.0538
_reflns_Friedel_coverage         0.000
_reflns_Friedel_fraction_full    .
_reflns_Friedel_fraction_max     .
_reflns_number_gt                874
_reflns_number_total             928
_reflns_threshold_expression     'I > 2\s(I)'
_cod_data_source_file            CIF_carlfriesite_Missen_et_al.cif
_cod_data_source_block           cf
_cod_original_sg_symbol_H-M      'I 2/a'
_cod_database_code               1560194
_shelx_space_group_comment
;
The symmetry employed for this shelxl refinement is uniquely defined
by the following loop, which should always be used as a source of
symmetry information in preference to the above space-group names.
They are only intended as comments.
;
_shelx_estimated_absorpt_t_min   0.239
_shelx_estimated_absorpt_t_max   0.870
_shelx_res_file
;
TITL carlfriesite
    cf.res
    created by SHELXL-2018/3 at 01:33:47 on 07-Nov-2018
CELL  0.71075 9.98658 5.67205 12.23510 90.00000 111.91300 90.00000
ZERR  4 0.00070 0.00019 0.00137 0.00000 0.00660 0.00000
LATT 2
SYMM .50-X,    +Y,    -Z
SFAC CA O TE
UNIT 4 32 12
LIST 4
L.S. 10
omit -4 1 3
omit -5 7 4
CONN 8 3.5 TE2
FMAP 2
PLAN 8
ACTA
SIZE 0.140 0.070 0.010
WGHT    0.021100    1.269800
FVAR       0.38284
TE1   3    0.500000    0.500000    0.500000    10.50000    0.00538    0.00603 =
         0.00688   -0.00051    0.00316   -0.00029
TE2   3    0.857668    0.587698    0.715757    11.00000    0.00721    0.00797 =
         0.00966   -0.00033    0.00298    0.00069
CA    1    0.250000   -0.439892    0.000000    10.50000    0.00993    0.00785 =
         0.00835    0.00000    0.00340    0.00000
O1    2    0.518822    0.258405    0.401871    11.00000    0.01004    0.01001 =
         0.01007   -0.00224    0.00400    0.00009
O2    2    0.696712    0.408525    0.604113    11.00000    0.00691    0.01000 =
         0.00920   -0.00364    0.00123    0.00059
O3    2    0.580656    0.718072    0.419532    11.00000    0.01175    0.00854 =
         0.01203    0.00069    0.00789   -0.00132
O4    2    0.774148    0.896489    0.684974    11.00000    0.01223    0.00696 =
         0.01117    0.00181    0.00737    0.00390
HKLF 4




REM  carlfriesite
REM wR2 = 0.0538, GooF = S = 1.298, Restrained GooF = 1.298 for all data
REM R1 = 0.0230 for 874 Fo > 4sig(Fo) and 0.0247 for all 928 data
REM 57 parameters refined using 0 restraints

END

WGHT      0.0211      1.2698

REM Highest difference peak  2.500,  deepest hole -1.074,  1-sigma level  0.470
Q1    1   0.8644  0.4926  0.7545  11.00000  0.05    2.43
Q2    1   0.8585  0.5088  0.6704  11.00000  0.05    1.62
Q3    1   0.9359  0.6123  0.7523  11.00000  0.05    1.43
Q4    1   0.8643  0.6571  0.7636  11.00000  0.05    1.38
Q5    1   0.8037  0.4971  0.6859  11.00000  0.05    1.16
Q6    1   0.8587  0.6583  0.6607  11.00000  0.05    1.12
Q7    1   0.2500 -0.6150  0.0000  10.50000  0.05    0.78
Q8    1   0.7369  0.9042  0.7582  11.00000  0.05    0.64
;
_shelx_res_checksum              23049
_shelx_hkl_file
;
  -1   0  -1   16.95    3.01
  -1   0  -1   21.80    2.09
   0   0   2  417.21    8.24
   0   0  -2  392.72    9.44
   0   0  -2  389.34    7.68
   0   0   2  389.88   11.63
   0  -1   1 9382.78  290.97
   0   1   110107.03  332.15
   0  -1   1 9357.58  325.31
   0  -1  -110026.05  331.14
   0  -1  -1 8774.53  311.05
   0   1  -110267.71  318.32
   0   1  -1 8820.10  314.27
   0   1   110024.91  344.46
   1   1   0 3711.38   95.22
   1  -1   0 3378.22  109.14
  -1  -1   0 4011.79  102.10
  -1   1   0 3398.34  110.19
   1   1   0 3951.46   99.30
  -1  -1   0 3674.78   94.15
  -2   0   0  292.84    9.01
   2   0   0   82.61   10.59
   2   0  -2  751.78   20.32
  -2   0   2  718.66   20.14
  -1   1   2 2412.57   66.97
   1  -1  -2 2412.82   64.24
  -1  -1   2 2476.01   56.12
  -1  -1   2 2203.26   58.87
   1   1  -2 2444.24   55.35
   1   1  -2 2205.27   59.18
  -1   0   3    9.90    2.49
   1   0  -3   17.45    2.37
   2   1  -1  253.17    6.63
  -2  -1   1  220.33    7.38
   2   1  -1  253.21    6.81
   2  -1  -1  241.42   10.30
   1  -1   2 8629.95  290.84
  -1   1  -2 8341.99  277.32
   1   1   2 8115.24  282.84
  -1   1  -2 7283.30  260.39
  -1  -1  -2 7711.06  267.30
   1  -1   2 8135.47  283.05
   3   0  -1    8.15    3.94
   2   1   140863.02 2174.37
  -2   1  -141026.33 2213.52
   2  -1   138584.01 2081.87
   2  -1   138621.22 2155.17
  -2   1  -137473.83 2118.06
  -2  -1  -141872.65 2245.25
   2   1   142677.85 2130.11
   0   1   3  211.91   11.26
   0  -1   3  188.12    7.77
   0   1  -3  191.06    8.39
   0  -1  -3  212.52    8.72
   0   1  -3  196.49    8.63
  -1   0  -3   14.19    3.14
   1   0   3    8.62    4.61
   1   0   3    8.67    1.42
  -2   1   344822.50 2525.61
   2   1  -346896.69 2631.33
   2   1  -343764.22 2389.39
   2  -1  -345384.57 2566.94
  -2  -1   347286.37 2608.56
   2   0   228589.75 1389.26
  -2   0  -226118.60 1267.77
   2   0   229372.41 1379.08
  -2   0  -229799.86 1453.11
   3   0  -3   16.31    4.07
  -2   0   414456.64  581.99
   2   0  -413903.14  560.31
   0   0  -420856.80  943.91
   0   0  -421947.04  954.81
   0   0   421965.51  991.38
   0   2   015382.86  682.59
   0  -2   017666.55  683.51
   0  -2   016066.86  695.58
   0   2   017706.72  687.21
   3  -1  -2 2915.28   95.94
   3   1  -2 3233.85  101.91
   3   0   1   21.42    2.91
  -3   0  -1    8.47    4.09
   3   0   1    8.20    3.98
   3  -1   0 2016.24   73.14
   3   1   0 2017.42   57.17
   3  -1   0 1902.58   61.97
  -3  -1   0 2050.15   60.65
  -1   2   1 9290.57  318.74
  -1  -2   1 8497.67  300.77
   1  -2  -1 7731.54  306.90
   1  -2  -1 9362.00  323.76
  -1   2   1 7734.83  306.47
   1   2  -1 8064.91  289.49
   1  -1  -4   20.76    4.78
   1   1  -4    4.44    2.69
  -1  -1   4    4.18    2.03
  -1  -1   4    6.76    2.61
   1  -2   1 2575.93   70.65
   1   2   1 2822.93   78.60
  -1  -2  -1 2820.01   81.67
   1   2   1 3092.72   92.17
  -1   2  -1 2919.03  113.20
  -1  -2  -1 2836.06   77.44
   1  -2   1 2660.62   91.06
   0  -2   2  140.65    9.28
   0   2  -2  136.90    9.44
   0   2   2  153.31    6.38
   0  -2  -2  174.18    6.87
   0  -2   2  139.28    3.78
   4   0  -234591.97 1871.90
   1   0  -5    7.06    3.16
   1   0  -5    7.31    2.55
  -1   0   5    6.76    2.98
   2  -2   0    6.26    3.53
   2  -2   0   33.16    6.85
  -2  -2   0   19.08    2.23
  -2  -2   0   15.87    2.61
   2   2   0   11.88    3.19
   2   2  -2 2112.48   48.67
   2   2  -2 2043.07   44.89
  -2   2   2 1868.07   56.00
   2  -2  -2 1839.90   62.31
   2  -2  -2 1911.57   58.72
  -2  -2   2 2056.22   58.51
   2   2  -2 2082.14   60.19
  -3   1   4 2830.19   91.43
  -3  -1   4 2962.25   91.70
   3   1  -4 2965.93   91.68
   3  -1  -4 2855.64  102.98
   3   1  -4 2867.07   84.30
  -1  -2   3 3181.41  102.57
   1   2  -3 3409.36  119.17
   1  -2  -3 3188.12  107.19
   1   2  -3 3775.84   91.71
  -1   2   3 3175.96   98.35
   1  -2  -3 3203.42  104.06
  -1  -2   3 3744.58   91.93
   4   0   0    7.77    7.52
  -4   0   0   10.36    4.87
  -2   1  -3   21.44    3.96
  -2  -1  -3   21.66    7.24
   2   1   3   15.50    4.17
   2  -1   3   33.82    6.29
   2  -1   3   10.33    3.84
  -2   1  -3   11.52    5.14
   3   0  -5   26.82    4.64
  -3   0   5   14.78    4.81
  -1   1  -4 3063.16  102.56
  -1  -1  -4 2935.18   95.27
  -1   1  -4 3115.11   95.50
   1  -1   4 3011.83   98.99
   1  -1   4 2892.67   88.05
  -1  -1  -4 3112.22   74.93
   1   1   4 3061.38   96.76
   4  -1  -1 1981.36   70.05
   4   1  -1 2052.61   63.83
  -4  -1   1 1837.69   62.04
   4   0  -4 5463.34  196.27
   2   1  -5  817.49   26.63
  -2   1   5  887.46   28.75
  -2  -1   5  789.71   23.51
   2  -1  -5  861.71   28.49
   2   1  -5  774.69   21.95
   4   1  -3  183.33   10.57
  -3   1  -2 2021.91   69.70
   3  -1   2 1799.50   59.21
   3   1   2 1574.47   50.28
   3   1   2 1733.87   37.65
  -3  -1  -2 1704.67   55.65
  -3   1  -2 1853.09   57.82
   3  -1   2 1844.24   58.00
   3  -2  -1 6569.62  237.87
   3   2  -1 6365.90  209.19
  -3  -2   1 6117.07  208.69
   3  -2  -1 6389.88  244.02
   3   2  -1 6181.45  198.83
   0   1   5 9168.54  353.06
   0  -1  -5 9521.26  371.03
   0   1  -5 9662.10  361.04
   0   1  -5 9394.64  365.85
   0  -1   5 9960.29  372.04
   0  -1   5 9817.31  364.91
   1  -2   3  725.59   35.38
  -1  -2  -3  762.84   20.45
  -1   2  -3  732.59   37.68
  -1  -2  -3  775.26   25.22
  -1   2  -3  711.16   19.67
   1  -2   3  736.95   20.66
   1   2   3  799.12   29.56
   2   0   4 3691.93  122.61
   2   0   4 3520.15   98.76
  -2   0  -4 3747.12  111.32
  -2   0  -4 3822.88  127.95
   2   2   2 2672.38   72.83
  -2  -2  -2 2658.86   87.63
   2  -2   2 2400.71   73.92
  -2   2  -2 2512.80   77.18
  -2   2  -2 2529.06   96.86
   2  -2   2 2435.30   88.19
   2   2   2 2846.97   83.63
  -2  -2  -2 2650.90   64.36
   3   2  -3   15.25    2.18
  -3   2   3   19.79    4.52
  -3  -2   3    6.30    3.62
   3   2  -3   14.32    2.50
   3   2  -3   15.91    3.86
  -2  -2   412742.74  526.53
   2   2  -411853.89  509.62
  -2  -2   414048.96  536.74
   2  -2  -413052.32  547.22
  -2   2   412863.13  529.57
   2   2  -414702.85  535.70
   3   0   3   17.03    4.52
   3   0   3   11.84    2.30
  -3   0  -3    5.45    5.01
   2   0  -6 8122.36  311.98
  -2   0   6 8347.04  312.24
   1   0   5    4.95    1.99
   1   0   5   14.28    6.07
  -1   0  -5   14.67    3.95
  -1   0  -5    6.58    2.19
   0  -2  -415116.87  668.94
   0  -2   416357.41  654.91
   0  -2   415559.79  674.83
   0   2  -414537.32  645.34
   0   2   414727.24  629.10
   0   2  -418137.37  721.94
   4  -1   1   24.71    7.91
   4  -1   1   36.99    6.88
  -4  -1  -1   51.85    6.96
   4   1   1   39.21    6.08
  -4   1  -1   32.51    6.99
   3   2   1 9740.60  372.65
   3  -2   1 9752.25  392.65
  -3   2  -110816.26  468.75
   3   2   111534.07  397.11
   3  -2   110855.58  462.47
  -3  -2  -110161.53  401.11
   5   0  -1   14.01    6.62
   4   1  -5  566.91   20.64
  -4   1   5  640.80   26.37
   4  -1  -5  615.33   27.01
  -4   0  -230525.33 1645.35
   4   0   233429.53 1777.83
   4   0   233503.22 1744.11
   0   0   6  409.08   17.68
   0   0  -6  411.06   24.13
   0   0  -6  383.46   12.75
   1   1  -6  860.99   32.82
  -1   1   6  755.93   29.36
   1  -1  -6  757.48   38.74
  -1  -1   6  844.90   27.03
   1   1  -6  861.14   34.25
  -1  -1   6  902.21   28.76
   5  -1  -2  827.60   36.10
   5   1  -2  661.04   28.56
   4  -2  -217087.85  807.89
   4  -2  -217311.54  817.36
   4   2  -218877.12  814.67
   4   2  -220028.47  867.64
   0   3   1 1552.40   58.90
   0  -3   1 1366.06   51.96
   0   3   1 1427.51   36.14
   0  -3  -1 1501.16   43.03
   0   3  -1 1357.65   54.06
   0  -3  -1 1520.06   55.04
  -3  -1   6 3274.04  107.38
   3   1  -6 3412.96  114.02
  -3   1   6 3352.76  124.79
   3   1  -6 3118.63  105.36
   3  -1  -6 3328.03  115.72
  -1  -3   0 3710.44  106.20
  -1  -3   0 3808.64  126.85
  -1   3   0 4151.59  160.72
   1  -3   0 3782.73  145.64
   1   3   0 4072.57  143.54
   1   3   0 3700.32  102.45
   1  -3   0 4071.57  124.56
  -1   2   511308.72  467.65
   1   2  -514176.09  530.38
   1  -2  -511952.98  500.97
   1   2  -511606.81  487.42
  -1  -2   513321.65  505.32
  -1  -2   511340.48  471.62
   4   0  -632805.48 1754.16
  -4   0   633394.56 1794.11
   5  -1  -4 2469.39   91.66
   5   1  -4 2309.67   81.29
   5   0  -5    1.02    3.53
   1   3  -2 4791.83  182.86
   1  -3  -2 4582.42  151.60
  -1  -3   2 4624.96  162.71
  -1   3   2 4566.71  147.00
   1  -3  -2 4905.74  186.20
   4   2   0  492.07   17.36
   4  -2   0  488.97   23.29
   4   2   0  480.43   13.06
   4  -2   0  506.62   28.54
  -4  -2   0  488.88   21.06
   3   2  -5  269.86   14.91
  -3  -2   5  250.29   10.49
   3  -2  -5  285.43   16.48
   3   2  -5  247.09    8.37
  -3   2   5  299.20   15.38
  -2  -3   1 4045.19  114.15
  -2  -3   1 4463.89  146.38
   2   3  -1 4304.55  145.56
   2   3  -1 4002.39  108.23
   2  -3  -1 4382.94  144.59
   2  -3  -1 4749.34  181.54
   4   2  -4 1322.78   40.83
  -4   2   4 1448.12   51.66
   4   2  -4 1360.33   45.39
   4   2  -4 1414.45   40.08
   4  -2  -4 1426.60   64.79
   5  -1   0 2949.20  102.85
   5   1   0 2849.46  109.52
   5  -1   0 2908.03  108.54
  -5  -1   0 2884.84  119.50
   5   0   1    5.65   10.76
   5   0   1   12.41    4.57
  -5   0  -1   50.05    7.31
   3   0  -7   17.68    5.51
  -3   0   7   23.43    6.03
   1  -3   222847.17  994.79
  -1   3  -219112.07  969.82
  -1  -3  -219736.27  921.51
  -1  -3  -222032.21 1003.73
   1  -3   218699.80  959.74
   1   3   220450.76  972.95
   1   3   223280.64 1028.85
   1   0  -7    5.99    5.32
   1   0  -7   13.28    3.89
  -1   0   7   26.59    5.14
   2  -1   512772.44  545.69
   2   1   512438.35  536.05
   2  -1   512739.14  521.39
  -2  -1  -515775.44  567.30
  -2  -1  -512216.27  533.32
  -2   1  -512813.88  547.65
  -2   1  -513102.29  570.03
  -3  -1  -4  153.88   13.89
  -3   1  -4  208.56   18.77
  -3   1  -4  200.70   22.15
   3   1   4  153.68   12.57
   3  -1   4  219.16   13.57
  -2   3  -1 2343.17  115.43
   2   3   1 2190.69   79.32
  -2  -3  -1 2075.91   62.68
   2  -3   1 2231.15   66.91
   2  -3   1 2089.98   62.75
   2  -3   1 2196.99   88.46
   2   3   1 2055.19   62.56
  -2  -3  -1 2060.46   60.29
   0  -3   3 2426.73   84.47
   0  -3   3 2263.67   52.65
   0  -3  -3 2048.34   83.09
   0  -3  -3 2059.33   74.45
   0   3   3 2103.50   70.37
   0   3  -3 2373.16   85.76
  -2  -2  -4   11.67    8.38
   2  -2   4   32.67    5.74
  -2   2  -4   11.07    4.18
   2  -2   4   12.12    4.74
   2   2   4   11.92    4.97
  -2   2  -4   17.51    7.24
  -2   3   3 3871.18  129.44
   2   3  -3 4112.98  155.46
   2  -3  -3 3981.75  148.58
  -2  -3   3 4075.19  139.58
   2  -3  -3 3863.89  149.86
  -2   1   7 7538.75  291.50
   2   1  -7 7773.96  292.86
  -2  -1   7 7822.23  302.50
   2  -1  -7 7280.81  285.90
   2   1  -7 7604.73  281.25
   3  -2   310158.31  430.76
  -3  -2  -310338.07  424.06
   3  -2   310111.77  423.31
   3   2   310285.03  409.86
  -3   2  -310558.35  464.25
  -3   2  -310141.92  409.37
  -1  -1  -6 2592.88   91.78
   1  -1   6 2495.30   94.50
   1   1   6 2756.18   94.87
  -1   1  -6 2549.83   85.42
   1  -1   6 2443.96   84.55
  -1   1  -6 2532.98   86.09
  -1  -1  -6 2611.09   68.73
  -2  -2   6  181.71   12.46
   2   2  -6  162.44   12.80
   2  -2  -6  133.35   12.66
  -2   2   6  155.01   12.15
   2   2  -6  165.85    7.30
  -2  -2   6  181.22    8.36
   6   0  -2  166.76   17.64
  -1   2  -5 1864.36   77.55
  -1   2  -5 1888.50   57.57
   1  -2   5 1780.56   56.17
  -1  -2  -5 1786.38   63.75
   1   2   5 1722.20   60.08
   1  -2   5 1841.03   62.67
   4   1   315980.07  714.88
  -4   1  -315340.85  698.28
   4  -1   315797.15  718.43
  -4  -1  -316521.00  752.20
   4  -1   315601.20  716.60
  -3  -3   2 3797.33  133.80
   3  -3  -2 3756.20  150.53
   3  -3  -2 3502.38  137.00
   3  -3  -2 3437.35  133.63
   3   3  -2 3959.14  133.41
   3   3  -2 3839.21  104.90
   6   0  -4  302.84   21.34
   5   2  -310279.32  412.15
   5   2  -3 9820.53  382.27
   5  -2  -3 9054.71  408.18
   3   3   0 2540.03   72.04
  -3  -3   0 2462.33   83.53
   3  -3   0 2655.98   87.89
   3  -3   0 2522.27   93.79
  -3  -3   0 2473.65   73.14
   3   3   0 2461.87   76.17
   3  -3   0 2582.27  119.90
   1   3  -4   13.90    6.32
  -1  -3   4   17.39    5.89
  -1   3   4   20.67    4.39
   1  -3  -4    9.07    4.96
   1  -3  -4   11.45    5.95
   5   2  -1 1035.01   35.73
   5  -2  -1 1076.64   46.60
   5   2  -1 1040.01   29.60
  -5  -2   1  963.43   39.45
   5  -2  -1 1001.67   45.18
  -5   1   6   25.30    7.06
   5  -1  -6   16.48    7.19
   5   1  -6    6.41    5.19
   6  -1  -3  407.92   28.75
   6   1  -3  455.53   25.44
  -4  -2  -2 6544.35  254.47
   4   2   2 7073.44  203.87
   4   2   2 6218.13  231.41
   4  -2   2 6431.01  251.58
   4  -2   2 6824.73  274.07
  -4   2  -2 6116.65  238.53
  -4   1   714210.60  629.17
   4   1  -714317.44  639.08
  -4  -1   713993.04  612.85
   4   1  -713422.87  573.64
   4  -1  -713393.08  601.29
   0  -2  -6 4759.44  187.61
   0   2   6 4753.31  169.48
   0  -2   6 4228.14  150.40
   0   2  -6 4770.99  165.44
   0   2  -6 4647.04  182.99
   0  -2   6 4419.27  158.19
   3   0   5    2.68    4.38
  -3   0  -5    1.70    3.45
   3   0   5    4.45    2.58
  -3   0  -5    7.29    7.59
  -2   0  -615514.25  654.91
   2   0   614689.67  655.35
  -2   0  -614496.77  651.60
   2   0   614129.04  578.10
   0   1   7 2337.44   82.78
   0   1  -7 2339.94   78.61
   0  -1  -7 2297.67   84.16
   0  -1   7 2255.68   77.53
   0   1  -7 2311.56   77.23
   0  -1  -7 2300.70   70.31
   0  -1   7 2314.21   74.93
   6  -1  -126102.54 1407.40
   6   1  -127725.47 1444.47
  -6   0   0 7475.86  312.70
   6   0   0 7931.50  323.13
   4   2  -6 9889.84  401.79
   4  -2  -6 9405.53  417.47
   4   2  -6 9768.88  365.37
  -4   2   6 9692.64  401.30
  -5   0   7    8.26    5.87
   5   0  -7    4.41    8.46
   3  -3  -412051.56  544.56
   3  -3  -412094.94  540.19
  -3   3   412498.51  540.49
   3   3  -416020.99  562.15
  -3  -3   412630.84  546.47
   3   3  -412437.49  546.56
   3   3  -414838.33  528.73
   4   0   4 2902.48   88.92
  -4   0  -4 2884.36  108.72
   4   0   4 2850.87  104.07
  -5   1  -2 2265.86  101.48
   5   1   2 2345.27   85.42
   5  -1   2 2449.52   92.52
   5  -1   2 2625.48   97.03
  -5  -1  -2 2338.52   89.97
   5   1   2 2301.93   71.11
  -2   0   819567.62  933.49
   2   0  -822391.95 1034.04
   2   0  -818295.85  900.00
   6   1  -517891.12  844.06
   6  -1  -518601.26  910.36
   5  -2  -5 6519.95  270.72
   5   2  -5 6977.67  251.88
   5   2  -5 6794.31  258.76
   2   3   3 3701.72  130.97
   2  -3   3 3480.28  140.06
  -2  -3  -3 3669.02  104.55
  -2   3  -3 3733.62  157.96
  -2  -3  -3 3609.19  126.32
   2  -3   3 3448.40  113.44
  -1   0  -7    4.73    2.91
  -1   0  -7    6.73    5.17
   1   0   7   11.33    5.30
   6   0  -6 6225.25  250.21
  -1   3  -4 7868.38  279.78
   1  -3   4 8015.64  285.20
   1  -3   4 7640.92  332.10
   1   3   4 7528.81  285.84
  -1  -3  -4 7811.49  306.77
  -1   3  -4 7853.65  331.11
  -1  -3  -4 8411.04  308.42
   4  -3  -1 2395.76  104.92
   4   3  -1 2718.32   91.33
   4  -3  -1 2411.82   91.11
   4  -3  -1 2492.21   92.32
  -4  -3   1 2522.09   83.95
   4   3  -1 2630.23   76.25
   2   3  -5 4107.18  154.47
   2   3  -5 3965.49  106.62
  -2  -3   5 3885.35  143.45
   2  -3  -5 4177.88  152.08
   2  -3  -5 4202.87  153.57
  -2   3   5 4182.31  156.65
   4  -3  -3 1982.43   74.18
   4   3  -3 1839.88   48.53
   4   3  -3 1950.60   66.78
   4  -3  -3 2176.36   84.07
   4   3  -3 1945.70   53.38
  -4   0   8 3335.29  121.45
   4   0  -8 3077.03  111.32
   3   3   2  336.30   20.20
  -3  -3  -2  347.43   24.63
  -3  -3  -2  327.16    8.71
   3  -3   2  332.92   16.38
   3   3   2  350.89   18.44
   3  -3   2  338.55   25.20
  -3   3  -2  417.17   29.95
   5  -2   1  242.87   21.62
  -5  -2  -1  228.05   18.21
   5  -2   1  180.51   17.49
   5   2   1  257.85    6.87
   5   2   1  241.07   14.49
  -3  -2   7 1456.70   56.20
   3   2  -7 1420.79   42.51
   3  -2  -7 1248.46   53.29
   3   2  -7 1424.35   53.66
  -3   2   7 1369.92   52.95
   3  -1  -8 3346.15  123.69
   3   1  -8 3180.99  111.17
  -3  -1   8 3319.51  118.83
   3   1  -8 3412.33  122.72
  -3   1   8 3483.03  126.99
   1   2  -7 3604.05  117.44
   1  -2  -7 3537.90  133.17
  -1   2   7 3550.70  127.82
  -1  -2   7 3479.73  123.55
   1   2  -7 3519.36  128.79
   5   0   3   15.78    6.57
  -5   0  -3    8.28    6.93
   5   0   3    9.35    3.65
   0  -3  -5 2017.15   78.43
   0  -3   5 1969.02   55.62
   0   3  -5 2126.80   58.48
   0   3  -5 2204.65   84.52
   0  -3   5 2068.69   77.67
   0   3   5 2119.94   71.65
   0  -3  -5 2189.86   78.04
   1   1  -8 2414.75   96.31
  -1   1   8 2528.28   94.21
  -1  -1   8 2663.83   92.69
   1  -1  -8 2562.56   97.11
   1  -1  -8 2623.59   83.60
   1   1  -8 2642.60   90.97
   6   2  -2 1575.74   52.44
   6  -2  -2 1698.99   68.71
   6  -2  -2 1885.86   77.45
   6   2  -2 1636.04   61.01
   7   0  -3   22.08   10.45
   0   0  -8 1647.24   62.70
   0   0  -8 1620.96   51.88
   0   0   8 1631.35   60.73
   0   4   0   34.24   11.45
   0  -4   0   19.65   10.79
   0  -4   0   37.41    4.83
   6   2  -4 1508.75   56.54
   6   2  -4 1565.82   65.69
   6   2  -4 1623.54   56.33
   6  -2  -4 1380.89   65.49
  -6   1  -1   19.60    9.24
  -6  -1  -1   35.38    9.86
   6   1   1   18.09    8.33
   6  -1   1   20.04    9.62
   6  -1   1   35.12    8.61
  -4  -3  -1 1588.64   60.29
   4   3   1 1685.26   48.24
   4  -3   1 1925.68   80.36
   4  -3   1 1906.50   68.21
   4   3   1 1671.18   54.72
   1  -4  -1 3666.78  151.28
   1   4  -1 3812.31  153.96
  -1  -4   1 3611.26  137.38
  -1   4   1 4175.28  170.87
   1  -4  -1 3881.70  124.60
   7   0  -5    9.07    7.81
   4   3  -5 2587.88   69.06
  -4   3   5 2491.80  106.72
   4  -3  -5 2253.47   93.04
   4   3  -5 2687.93   74.69
   4   3  -5 2643.93  109.16
  -1  -4  -1  691.39   21.95
   1   4   1  648.13   22.28
  -1   4  -1  780.94   45.78
   1  -4   1  719.56   41.66
   1   4   1  698.45   49.62
   1  -4   1  740.75   21.93
   1  -4   1  773.75   20.33
  -1  -4  -1  637.39   28.57
   7   1  -4  936.89   59.50
   7  -1  -4  849.57   64.99
   1   3  -6  914.92   42.36
   1  -3  -6  835.27   37.60
  -1   3   6  850.23   33.95
   1   3  -6  941.87   28.59
   1  -3  -6  867.73   32.62
  -1  -3   6  881.15   25.20
  -1  -3   6  858.59   37.41
   0  -4  -211337.42  507.43
   0  -4  -211777.55  472.85
   0  -4   211369.67  510.73
   0   4   211016.65  430.42
   0   4  -211510.97  529.85
   7   0  -1    1.39    9.16
  -3   2  -5 3095.91  114.65
  -3  -2  -5 3093.84  120.31
   3  -2   5 3228.68  120.23
  -3   2  -5 3248.93  136.31
   3  -2   5 3142.29  117.28
   3   2   5 3102.98  114.63
   5   3  -2 6255.70  225.13
   5  -3  -2 6017.95  258.49
   5  -3  -2 6082.66  245.60
   5   3  -2 5959.47  206.05
   6  -1  -7  101.36   23.60
   6   1  -7   89.74   11.58
   7  -1  -2   18.18   10.71
   7   1  -2   14.08    8.53
  -5   1   8  165.46   18.76
   5   1  -8  219.14   14.54
   5   1  -8  247.81   17.55
  -5  -1   8  256.03   18.56
   5  -1  -8  186.19   19.02
  -2   2  -6 8273.68  335.10
  -2  -2  -6 8112.37  338.74
  -2   2  -6 8352.06  352.45
   2  -2   6 8224.72  332.14
   2   2   6 8404.85  342.06
   2  -2   6 8206.41  330.11
   6   0   2 1855.07   76.87
   6   0   2 1845.01   66.22
  -6   0  -2 1745.86   76.63
   3   3  -6 6666.58  211.93
  -3  -3   6 6565.17  257.38
  -3   3   6 6439.45  251.09
   3  -3  -6 6377.19  260.61
   3   3  -6 6472.59  275.54
   3   0  -9    6.42    4.98
  -3   0   9    5.23    5.23
   3   0  -9    2.36    8.24
  -3  -1  -6  446.02   28.57
  -3   1  -6  516.12   37.89
  -3   1  -6  568.06   38.82
   3  -1   6  543.32   27.52
   3   1   6  457.97   25.90
   3  -1   6  498.58   25.23
   6  -2   0 3690.17  159.27
   6  -2   0 3818.71  156.38
   6   2   0 4392.44  139.77
   6   2   0 4140.12  164.99
  -6  -2   0 4170.48  168.85
   2   4   0 6328.43  255.62
   2   4   0 6205.40  202.68
  -2  -4   0 6244.13  236.25
  -2   4   0 6854.80  298.18
  -2  -4   0 6576.35  223.32
   2  -4   0 6773.05  246.15
   2  -4   0 6511.42  232.13
   2  -4   0 6516.54  299.16
   2   4  -2 2492.10   94.12
  -2  -4   2 2393.91   86.09
   2  -4  -2 2422.94   84.14
   2  -4  -2 2259.78   95.47
  -5   2   7 6039.33  241.18
   5   2  -7 5610.91  201.40
   5   2  -7 5779.77  225.94
   5  -2  -7 5857.06  241.43
   4   2   4 1919.92   69.37
  -4   2  -4 1953.24   85.46
  -4  -2  -4 1952.44   77.21
   4  -2   4 1859.98   72.75
  -4   2  -4 1851.63   86.60
   4  -2   4 1856.17   75.44
   5   3  -4 2260.74   66.81
   5   3  -4 2356.38   83.97
   5   3  -4 2215.35   71.98
   5  -3  -4 2157.22  103.96
   5  -3  -4 2298.44   93.81
   4  -1   5 2672.61  103.33
   4   1   5 2645.84   99.40
   4  -1   5 2589.62   88.24
  -4   1  -5 2542.24   99.32
  -4   1  -5 2803.57  110.15
  -4  -1  -5 2724.58  108.31
  -2  -2   8 4380.95  156.79
   2   2  -8 4441.96  152.60
  -2   2   8 4342.87  165.54
   2  -2  -8 4504.23  178.47
   2   2  -8 4527.61  171.73
  -2   1  -7 4912.90  190.26
  -2   1  -7 4884.67  183.77
   2   1   7 4868.70  187.21
   2  -1   7 4889.55  188.39
   2  -1   7 4448.25  158.51
  -2  -1  -7 4735.72  188.12
  -2  -1  -7 5256.35  160.73
  -1   4   3 2426.25   78.95
   1   4  -3 2467.69  115.50
   1  -4  -3 2556.82   88.89
   1  -4  -3 2408.10   96.22
  -1  -4   3 2426.91   94.42
   1  -2   7 1747.02   63.28
  -1   2  -7 1868.01   65.74
  -1  -2  -7 1730.64   70.81
   1  -2   7 1743.80   62.30
   1   2   7 1723.19   66.76
  -1  -2  -7 1724.22   43.31
  -1   2  -7 1839.55   71.33
   6   2  -6 2353.02   87.30
   6   2  -6 2258.23   79.90
   6  -2  -6 2271.65   98.27
   5  -3   0 8485.03  381.65
   5  -3   0 8420.19  351.84
   5   3   0 8253.36  321.75
  -5  -3   0 8440.79  355.53
   5   3   0 8611.34  313.61
   6   0  -8  995.72   46.11
  -6   0   8 1096.56   51.48
   1   0  -9   13.53    6.36
  -1   0   9    6.66    9.76
   1   0  -9    7.06    6.85
  -2  -1   9 3343.84  123.49
   2   1  -9 3317.42  121.85
   2   1  -9 3393.37  124.14
  -2   1   9 3424.67  144.52
   2  -1  -9 3441.89  133.50
  -4   2   8 1194.37   63.65
   4   2  -8  970.44   41.19
  -4  -2   8 1030.56   41.40
   4  -2  -8 1106.35   50.08
   4   2  -8 1048.85   57.94
   7  -1  -6 3662.86  157.21
   7   1  -6 3492.74  153.07
   5   1   4  897.98   39.58
   5  -1   4  857.15   41.18
   5   1   4  848.79   16.71
   5  -1   4  832.65   33.82
  -5  -1  -4  907.46   43.60
  -5   1  -4  877.74   42.17
  -3  -4   1 5042.84  163.43
   3   4  -1 4849.53  183.62
   3  -4  -1 4939.76  207.93
   3   4  -1 4826.56  145.10
  -3  -4   1 4972.02  178.15
   3  -4  -1 4892.43  180.54
  -4  -1   9  781.97   34.87
   4   1  -9  863.21   38.28
   4   1  -9  778.59   41.46
   4  -1  -9  734.42   37.57
  -4   1   9  798.73   38.93
  -2   3  -5 2362.93  103.65
   2  -3   5 2216.09   89.51
  -2  -3  -5 1999.52   48.35
   2   3   5 2009.29   74.38
   2  -3   5 2268.67   77.72
  -2  -3  -5 1983.72   79.98
  -2   3  -5 2215.26   73.72
  -5  -2  -3 1471.18   63.35
  -5   2  -3 1548.02   63.79
   5  -2   3 1647.30   83.19
   5   2   3 1465.08   56.49
   5  -2   3 1557.47   65.08
  -3   3  -4  849.08   52.65
   3  -3   4  806.25   44.99
  -3   3  -4  830.48   42.09
   3  -3   4  804.93   33.29
  -3  -3  -4  802.25   37.14
   3   3   4  832.26   33.36
   1  -1   8   32.62    6.11
   1  -1   8   28.31    8.93
  -1   1  -8   35.98    7.74
  -1   1  -8   36.54    8.51
   1   1   8   36.87    9.42
  -1  -1  -8   52.34   10.55
   1  -4   3  594.16   37.93
   1  -4   3  619.61   16.14
   1  -4   3  570.65   15.50
   1   4   3  508.81   19.92
  -1  -4  -3  553.02   25.14
  -1   4  -3  634.25   64.02
  -1  -4  -3  623.90   33.69
  -5   0   9   12.82    8.07
   5   0  -9   17.39    7.57
   7   1   0  172.08   16.52
  -7  -1   0  145.44   18.97
   7  -1   0  114.03   15.44
   7  -1   0  112.09   18.11
  -2   4  -2  462.84   39.66
  -2  -4  -2  533.40   25.39
   2  -4   2  426.40   15.98
   2   4   2  476.67   16.70
   2   4   2  535.80   25.30
  -2  -4  -2  517.93   21.96
   2  -4   2  432.04   34.79
   2  -4   2  442.83   16.62
   7   0  -7   18.60    9.46
   2  -3  -7 2489.56  103.49
   2   3  -7 2751.49  127.94
   2   3  -7 2865.47   82.61
  -2  -3   7 2730.93   92.98
  -2  -3   7 2637.23  101.28
  -2   3   7 2378.08   91.41
  -3  -4   3  103.35   10.62
   3   4  -3   85.48   18.00
   3  -4  -3   78.23   15.99
   3  -4  -3   50.30   11.08
  -2   4   4   67.10    8.63
   2  -4  -4  100.62   14.04
   2   4  -4   84.37   12.86
   2  -4  -4   57.73   10.43
  -2  -4   4   77.65   11.46
  -1   3  -6 4040.53  136.73
  -1  -3  -6 3868.72  139.97
  -1   3  -6 4008.99  164.40
  -1  -3  -6 3964.28  172.29
   1  -3   6 3932.07  154.24
   1  -3   6 3871.08  134.69
   1   3   6 3891.04  144.18
   7   2  -3 6965.32  271.79
   7   2  -3 6967.45  281.94
   7  -2  -3 7292.05  342.94
   7  -2  -3 7177.67  318.19
   0  -2   8 2446.26   98.45
   0  -2  -8 2451.74   99.36
   0   2  -8 2714.03  116.73
   0  -2   8 2564.20   91.78
   0   2   8 2442.49   95.32
   0   2  -8 2613.95   90.80
   0  -2  -8 2344.21   70.28
  -4  -3  -3  618.19   31.60
   4   3   3  664.27   28.31
   4  -3   3  581.89   36.83
  -4   3  -3  660.82   58.77
   4  -3   3  563.35   28.93
   0   4  -4  111.08   15.69
   0  -4  -4   72.39   10.02
   0  -4  -4   54.27   11.26
   0   4   4   68.01    7.88
   0  -4   4   82.22   21.26
   7   0   1    1.87    8.63
  -7   0  -1   19.29   13.94
   7   0   1   13.18    5.85
   3  -4   1 2837.89   95.91
  -3  -4  -1 2711.53   87.65
   3  -4   1 2805.96   95.55
   3   4   1 2880.29  107.07
   3  -4   1 2868.26  123.81
  -3   4  -1 3065.93  138.75
  -3  -4  -1 2928.37  102.66
   3   4   1 2749.83   85.28
   3   0   7    3.42    2.39
   3   0   7    8.32    6.40
  -3   0  -7   15.80    6.56
   4   0   6 1126.41   31.80
  -4   0  -6 1498.81   57.19
   4   0   6 1242.26   54.58
  -4   0  -6 1276.22   77.05
   5   3  -6  113.42   13.68
   5  -3  -6  101.63   16.40
  -5   3   6  109.09   15.00
   5   3  -6  111.46    9.77
   5   3  -6  114.63    8.24
   7  -2  -5 1036.07   54.92
   7   2  -5  922.02   50.99
   7   2  -5  976.27   43.02
   7   2  -5  881.35   40.55
   6   3  -3 3478.30  134.36
   6   3  -3 3703.67  125.63
   6  -3  -3 3726.30  157.76
   6  -3  -3 3739.96  154.89
   8   0  -420355.32 1106.79
   4   3  -7  775.32   51.93
  -4   3   7  749.93   37.57
   4  -3  -7  784.76   42.57
   4   3  -7  773.82   27.12
  -6   1  -3 4328.90  180.80
   6   1   3 4460.10  139.35
   6   1   3 4307.02  172.50
   6  -1   3 4270.79  166.41
   6  -1   3 4577.03  207.27
  -6  -1  -3 4308.71  181.44
   7   2  -1 3907.82  138.67
   7   2  -1 3834.28  150.23
   7  -2  -1 4017.48  171.94
   7  -2  -1 3627.22  155.20
   2   0   8 2148.30   86.14
  -2   0  -8 2248.15   81.77
  -2   0  -8 2090.49   87.21
   4   4  -2   26.92   12.00
   4  -4  -2   55.94   13.63
   4   4  -2   33.75    2.80
  -4  -4   2   31.53   10.99
   4  -4  -2   37.58    8.68
   0  -1  -911009.25  443.38
   0   1   910983.21  482.69
   0   1  -911058.49  477.61
   0  -1   910423.71  452.42
   0   1  -910573.45  456.71
   0  -1  -910983.14  491.67
   6  -2   2   10.42    9.51
   6  -2   2   10.74    9.80
   6   2   2   24.52    2.12
   6   2   2   24.49    8.06
  -6  -2  -2   25.34   10.46
   0  -3  -7 2101.90   70.05
   0  -3   7 2202.44   86.62
   0  -3   7 2082.41   68.89
   0   3  -7 2364.25   95.34
   0   3  -7 2376.39   82.22
   0  -3  -7 2179.54   89.33
   0   3   7 2312.82   86.83
   5   0   5    7.22    4.77
   5   0   5   -0.14    1.87
  -5   0  -5    2.24    5.24
   8   0  -2  554.18   40.70
  -6  -3   1 1584.87   71.27
   6   3  -1 1807.83   57.11
   6   3  -1 1714.29   59.88
   6  -3  -1 1846.18   88.63
   6  -3  -1 2009.94   83.67
   6  -3  -1 1917.49   81.44
   3   2  -9 1919.22   65.97
  -3   2   9 1810.35   92.21
   3  -2  -9 1821.04   79.34
  -3  -2   9 1887.72   71.62
   3   2  -9 1932.97   77.75
   1  -4  -5 6083.69  250.57
   1   4  -5 6626.52  281.10
  -1  -4   5 6458.53  266.16
  -1   4   5 6478.13  247.00
   1  -4  -5 6326.24  257.09
   5   3   2 1845.31   51.62
   5  -3   2 1969.87   88.02
   5   3   2 1919.53   69.50
   5  -3   2 1917.87   92.79
  -5  -3  -2 1839.76   93.88
   8  -1  -3 2838.59  134.05
   8   1  -3 2932.53  126.87
   4   0 -10 3040.70  121.67
  -4   0  10 3259.58  130.08
   4   0 -10 3442.72  132.30
   6   3  -5 1792.66   58.30
   6   3  -5 1643.80   60.83
   6  -3  -5 1496.15   73.72
   6   3  -5 1768.10   67.77
   2   0 -10 1450.84   66.26
   2   0 -10 1428.75   60.69
  -2   0  10 1451.37   60.90
   4   4   0 7479.01  269.39
   4   4   0 7307.44  284.48
  -4  -4   0 7228.91  283.75
  -4  -4   0 7444.57  274.51
   4  -4   0 7560.31  335.44
   4  -4   0 7479.82  298.57
   4  -4   0 7499.54  310.34
   8   0  -6    9.06    8.98
   8   1  -5 2933.25  129.47
   8   1  -5 2716.64  122.50
   8  -1  -5 3041.12  135.32
   8  -1  -5 2772.96  127.56
  -3   4   5  146.61   13.88
   3  -4  -5  140.34   20.10
   3   4  -5  176.44   18.36
  -3  -4   5  179.42   23.98
   3  -4  -5  135.82   17.28
   4  -4  -4 7025.66  313.32
   4  -4  -4 6713.12  283.76
  -4  -4   4 6964.91  278.29
   4   4  -4 7209.51  295.34
   6   1  -9 4949.31  193.85
  -6   1   9 4974.08  209.46
  -6  -1   9 5319.41  220.01
   6  -1  -9 4629.32  201.91
   6   1  -9 4986.77  202.99
   3  -1 -10  245.53   22.25
  -3   1  10  270.16   20.78
  -3  -1  10  216.41   18.89
   3   1 -10  225.91   18.70
   3   1 -10  214.70   17.26
   6   2  -8  107.24   16.64
   6   2  -8  103.70   15.77
  -6   2   8  145.42   18.63
   6  -2  -8  120.13   19.23
   1   2  -9 1570.56   65.22
  -1  -2   9 1587.45   62.58
   1   2  -9 1588.51   59.17
  -1  -2   9 1617.69   63.12
   1  -2  -9 1694.56   74.32
  -1   2   9 1741.04   71.09
   7  -1  -8  577.14   38.56
   7   1  -8  478.85   41.64
  -1   0  -9    1.73    6.09
  -1   0  -9   -1.77    3.94
   1   0   9   21.49    6.19
  -3  -3   8 7727.79  327.50
   3   3  -8 8377.34  302.94
  -3   3   8 7821.44  346.07
   3   3  -8 7959.53  365.44
   3  -3  -8 7878.70  345.05
  -3  -3   8 7819.51  302.52
   6   0   410189.12  398.70
   6   0   410079.51  476.55
  -6   0  -4 9813.54  452.60
   5   2  -9 1675.03   72.09
  -5  -2   9 1764.52   88.61
  -5   2   9 1855.21   79.71
   5   2  -9 1635.66   58.85
   5  -2  -9 1799.02  103.50
  -2   4  -4 6722.14  315.32
  -2  -4  -4 6467.68  223.10
  -2  -4  -4 6257.46  257.39
   2   4   4 6143.60  237.32
   2  -4   4 6399.06  233.14
   2  -4   4 6342.89  284.16
   8  -1  -1  634.82   47.50
   8   1  -1  691.61   42.10
   8  -1  -1  588.09   34.82
   7   2  -7    5.72    7.24
   7  -2  -7    8.91   10.17
   7   2  -7   15.03    9.19
   1  -3  -8 6586.91  285.11
  -1   3   8 6650.62  292.09
   1   3  -8 6821.65  289.67
  -1  -3   8 6615.49  272.18
  -1  -3   8 6740.85  256.18
   1   3  -8 7163.03  261.34
   7  -1   2   29.94   15.11
  -7   1  -2   -4.26    9.26
   7  -1   2    9.73    8.07
   7   1   2    5.30    8.63
  -7  -1  -2   31.97   10.19
   7   1   2    9.53    7.34
  -3  -4  -3 5925.53  239.05
   3  -4   3 6168.42  306.56
  -3  -4  -3 5926.06  196.75
   3   4   3 5936.53  223.47
  -3   4  -3 6182.92  291.20
   3  -4   3 5912.85  221.56
   2  -4  -6 6527.18  276.23
   2  -4  -6 6117.79  258.28
  -2  -4   6 6341.64  264.08
   2   4  -6 6368.82  271.14
  -2   4   6 6307.13  248.78
   1   4   5 1906.34   70.60
   1  -4   5 1902.90   59.12
  -1   4  -5 2050.43  103.41
  -1  -4  -5 1967.62   81.17
   1  -4   5 1974.37  113.56
  -1  -4  -5 1915.21   75.28
   5   1 -10  859.86   38.98
   5   1 -10  972.74   46.37
   5  -1 -10  829.42   46.95
  -5  -1  10  942.14   45.43
  -5   1  10  931.18   48.94
   8   0   011019.98  482.19
   8   0   011257.63  540.05
   1  -1 -10  786.15   30.37
  -1   1  10  836.65   43.76
   1   1 -10  823.83   36.26
  -1  -1  10  803.86   40.01
   1  -1 -10  774.61   43.31
   1   1 -10  789.91   49.73
   6   3   1 3073.80   89.95
   6  -3   1 2904.22  120.21
   6  -3   1 3000.36  131.34
  -6  -3  -1 3047.51  152.49
   6   3   1 2943.27  109.81
   5   4  -3 5791.64  193.37
   5  -4  -3 5604.98  235.21
   5   4  -3 5681.58  190.24
   5   4  -3 5692.63  227.34
   5  -4  -3 5638.89  257.12
   7   0  -9    3.24    6.59
   7   2   1 7395.00  250.94
   7  -2   1 7236.85  346.98
  -7  -2  -1 6971.67  316.95
   7   2   1 6838.55  286.01
   7  -2   1 7075.12  315.20
   3  -2   7 3180.30  119.82
  -3   2  -7 3387.21  170.71
   3  -2   7 3355.74  134.61
   3   2   7 3248.51  147.70
  -3  -2  -7 3266.49  137.70
  -3   2  -7 3078.37  124.16
   8  -1  -7  107.44   21.01
   8   1  -7  100.26   15.90
   4  -2   6 2186.25   84.67
  -4   2  -6 2265.99  105.28
   4   2   6 1978.53   83.35
  -4  -2  -6 1935.16   90.32
  -4   2  -6 2219.11   92.21
   4  -2   6 2211.20   91.53
   5   4  -1  199.40   13.85
  -5  -4   1  191.55   14.67
   5   4  -1  210.47   10.75
   5  -4  -1  242.44   28.92
   5  -4  -1  216.45   18.06
   5  -4  -1  225.70   18.70
   8  -2  -4 7804.39  358.63
   8  -2  -4 7090.01  333.54
   8   2  -4 7916.94  321.49
   8   2  -4 8176.65  347.90
   6   0 -1013457.11  636.13
  -6   0  1014034.56  669.53
   4   4   2  362.87   26.10
  -4  -4  -2  365.66   37.37
   4   4   2  372.00   18.84
   4  -4   2  399.77   30.11
   4  -4   2  418.64   34.47
  -4   4  -2  455.31   40.93
   7  -3  -4 1569.87   78.02
   7   3  -4 1553.23   73.24
   7   3  -4 1565.17   58.36
   7  -3  -4 1467.55   74.56
   0   0  1013000.35  623.14
   0   0 -1013060.54  566.60
   0   0 -1012795.19  596.34
   0  -4  -6 1564.89   59.40
   0  -4   6 1867.53   56.31
   0  -4   6 1775.42   79.84
   0   4  -6 1661.09   83.69
   0  -4  -6 1742.34   74.01
   0   4   6 1805.66   68.46
  -2   2  -8   49.44   12.46
  -2   2  -8   57.18   10.59
  -2  -2  -8   48.29   21.03
   2   2   8   69.23   12.20
   2  -2   8   46.62   11.38
   2  -2   8   34.80    9.11
   6   3  -7 2019.88   81.18
   6   3  -7 1976.90   83.19
   6  -3  -7 1957.06   91.78
   6   3  -7 1945.96   63.39
   7  -3  -2 2651.32  116.66
   7  -3  -2 2312.99  114.17
   7  -3  -2 2553.14  115.57
   7   3  -2 2428.12   84.45
   7   3  -2 2427.06  103.47
   5   3  -8    7.18    7.40
   5   3  -8    6.66    3.42
   5  -3  -8    9.56    9.08
   0   5  -1 1059.88   65.79
   0  -5   1 1067.53   63.29
   0   5   1 1213.66   63.84
   0  -5  -1 1158.40   63.54
   0  -5  -1 1256.98   49.46
  -5   2  -5 2531.07  114.33
   5  -2   5 2366.32   98.10
   5  -2   5 2420.08  103.41
  -5  -2  -5 2362.62  106.87
  -5   2  -5 2416.50  104.02
   5   2   5 2226.26   92.33
   8   2  -2  376.88   19.42
   8   2  -2  386.45   39.33
   8  -2  -2  388.48   34.93
   8  -2  -2  335.25   29.98
   8   0  -811749.72  560.00
  -1   5   0   94.84   31.71
  -1  -5   0  114.43   15.38
   1   5   0   99.53   19.50
   1  -5   0  117.25   12.33
   1  -5   0   88.16    6.02
   1  -5   0   89.55   30.81
  -1  -5   0   98.73    5.98
  -7   0  -3   20.24   12.76
   7   0   3   19.67    9.98
   7   0   3   28.41   12.08
  -3   3  -6 4199.58  178.84
  -3  -3  -6 4152.30  178.21
   3   3   6 4419.59  175.41
  -3   3  -6 4433.93  209.10
   3  -3   6 4340.14  173.94
   3  -3   6 4311.11  181.32
   4   4  -6    2.94    8.60
  -4   4   6    3.91    7.03
   4  -4  -6    7.91   14.19
   4  -4  -6   17.98    9.34
  -4  -4   6   22.17    7.62
   4  -1   7 7551.58  352.91
   4  -1   7 7324.99  282.88
  -4   1  -7 7854.32  343.63
  -4  -1  -7 7489.71  336.19
  -4   1  -7 8345.51  389.59
   4   1   7 7612.28  327.58
   4  -3   5 1668.05   72.10
  -4  -3  -5 1627.49   94.01
   4   3   5 1674.51   68.25
  -4   3  -5 1727.46   71.53
   4  -3   5 1690.56   98.35
  -4   3  -5 1831.33   94.50
   4   2 -10 1215.13   57.63
  -4  -2  10 1254.47   55.50
   4  -2 -10 1118.63   59.03
   4   2 -10 1193.03   45.61
  -4   2  10 1118.10   56.99
  -3   1  -8 1896.45   80.09
  -3  -1  -8 1664.66   79.34
   3   1   8 1660.77   74.75
  -3   1  -8 1827.72   79.76
  -3  -1  -8 1977.63   72.30
   3  -1   8 1673.14   58.63
   3  -1   8 1854.90   80.87
  -2   2  10  243.93   23.80
   2   2 -10  280.56   17.78
   2  -2 -10  264.69   38.41
  -2  -2  10  272.91   20.31
   2   2 -10  265.73   22.21
   5  -4  -5 2005.91   91.63
   5   4  -5 2251.77   59.96
   5   4  -5 2144.23   89.28
   5   4  -5 2097.28   53.49
   5  -4  -5 2063.74  100.03
   1  -5  -2  661.86   42.47
   1  -5  -2  759.38   32.90
  -1  -5   2  748.82   42.78
   1   5  -2  843.63   72.61
  -2  -3  -7 2308.61  101.28
   2   3   7 2395.33   94.72
  -2   3  -7 2465.73  142.81
  -2   3  -7 2274.12   87.28
   2  -3   7 2325.45   91.89
   2  -3   7 2270.12   95.47
   8   2  -6  269.94   23.00
   8   2  -6  283.04   22.29
   8   2  -6  292.16   24.39
   8  -2  -6  370.03   33.11
   3   0 -11    1.47    7.16
   3   0 -11   14.61    6.34
  -3   0  11    3.66    7.38
   5  -1   6  252.85   24.25
  -5   1  -6  231.34   24.92
   5   1   6  296.39   34.20
   5  -1   6  221.84   14.74
  -5  -1  -6  275.14   28.24
   2  -5  -110942.92  469.55
  -2  -5   110583.29  468.32
   2   5  -111076.65  524.31
   2  -5  -111108.99  522.49
   9   0  -5    3.57   11.23
   9   0  -5   16.12   11.51
   9   0  -3    0.15    8.86
   2   3  -9 1766.98   81.52
   2  -3  -9 1839.29   84.87
  -2  -3   9 1833.51   70.30
  -2   3   9 1811.05   77.17
   2   3  -9 1776.36   69.44
  -2  -3   9 1747.91   75.89
  -1   2  -9 5112.63  204.58
   1  -2   9 4937.35  202.52
   1  -2   9 4872.27  190.31
  -1  -2  -9 5190.95  165.85
   1   2   9 5011.96  207.98
  -1  -2  -9 4948.03  215.90
  -1   2  -9 4948.94  207.73
   5  -4   1   96.55   17.05
  -5  -4  -1   51.54   13.16
   5   4   1   62.63    8.58
   5   4   1   59.84    8.66
   5  -4   1   70.33   10.70
   5  -4   1   36.34   12.08
   7   3  -6 6063.88  267.42
   7   3  -6 5686.57  226.97
   7   3  -6 6175.64  235.11
   7  -3  -6 5661.56  261.73
   3  -4  -7  765.79   42.23
  -3   4   7  725.15   37.25
   3  -4  -7  719.13   44.63
   3   4  -7  744.33   45.48
  -3  -4   7  705.26   40.53
  -1  -5  -2 1408.82   64.23
  -1  -5  -2 1302.30   58.17
   1   5   2 1357.49   42.39
   1  -5   2 1276.15   73.97
  -1   5  -2 1300.50   81.45
   2  -1   9  108.64   10.51
   2   1   9  107.84   25.76
  -2   1  -9  118.26   16.52
   2  -1   9  114.54   17.67
  -2  -1  -9  116.71   11.53
  -2  -1  -9  111.12   18.98
   5  -3   4 6535.63  291.17
  -5   3  -4 7019.46  325.26
   5  -3   4 6382.90  273.56
  -5   3  -4 6251.12  267.88
   5   3   4 6571.75  266.29
  -5  -3  -4 6458.40  284.56
   6   2   4 3530.13  142.76
  -6   2  -4 3435.94  149.89
   6  -2   4 3370.22  160.48
   6  -2   4 3416.88  148.77
  -6  -2  -4 3342.06  171.25
   4  -3  -9 1072.11   59.33
  -4   3   9 1096.30   55.91
  -4  -3   9 1137.50   45.79
   4   3  -9 1153.16   59.08
   4   3  -9 1169.75   38.71
  -1   4   7 1219.08   51.69
   1   4  -7 1336.65   35.79
   1  -4  -7 1096.39   50.06
   1  -4  -7 1175.11   58.84
  -1  -4   7 1224.70   77.97
   1   4  -7 1237.08   65.54
  -1  -4   7 1189.20   34.29
  -5   0  11   15.25    8.42
   5   0 -11    0.52   11.67
   5   0 -11    5.42    7.54
   8  -1   1 7706.63  340.48
   8   1   1 7928.75  351.36
   8  -1   1 7141.98  334.89
  -8  -1  -1 7404.42  382.44
   8   1   1 7829.72  319.09
   9   1  -4  528.00   63.35
   9  -1  -4  777.65   54.74
   9  -1  -4  643.06   50.05
   4   1 -11 6334.50  266.30
  -4  -1  11 6206.90  282.62
  -4   1  11 6258.15  271.06
   4  -1 -11 6071.01  291.56
   4   1 -11 6222.31  271.34
   1   3   8  528.29   32.07
  -1  -3  -8  544.81   36.40
  -1   3  -8  569.12   37.31
  -1  -3  -8  526.74   13.97
  -1  -3  -8  455.18   17.97
  -1   3  -8  557.70   26.75
   1  -3   8  547.07   32.34
   1  -3   8  557.23   39.68
   2   5   1  273.51   10.97
   2  -5   1  252.21   12.75
   2  -5   1  291.25   31.84
  -2  -5  -1  330.72   19.45
   2  -5   1  250.79   15.55
   2   5   1  274.46   25.46
  -2  -5  -1  254.05   21.09
  -2   5  -1  309.58   51.89
   0   5   3 6689.89  248.93
   0  -5  -3 6323.03  288.81
   0  -5   3 6759.81  311.41
   0  -5  -3 6787.54  271.99
   0   5  -3 6838.00  326.59
  -7  -3   0   52.34   17.19
   7   3   0   74.67    6.13
   7  -3   0   83.19   18.51
   7  -3   0   49.09   15.51
   7   3   0   37.41   16.87
  -2  -5   3 1007.80   49.97
   2  -5  -3 1074.63   47.19
   2   5  -3 1041.62   55.31
   2  -5  -3 1036.15   54.72
   6   1   5 4020.94  169.51
   6  -1   5 4037.32  152.45
   6  -1   5 3950.50  174.45
  -6   1  -5 3958.69  176.21
  -6  -1  -5 3880.85  199.83
   2   1 -11  509.95   42.71
   2  -1 -11  470.04   33.76
   2   1 -11  550.33   30.36
  -2   1  11  490.52   48.52
  -2  -1  11  506.66   31.79
   2  -1 -11  495.90   35.64
   6   4  -2 1447.13   56.48
   6   4  -2 1463.66   48.69
   6  -4  -2 1541.28   71.02
   6  -4  -2 1614.44   88.97
   6  -4  -2 1779.32   76.46
   8  -2   0 4644.44  208.85
   8  -2   0 4508.67  230.79
   8   2   0 4710.31  160.36
   8   2   0 4682.99  197.47
  -8  -2   0 4153.48  199.32
   3  -5  -2  281.02   27.59
  -3  -5   2  236.34   29.00
   3  -5  -2  288.99   19.91
   3   5  -2  233.09   23.16
   6  -4  -4 1438.90   71.48
   6   4  -4 1569.57   48.21
   6   4  -4 1617.02   65.38
   6   4  -4 1545.15   45.50
   6  -4  -4 1408.00   83.46
   9  -1  -6   77.52   22.66
   9  -1  -6  187.86   24.77
   9   1  -6   74.94   21.56
   9   1  -6   82.16   19.94
  -1   0  11    2.67    8.00
   1   0 -11   10.73    5.43
   1   0 -11    3.79    8.08
   7   2  -9 1631.45   63.07
  -7   2   9 1214.74   72.38
   7  -2  -9 1522.13   81.27
   7   2  -9 1677.46   74.53
   9   0  -7   -2.46    7.80
   9   1  -2 2482.25  119.55
   9  -1  -2 2538.82  129.71
   7   1 -10 1141.69   54.92
   7  -1 -10 1269.08   67.68
  -7   1  10 1322.51   70.16
   7   1 -10 1157.17   58.96
   3  -5   0  697.38   37.87
   3  -5   0  679.64   47.16
  -3  -5   0  626.17   29.84
  -3  -5   0  645.81   29.24
   3   5   0  631.18   22.22
   3  -5   0  689.92   26.52
   3   5   0  641.43   40.30
   1  -5  -4  102.75   15.41
   1  -5  -4  138.88   16.19
   1   5  -4   68.29   20.24
  -1   5   4  110.44   16.58
  -1  -5   4   71.34   19.13
   9   0  -1   24.04   14.87
  -1   1 -10    3.03   16.59
   1   1  10   50.31   11.65
   1  -1  10   26.00   10.83
  -1   1 -10   18.48    8.83
  -1  -1 -10   29.34    8.65
  -1  -1 -10   35.34   12.58
  -8   0  -2  687.43   50.19
   8   0   2  715.35   36.42
   8   0   2  716.39   71.13
  -6   2  10 4039.63  204.72
   6   2 -10 3709.24  156.98
   6   2 -10 3768.42  161.53
   6  -2 -10 3784.79  172.84
   8   1  -9 6930.95  302.59
   8  -1  -9 7003.54  325.96
  -6  -3  -3 1735.03   88.02
   6  -3   3 1921.47   88.89
   6  -3   3 1855.65   82.94
   6   3   3 1726.24   72.76
   0   2  10 3657.75  155.19
   0  -2 -10 3583.45  159.49
   0  -2  10 3346.94  132.41
   0   2 -10 3512.95  155.08
   0  -2  10 3282.27  152.68
   0  -2 -10 3526.07  122.21
   0   2 -10 3366.45  142.19
  -3   4  -5 1603.60   99.34
   3  -4   5 1563.86   61.97
  -3  -4  -5 1559.82   72.83
   3   4   5 1567.39   62.67
   3  -4   5 1567.36   83.19
   0  -3   9  623.99   49.25
   0  -3  -9  640.45   26.29
   0  -3   9  589.25   30.95
   0  -3  -9  578.23   41.64
   0   3  -9  638.80   29.15
   0   3  -9  618.64   40.21
   0   3   9  592.57   38.42
   2   4   6  229.39   18.52
  -2  -4  -6  204.54   23.87
  -2   4  -6  267.25   53.28
   2  -4   6  221.80   16.34
  -2   4  -6  238.69   15.52
  -2  -4  -6  216.66    7.13
   2  -4   6  224.31   27.42
  -4   0  -8 5489.90  248.21
  -4   0  -8 6621.82  289.05
   4   0   8 5541.99  245.41
   8  -2  -8 4031.96  228.52
   8   2  -8 4407.81  180.91
   8   2  -8 4090.99  164.70
   7  -2   3 2855.25  122.90
   7  -2   3 2680.53  124.54
  -7  -2  -3 2671.79  128.26
   7   2   3 2815.65  137.45
  -7   2  -3 2552.49  120.54
   6   4   0  208.22   18.73
  -6  -4   0  205.78   21.52
   6  -4   0  190.65   26.80
   6  -4   0  168.47   19.90
   6   4   0  214.20   21.32
   6  -4   0  174.98   21.97
   5   0   7    9.01   13.60
   5   0   7    6.77    4.50
  -5   0  -7    5.35   14.29
   5  -4  -7 3922.55  174.63
   5   4  -7 3832.49  112.00
   5   4  -7 4056.43  174.39
   5   4  -7 4176.72  120.62
  -5   4   7 4097.95  171.84
   5  -4  -7 3659.42  171.39
   3  -5  -4 1100.06   51.54
  -3  -5   4 1037.52   51.45
   3   5  -4 1073.84   57.70
   3  -5  -4 1010.75   55.92
  -6   1  11 4433.30  193.20
  -6  -1  11 4507.27  196.03
   6  -1 -11 4131.11  183.99
   6   1 -11 4174.16  178.39
   6   1 -11 3911.74  161.35
   4  -4   4 2214.37   88.53
   4   4   4 2434.40   93.80
  -4  -4  -4 2190.12   98.92
  -4   4  -4 2467.12  130.20
   4  -4   4 2373.85  116.52
   7  -1   4 2024.12   96.96
   7  -1   4 1995.09   94.76
  -7  -1  -4 1877.61   97.10
  -7   1  -4 1975.53  121.84
   7   1   4 1826.80   49.75
   7   1   4 1958.33   91.83
   8  -3  -3  804.25   56.76
   8  -3  -3  947.85   82.26
   8   3  -3 1011.91   56.58
   8   3  -3  971.10   50.76
   8  -3  -3  837.08   57.72
   3   0   9   36.11   11.70
  -3   0  -9    8.02   12.20
  -3   0  -9   33.76   13.70
  -2  -4   8   30.03    7.65
   2   4  -8    0.49    2.05
  -2   4   8    6.68    6.48
   2  -4  -8    9.11    8.23
   2  -4  -8   16.55    6.45
  -2  -4   8    7.35    4.07
   2   4  -8    5.00    8.51
   3   2 -11 3720.22  145.65
  -3  -2  11 3941.17  182.59
   3  -2 -11 3772.66  168.72
   3   2 -11 3933.30  185.85
  -3   2  11 3839.59  164.72
   8   3  -5  682.66   36.22
   8  -3  -5  855.14   53.08
   8   3  -5  718.35   34.02
   8   3  -5  718.09   37.11
   2  -5   3 7520.83  282.43
   2   5   3 7883.94  320.47
   2  -5   3 8412.40  313.10
  -2   5  -3 8138.07  410.62
  -2  -5  -3 8014.04  322.35
  -2  -5  -3 8239.33  353.52
   2  -5   3 7601.01  370.76
  -1  -4  -7  715.07   27.70
   1   4   7  718.80   37.70
  -1   4  -7  714.56   38.04
   1  -4   7  695.22   31.33
  -1  -4  -7  687.89   43.13
  -1   4  -7  682.33   51.39
   1  -4   7  672.94   46.09
   6   4  -6  572.44   22.97
   6   4  -6  534.07   17.73
   6   4  -6  509.53   33.99
   6  -4  -6  529.90   39.97
   6  -4  -6  582.47   43.15
  -1   5  -4  363.78   42.90
   1  -5   4  306.11   37.07
  -1  -5  -4  330.08   26.29
  -1  -5  -4  324.38   34.61
   1   5   4  305.16   17.97
   9   2  -5 3185.81  126.90
   9  -2  -5 3339.89  159.55
   9   2  -5 2967.79  138.58
   9  -2  -5 2965.89  146.62
   9   2  -5 3260.32  141.18
  -4  -5   1  960.01   39.72
   4   5  -1  971.81   29.40
   4   5  -1  897.03   60.17
   4  -5  -1  948.94   51.91
   4  -5  -1  946.84   58.19
   4  -5  -1  921.37   41.62
   6   3  -9 1886.14   87.06
   6   3  -9 1928.93   64.63
  -6   3   9 1731.05   85.40
   6  -3  -9 1691.89   91.96
   9  -2  -3  382.36   36.64
   9  -2  -3  362.28   61.52
   9   2  -3  415.51   24.65
   9   2  -3  466.30   33.50
   9  -2  -3  346.56   38.94
  -2  -5   5 3712.51  162.82
   2   5  -5 3902.91  178.22
  -2   5   5 3992.13  151.68
   2  -5  -5 4152.98  176.04
   2  -5  -5 3754.72  159.99
   3   3 -10  615.01   26.17
  -3  -3  10  589.55   33.83
   3   3 -10  593.05   40.78
  -3   3  10  573.11   38.26
   3  -3 -10  610.57   45.17
   4  -5  -3  455.67   29.50
  -4  -5   3  439.15   27.14
   4  -5  -3  427.56   37.31
   4   5  -3  435.08   31.62
   7   3  -8 4354.59  183.49
   7   3  -8 4218.33  153.12
   7  -3  -8 3756.01  183.32
   7   3  -8 4264.83  180.21
   4   4  -8 3187.48   94.82
  -4   4   8 3495.11  145.00
   4  -4  -8 3711.42  157.96
   4  -4  -8 3257.13  150.91
   4   4  -8 3617.31  104.50
   4   4  -8 3439.40  182.47
   8   0 -10  292.73   30.43
   6   0   6 1411.19   43.66
   6   0   6 1520.46   74.17
  -6   0  -6 1487.39   82.43
  -3  -5  -2  347.36   23.64
   3  -5   2  258.97   55.30
   3  -5   2  273.99   15.51
   3   5   2  331.47   16.09
  -3  -5  -2  318.17   16.63
   3  -5   2  271.98   15.98
  -3   5  -2  255.30   39.51
   3   5   2  361.27   24.77
   9  -1  -8   31.54   15.58
   9   1  -8   17.45   11.62
  -4   0  12 7036.94  312.64
   4   0 -12 7257.92  309.61
   4   0 -12 6554.76  289.83
  -7   0  11    2.04    8.01
   7   0 -11    3.09    7.05
  -5  -2  11 1755.65   82.34
   5   2 -11 1590.66   66.04
  -5   2  11 1746.64   85.41
   5   2 -11 1668.34   81.11
   5  -2 -11 1613.92   83.82
  -2   0 -10 4170.62  186.45
  -2   0 -10 4568.96  173.79
   2   0  10 4317.30  213.37
  -5  -4  -3  655.25   42.66
   5   4   3  695.77   33.52
   5  -4   3  639.20   46.95
   5  -4   3  661.35   36.44
   0   1 -11  300.79   35.85
   0   1 -11  258.74   21.32
   0  -1  11  250.11   24.28
   0   1  11  252.91   26.51
   0  -1 -11  255.06   22.13
   0  -1 -11  255.18   28.47
   0  -5  -5  119.65   17.08
   0   5  -5  140.61   30.26
   0   5   5  153.06   13.93
   0  -5  -5  150.22   19.91
   0  -5   5  158.83   25.79
   9   1   0  707.74   52.33
   9  -1   0  776.86   59.80
   9  -1   0  720.08   46.63
   8   3  -1 1551.14   84.46
   8   3  -1 1516.52   53.06
   8  -3  -1 1788.19   88.71
   8  -3  -1 1642.12   87.64
   7   3   2  256.52   21.21
  -7  -3  -2  261.16   48.11
   7  -3   2  244.48   28.22
   7  -3   2  247.63   26.74
   7   4  -3 3110.18  119.09
   7  -4  -3 3300.41  146.64
   7   4  -3 3132.90  118.27
   7  -4  -3 3090.89  141.06
   7  -4  -3 3144.45  196.47
  -5   3  10 3825.54  168.90
   5  -3 -10 3594.56  169.83
   5   3 -10 3867.71  137.17
   5   3 -10 3834.83  171.12
  -2   0  12 6151.40  292.37
   2   0 -12 6040.19  263.47
   2   0 -12 5958.81  247.96
   0   4  -8 2160.10  104.57
   0  -4   8 2087.58   95.53
   0   4  -8 2115.29   70.62
   0  -4  -8 1819.16   73.73
   0  -4  -8 1960.41   95.33
   0  -4   8 1890.11   70.53
   0   4   8 1966.08  102.21
   1   3 -10 3354.98  124.39
   1   3 -10 3113.57  140.70
   1  -3 -10 3050.00  143.53
  -1   3  10 3222.76  161.98
  -1  -3  10 3157.25  128.77
  -1  -3  10 3124.41  133.10
   1  -2 -11   51.21   11.28
   1  -2 -11   31.58   15.07
  -1   2  11   64.62   14.98
   1   2 -11   26.72   10.61
   1   2 -11   31.52   12.58
  -1  -2  11   44.52   11.41
   9   0  -9   14.12   12.27
   3   1 -12   10.07    8.90
   3  -1 -12   22.46   17.02
  -3  -1  12   16.60    9.41
  -3   1  12   17.32   10.20
   3   1 -12    5.36    8.30
   3  -1 -12   13.45    7.56
   4   5   1 5854.89  252.42
  -4  -5  -1 5533.70  245.27
   4  -5   1 5884.16  246.15
   4  -5   1 5639.22  229.44
   4   5   1 5567.69  205.26
   4  -5   1 6017.52  277.78
  -4  -5  -1 5673.62  224.60
   9   2  -7 3183.72  138.96
   9   2  -7 3219.80  155.54
   9  -2  -7 3222.75  163.89
   9   2  -7 3339.41  150.22
  10   0  -4  124.49   27.05
   8   3  -7 1451.83   60.52
   8   3  -7 1327.33   53.08
   8  -3  -7 1212.26   78.74
   8   3  -7 1434.42   66.48
   9  -2  -1   44.89   17.37
   9  -2  -1   35.65   16.51
   9   2  -1   47.65    8.07
   9   2  -1   31.65   14.84
   7   0   5   -0.59    5.50
   7   0   5    8.32    9.51
  -7   0  -5   17.46   10.13
   7   4  -5  358.17   25.98
   7  -4  -5  286.44   37.82
   7  -4  -5  313.41   32.97
   7   4  -5  336.67   16.69
   7   4  -5  371.91   16.87
   5  -1 -12 1126.75   62.88
   5   1 -12 1217.97   62.66
  -5   1  12 1178.33   64.16
  -5  -1  12 1171.23   62.12
   5   1 -12 1108.83   55.00
   8   2   2 1231.26   34.42
   8  -2   2 1131.46   94.18
   8   2   2 1285.55   65.46
   8  -2   2 1216.79   64.69
   8   2   2 1260.35   43.54
  -8  -2  -2 1237.00  102.96
   9   0   1   16.59    9.91
   9   0   1   16.78   14.49
   4   5  -5 6434.22  288.98
  -4  -5   5 6629.04  304.98
   4  -5  -5 5988.36  270.33
   4  -5  -5 6355.71  327.83
   8  -1   3  923.74   60.73
   8  -1   3  933.26   47.00
   8   1   3  918.46   36.76
  -8  -1  -3  946.96   63.37
  -8   1  -3  803.41   59.24
   8   1   3  932.34   57.56
  10   0  -6   34.70   17.76
  10   0  -6   41.97   19.62
   1   5  -6   12.28   12.11
  -1   5   6   14.61    6.64
  -1  -5   6    0.44   10.80
   1  -5  -6    2.08   15.36
   1  -5  -6   10.52   11.59
   6   0 -12 1938.14   89.08
   6   0 -12 1939.55   89.75
  -6   0  12 1991.90   97.79
   7   4  -1 2222.70   82.86
   7   4  -1 2297.69   81.95
   7  -4  -1 2282.84  101.33
   7  -4  -1 2269.93  106.92
   7  -4  -1 2244.35  119.31
   5  -5  -2   29.89   11.37
   5  -5  -2   27.32   16.91
   5   5  -2   43.47   11.39
   5  -5  -2   29.23   10.66
   5   5  -2   45.10    3.69
  -1   0 -11   15.11    6.44
   1   0  11    8.67    9.67
  -1   0 -11    3.75    9.86
   6  -4   2 5491.08  251.16
   6   4   2 5324.03  215.21
   6  -4   2 5499.46  234.77
  -6  -4  -2 5118.45  244.04
  -3   5   6  188.08   19.06
   3  -5  -6  203.71   25.25
   3   5  -6  193.41   25.88
   3  -5  -6  169.49   24.34
  -3  -5   6  204.10   23.13
  -4   2  -8 3724.12  179.71
   4  -2   8 3507.29  140.80
   4  -2   8 3519.37  159.79
  -4  -2  -8 3605.28  167.11
   4   2   8 3600.62  156.97
  -4   2  -8 3696.13  189.89
  10  -1  -5  439.24   46.23
  10  -1  -5  335.41   41.53
  10   1  -5  393.65   39.78
  10   1  -5  374.66   40.20
   3   4  -9  972.46   30.34
  -3  -4   9  931.05   31.96
   3   4  -9  963.92   60.68
  -3  -4   9  971.25   56.63
   3  -4  -9  986.95   61.96
   3  -4  -9 1051.41   53.98
  -3   4   9  968.47   51.03
   5  -2   7 5236.62  218.65
   5   2   7 5098.82  224.27
  -5  -2  -7 4910.06  265.85
  -5   2  -7 5672.81  260.94
   5  -2   7 5188.05  237.96
  -5   2  -7 5352.80  241.57
   4  -3   7  632.91   41.12
   4   3   7  621.39   40.02
  -4   3  -7  692.61   41.04
  -4  -3  -7  662.37   46.19
   4  -3   7  609.96   42.33
  -4   3  -7  657.41   56.22
  -3   2  -9    6.03    9.71
  -3  -2  -9   12.55   11.49
   3  -2   9   10.88   10.49
  -3   2  -9   25.64   11.54
   3   2   9   17.69   16.04
   3  -2   9   10.38    7.15
   5   5  -4  701.75   40.20
   5  -5  -4  547.34   37.42
   5  -5  -4  577.37   50.13
   3  -3   8 1943.89   89.26
   3  -3   8 1979.40   91.88
  -3  -3  -8 1928.07   98.15
  -3   3  -8 2000.00  106.30
  -3   3  -8 2041.99  114.44
   3   3   8 1978.62   89.74
  10   1  -3 9226.24  451.82
  10  -1  -3 9853.77  494.47
  10   0  -2 4353.47  212.61
  -5  -3  -6  852.43   79.79
  -5   3  -6  936.08   52.21
   5   3   6  876.90   48.21
   5  -3   6  922.87   54.74
  -5   3  -6  938.59   64.21
   5  -3   6  893.95   52.32
   5   5   0 1487.83   66.84
   5  -5   0 1358.45   82.56
   5  -5   0 1419.97   59.68
  -5  -5   0 1387.22   59.20
   5   5   0 1408.18   48.16
   5  -5   0 1328.99   75.64
   6   4  -8 6098.07  274.01
   6   4  -8 6269.02  220.43
   6  -4  -8 5410.65  267.17
   6   4  -8 6426.10  221.96
   6  -4  -8 6333.27  294.97
   1  -4  -9 1388.33   78.48
   1   4  -9 1602.52   84.39
   1  -4  -9 1554.53   69.43
   1   4  -9 1556.94   53.03
  -1  -4   9 1599.82   78.38
  -1   4   9 1544.26   90.63
  -1  -4   9 1430.75   58.18
  -1   1  12 1590.14  103.62
   1   1 -12 1465.08   90.03
  -1  -1  12 1485.30   73.05
   1   1 -12 1473.89   67.72
   1  -1 -12 1535.02   59.29
   1  -1 -12 1552.85   82.52
   8  -2 -10 1197.15  100.63
   8   2 -10 1016.39   49.91
   8   2 -10  995.26   57.13
  -6  -2  -6    4.93   10.07
  -6   2  -6   26.23    9.85
   6   2   6    4.74    8.43
   6  -2   6    2.09    9.39
   6  -2   6   -0.75    7.44
  10  -1  -711199.73  557.52
  10  -1  -7 9489.46  490.80
  10   1  -711096.23  590.25
  10   1  -7 9844.86  488.40
  -2   3  -9 2128.48  133.26
   2   3   9 2005.52   93.51
   2  -3   9 2025.75   90.77
   2  -3   9 2219.16   98.71
  -2  -3  -9 1954.93  102.67
  -2   3  -9 2118.26   89.32
   4   2 -12 3484.11  157.48
  -4   2  12 3546.01  161.74
  -4  -2  12 3524.80  156.50
   4  -2 -12 3519.63  167.82
   4   2 -12 3436.90  157.46
  -7   2  11 1208.95   99.62
   7   2 -11 1227.45   89.74
   7  -2 -11 1172.95   75.55
   7   2 -11 1207.73   54.00
   2  -5   5   10.98    7.96
   2   5   5   16.14    7.68
  -2   5  -5   25.98   18.46
   2  -5   5   19.98   14.95
  -2  -5  -5   15.16    5.29
  -2  -5  -5   16.08   17.08
   2  -5   5   29.37    7.80
   2  -2  10 1732.13   71.81
  -2   2 -10 1788.09   81.95
  -2  -2 -10 1719.20   92.28
  -2   2 -10 1770.84   86.45
   2   2  10 1724.55   84.49
   2  -2  10 1891.56   90.79
  -8  -3  -1  815.28   61.14
   8  -3   1  763.71   52.52
   8   3   1  833.32   44.60
   8  -3   1  681.88   50.61
   8   3   1  759.93   22.61
   8  -1 -11 1415.60   80.90
   8   1 -11 1391.48   89.04
   8   1 -11 1338.58   70.56
   3  -5   4   17.98    5.65
  -3  -5  -4    6.76    3.80
  -3  -5  -4   10.54    9.98
  -3   5  -4   21.29   15.92
   3   5   4   -0.83    6.53
   3  -5   4    8.38   13.51
   3  -5   4   28.40    8.39
   9   3  -4  994.90   46.83
   9  -3  -4  960.80   92.60
   9   3  -4  997.64   48.86
   9  -3  -4  929.49   66.36
   9  -3  -4 1038.09   68.92
  -4   3  11  736.15   48.91
   4   3 -11  857.42   36.43
   4   3 -11  814.13   53.23
   4  -3 -11  740.77   57.31
  -4  -3  11  852.34   46.19
  10   0  -8 4392.78  248.77
  10   0  -8 4834.27  240.00
  -8   0  -4 1818.81  105.10
   8   0   4 1900.83  127.96
   8   0   4 1803.67   66.66
  -5   4   9 1189.48   65.95
   5  -4  -9 1098.42   69.61
   5   4  -9 1230.88   69.72
   5   4  -9 1219.56   39.69
   5   4  -9 1336.43   45.65
   7   4  -7  162.99   16.70
   7   4  -7  171.11   16.18
   7   4  -7  176.92   22.59
   7  -4  -7  144.33   27.44
   7  -4  -7  127.85   25.72
  -4   1  -9  303.53   31.34
   4  -1   9  296.08   30.58
   4   1   9  238.84   28.50
  -4   1  -9  297.28   31.27
   4  -1   9  265.12   16.87
  -4  -1  -9  240.33   32.68
  -5   1  -8  344.81   31.70
   5  -1   8  256.38   30.19
  -5  -1  -8  285.39   34.99
   5  -1   8  246.96   16.98
   5   1   8  312.36   30.68
  -5   1  -8  266.97   30.33
   2  -5  -7  289.79   32.32
  -2   5   7  274.37   24.14
  -2  -5   7  344.28   32.56
   2   5  -7  319.73   36.57
   2  -5  -7  317.12   28.47
   6  -3   5 1177.38   84.80
   6  -3   5 1209.50   68.13
  -6   3  -5 1133.94   63.41
   6   3   5 1232.81   60.51
  -6  -3  -5 1151.02   67.09
   2   3 -11 1513.54   59.81
   2  -3 -11 1308.24   80.44
  -2  -3  11 1572.49   75.42
   2   3 -11 1397.16   76.38
  -2   3  11 1329.17   72.48
  -1  -5  -6 1135.78   49.06
   1   5   6 1152.40   51.05
  -1  -5  -6 1083.34   62.97
   1  -5   6 1194.01   75.16
  -1   5  -6 1228.24  121.22
   1  -5   6 1082.06   30.79
   9   1 -10   24.48   11.16
   9  -1 -10   -0.32   14.19
   0   0 -12    6.98    8.33
   0   0  12    4.54    8.17
   0   0 -12    2.30    5.58
  -2   2  12 1891.52   94.54
   2  -2 -12 1826.34   97.33
   2  -2 -12 1823.14   71.62
  -2  -2  12 1914.51   88.67
   2   2 -12 1896.70   88.76
   2   2 -12 1891.77   80.14
   4   5   3  381.86   31.83
   4  -5   3  427.30   23.86
   4  -5   3  435.11   44.58
  -4   5  -3  433.29   51.74
   4  -5   3  404.05   24.41
  -4  -5  -3  394.63   34.85
   0   6   0 2921.20  146.53
   0  -6   0 2888.28  186.05
   9  -3  -6 2482.75  132.28
   9   3  -6 2415.99  103.17
   9   3  -6 2525.48  109.00
   9   3  -6 2569.62  104.98
   9   2  -9 5315.60  233.07
   9   2  -9 5119.96  238.64
   9  -2  -9 5198.31  261.19
   9   2  -9 5425.77  252.03
   7   1 -12  526.69   51.56
   7   1 -12  541.88   41.54
   7  -1 -12  632.60   46.67
  -7   1  12  622.95   48.22
  -7  -1  12  558.06   48.17
  -3   1 -10 1260.95   70.46
  -3  -1 -10 1323.71  105.28
  -3  -1 -10 1588.66   75.27
   3  -1  10 1406.42  100.11
   3   1  10 1339.96   73.96
  -3   1 -10 1430.94   74.06
   7   4   1 4358.05  162.24
  -7  -4  -1 4193.60  208.25
   7  -4   1 4221.51  202.18
   7  -4   1 4432.06  194.78
   7   4   1 4333.43  190.11
   9   3  -2 4085.21  173.61
   9  -3  -2 4238.39  237.21
   9  -3  -2 3856.73  195.95
   9  -3  -2 3640.48  182.51
   9   3  -2 4037.07  153.27
  -6  -1  -7  161.32   29.93
  -6   1  -7  211.75   44.88
   6   1   7  186.81   25.67
   6  -1   7  195.95   22.36
   6  -1   7  204.91   28.35
  10   2  -4  414.19   29.25
  10  -2  -4  575.39   51.29
  10  -2  -4  471.13   46.52
  10   2  -4  458.86   56.90
   7   3 -10 3860.67  176.04
   7   3 -10 3834.85  144.01
  -7   3  10 3908.03  184.18
   7  -3 -10 3525.29  182.47
   1  -6  -1   31.76   16.45
  -1  -6   1   37.27   16.28
   1   6  -1   23.61   27.89
   1  -6  -1   44.38    5.10
   1  -6  -1   18.10    6.10
  -3   4  -7 1530.41  134.24
   3  -4   7 1448.29   82.41
   3  -4   7 1441.67   66.61
  -3   4  -7 1457.75   79.95
   3   4   7 1459.26   67.94
  -3  -4  -7 1410.77   79.04
  10  -1  -1  287.72   30.45
  10   1  -1  262.14   36.75
  10  -1  -1  281.87   41.78
   4  -4   6 1523.90   85.46
   4  -4   6 1582.94   72.57
   4   4   6 1419.35   67.97
  -4  -4  -6 1468.95  104.98
  -4   4  -6 1686.70  104.84
   9   1   2 1383.76   55.33
  -9  -1  -2 1183.41  111.42
   9  -1   2 1205.58   79.44
   9   1   2 1294.93   98.54
   9  -1   2 1246.16   63.31
   5   5  -6   65.62   17.69
   5  -5  -6   47.11   21.00
   5  -5  -6   81.86   27.58
   7   2   5  773.31   49.80
   7  -2   5  776.51   46.07
   7  -2   5  692.40   76.37
  -7   2  -5  739.22   55.09
  -7  -2  -5  865.33   59.95
  -1  -3 -10  402.91   25.56
  -1   3 -10  439.71   39.18
   1  -3  10  400.58   31.74
   1  -3  10  432.48   33.57
  -1   3 -10  460.88   30.04
  -1  -3 -10  460.29   42.06
  -1  -3 -10  434.97   12.83
   6  -5  -3 8947.01  437.25
   6  -5  -3 8390.71  406.38
   6   5  -3 8280.18  372.30
   6   5  -3 7989.46  303.01
   6  -5  -3 8934.54  397.20
   6   5  -3 8097.63  302.04
   9   2   1 1359.09   73.37
   9   2   1 1274.29   41.11
   9   2   1 1300.87   60.64
  -9  -2  -1 1184.76   81.52
   9  -2   1 1353.42   79.75
   9  -2   1 1430.84   77.68
   3   0 -13    0.05   11.04
   3   0 -13    5.36    8.75
  -3   0  13    9.61    9.03
   8  -4  -4   19.86   12.17
   8   4  -4    7.34    8.04
   8  -4  -4    9.10   18.75
   8  -4  -4   30.11   15.03
   8   4  -4    7.61    7.58
   8   4  -4   14.63    6.29
   5   0 -13    2.63   10.96
   5   0 -13   -0.66    7.44
  -5   0  13    6.10    8.04
  10   2  -6  504.91   40.47
  10  -2  -6  374.93   71.04
  10   2  -6  494.67   32.82
  10  -2  -6  453.68   74.81
  10   2  -6  442.79   40.44
   8  -3  -9  598.70   56.03
   8   3  -9  734.15   56.34
   8   3  -9  696.66   44.79
   8   3  -9  664.49   45.38
  -4   5   7  223.72   36.15
  -4  -5   7  211.51   25.88
   4  -5  -7  203.12   30.04
   4  -5  -7  226.35   42.51
   4   5  -7  195.40   28.94
   1  -6   1  210.41   36.46
  -1   6  -1  276.32   58.48
   1   6   1  331.17   33.57
  -1  -6  -1  269.26   12.03
  -1  -6  -1  325.75   32.43
   0  -6   2 7351.73  365.27
   0  -6  -2 6850.06  280.23
   0  -6  -2 6808.97  333.97
   0   6  -2 7144.45  364.95
   6   2 -12   56.13   17.51
   6  -2 -12   79.24   20.73
   6   2 -12   49.69   13.01
  -6  -2  12   78.06   19.15
  -6   2  12   70.76   20.35
  -1   2 -11 3251.42  171.41
  -1  -2 -11 3145.20  156.69
  -1  -2 -11 3246.11  115.13
   1  -2  11 3103.15  142.56
   1   2  11 3172.92  144.95
  -1   2 -11 3116.23  138.05
  -2   4  -8 3715.67  194.14
  -2   4  -8 3633.78  147.49
   2  -4   8 3696.57  172.08
   2  -4   8 3545.62  150.93
  -2  -4  -8 3436.80  167.23
   2   4   8 3831.20  161.98
   0   5  -7 8342.19  417.70
   0  -5  -7 7299.16  332.48
   0  -5   7 8452.66  406.13
   0  -5  -7 8518.86  402.72
   0   5   7 8552.67  367.85
   5   4   5 1113.22   54.34
  -5  -4  -5  990.61   62.86
  -5   4  -5 1075.32   78.85
   5  -4   5 1032.64   54.61
   5  -4   5 1075.81   93.30
   4   1 -13  299.51   29.24
   4   1 -13  272.83   26.74
  -4   1  13  313.42   32.82
   4  -1 -13  261.49   31.88
   4  -1 -13  283.52   26.15
  -4  -1  13  308.88   31.20
   8  -4  -2 4961.04  248.72
   8   4  -2 4847.50  192.05
   8   4  -2 4968.09  199.99
   8  -4  -2 5218.54  236.78
   8  -4  -2 4758.09  225.95
   6  -5  -1 1462.56   66.24
   6   5  -1 1414.49   62.91
   6  -5  -1 1377.63   85.84
   6  -5  -1 1377.42   85.61
   6   5  -1 1424.47   59.28
  10   0   0  633.19   41.78
  10   0   0  676.74   59.13
   2  -6   0 3192.80  155.62
   2  -6   0 2962.01  100.49
   2  -6   0 2943.97  114.14
   2   6   0 3209.23  155.07
  -2  -6   0 3094.99  136.00
   2  -6  -2 2430.98   95.93
   2  -6  -2 2376.54  116.37
  -2  -6   2 2387.42  110.89
   2   6  -2 2438.88  131.08
  -6   3  11 1520.42  106.36
   6   3 -11 1329.70   77.25
   6   3 -11 1382.13   56.54
   6  -3 -11 1438.55   85.07
   5  -5   2  338.39   40.29
   5   5   2  375.56   22.26
  -5  -5  -2  362.78   47.84
   5  -5   2  368.62   26.59
   5  -5   2  366.79   35.26
  -2  -1 -11 7710.80  325.84
   2  -1  11 7516.31  353.31
  -2   1 -11 7865.79  379.38
  -2  -1 -11 7679.10  400.61
  -2   1 -11 7366.49  344.55
   2   1  11 7320.30  341.02
   7  -3   4 2363.07  115.42
   7  -3   4 2396.08  117.52
  -7  -3  -4 2386.92  124.38
   7   3   4 2325.24  105.02
   4  -4 -10 2240.62  123.84
   4   4 -10 2509.03   82.09
   4   4 -10 2483.39  125.32
  -4   4  10 2131.84  105.91
   6  -5  -5  363.04   43.25
   6  -5  -5  351.59   48.51
   6   5  -5  357.85   31.04
  -2  -4  10 6409.05  293.21
   2  -4 -10 6446.15  311.44
  -2  -4  10 6145.92  252.83
   2  -4 -10 7228.05  339.26
   2   4 -10 6456.73  251.79
   2   4 -10 6263.21  299.87
  -2   4  10 6549.12  291.41
  10  -2  -2 1932.03  108.26
  10  -2  -2 2102.22  121.59
  10   2  -2 2149.46  107.98
  10   2  -2 2189.57   86.36
   1  -6  -3  281.93   30.47
   1   6  -3  309.13   41.23
  -1  -6   3  328.09   37.37
   1  -6  -3  285.47   25.20
   7   1   6  622.23   49.57
  -7  -1  -6  582.58   54.50
  -7   1  -6  633.48   56.00
   7  -1   6  690.43   33.73
   7  -1   6  672.08   52.53
   9   0 -11   -0.03    5.36
   8  -4  -6 4112.37  200.45
   8  -4  -6 4441.70  218.94
   8   4  -6 4239.80  208.96
   8   4  -6 3950.31  147.58
   8   4  -6 4353.81  160.44
   8   0 -12 1015.86   64.67
  10  -1  -9    0.49   18.30
  10   1  -9   32.73   24.01
  10   1  -9   64.61   19.15
   1  -4   9 2707.07  117.38
   1  -4   9 2797.06  161.74
  -1   4  -9 2869.87  113.82
  -1   4  -9 2776.80  145.44
   1   4   9 2939.32  131.17
  -1  -4  -9 2845.63  142.67
   2   1 -13 7560.88  338.94
   2  -1 -13 7291.52  312.94
   2  -1 -13 7526.76  391.93
   2   1 -13 7532.26  339.63
  -2  -1  13 7295.64  341.35
  -2   1  13 8163.77  376.22
   9   0   3    0.17    4.10
   9   0   3    2.16    7.72
  -9   0  -3   -1.65   12.36
  -3  -5   8 1115.87   66.99
   3  -5  -8 1074.29   65.53
   3   5  -8 1129.44   72.64
   3  -5  -8 1070.67   96.94
  -3   5   8 1133.34   57.98
  -6  -1  13  307.44   31.55
   6  -1 -13  215.64   31.42
   6   1 -13  249.62   29.39
   6   1 -13  226.42   26.60
  -6   1  13  260.19   49.65
   9   3  -8  111.42   17.22
   9  -3  -8   92.37   41.19
   9   3  -8   90.65   14.36
   9   3  -8  101.12   18.80
   3  -6  -1   13.97    5.33
  -3  -6   1    1.98   12.91
   3  -6  -1    4.31    6.23
   3  -6  -1    0.18   11.19
   3   6  -1    0.85   18.04
   6   4   4    2.85    6.85
   6  -4   4    6.24   11.96
  -6  -4  -4    6.00   16.10
   6  -4   4    8.30   16.36
  11   0  -5   -4.21   12.17
  11   0  -5   11.87   11.87
  10  -2  -8 1988.54  117.55
  10   2  -8 1769.51   89.43
  10   2  -8 1909.88  112.98
  10   2  -8 2041.41  106.29
   0   3 -11  957.47   48.24
   0   3 -11  886.92   59.36
   0  -3  11  912.02   52.05
   0   3  11 1016.35   62.23
   0  -3  11  953.08   77.64
   0  -3 -11  998.45   66.51
   0  -3 -11  972.89   40.97
  -8  -2  -4 1482.54   92.71
  -8   2  -4 1517.99   90.40
   8   2   4 1521.15   82.40
   8  -2   4 1722.87   81.34
   8  -2   4 1530.23   89.53
   1   6   3   -1.01    9.16
  -1  -6  -3    1.81    8.44
  -1   6  -3    7.39   26.72
  -1  -6  -3   39.90   10.28
   1  -6   3   18.71   14.97
   9   3   0 4946.42  242.31
   9   3   0 4509.71  164.52
   9  -3   0 4664.17  221.56
   9  -3   0 4868.66  236.10
  -2  -6  -2    0.00    5.30
  -2   6  -2   20.95   12.58
   2   6   2    3.97    3.80
   2  -6   2    8.32   11.21
  -2  -6  -2    7.20   10.75
   1  -5  -8  600.57   37.10
  -1   5   8  657.35   39.04
   1   5  -8  566.93   83.70
  -1  -5   8  617.23   52.23
   1  -5  -8  661.79   50.20
   3  -6  -3   65.52   13.54
   3  -6  -3   59.22   16.95
  -3  -6   3   38.36   15.35
   3   6  -3   34.60   20.06
   1   0 -13    7.70    7.17
   1   0 -13    4.41   10.33
  -1   0  13   10.41   10.29
  10   0 -10  496.07   45.56
   2  -6  -4    7.79    8.91
  -2  -6   4    2.79   10.07
   2   6  -4   12.15   12.91
   2  -6  -4    6.52   13.59
   7   0 -13   -3.05    5.62
   7   0 -13    3.38    5.45
  -7   0  13    0.17    6.46
   5   0   9    9.40   10.98
  -5   0  -9    3.54   11.83
   0   2 -12  134.68   18.10
   0   2  12  132.31   23.71
   0  -2  12  136.27   31.24
   0   2 -12   81.66   29.42
   0  -2 -12  107.39   10.79
   0  -2 -12   -0.03   24.83
   8   4   0  113.18   10.56
   8  -4   0  160.10   26.02
  -8  -4   0  110.23   25.58
   8  -4   0  133.56   23.35
   8   4   0    2.06   23.39
   8  -4   0  144.84   20.62
   0  -6  -4   -0.55    9.96
   0   6  -4   34.61   19.27
   0  -6  -4   19.31   11.96
   0  -6   4   31.34   16.95
   0   6   4   23.37    7.37
  11   0  -7    7.48   14.43
  11   0  -7   18.30   24.79
  11   0  -3    4.54   11.96
  -1  -1 -12   75.75   11.66
  -1  -1 -12   50.60   22.14
  -1   1 -12  104.11   15.95
  -1   1 -12   99.30   18.63
   1   1  12   53.55   20.38
   1  -1  12   66.16   19.16
  -4   0 -10    9.25   15.99
  -4   0 -10   12.64   13.64
   4   0  10   19.88   13.05
  -3   3  12  115.58   20.88
   3   3 -12  100.31   14.18
   3  -3 -12    0.08   25.32
   3   3 -12  101.67   21.78
  -3  -3  12   87.17   21.22
   6  -5   1 4700.50  229.23
   6  -5   1 4806.56  233.31
   6   5   1 4624.07  206.05
   6   5   1 5061.01  199.84
   6  -5   1 4901.33  207.88
  -6  -5  -1 4828.80  253.53
   7   4  -9 1239.82   46.83
   7  -4  -9 1181.86   80.24
   7   4  -9 1258.29   53.71
   7   4  -9 1270.06   73.92
  11   1  -6  182.05   35.61
  11   1  -6  264.95   36.09
  11  -1  -6  238.98   41.43
  11  -1  -6  218.21   37.54
  11  -1  -4  953.33   75.61
  11   1  -4 1063.32   70.41
  11  -1  -4 1037.67  113.89
   3  -6   1  228.06   34.03
   3   6   1  163.67   14.96
  -3  -6  -1  215.60   19.50
   3   6   1  242.38   26.90
   8   1   5 5516.58  267.41
  -8  -1  -5 5455.60  276.43
  -8   1  -5 5513.29  281.72
   8  -1   5 5470.21  272.47
   8  -1   5 5727.75  240.09
  -6   0  -8 5222.86  248.30
   6   0   8 5371.10  250.24
   6   0   8 4550.19  169.92
   5  -3 -12 3401.96  215.81
  -5   3  12 3532.88  170.84
   5   3 -12 3698.87  144.05
  -5  -3  12 3546.55  161.83
   5   3 -12 3650.40  177.24
   3  -2 -13 1688.29   98.22
  -3  -2  13 1822.63  120.40
  -3   2  13 1704.94   93.53
   3   2 -13 1695.98   97.80
   3   2 -13 1700.52   87.51
   3  -2 -13 1727.59   91.49
   8  -3   3 1275.61  100.28
  -8  -3  -3 1195.24   86.66
   8  -3   3 1230.06   70.55
   8   3   3 1196.50   64.96
  -5  -2  13   61.98   28.47
   5  -2 -13   43.56   20.03
   5   2 -13   44.53   13.13
   5   2 -13   55.59   28.01
  -5   2  13   28.33   28.56
   6   4 -10   11.18   12.96
  -6   4  10   19.95   19.07
   6  -4 -10   25.48   22.91
   6   4 -10   11.95    5.16
   6   4 -10   14.71    6.30
   7  -5  -4  114.95   21.31
   7  -5  -4  166.90   31.84
   7  -5  -4  119.37   22.06
   7   5  -4  102.57   18.23
   0   4  10  196.15   38.71
   0  -4  10  187.60   26.08
   0  -4 -10  184.87   19.18
   0  -4  10  151.35   29.64
   0   4 -10  168.29   16.80
   0  -4 -10  185.56   29.59
   0   4 -10  179.37   29.92
  10   1   1 3427.69  177.66
  10  -1   1 3369.78  159.65
  10   1   1 3252.07  162.17
  10  -1   1 3378.48  230.79
  -3   0 -11    6.00    7.59
   3   0  11   -0.95   15.34
  -3   0 -11    2.78    9.64
   6   5  -7 5493.73  256.10
   6  -5  -7 5256.83  257.37
   6  -5  -7 5451.33  277.00
   7  -5  -2  171.70   26.55
   7  -5  -2  123.88   28.03
   7  -5  -2  101.34   19.42
   7   5  -2   86.67   14.60
   7   5  -2   93.83   10.62
   4  -6  -2  793.95   59.04
   4  -6  -2  770.16   38.58
   4  -6  -2  720.46   55.87
   4   6  -2  782.71   56.79
  -4  -6   2  825.76   45.20
   5   5  -8    1.60   11.04
   5  -5  -8   11.08   10.64
   5  -5  -8   10.41   11.68
  -5   5   8    1.56    8.99
  10  -3  -5 2077.91  117.22
  10  -3  -5 1983.16  114.89
  10   3  -5 1928.67   91.71
  10   3  -5 1883.48   85.64
  10   3  -5 1786.16   95.26
  10  -3  -5 1795.79  141.40
   8   4  -8  263.22   16.81
   8   4  -8  279.04   31.89
   8   4  -8  279.95   17.89
   8  -4  -8  252.07   39.56
   8  -4  -8  210.53   37.06
   7  -4   3  929.75   90.29
   7  -4   3  950.28   78.38
  -7  -4  -3  902.32   69.23
   7   4   3  916.24   49.67
  -3  -5  -6  503.14   45.09
   3  -5   6  441.63   50.66
  -3   5  -6  460.60   61.91
   3   5   6  536.42   34.00
   3  -5   6  437.69   27.42
  -1  -6   5   -1.27    9.57
   1  -6  -5   -0.23    3.89
   1   6  -5    6.85    7.11
   1  -6  -5   -0.01    7.93
  -1   6   5   -2.57    5.02
  10   2   0    7.87   11.45
  10  -2   0    2.20   13.97
  10  -2   0   12.55   12.09
  10   2   0    7.11    4.93
  -7   0  -7    6.97   18.80
   7   0   7    2.84   10.79
  -4   5  -510934.53  649.20
   4   5   510376.14  492.47
   4  -5   510400.78  529.31
   4  -5   5 9521.72  456.77
  -4  -5  -5 9526.93  491.12
  10  -3  -3 1012.52   76.77
  10   3  -3 1020.38   47.62
  10   3  -3 1060.87   58.89
  10  -3  -3 1063.46   75.26
  10  -3  -3  942.70   70.79
   2  -5   7  200.65   17.22
  -2   5  -7  243.71   47.34
   2  -5   7  281.63   56.31
  -2  -5  -7  249.48   32.99
   2   5   7  308.68   24.56
   9  -2 -11 1426.82   95.92
   9   2 -11 1389.48   77.70
   9   2 -11 1423.87   70.25
   4  -6   0 5142.62  202.29
  -4  -6   0 5328.35  225.03
   4   6   0 5527.89  266.16
   4  -6   0 5542.39  228.20
   4  -6   0 5392.75  264.45
  -8   2  12 1873.43  111.04
   8  -2 -12 1744.59  113.79
   8   2 -12 1896.51   99.62
   8   2 -12 1889.16   85.92
   3   4 -11 3046.30  116.42
  -3  -4  11 3110.47  126.25
   3  -4 -11 3626.70  163.81
   3   4 -11 3050.50  194.14
   3  -4 -11 2970.01  197.91
  -3   4  11 3075.12  144.90
   4   0 -14  635.85   48.10
   4   0 -14  626.85   42.49
  -4   0  14  597.65   49.98
   3  -6  -5  147.81   23.71
  -3  -6   5  168.14   24.94
   3   6  -5  169.09   29.72
   3  -6  -5  131.55   23.91
  11  -1  -8  914.51  104.64
  11  -1  -8 1084.48   80.58
  11   1  -8  959.18   74.69
  11   1  -8  819.75   65.75
  11  -1  -2   14.92   19.62
  11   1  -2   -1.59   14.32
  11  -1  -2   26.21   16.48
   9  -4  -5 1726.44   98.15
   9  -4  -5 1665.69  146.44
   9   4  -5 1734.50   72.46
   9   4  -5 1617.75   72.57
   9  -4  -5 1619.42   99.30
   9   4  -5 1709.16  100.76
   4   6  -4 8208.38  404.89
  -4  -6   4 8436.50  391.24
   4  -6  -4 8120.06  394.45
   4  -6  -4 8271.06  381.84
   9   4  -3  128.34   16.77
   9  -4  -3  106.38   40.31
   9  -4  -3  130.99   32.23
   9  -4  -3  119.05   27.16
   9   4  -3  121.47   24.75
  -1  -3  12 3770.23  179.21
  -1   3  12 3812.91  181.13
   1   3 -12 3781.50  160.66
   1  -3 -12 3622.96  187.83
   1   3 -12 3526.08  172.66
   1  -3 -12 3527.78  132.31
   2   5  -9 1081.13   79.21
  -2   5   9 1108.33   61.02
   2  -5  -9 1110.69   78.48
   2  -5  -9 1179.35   89.97
  -2  -5   9 1106.13   73.19
   9   1 -12  986.66   60.51
   9   1 -12  914.75   60.51
   9  -1 -12  993.46   73.18
  10   3  -7  982.71   55.00
  10  -3  -7  925.09   77.76
  10   3  -7 1038.78   72.67
  10   3  -7 1064.02   58.67
  10  -3  -7  975.67   73.20
   7  -5  -6 1422.14   97.08
   7   5  -6 1415.39   74.72
   7  -5  -6 1348.66   81.62
   9   2   3 1410.93  108.95
  -9  -2  -3 1357.50   96.14
   9  -2   3 1496.01  100.81
   9  -2   3 1479.17   92.10
   5  -5   4  577.59   48.72
   5  -5   4  570.83   54.81
  -5  -5  -4  487.17   49.13
   5   5   4  528.02   47.13
   2   0  12   22.38   13.21
  -2   0 -12   13.45   13.47
  -2   0 -12   13.23    9.43
  11   0  -9   12.43   14.37
  11   0  -9    8.77   16.82
   4  -5  -9 7820.09  400.88
   4  -5  -9 8096.97  407.12
   4   5  -9 8014.99  399.04
  -4   5   9 7724.23  356.94
   5   4 -11 1120.09   74.08
   5   4 -11 1006.90   39.86
   5  -4 -11  980.54   74.56
  -5   4  11 1041.79   65.38
  11  -2  -5 2418.71  139.89
  11   2  -5 1826.97  113.61
  11   2  -5 2162.94  113.16
  11   2  -5 2102.78   95.85
  11  -2  -5 2147.41  166.29
  10   0   2 8597.66  394.33
  10   0   2 9000.69  469.93
  11   0  -1    3.75    8.50
  11   0  -1    4.93   12.75
   8  -3 -11 1400.81   96.96
   8   3 -11 1476.80   85.03
   8   3 -11 1466.22   63.70
  -1  -5  -8    0.88   11.68
   1  -5   8    4.93   12.78
   1   5   8   12.03    8.67
  -1   5  -8    4.59   15.59
   0   1 -13 1583.14   82.58
   0  -1  13 1646.89   89.33
   0   1 -13 1609.34   78.77
   0  -1 -13 1505.80   65.78
   0  -1 -13 1619.71   94.82
   0   1  13 1602.71   91.10
   6   0 -14 3355.51  157.68
  -6   0  14 3509.06  207.24
   6   0 -14 3387.35  162.03
  -2  -6  -4 8047.66  351.05
   2  -6   4 8196.29  427.59
   2   6   4 8731.10  391.15
  -2  -6  -4 7542.89  376.92
  -2   6  -4 8549.84  466.87
   5   1 -14 1511.44  109.13
  -5  -1  14 1521.10   86.03
   5   1 -14 1410.90   75.32
   5  -1 -14 1579.24   79.71
  -5   1  14 1451.64   85.39
   5  -1 -14 1372.73   83.87
   7   5   0   24.95   12.53
   7   5   0   20.39    9.80
   7  -5   0   17.36   10.73
   7  -5   0   17.65   16.23
   7  -5   0   19.45   12.13
   8   1 -13 4572.84  237.87
   8   1 -13 4549.14  216.06
  -8   1  13 5170.13  254.89
   8  -1 -13 4693.15  234.96
  -4   3  -9  985.58   60.85
   4  -3   9  897.79   62.75
   4  -3   9  920.35   56.19
  -4  -3  -9 1011.66   71.77
   4   3   9  986.40   59.61
  -4   3  -9 1047.35   78.82
  -5  -3  -8   36.95   16.05
   5  -3   8   -0.59   20.51
   5  -3   8    0.32   13.94
  -5   3  -8   22.56   14.26
   5   3   8   44.42   13.50
  -5   3  -8    6.63   27.72
  -9   1  -4  337.71   46.51
   9   1   4  382.81   44.10
   9  -1   4  354.96   29.70
   9  -1   4  334.83   45.05
  -9  -1  -4  368.95   74.75
  10   1 -11 3103.94  147.63
  10  -1 -11 3223.54  174.63
  10   1 -11 3114.49  148.13
  -1  -2  13   11.38   10.03
   1   2 -13   12.92    8.63
   1  -2 -13    2.19    5.77
   1   2 -13   10.23   15.97
  -1   2  13   14.18   11.87
   1  -2 -13    0.10   20.06
  10  -2 -10   -2.64   26.16
  10   2 -10   64.89   21.71
  10   2 -10   62.86   18.03
  10   2 -10   75.53   16.16
  -3   6  -3   74.30   22.64
   3  -6   3  133.33   19.61
  -3  -6  -3   18.27   12.27
   3   6   3   15.84    7.99
  -3  -6  -3   12.87    8.28
   3   1 -14  307.73   44.69
   3   1 -14  295.22   30.65
   3  -1 -14  239.00   34.58
   3  -1 -14  232.99   24.28
  -3  -1  14  317.20   32.36
  -3   1  14  252.45   34.72
   2   6  -6 9109.30  474.70
   2  -6  -6 8356.14  405.53
   2  -6  -6 9197.99  457.17
  -2  -6   6 9158.61  460.53
  -2   6   610147.29  447.44
   1  -6   5    9.61   12.10
  -1   6  -5   11.51   14.79
  -1  -6  -5    3.52    8.93
  -1  -6  -5    0.32    7.18
   1   6   5    0.91    9.20
   9  -3 -10  355.08   49.79
   9   3 -10  437.31   36.32
   9   3 -10  382.27   37.86
   9   3 -10  378.65   26.70
   7   2 -13 3226.01  160.04
  -7   2  13 3494.28  178.00
  -7  -2  13 3410.96  177.38
   7  -2 -13 3110.30  168.63
   7   2 -13 3265.35  164.30
   5  -2   9 2167.20  117.97
  -5   2  -9 2185.47  116.91
  -5  -2  -9 2026.97  119.45
  -5   2  -9 2318.50  123.26
   5   2   9 2107.98  141.19
   5  -2   9 2173.19   94.27
  -8   0  -6 5133.58  272.79
   8   0   6 5128.08  258.00
  11   2  -7  457.25   44.10
  11  -2  -7  537.98   56.54
  11   2  -7  390.55   42.20
  11  -2  -7  447.13   53.03
  11   2  -7  422.93   35.76
  -2   0  14   23.11   15.31
   2   0 -14   34.68   17.88
   2   0 -14   29.52   24.81
  11  -2  -3 2423.22  144.67
  11   2  -3 2579.88  112.98
  11  -2  -3 2957.62  163.30
  11  -2  -3 2747.32  147.72
  11   2  -3 2612.94  136.95
   1  -4 -11    0.34   13.33
   1   4 -11   -3.44   12.54
  -1   4  11   14.24   16.85
  -1  -4  11    9.23    8.12
   1   4 -11   11.46    6.75
   1  -4 -11    7.56    9.71
  -1  -4  11   14.86   11.27
   4  -2  10  301.78   36.52
  -4   2 -10  341.52   41.02
   4   2  10  266.79   51.62
  -4  -2 -10  263.21   39.28
  -4   2 -10  310.73   33.61
   4  -2  10  300.83   36.51
   7  -3 -12  489.47   83.27
   7   3 -12  583.84   34.70
  -7   3  12  598.98   51.74
   7   3 -12  557.67   74.69
   5  -6  -3   81.59   22.37
  -5  -6   3    1.24   15.81
   5   6  -3   96.08   18.72
   5  -6  -3   86.35   16.10
   5  -6  -3   86.24   22.15
   3   3  10 4266.91  200.08
  -3   3 -10 4528.98  210.45
   3  -3  10 4278.17  209.56
   3  -3  10 4351.90  196.45
  -3   3 -10 4472.99  243.82
  -3  -3 -10 4375.23  222.89
   9   4  -7 2031.04  100.25
   9   4  -7 2126.49  100.46
   9  -4  -7 1966.06  120.87
   9  -4  -7 1831.39  111.07
   9   4  -7 1837.06   75.16
  -6   3  -7 1411.03   81.92
   6   3   7 1186.82   69.78
  -6  -3  -7 1207.19  114.31
   6  -3   7 1333.04   79.62
   6  -3   7 1404.65   76.21
  -6   2  -8 2028.71  112.61
  -6  -2  -8 2010.63  157.29
   6  -2   8 2000.11  142.85
   6   2   8 1910.62  130.11
   6  -2   8 2064.71   92.74
  10  -3  -1 1295.07   83.58
  10  -3  -1 1389.05   89.87
  10   3  -1 1351.32   72.90
  10   3  -1 1168.85   60.81
  -9  -3  -2 3635.85  208.38
   9  -3   2 3670.44  178.44
   9  -3   2 3687.11  185.01
   9   3   2 3517.64  164.14
   5   6  -1  192.93   28.03
   5  -6  -1  142.75   26.90
   5  -6  -1  167.14   20.29
   5  -6  -1  150.30   29.83
   9  -4  -1  211.41   36.65
   9   4  -1  196.13   21.97
   9  -4  -1  196.44   27.69
   9  -4  -1  253.66   49.99
   9   4  -1  184.05   24.54
   8  -4   2 2099.28  112.84
  -8  -4  -2 2138.64  132.58
   8   4   2 2104.99   95.23
   8  -4   2 2118.97  135.13
  -4  -6  -2  317.12   21.22
   4  -6   2  331.61   43.90
   4   6   2  310.54   19.48
  -4  -6  -2  296.01   39.84
   6  -5   3  433.48   46.48
   6  -5   3  401.90   31.02
  -6  -5  -3  325.50   44.63
   6   5   3  397.55   29.30
   6  -5   3  407.87   34.19
   0  -6  -6 2414.04  135.40
   0   6  -6 2211.89  153.36
   0  -6   6 2226.97  135.59
   0   6   6 2390.62   99.69
   0  -6  -6 2107.50  113.86
  -3   2 -11  410.00   45.70
  -3   2 -11  396.37   38.20
   3  -2  11  386.73   42.10
   3  -2  11  381.50   28.84
  -3  -2 -11  359.15   45.48
   3   2  11  364.46   38.05
   0  -5   9  499.48   51.25
   0   5   9  485.39   37.71
   0   5  -9  482.61   55.58
   0  -5  -9  537.64   51.77
   4   4   8  240.12   27.75
  -4   4  -8  247.62   41.80
   4  -4   8  231.33   28.41
   4  -4   8  237.77   52.01
  -4   4  -8  160.65   69.24
  -4  -4  -8  262.12   37.51
  -4   3  13 1067.79   69.50
   4   3 -13 1061.47   52.44
   4   3 -13 1008.07   70.51
  -4  -3  13 1015.96   70.25
   4  -3 -13 1079.04   79.28
   4  -6  -6  288.69   35.08
   4   6  -6  304.01   39.78
   4  -6  -6  298.79   34.54
  -4  -6   6  303.84   33.98
  -1   0 -13    4.24    7.20
   1   0  13    5.04   10.19
  -1   0 -13    5.33   15.97
  -5  -4  -7 4068.10  253.37
  -5   4  -7 3999.60  224.61
   5  -4   7 3716.54  190.10
   5  -4   7 3787.01  181.16
   5   4   7 3926.60  177.75
   2  -3  11  796.29   50.52
  -2   3 -11  905.04   70.87
  -2   3 -11  774.84   51.31
   2  -3  11  801.34   58.33
   2   3  11  912.74   59.50
  -2  -3 -11  827.91   67.45
   8  -5  -3  440.12   41.38
   8  -5  -3  485.97   55.88
   8  -5  -3  486.89   42.87
   8   5  -3  446.90   32.58
   8   5  -3  448.01   28.57
   8   5  -3  483.51   33.25
   3  -4   9   13.40   18.58
  -3   4  -9    7.52   20.35
  -3   4  -9   11.20   17.54
   3  -4   9   22.04   14.17
   3   4   9   18.15   12.27
  -3  -4  -9   26.24   16.43
   7   2   7   58.75   19.60
   7  -2   7   72.77   34.10
  -7  -2  -7   76.92   25.00
   7  -2   7   -0.39   23.34
  -7   2  -7  105.56   35.15
   9   0 -13    1.52    9.10
   5  -6  -5  279.87   28.15
  -5  -6   5   85.69   26.06
   5   6  -5  229.37   30.55
   5  -6  -5  226.05   32.85
  -7  -1  14   33.54   19.29
  -7   1  14   76.90   32.86
   7  -1 -14   94.88   19.97
   7   1 -14   31.22   24.09
   7   1 -14   30.42   16.88
   7  -1 -14   -1.29   16.30
  -7  -3  -6 2319.29  137.55
   7   3   6 2485.65  120.78
   7  -3   6 2492.96  160.73
   7  -3   6 2447.16  123.46
  -7   3  -6 2358.80  127.19
  10   0 -12 5054.87  255.16
   8  -5  -5  464.38   58.41
   8   5  -5  457.01   39.25
   8  -5  -5  490.07   44.15
   8  -5  -5  477.78   45.31
  -4   2  14  523.58   49.97
   4  -2 -14  465.58   52.04
  -4  -2  14  519.95   46.86
   4   2 -14  525.14   46.67
   4   2 -14  493.59   38.12
   4  -2 -14  474.32   35.81
  10   3  -9 1574.48   85.93
  10   3  -9 1655.65   86.17
  10   3  -9 1503.16   72.28
  10  -3  -9 1782.47  113.35
  11   1 -10 1011.89   71.90
  11  -1 -10 1117.73   84.28
  11   1 -10 1189.57   88.89
  11  -1   0  396.18   41.30
  11   1   0  326.38   31.57
  11  -1   0  417.88   54.16
  11   1   0  377.56   73.82
   6  -5  -9  337.30   43.82
   6   5  -9  388.07   43.70
   6  -5  -9  352.53   46.97
  -3  -5  10    6.92   12.27
  -3   5  10    6.27   10.00
   3  -5 -10   -0.36   18.88
   3  -5 -10   -0.01   22.01
   3   5 -10   13.98   13.28
  12   0  -6 8801.74  482.68
  12   0  -610210.66  539.42
   7  -5  -8   43.46   40.14
   7   5  -8   62.32   21.23
   7  -5  -8   55.28   22.55
   8   4 -10 1719.99   68.20
   8   4 -10 1864.22   90.71
   8   4 -10 2036.80  138.33
   8  -4 -10 1993.43  117.96
   6   4   6 3463.17  159.15
  -6  -4  -6 3111.20  170.99
   6  -4   6 3472.11  164.40
   6  -4   6 3568.72  177.66
   5  -1  10  313.69   57.82
  -5   1 -10  279.80   36.76
  -5  -1 -10  275.88   40.35
   5  -1  10  286.80   20.73
   5   1  10  228.34   35.46
  -2   3  13  917.21   65.25
   2   3 -13  938.01   64.09
   2   3 -13  938.44   52.30
  -2  -3  13  982.68   72.59
   2  -3 -13  911.29   42.82
   2  -3 -13  933.28   73.67
   5  -6   1  110.80   27.77
   5   6   1   47.99   19.66
   5  -6   1   96.54   14.01
   5  -6   1  118.79   16.22
   3  -6  -7   57.71   18.69
  -3   6   7   87.92   23.36
  -3  -6   7   43.06   18.66
   3   6  -7   56.12   35.33
   3  -6  -7   -1.56   16.19
  -9   0  -5    3.20   12.91
   9   0   5    1.64   18.58
   6  -3 -13 1586.03  108.48
   6   3 -13 1743.35  137.14
   6   3 -13 1870.11   80.51
  -6   3  13 1669.48   99.98
  -6  -3  13 1747.90   94.88
  -2  -2 -12  110.21   39.91
  -2   2 -12   59.33   20.84
  -2   2 -12   61.50   19.23
   2   2  12  102.16   22.15
   2  -2  12   64.05   22.26
  11   2  -9  261.38   32.66
  11   2  -9  278.52   32.25
  11  -2  -9  307.06   47.07
  11   2  -9  336.69   41.86
   4   4 -12  147.83   31.81
   4  -4 -12  124.99   33.87
  -4   4  12  154.70   28.19
   7   4 -11  492.65   51.17
   7  -4 -11  471.58   54.56
  -7   4  11  548.06   50.44
  12   0  -4  301.60   45.23
  12   0  -4  269.61   45.40
   1  -6  -7  221.61   36.75
  -1   6   7  197.20   24.16
   1  -6  -7  273.46   26.75
  -1  -6   7  177.07   60.66
   1   6  -7  170.43   45.39
  -2  -4 -10  192.28   35.53
   2  -4  10  193.81   31.25
  -2   4 -10  227.59   42.27
   2   4  10  221.01   30.89
   2  -4  10  208.09   39.74
  -2   4 -10  207.12   23.63
 -10  -2  -2 2412.79  151.72
  10  -2   2 2521.32  155.39
  10  -2   2 2460.84  142.80
  10   2   2 2714.17  145.32
  -6  -1  -9 6505.25  332.85
  -6   1  -9 6964.33  350.16
   6  -1   9 6223.94  266.66
   6   1   9 6750.65  372.10
   6  -1   9 6797.51  381.21
  11  -2  -1 3676.57  200.93
  11   2  -1 3207.13  130.42
  11   2  -1 3388.61  175.47
  11  -2  -1 3188.64  174.01
   1  -1 -14  487.93   50.07
  -1  -1  14  474.55   45.55
   1  -1 -14  493.15   32.77
   1   1 -14  534.49   40.36
   1   1 -14  493.16   43.33
  -1   1  14  509.10   50.45
   6   2 -14 2612.33  145.82
  -6  -2  14 3017.14  162.91
   6  -2 -14 2450.10  145.55
   6   2 -14 2705.97  143.24
  -6   2  14 2533.19  180.44
  -4  -1 -11 1371.05   91.48
  -4   1 -11 1434.72   88.96
   4  -1  11 1481.72   90.58
  -4   1 -11 1513.12  118.83
   4   1  11 1379.49  119.85
   8   0 -14 4095.43  203.90
   8   0 -14 4077.47  196.83
  -8   0  14 4599.98  233.17
   8  -5  -1 5433.96  269.86
   8  -5  -1 5273.14  267.69
   8   5  -1 4308.97  214.07
   8   5  -1 5437.69  239.24
   8  -5  -1 5554.31  292.83
  12  -1  -5 1673.12  155.43
  12   1  -5 1444.84  104.85
  12   1  -5 1539.06   99.87
  12  -1  -5 1317.84  102.54
   7   5   2    0.43    7.04
  -7  -5  -2    8.18   12.26
   7  -5   2   10.84    8.47
   7  -5   2   21.57   19.00
   7  -5   2    0.66    9.55
  10   1   3 2173.93  127.51
  10  -1   3 2189.52  126.61
  10  -1   3 2002.52  172.72
 -10  -1  -3 2044.35  134.58
   6  -6  -2 2247.78  101.49
   6  -6  -2 2217.46  129.53
   6  -6  -2 2269.93  108.14
   6   6  -2 2375.65  122.29
   5   5 -10  501.60   54.85
   5  -5 -10  528.80   54.57
   5  -5 -10  509.08   55.73
  -5   5  10  550.89   45.22
  11   0 -11   -0.26    7.48
   8   2   6 2833.91  144.92
   8  -2   6 2672.44  185.88
   8  -2   6 2742.06  127.96
  -8  -2  -6 2597.75  156.95
  -8   2  -6 2640.28  193.32
   2   4 -12   93.76   13.42
   2  -4 -12   68.49   29.62
   2   4 -12  103.06   38.88
  -2   4  12   78.00   34.06
   2  -4 -12   -0.90   26.24
   6  -6  -4 2220.54  114.66
   6   6  -4 2148.48  112.50
   6  -6  -4 2459.34  115.14
   6  -6  -4 2272.77  126.97
  12  -1  -7  769.00   73.87
  12   1  -7  621.90   65.12
  12   1  -7  517.39   61.59
  12  -1  -7  652.90   99.60
  12   0  -8  265.37   47.09
  12   0  -8  215.82   42.45
  -2   2  14  505.09   72.48
   2  -2 -14  448.35   29.14
   2  -2 -14  517.39   53.29
   2   2 -14  454.44   43.95
  -2  -2  14  443.84   62.86
   2   2 -14  456.53   38.20
  -1   5  10   67.39   18.42
  -1  -5  10   81.56   23.70
   1  -5 -10   -0.64   25.95
   1   5 -10   82.30   25.73
   1   3  12 1197.32   75.44
  -1  -3 -12 1130.61   83.53
  -1   3 -12 1144.83   67.18
   1  -3  12 1131.32   73.60
  -1   3 -12 1131.10   78.34
   1  -3  12 1132.00   65.95
   9  -4  -9 3210.24  180.57
   9   4  -9 3518.12  171.85
   9   4  -9 3223.46  127.10
   9   4  -9 3617.12  163.85
  11   0   1   -0.80    8.93
  11   0   1   28.18   21.65
   7  -1   8  584.26   33.04
  -7   1  -8  688.05   61.30
   7   1   8  687.16   83.42
   7  -1   8  682.38   86.82
  -7  -1  -8  704.72   65.36
  11  -3  -6 1822.20  121.97
  11   3  -6 1925.47   95.44
  11   3  -6 1870.30  103.67
  11   3  -6 2078.25  103.46
  11  -3  -6 2069.74  171.68
  11  -3  -6 2144.82  131.96
  11   3  -4 1253.83   63.76
  11  -3  -4 1343.77   93.56
  11  -3  -4 1237.65   96.01
  11   3  -4 1248.98   73.37
  11  -3  -4 1138.20  118.93
  10  -4  -4 1257.05   86.73
  10  -4  -4 1274.60   99.85
  10   4  -4 1111.60   68.08
  10  -4  -4 1348.63  119.60
  10   4  -4 1150.70   62.04
  10   4  -4 1225.28   81.55
   8   3   5  470.72   42.73
   8  -3   5  517.38   45.40
   8  -3   5  509.56   72.33
  -8  -3  -5  484.90   55.36
   5   0 -15    2.03    9.42
   5   0 -15    6.44    8.68
  -5   0  15   -1.22   10.10
   8  -5  -7 4389.47  268.18
   8  -5  -7 4536.00  257.62
   8   5  -7 5030.01  274.73
  -3  -1 -12  136.54   31.97
  -3   1 -12  104.15   27.52
   3  -1  12  158.18   29.89
  -3   1 -12  174.73   28.48
   3   1  12   87.26   44.52
  -7  -4  -5  898.17   76.41
   7   4   5  902.92   56.68
   7  -4   5  961.06   63.45
   7  -4   5 1074.69   73.44
  -9  -4  -1 1138.35   94.25
   9  -4   1 1210.79   81.25
   9  -4   1 1167.84   74.76
   9   4   1 1275.71   68.05
  10  -4  -6 1764.60  111.13
  10  -4  -6 1693.44  110.00
  10   4  -6 1880.43   93.83
  10  -4  -6 1768.88  124.50
  10   4  -6 1710.79  101.57
  10   4  -6 1884.18   84.26
   0   0  14 6893.39  344.68
   0   0 -14 6952.63  316.51
   0   0 -14 6674.31  333.22
  12  -1  -3   12.25   25.51
  12  -1  -3   62.60   19.39
  12   1  -3   14.47   37.42
   6  -4 -12 3046.96  179.18
  -6   4  12 3539.83  175.34
   6   4 -12 3268.94  175.14
  10  -3   1 1105.70   78.18
  10   3   1 1034.60   70.47
  10  -3   1 1055.52   72.27
   3  -6   5  433.56   55.83
   3   6   5  440.32   30.88
  -3  -6  -5  419.31   48.50
  -3   6  -5  405.35   67.17
  -1  -4 -11 1878.90  116.60
   1   4  11 2015.74  105.18
   1  -4  11 1953.57  105.47
  -1   4 -11 1858.45  117.48
  -1   4 -11 1896.22   91.91
   1  -4  11 1656.10   90.58
  -2   6  -6  333.45   62.14
  -2  -6  -6  376.13   48.88
   2   6   6  354.55   28.76
   2  -6   6  320.63   51.50
   0  -7  -1  385.79   49.67
   0  -7   1  498.55   54.73
   0   7  -1  471.45   53.84
   3   0 -15   -0.82    8.95
   3   0 -15    0.43    6.70
  -3   0  15    5.10    8.51
  -1  -7   0 1280.50   97.66
   1  -7   0 1075.38  111.06
   1   7   0 1179.26   85.25
  -4  -1  15 1482.09  124.67
  -4   1  15 1472.19   93.93
   4  -1 -15 1350.47  122.58
   4  -1 -15 1369.56   99.01
   4   1 -15 1469.88  108.75
   4   1 -15 1508.74   86.23
  12   0  -2 6864.43  426.16
  12   0  -2 6703.27  326.72
   6   6   0    4.79    6.93
   6  -6   0    1.62    5.64
   6  -6   0   -4.77    8.74
   6  -6   0   -0.71    5.02
  -1   2 -13 2757.57  142.69
  -1  -2 -13 2802.53  155.68
  -1   2 -13 2592.97  161.83
   1   2  13 2895.78  152.94
   1  -2  13 2702.98  148.46
   5  -6  -7   -7.33   23.99
   5   6  -7   12.95   26.08
   5  -6  -7   32.95   16.69
  -4   5  -7  278.58   51.86
   4  -5   7  278.70   41.84
  -4  -5  -7  247.18   42.60
   4   5   7  257.84   28.77
   4  -5   7  257.78   26.34
  -4   6  -4 1426.23  116.26
   4  -6   4 1333.54   97.36
   4   6   4 1309.52   61.88
  -4  -6  -4 1141.49   79.16
   2   6  -8  428.64   55.69
  -2  -6   8  448.30   51.70
   2  -6  -8  400.63   37.92
   2  -6  -8  436.02   50.25
  -2   6   8  425.25   35.65
   3   5   8  366.35   34.54
  -3  -5  -8  397.13   73.84
   3  -5   8  309.36   46.91
  -3   5  -8  382.21   61.08
   9   2 -13  605.36   80.48
   9   2 -13  631.77   45.12
  10  -4  -2  123.17   35.10
  10  -4  -2  110.21   30.74
  10  -4  -2   97.78   30.96
  10   4  -2  177.99   21.84
   1  -7  -2  314.75   36.70
   1   7  -2  303.93   47.08
  -1  -7   2  318.71   49.49
   8   1   7   96.61   25.27
  -8   1  -7  126.50   29.59
   8  -1   7   48.09   13.53
   8  -1   7   88.93   27.45
  -8  -1  -7  107.65   29.41
  10  -2 -12 2339.22  146.43
  10   2 -12 2283.82  122.00
  10   2 -12 2198.57  132.34
   6   1 -15 4762.16  259.70
   6   1 -15 5024.53  282.60
  -6  -1  15 5124.78  261.57
   6  -1 -15 4808.84  287.90
  -6   1  15 5098.43  257.47
   6  -1 -15 4920.56  233.53
   1  -6   7   89.76   27.24
   1   6   7    0.42   24.65
  -1  -6  -7   78.46   28.41
  -1   6  -7   98.15   35.70
   5  -5   6   -1.44   10.62
   5   5   6    3.83    6.82
  -5   5  -6    6.84   12.68
  -5  -5  -6    1.70   10.32
   5  -5   6   -0.64    6.82
  11  -3  -8 3345.84  187.60
  11  -3  -8 3355.32  193.69
  11   3  -8 3186.74  154.10
  11   3  -8 2921.43  144.06
  11   3  -8 3574.23  198.46
   6  -6  -6   82.83   29.32
   6   6  -6   81.37   22.94
   6  -6  -6   97.91   23.29
   2  -7  -1 3814.57  236.80
  -2  -7   1 3609.92  184.68
   2   7  -1 3757.44  206.60
  11  -3  -2   38.45   21.51
  11   3  -2   15.25    9.78
  11   3  -2   34.10   15.47
  11  -3  -2   43.62   20.10
  11  -3  -2   29.90   19.70
  12  -2  -6 4545.39  249.97
  12   2  -6 4033.11  188.30
  12   2  -6 3612.74  205.72
  12  -2  -6 3867.68  220.88
  12   2  -6 4353.22  216.10
  12  -1  -9   39.59   24.82
  12  -1  -9   62.69   41.68
  12   1  -9   37.05   25.12
  12   1  -9   31.53   21.06
  -7   0  15   15.11   22.02
   7   0 -15    4.54   17.75
   7   0 -15    5.21   12.17
  10   0   4 1798.50  121.34
 -10   0  -4 1679.09  122.00
   2  -1  13   95.92   27.15
   2   1  13  132.34   27.82
  -2   1 -13   72.67   23.15
  -2  -1 -13  132.98   29.14
  -2   1 -13  110.07   25.63
   9   3 -12 1277.95   83.52
   9  -3 -12 1225.75  103.00
   9   3 -12 1248.05   82.48
  -4  -6   8 1158.88   78.01
   4   6  -8 1196.29   89.10
  -4   6   8 1206.78   70.68
   4  -6  -8 1118.95   83.90
   4  -6  -8 1146.35   81.85
  -1   7  -2 1160.68   94.47
   1  -7   2 1017.54   86.78
  -1  -7  -2 1234.84   96.26
   2  -5   9 2952.91  164.77
  -2  -5  -9 2882.22  208.38
   2   5   9 2996.92  144.80
  -2   5  -9 3007.65  195.18
   9   2   5 2366.66  131.77
  -9  -2  -5 2230.46  148.33
   9  -2   5 2442.72  122.75
   9  -2   5 2384.40  140.87
  10   1 -13 1721.24  100.20
  10   1 -13 1907.16  104.43
  10  -1 -13 1999.75  127.60
  12  -2  -4  324.23   54.62
  12   2  -4  365.85   43.65
  12  -2  -4  396.45   74.88
  12   2  -4  340.62   31.99
  12  -2  -4  322.11   48.60
   5  -6   3   60.93   22.89
   5   6   3   24.30   11.19
  -5  -6  -3   36.14   17.40
   8  -5   1  315.02   35.94
  -8  -5  -1  249.07   40.90
   8   5   1  275.92   38.84
   8  -5   1  307.17   41.16
   8  -5   1  300.49   32.41
   9  -5  -4   93.68   41.11
   9  -5  -4   91.53   56.06
   9   5  -4  106.53   31.50
   9  -5  -4  126.06   27.76
   4   5 -11   50.96   23.57
  -4   5  11   51.85   17.65
   4  -5 -11   -1.68   22.08
   4  -5 -11   52.95   23.76
  10  -4  -8   96.02   27.07
  10   4  -8   68.49   20.08
  10   4  -8   44.06   14.80
  10  -4  -8   93.93   30.13
  10   4  -8   49.49   21.04
   0  -3 -13  465.32   84.19
   0   3  13  441.16   48.91
   0  -3  13  497.53   72.81
   0   3 -13  493.34   39.50
   0   3 -13  506.02   50.39
   2  -7   1  344.38   47.34
  -2  -7  -1  362.67   58.81
   0  -7  -3 2977.87  156.07
   0   7  -3 3694.87  213.82
   0  -7   3 3620.65  253.00
  -8  -4  -4  716.98  110.34
   8   4   4  668.91   49.40
   8  -4   4  867.23   89.46
   8  -4   4  729.14   56.45
   5   3 -14 4032.67  179.31
   5   3 -14 3995.91  249.13
   5  -3 -14 3707.23  213.45
  -5  -3  14 3855.82  244.15
  -5   3  14 3992.41  204.02
   8  -2 -14 2590.45  155.44
   8   2 -14 2608.86  124.66
  -8   2  14 2979.71  166.74
   8   2 -14 2533.51  140.58
   2  -7  -3  164.75   28.85
  -2  -7   3  189.43   34.54
   2   7  -3  156.67   40.64
  -8   3  13  593.73   61.41
   8   3 -13  614.20   56.54
   8  -3 -13  483.84   63.89
   8   3 -13  617.92   41.01
   9   1 -14  281.73   34.08
   9  -1 -14  303.61   44.50
   9   1 -14  269.78   37.76
  12   0 -10 4582.42  257.16
  12   0 -10 5430.90  358.75
   9   3   4  108.56   45.76
   9  -3   4  191.34   33.90
   9  -3   4  210.63   29.99
  -9  -3  -4  161.01   41.08
  10   3 -11 1165.37   74.68
  10   3 -11 1359.00   79.60
  10  -3 -11  911.90   91.98
  10   3 -11 1050.81   57.77
  -6  -5  -5  327.41   51.92
   6   5   5  307.87   31.22
   6  -5   5  304.61   44.57
   6  -5   5  403.92   49.18
   2  -5 -11 3348.95  166.00
  -2   5  11 2693.80  136.79
   2  -5 -11 2862.31  169.63
   2   5 -11 2823.83  168.14
  -2  -5  11 2803.94  157.00
   3   3 -14  644.52   43.59
  -3  -3  14  648.77   57.02
   3  -3 -14  625.01   54.76
  -3   3  14  653.79   61.01
   3   3 -14  642.42   58.67
   3  -3 -14  639.27   65.03
   7   6  -3   19.74   11.77
   7  -6  -3    8.53   11.77
   7  -6  -3    8.15   16.38
   7  -6  -3   16.23   18.41
  -2   1  15   60.27   21.48
   2  -1 -15   62.54   21.41
  -2  -1  15   37.94   19.56
   2   1 -15   51.53   18.74
   2   1 -15   51.10   17.43
   2  -1 -15   29.49   13.93
  11   2 -11  654.81   49.00
  11   2 -11  654.87   51.86
  11  -2 -11  619.73   73.79
  11   2 -11  681.12   66.28
   0  -4 -12 3351.58  185.76
   0   4 -12 3254.05  153.17
   0   4 -12 3440.61  231.84
   0  -4  12 3625.12  176.34
   0   4  12 3769.44  183.21
   0  -4  12 3032.20  150.09
   0   6  -8 1071.55  103.69
   0  -6   8 1010.02   89.28
   0  -6  -8 1151.24  133.16
   0   6   8 1138.04   85.61
   3  -7  -2 1253.26  113.52
   3   7  -2 1355.61   99.62
  -3  -7   2 1312.47   82.32
   9  -5  -6  151.47   34.54
   9   5  -6  238.69   45.52
   9  -5  -6  191.94   70.17
   9  -5  -6  210.07   35.09
  12   2  -8  110.31   27.19
  12  -2  -8  143.14   34.70
  12   2  -8    0.32   25.62
  12   2  -8   92.55   32.15
  12  -2  -8  111.84   32.44
  11  -2   1  683.91   70.61
  11   2   1  644.47   62.36
  11  -2   1  666.56   54.00
   5   0  11   10.30   18.68
  -5   0 -11    0.40   12.46
   6   0  10   -4.59    7.81
  -6   0 -10    5.41    8.03
  11  -1 -12  368.97   49.92
  11   1 -12  288.92   37.22
  11   1 -12  282.97   38.22
   9  -5  -2 1020.53   66.79
   9  -5  -2 1023.54   73.02
   9  -5  -2  981.06   79.90
   9   5  -2 1083.00   70.28
   7  -5 -10  481.81   90.08
   7   5 -10  665.71   61.27
   7  -5 -10  599.15   64.13
  11  -1   2  461.38   63.69
  11   1   2  450.40   58.90
  11  -1   2  502.24   60.35
   3   7   0   -0.11   17.91
   3  -7   0   86.68   18.73
  -3  -7   0    1.09   14.46
   5   2 -15    4.76   28.73
   5  -2 -15   85.58   29.41
   5  -2 -15   81.95   41.51
  -5   2  15   77.47   24.89
  -5  -2  15   87.31   26.79
   5   2 -15   53.67   38.08
   1   7  -4   63.62   22.91
   1  -7  -4   -1.12   13.74
  -1  -7   4   35.45   32.79
  12   1  -1 4069.66  198.09
  12  -1  -1 3930.77  232.15
  12  -1  -1 3771.21  206.16
  12   1  -1 4050.73  227.80
   7  -6  -5  126.47   51.06
   7  -6  -5  118.42   24.53
   7  -6  -5  144.95   24.56
   7   6  -5    0.01   34.62
  -1  -5 -10   -0.09   49.60
   1   5  10   91.52   23.45
  -1   5 -10  128.51   37.60
   1  -5  10  139.10   30.19
  -3   4  13  780.70   89.43
   3   4 -13  748.59   69.37
   3  -4 -13  735.92   71.48
  -9  -1  -6   10.65   16.51
   9   1   6    8.97   14.44
   9  -1   6   -1.61   15.21
  -9   1  -6    8.31   16.22
   5   4 -13   33.32   38.92
  -5   4  13   69.21   32.31
   5  -4 -13   32.44   24.94
   8  -5  -9  222.18   41.88
   8  -5  -9  260.47   46.72
   8   5  -9  252.67   36.51
   4   0  12 8359.85  428.73
  -4   0 -12 7963.40  462.20
   0   2 -14 2909.07  153.05
   0  -2  14 3098.18  167.71
   0  -2 -14 3109.07  176.95
   0   2  14 3218.29  170.65
   0   2 -14 2884.11  147.53
  -7   0  -9    2.97   10.75
   7   0   9   -4.59   10.01
   7  -6  -1  474.83   79.14
   7  -6  -1  450.17   33.89
   7  -6  -1  445.54   38.67
   7   6  -1  326.57   41.36
  -1   0  15    5.07   11.08
   1   0 -15    2.33    8.13
   1   0 -15    2.55   10.77
   6  -6   2 5648.39  265.31
   6  -6   2 6399.04  372.39
   6  -6   2 5801.29  256.53
   3  -2 -15 2003.73  125.33
  -3   2  15 2193.01  164.24
   3   2 -15 2015.50  114.27
   3   2 -15 2067.69  107.20
  -3  -2  15 1886.78  116.26
   3  -2 -15 1999.81  114.61
   3  -6  -9    0.68   32.53
  -3   6   9   -0.33   34.83
  -3  -6   9  187.07   30.23
   3   6  -9  158.39   35.21
   3  -6  -9  160.35   25.89
  10   4   0 3211.02  154.35
  10  -4   0 3261.99  171.55
  10  -4   0 3106.20  173.90
  10  -4   0 3158.46  173.66
  12   2  -2 2586.07  120.13
  12   2  -2 2962.35  165.26
  12  -2  -2 2975.31  172.30
  12  -2  -2 3193.03  187.65
   1  -1  14  299.20   43.44
  -1   1 -14  350.20   36.30
  -1  -1 -14  318.12   45.55
   1   1  14  298.95   43.30
  -1   1 -14  282.63   38.79
  -3  -7   4  737.56   59.32
   3   7  -4  794.46   76.50
   3  -7  -4  709.37   56.55
   6  -5 -11    1.81   27.35
  -6   5  11   80.09   23.45
   6   5 -11   80.49   26.84
   6  -5 -11   70.17   27.24
   7   5   4  928.46   56.56
   7  -5   4  930.49   74.58
   7  -5   4  851.61   57.90
  -7  -5  -4  909.53   86.75
   8  -1 -15   26.24   17.72
  -8   1  15   23.74   29.07
   8   1 -15    8.90   21.67
   8  -1 -15   11.13   14.01
   8   1 -15   17.19   15.18
  -8  -1  15   16.70   18.62
  -7   3  14  552.07   57.27
   7   3 -14  481.37   55.00
   7   3 -14  538.30   39.65
   7  -3 -14  507.27   63.69
   9  -4 -11  428.54   62.90
   9   4 -11  532.12   52.91
  12   0   0  511.57   49.52
  12   0   0  580.05   70.26
   8  -4 -12  630.05   72.54
   8   4 -12  786.91   65.62
  -2  -7  -3 1870.08  124.45
  -2   7  -3 2102.15  146.97
   2  -7   3 1984.05  130.84
  11   3 -10 1240.99   79.61
  11   3 -10 1431.98   86.25
  11  -3 -10 1321.84  105.50
  11   3 -10 1231.31   67.62
  -1   7  -4 1971.60  145.03
  -1  -7  -4 1994.47  123.52
   1  -7   4 1839.01  130.87
  -4  -7   1  920.80   59.19
   4  -7  -1 1014.33   76.48
   4   7  -1  887.65   74.70
  11  -3   0  180.14   32.28
  11  -3   0  189.33   38.16
  11   3   0  161.86   31.69
  10   0 -14  722.85   59.65
  10   0 -14  743.16   65.45
   2  -7  -5 2018.69  112.21
  -2  -7   5 2649.21  154.17
   2   7  -5 2558.40  166.99
   3   0  13    0.39   10.57
  -3   0 -13    4.96   11.24
  -4  -7   3 1243.81   77.87
   4  -7  -3 1122.75  108.59
   4   7  -3 1166.99   93.19
   6  -6  -8 5492.49  288.90
   6   6  -8 5702.58  296.26
   6  -6  -8 5814.04  361.86
   1  -6  -9    1.14   20.95
  -1   6   9   -0.73    8.45
  -1  -6   9    5.50   21.89
   1   6  -9   16.13   16.14
   7  -2 -15 1452.87  107.73
   7   2 -15 1412.47   95.11
   7   2 -15 1417.13   80.89
  -7  -2  15 1673.95  118.64
  -7   2  15 1506.78  139.34
   8   0   8  215.02   40.40
  -8   0  -8  194.53   45.07
  10  -2   4    2.23    9.62
  10   2   4   12.79   11.64
  10  -2   4   -2.39   13.19
 -10  -2  -4   -0.73   14.85
  13   0  -5    4.38   21.86
  13   0  -5    1.48   13.10
   3  -7   2   40.58   17.37
  -3  -7  -2    2.19   10.09
   5  -3  10  315.98   42.83
  -5   3 -10  369.82   44.22
  -5   3 -10  367.19   74.46
  -5  -3 -10  309.42   49.70
   5  -3  10  338.00   54.04
   5   3  10  356.16   40.53
   9   4   3  802.29   54.55
  -9  -4  -3  829.15   86.78
   9  -4   3  778.48   63.27
   9  -4   3  742.81   62.57
  13   0  -7    3.08   18.15
  13   0  -7   17.61   19.14
  11   0 -13   -1.05    9.44
   9  -5  -8    4.54   20.58
   9   5  -8    2.20   11.57
   9  -5  -8    9.55   16.03
  11  -4  -5 2167.04  177.90
  11  -4  -5 2151.55  152.14
  11   4  -5 2127.17  103.95
  11   4  -5 2127.41  105.22
  11  -4  -5 1914.63  128.87
  11   4  -5 1942.85  107.74
  12   1 -11 3345.78  171.97
  12   1 -11 3373.68  185.02
  12   1 -11 4088.45  290.46
  12  -1 -11 3423.39  202.40
  -6   3  -9  683.28   91.68
  -6  -3  -9  641.96   69.14
   6   3   9  721.21   57.61
   6  -3   9  647.87   73.84
   6  -3   9  634.55   87.60
   1   3 -14 1290.89   74.72
   1  -3 -14 1274.68   98.09
   1   3 -14 1325.47   88.21
  -1  -3  14 1231.16   91.76
  -1   3  14 1288.15   90.56
  11   0   3   18.13   22.21
   0   5 -11 4337.47  255.79
   0  -5  11 4731.81  250.66
   0  -5 -11 4776.97  322.19
   0   5  11 4889.59  234.77
   0  -7  -5   -0.02   34.27
   0   7  -5   69.71   32.56
   0  -7   5   59.10   28.43
   4   3  11  526.34   51.28
   4  -3  11  565.25   56.10
  -4   3 -11  547.47   52.14
   4  -3  11  573.56   45.55
  -4   3 -11  585.83   68.11
  -4  -3 -11  564.54   92.75
   4   0 -16 7061.38  407.57
   4   0 -16 7390.20  397.53
  -4   0  16 7547.55  389.51
   5  -6  -9  217.61   40.55
   5  -6  -9  228.20   39.45
   5   6  -9  160.88   39.37
   9   5   0    3.14   19.93
   9  -5   0   28.05   16.42
   9  -5   0   34.93   29.12
   9  -5   0   48.49   20.34
   7   6  -7   24.21   20.00
   7  -6  -7   63.33   30.70
   7  -6  -7   39.70   24.42
  -6   0  16   26.66   17.80
   6   0 -16    9.23   15.55
   6   0 -16   17.64   24.91
  12  -3  -5  581.31   68.90
  12   3  -5  732.38   50.06
  12   3  -5  651.38   66.51
  12  -3  -5  724.54   77.55
  12   3  -5  771.38   81.23
  12  -3  -5  664.77   72.40
  13   1  -6  453.76   64.47
  13  -1  -6  552.85   65.46
  13  -1  -6  618.01  105.74
  13   1  -6  503.21   60.82
  12  -2 -10 2319.63  153.95
  12   2 -10 2050.07  112.58
  12   2 -10 2165.79  122.00
  12  -2 -10 1972.90  195.80
  12   2 -10 2521.03  150.00
 -10  -3  -3 1093.31  143.37
  10   3   3 1165.72   80.03
  10  -3   3  991.85   74.15
  10  -3   3 1069.69   83.91
   1   4 -13    9.47   13.77
  -1   4  13    6.98   12.54
   1  -4 -13   -0.53   15.02
  10   4 -10 2531.05  139.11
  10  -4 -10 2308.08  201.93
   9   0 -15   -5.11   10.71
   9   0 -15    2.33   15.72
  -7   4  13 2197.80  177.21
   7  -4 -13 1929.55  136.33
   7   4 -13 2141.12  171.13
  -5   4  -9  898.23   83.50
  -5   4  -9  799.63   63.66
   5  -4   9  820.54   63.33
   5  -4   9  831.49   66.62
  -5  -4  -9  886.24  115.58
   5   4   9  884.48   61.82
  11  -4  -7  136.71   37.74
  11  -4  -7  135.39   39.52
  11   4  -7   92.79   34.80
  11   4  -7  185.68   35.96
  11   4  -7  184.47   27.44
  11  -4  -7  131.13   43.23
   5   1 -16  322.82   38.38
   5  -1 -16  408.24   56.91
   5   1 -16  350.99   43.68
  -5   1  16  339.70   47.07
  -5  -1  16  337.34   49.02
   5  -1 -16  372.86   47.35
  12   3  -7  679.95   58.49
  12  -3  -7  882.74   84.67
  12  -3  -7  793.43   76.04
  12  -3  -7  745.94   73.16
  12   3  -7  626.21   84.14
  12   3  -7  710.41   53.19
  11  -4  -3 1201.83   88.90
  11  -4  -3 1163.68  100.74
  11   4  -3 1212.91   69.32
  11  -4  -3 1015.91   83.67
  -4   4 -10 2533.86  137.15
  -4  -4 -10 2370.45  200.92
   4  -4  10 2362.36  131.26
   4   4  10 2428.49  161.44
   4  -4  10 2314.01  130.84
  -4   4 -10 2460.63  220.55
   3  -5 -12    3.75   22.32
   3  -5 -12   -0.22   25.51
  -3   5  12   78.89   29.78
   3   5 -12   80.75   23.94
   7  -3   8 3480.94  236.58
   7  -3   8 3584.89  179.08
  -7   3  -8 3528.52  241.72
  -7  -3  -8 3313.92  244.82
   7   3   8 3457.03  176.58
 -10  -1  -5   33.60   29.06
 -10   1  -5   55.83   26.80
  10   1   5   42.19   24.60
  10  -1   5   37.92   27.37
   5  -2  11 1498.42   99.10
  -5   2 -11 1620.34  109.10
  -5   2 -11 1450.69   98.56
   5  -2  11 1427.69   99.75
   5   2  11 1481.52   93.81
  -5  -2 -11 1553.15  152.12
  -4  -7  -1 2912.72  158.31
   4  -7   1 3145.29  176.92
  -6   2 -10  128.90   30.45
   6   2  10  115.09   29.79
  -6  -2 -10  128.01   53.60
   6  -2  10   74.12   30.04
   6  -2  10   92.21   30.27
   7  -6   1    4.28   16.64
   7  -6   1    9.39   14.42
   7  -6   1   10.47   15.33
  -3   6  -7   20.96   20.72
   3   6   7    0.19   15.59
  -3  -6  -7    3.48   30.73
   6  -4   8   -0.27   10.18
   6  -4   8    9.77   11.09
  -6  -4  -8   -8.56   21.08
   6   4   8    4.10    9.63
  13  -1  -4  856.04   84.68
  13  -1  -4  873.36   83.64
  13   1  -4  469.98   77.42
  13  -1  -4 1004.18   78.46
  13   1  -4  830.24   82.27
  -4  -6  -6 1287.55  114.04
  -4   6  -6 1386.76  122.50
   4   6   6 1355.93   74.60
   3   3  12 1363.95   87.18
   3  -3  12 1305.89   92.09
   3  -3  12 1347.26   78.81
  -3   3 -12 1446.08   89.46
  -3  -3 -12 1302.92  142.16
  -3   3 -12 1336.04  111.73
  13  -1  -8  284.63   52.63
  13  -1  -8  344.82   56.47
  13   1  -8  240.35   78.90
  13   1  -8  229.88   48.04
   5  -5 -12    0.87   26.43
  -5   5  12   57.10   33.71
   5   5 -12   87.69   28.82
   5  -5 -12   90.63   29.65
   4  -7  -5 3469.55  179.60
   4   7  -5 3491.94  209.63
  -4  -7   5 3456.41  216.14
   8  -6  -4  620.59   54.60
   8  -6  -4  648.81   67.60
   8   6  -4  665.37   53.43
   8  -6  -4  700.05   57.38
  13   0  -3    9.91   17.17
  13   0  -3   35.96   23.15
   8  -5   3 5178.70  252.57
   8   5   3 5123.91  241.83
  -8  -5  -3 4986.96  376.17
   8  -5   3 5602.61  286.37
   8  -5   3 5144.21  263.76
  -2   0 -14  381.34   49.79
   2   0  14  405.41   50.41
  13   0  -9   -0.49   12.93
  13   0  -9    1.86   10.92
  -4  -2 -12 2992.41  179.72
   4  -2  12 3002.09  216.61
   4   2  12 2821.34  155.65
  -4   2 -12 2663.99  149.36
  -4   2 -12 3113.78  233.46
   7  -2   9   35.89   22.29
   7   2   9   46.57   20.81
  -7   2  -9   47.45   22.55
  -7  -2  -9   31.80   36.14
   7  -2   9   22.43   13.95
  -9   0  -7   18.95   20.51
   9   0   7    6.96   19.00
   1  -7  -6  491.63   50.04
  -1  -7   6  630.55   70.32
  -1   7   6  523.64   41.98
   1   7  -6  607.36   79.92
  12  -3  -3  665.45   68.07
  12   3  -3  605.23   55.42
  12  -3  -3  764.87   69.80
  12  -3  -3  778.96  113.84
  12   0 -12  792.12   73.99
   5   7  -2  792.65   74.29
   5  -7  -2  826.14   70.23
  -3   4 -11   23.80   45.09
   3   4  11   31.63   30.45
  -3   4 -11   75.26   18.81
  -3  -4 -11   39.58   39.10
   3  -4  11   25.64   19.83
   3  -4  11   28.44   18.85
   1   2 -15 1577.67  129.51
  -1  -2  15 1674.66  110.96
   1  -2 -15 1562.50  153.41
  -1   2  15 1775.05  111.26
   1   2 -15 1598.75   95.46
   2   6   8 6290.93  331.22
  -2  -6  -8 6737.11  402.43
  -2   6  -8 6129.40  386.74
   2  -6   8 5744.34  391.84
   0   1  15  420.69   48.26
   0  -1  15  333.05   73.00
   0   1 -15  319.95   42.59
   0   1 -15  347.24   39.73
   0  -1 -15  366.43   50.61
   3  -7  -6 1499.75   90.03
   3   7  -6 1412.89  117.41
  -3  -7   6 1321.59   94.82
   3  -7  -6 1348.65   83.07
  10  -5  -5 6889.23  355.08
  10   5  -5 6494.19  321.21
  10  -5  -5 6392.39  345.02
  10  -5  -5 6548.74  381.85
   5  -6   5  208.72   40.98
  -5  -6  -5   -0.79   38.23
   5   6   5  209.48   24.58
   8  -6  -2 4963.79  267.58
   8  -6  -2 5071.72  244.50
   8  -6  -2 4974.30  248.24
   3  -1 -16  169.78   25.98
   3  -1 -16  187.00   37.97
  -3  -1  16  147.20   54.45
  -3   1  16  158.69   37.70
   3   1 -16  171.03   30.87
   3   1 -16  206.46   31.09
  -4  -3  15  545.33   62.70
  -4   3  15  578.90   61.23
   4  -3 -15  545.68  104.66
   4  -3 -15  544.77   43.51
   4   3 -15  720.82   93.95
   4   3 -15  655.23   47.68
   7  -1 -16  122.49   30.20
   7   1 -16  216.09   33.00
  -7  -1  16  240.02   40.60
  -7   1  16  138.51   38.88
   7   1 -16  178.40   31.13
   7  -1 -16  175.66   58.47
   7  -4   7    0.62   18.85
  -7  -4  -7   61.41   24.00
   7  -4   7    0.87   17.91
   7   4   7   53.24   17.11
   5   7  -4   -0.05   10.18
  -5  -7   4    1.08    7.79
   4   6 -10  675.82   73.89
   4  -6 -10  574.29  100.26
   4  -6 -10  659.60   66.07
  -4   6  10  587.83   53.69
  10  -5  -3  155.34   34.25
  10  -5  -3  165.45   42.70
  10  -5  -3  178.59   34.99
   2   6 -10 6000.99  348.78
  -2  -6  10 6232.24  388.59
  -2   6  10 5939.55  291.97
   2  -6 -10 6064.53  349.31
  12   1   1  649.72   72.45
  12  -1   1  588.41   52.33
  12  -1   1  697.66  114.92
  12   2   0  610.40   62.27
  12  -2   0  509.59   69.12
  12  -2   0  528.82   58.43
   8  -3   7  618.80   52.68
   8  -3   7  581.04   87.93
  -8  -3  -7  583.51  105.47
  -8   3  -7  557.05   62.90
   8   6  -6 3883.64  202.97
   8  -6  -6 3280.25  187.37
   8  -6  -6 3904.43  228.09
   8  -6  -6 4067.31  205.82
   2   0 -16   14.19   27.82
  -2   0  16    8.03   28.03
   2   0 -16   24.01   13.79
  -6   3  15  910.58   75.98
   6  -3 -15  907.25   84.12
   6   3 -15  895.05   78.54
   6   3 -15  863.21   56.75
  -6  -3  15  861.86   77.33
   4  -4 -14 2513.37  166.95
  -4   4  14 2630.88  187.48
   4   4 -14 2687.91  207.87
   5   7   0  539.86   57.13
   5  -7   0  705.46   96.60
  10   2 -14   -0.08   11.90
  10   2 -14   -7.11   15.58
  10  -2 -14    0.12   13.30
  -3   2 -13 1345.68  118.98
  -3   2 -13 1328.50  106.94
  -3  -2 -13 1395.40  106.16
   3   2  13 1285.50   90.76
   3  -2  13 1362.76   96.25
  12   3  -9  832.49   85.35
  12   3  -9  746.93   56.30
  12  -3  -9  685.74   80.50
  12   3  -9  753.26   59.23
  12  -3  -9  736.03   78.79
  -8   2  -8   96.90   32.21
  -8  -2  -8   80.19   51.98
   8  -2   8  103.94   30.01
   8  -2   8   57.66   19.48
   8   2   8   73.86   28.67
  -1  -5  12  918.83   77.66
   1   5 -12  795.03   84.02
  -1   5  12  896.36   69.22
   1  -5 -12  884.70   87.21
   2  -3  13 1050.88   82.75
   2   3  13 1100.12   82.95
  -2   3 -13 1198.43   98.64
  -2  -3 -13 1115.37   94.52
  -2   3 -13 1025.75   72.56
  -1  -6  -9    2.70   13.27
   1   6   9   -0.30    7.82
   1  -6   9   21.35   19.98
  -1   6  -9   -6.16   15.05
  -8   0  16   -1.87   26.62
   8   0 -16   17.54   13.18
   8   0 -16   -0.20   13.87
  10  -5  -7  475.30   61.22
  10  -5  -7  586.26   59.87
  10   5  -7  544.24   51.18
  10  -5  -7  587.74   79.29
  13  -2  -5  106.19   58.13
  13   2  -5  109.39   39.10
  13  -2  -5  134.92   42.17
  13   2  -5    5.90   38.25
  13  -2  -5  133.90   56.60
  13   2  -5  204.58   33.25
  13   2  -7 1339.76  103.51
  13  -2  -7 1652.44  165.82
  13   2  -7 1451.24   85.12
  13   2  -7 1524.89  103.68
  13  -2  -7 1384.93  113.63
  11   2 -13  962.72   72.55
  11  -2 -13 1024.84   98.44
  11   2 -13  943.94   65.41
   2   4  12 1642.05   99.23
  -2  -4 -12 1523.03  112.30
  -2   4 -12 1558.17  178.20
   2  -4  12 1338.72   89.97
   2  -4  12 1572.14   95.52
  -2   4 -12 1418.40   87.83
   6  -6   4  132.33   35.08
   6   6   4  171.39   21.82
  -6  -6  -4   -0.73   35.71
  11  -4  -9  145.82   39.91
  11   4  -9  107.36   19.60
  11   4  -9  167.92   29.57
  11   4  -9  143.02   23.40
  11  -4  -9  141.20   43.11
  10   3 -13  756.92   66.78
  10   3 -13  797.25   69.83
  10  -3 -13  788.21   87.76
  10   3 -13  741.67   67.83
  -2   7  -5   39.16   33.20
   2  -7   5   36.62   26.46
 -10  -4  -2   -1.71   25.24
  10   4   2    4.47   23.60
  10  -4   2   31.82   17.53
  10  -4   2   30.74   17.72
  11   4  -1 2271.08  121.24
  11  -4  -1 2228.46  137.83
  11  -4  -1 2383.19  144.94
  11  -4  -1 2062.94  134.01
   8  -5 -11 5663.10  390.03
   8  -5 -11 6661.98  370.14
   8   5 -11 6280.44  335.54
  -3   7  -4  309.51   62.92
   3  -7   4  304.06   53.03
  11  -2   3  736.54  114.68
  11   2   3  900.41   77.95
  11  -2   3  817.45   62.17
 -11  -2  -3  782.65   87.67
   6   4 -14    9.52   17.69
   6  -4 -14    5.03   30.54
  -6   4  14   12.96   16.12
   4  -2 -16 3610.09  206.42
   4   2 -16 3649.34  180.57
  -4  -2  16 3407.87  203.46
  -4   2  16 3832.31  256.96
   4   2 -16 3717.40  200.13
   4  -2 -16 3410.01  166.21
  13   1  -2  730.23   76.62
  13  -1  -2  691.18   69.10
  13   1  -2  635.54   57.58
  13  -1  -2  794.79   84.14
  -4  -5  -9 3523.33  216.69
   4  -5   9 3474.17  196.96
   4   5   9 3648.59  214.43
  -4   5  -9 3632.49  240.38
   5   5   8  167.37   28.04
   5  -5   8  169.40   27.81
  -5  -5  -8  144.16   44.17
  -5   5  -8  151.81   47.05
   6  -2 -16  130.97   33.89
   6  -2 -16  147.26   36.54
  -6   2  16  194.40   32.15
   6   2 -16    2.32   24.14
  -6  -2  16  119.59   60.63
   6   2 -16  100.13   30.79
   9  -3 -14 1122.81  103.37
   9   3 -14 1277.65   72.43
   9   3 -14 1176.89   89.41
   2   7  -7   65.57   53.08
  -2  -7   7   87.65   47.03
   2  -7  -7   -2.23   25.68
  -2   7   7  131.77   19.68
   2  -7  -7   -1.02   20.85
  13  -1 -10  109.33   33.63
  13   1 -10  134.06   33.41
  13  -1 -10    1.12   31.33
  13   1 -10   -1.78   27.76
  -9   2  15    8.42   17.15
   9  -2 -15    7.11   16.88
   9   2 -15    0.06   17.03
   9   2 -15    8.44   14.05
   1  -7   6  357.74   64.14
  -1   7  -6  828.15  129.90
   6   1  11   99.85   29.56
  -6   1 -11   80.47   31.25
   6  -1  11   68.97   29.98
  -6  -1 -11   77.33   31.09
   9  -5 -10   19.82   24.28
   9  -5 -10   17.32   22.55
   9   5 -10   29.57   19.05
   2   3 -15 1226.51   91.65
   2   3 -15 1308.07  104.69
  -2  -3  15 1234.38  135.35
   2  -3 -15 1261.79  148.77
  -2   3  15 1356.81   95.05
   8  -4   6   -1.36   19.78
   8   4   6   63.14   17.13
  -8  -4  -6   57.22   24.50
   8  -4   6   -2.07   18.93
  -1   0 -15    1.04   14.79
   1   0  15   16.01   15.97
   4  -7   3   18.53   21.96
   8  -6   0   38.46   26.11
   8  -6   0   41.30   19.06
   8  -6   0   62.20   25.26
  -5  -1 -12  222.60   44.44
  -5   1 -12  225.91   38.76
   5   1  12  190.04   39.06
   5  -1  12  217.73   42.32
   2   4 -14  602.10   66.51
   2  -4 -14  776.53   80.61
  -2   4  14  783.66   68.59
  11   1 -14   -0.10   12.45
  11   1 -14   16.49   12.72
  11  -1 -14    1.31   17.62
   7  -5 -12   41.28   25.05
   7  -5 -12   -0.53   38.56
  -7   5  12   22.46   21.15
   7   5 -12   45.06   24.09
  11   3 -12 2823.90  198.47
  11  -3 -12 2504.19  175.94
  11   3 -12 2484.51  121.51
  11   3 -12 2389.47  139.12
  10   0   6 2366.67  209.58
 -10   0  -6 2264.63  164.04
   3  -5  10  615.90   65.37
  -3  -5 -10  655.02   73.42
  -3   5 -10  672.70   88.38
   3   5  10  641.79   56.54
   7  -6  -9   42.21   21.93
   7  -6  -9   23.46   27.08
   7   6  -9   43.08   35.41
  -7  -1 -10  764.19   78.93
   7   1  10  796.39   72.64
   7  -1  10  791.64   75.67
  -7   1 -10  756.52   76.31
   6   5   7 2512.99  128.03
   6  -5   7 2503.87  195.27
   6  -5   7 2509.40  130.16
  -6  -5  -7 2233.14  154.00
  11  -3   2 2244.61  165.05
  11   3   2 2365.00  136.53
  11  -3   2 2136.95  182.79
  11  -1   4  499.25   65.99
  11   1   4  464.96   64.87
 -11  -1  -4  417.32   68.13
  10   1 -15   66.50   22.86
  10  -1 -15   69.73   45.61
  10   1 -15   55.58   25.18
  10  -5  -1 2496.46  149.69
  10  -5  -1 2601.96  195.51
  10  -5  -1 2580.06  141.47
  10   5  -1 2521.86  125.23
  12   0   2  743.21   85.65
  -9  -5  -2  395.85   67.00
   9  -5   2  484.47   47.69
   9  -5   2  529.17   82.62
   9   5   2  458.78   60.88
   9  -5   2  509.14   54.61
  12  -3  -1  438.10   91.28
  12  -3  -1  376.56   54.58
  12   3  -1  462.45   48.50
  12  -3  -1  316.66   53.69
   5  -7  -6   90.98   24.65
   5   7  -6   61.39   43.88
   5  -7  -6   45.97   24.74
  13   0  -1   11.82   29.37
  13   0  -1   21.62   23.53
   6  -7  -3 3289.59  184.10
   6   7  -3 3115.50  189.35
   9  -3   6  437.20   53.26
  -9  -3  -6  350.06   64.81
   9   3   6  406.76   50.03
   9  -3   6  445.08   46.60
  13  -2  -3   10.75   40.37
  13   2  -3   18.83   21.47
  13  -2  -3   39.18   24.79
  13  -2  -3   31.14   24.09
   6  -6 -10  483.93   92.06
   6  -6 -10  514.34   66.42
   6   6 -10  494.27   61.59
  -2   2 -14  360.93   45.12
  -2  -2 -14  323.17   54.88
   2  -2  14  366.93   50.52
  -2   2 -14  355.04   53.11
   2   2  14  322.36   77.19
   4  -7  -7   25.91   23.01
   4  -7  -7   -0.36   13.83
   4   7  -7   14.04   31.65
  -4  -7   7   12.25   15.24
  13   2  -9 1255.64   99.56
  13  -2  -9 1130.59  149.11
  13   2  -9 1098.50   76.75
  13  -2  -9 1427.25  116.68
  13   2  -9 1074.06   85.11
  13   0 -11    0.56   20.81
  13   0 -11   -4.41   16.56
   0  -6  10  189.90   74.25
   0  -6 -10  236.11   52.64
   0   6  10  243.07   34.12
   0   6 -10  203.28   57.51
   9  -2   7 1227.62  134.03
  -9  -2  -7 1198.63  147.82
   9   2   7 1206.07  125.02
   9  -2   7  992.49   68.87
  -9   2  -7 1199.32   98.03
  12   2 -12  738.41   79.27
  12  -2 -12  721.00   77.75
  12   2 -12  609.08   55.88
  12   2 -12  635.99   84.59
   4   1  13  660.71   67.01
   4  -1  13  665.91   68.72
  -4   1 -13  706.48   96.43
  -4  -1 -13  650.21   71.47
   0  -7   7 5199.41  309.67
   0   7  -7 5403.80  357.21
   0   7   7 5611.50  262.09
   0  -7  -7 4844.29  276.88
  -4   5  13 3582.24  191.87
   4  -5 -13 3474.93  223.35
   4  -5 -13 4037.53  284.54
   4   5 -13 3558.75  273.66
   8  -6  -8  185.97   58.27
   8   6  -8  205.10   37.23
   8  -6  -8  136.82   45.99
   6  -7  -1  165.44   38.76
  -7  -6  -3    0.51   40.20
   7   6   3   37.80   15.45
   7  -6   3   94.10   25.87
  -1   3 -14  553.88   53.19
  -1   3 -14  554.98   64.58
   1  -3  14  584.37   62.06
  -1  -3 -14  573.80   70.08
   1   3  14  617.49   61.78
   1  -4  13 1736.14  106.64
   1   4  13 1789.34  109.95
  -1   4 -13 1531.12   94.93
   1  -4  13 1501.58  129.83
  -1  -4 -13 1631.89  123.89
  -1   4 -13 1773.78  133.84
  12   1 -13  397.92   47.46
  12  -1 -13  373.36   57.79
  12   1 -13  353.69   45.06
  -1  -1  16   70.69   28.90
   1  -1 -16   83.42   29.73
   1   1 -16   74.39   23.59
   1   1 -16   60.71   25.31
  -1   1  16   97.19   30.04
   8  -1   9  725.06   75.67
  -8  -1  -9  727.37   80.94
   8   1   9  759.75   75.73
  -8   1  -9  816.33   82.55
   5  -7   2 1061.32  128.89
  -2   5 -11  180.61   54.56
  -2  -5 -11  159.57   46.13
   2   5  11  235.70   34.67
   2  -5  11  204.31   40.86
   8  -3 -15  497.68   73.14
   8   3 -15  485.01   60.71
  -8   3  15  607.54   67.32
   8   3 -15  526.44   64.68
   9   4 -13  920.76   81.44
   9  -4 -13  789.31  130.05
   6  -7  -5  262.47   48.34
   6  -7  -5  203.07   39.95
   6   7  -5   -0.01   67.14
   6  -7  -5  249.91   34.42
   7  -5   6   -0.64   28.15
   7  -5   6   56.40   23.80
   7   5   6   61.53   17.81
  -7  -5  -6   -0.65   29.83
  10  -4 -12   -2.86   16.43
  10   4 -12   -3.82   12.55
   3   6 -11    0.23   12.44
   3  -6 -11    2.03    9.35
  -3   6  11    0.66    8.70
   3  -6 -11    0.51   12.09
  -2  -2  16  536.10   63.39
  -2   2  16  550.35   62.38
   2   2 -16  533.51   50.52
   2   2 -16  563.45   55.80
   2  -2 -16  445.40   64.01
   5   0 -17   -0.16   10.26
   5   0 -17    4.47   11.13
  -5   0  17    5.84   19.29
  10  -5  -9 2657.52  170.33
  10   5  -9 2719.14  158.29
  10  -5  -9 2882.34  250.20
   9  -6  -5   22.03   15.59
   9   6  -5   -0.05   13.43
   9  -6  -5   11.37   14.68
   9  -6  -5   14.10   20.41
   9  -1 -16  519.08   54.63
   9  -1 -16  554.76   67.21
   9   1 -16  618.86   82.87
   9   1 -16  564.01   86.49
  -9   1  16  622.28   71.87
   9  -6  -3   70.49   24.56
   9  -6  -3   63.77   30.53
   9  -6  -3   70.31   22.76
  12   4  -6   -0.27   11.58
  12   4  -6    0.92   11.96
  12  -4  -6    7.12   25.20
  12   4  -6    8.94   10.89
  12  -4  -6   14.68   15.79
  12  -4  -6   27.99   21.10
  -8   2  16  141.71   43.49
   8  -2 -16  176.57   46.14
   8   2 -16  194.85   30.52
   8   2 -16  191.05   38.64
   2  -5 -13  246.77   51.82
  -2   5  13  187.71   57.89
   2   5 -13  185.88   46.75
   3   7  -8  950.05   98.68
   3  -7  -8  917.42   77.17
   3  -7  -8  953.33   67.41
  -3   7   8  555.62   58.27
  -3  -7   8  915.79  118.51
   9  -4   5 1497.74  133.25
  -9  -4  -5 1472.25  127.57
   9   4   5 1498.82  123.51
   9  -4   5 1459.85  101.45
   6   5 -13 1903.06  181.62
  -6   5  13 1775.15  117.52
   6  -5 -13 2069.41  139.30
   6  -5 -13 1747.12  138.08
   3   1  14  480.55   57.59
  -3  -1 -14  528.19   96.10
  -3   1 -14  440.60   55.16
   3  -1  14  447.13   58.90
  12   4  -4 2618.22  138.68
  12  -4  -4 2857.71  171.30
  12  -4  -4 2508.16  208.83
  12  -4  -4 2763.60  188.95
  12   4  -4 2385.69  153.24
  -5   6  11   49.53   22.05
   5  -6 -11    1.78   28.10
   5  -6 -11   66.88   27.02
   5   6 -11   39.47   27.80
  12   3 -11  367.03   46.57
  12  -3 -11  376.98   62.67
  12   3 -11  319.24   36.29
  12   3 -11  297.24   42.59
  14   0  -6   65.19   35.96
  14   0  -6   79.35   35.17
  -8   4  14   78.14   31.13
   8  -4 -14   77.21   35.74
   8   4 -14   66.33   30.50
  -7   0  17   11.96   24.29
   7   0 -17    9.30   13.02
   7   0 -17   -7.24   21.28
  -6  -1  17   25.78   21.79
  -6   1  17   29.57   20.74
   6   1 -17   16.52   18.41
   6   1 -17    3.04   16.37
   6  -1 -17   29.31   19.90
   6  -1 -17   13.29   25.87
  13  -3  -6 1107.81  105.12
  13  -3  -6  888.36   92.52
  13   3  -6 1044.80   76.52
  13   3  -6  897.46  122.50
  13   3  -6 1018.36   69.71
  13  -3  -6 1097.54   98.39
   1   7  -8  591.00   91.10
   1  -7  -8  549.10  101.67
  -1   7   8  565.79   48.99
  -1  -7   8  584.11   77.99
   4  -1 -17  445.13   57.43
  -4   1  17  521.65   88.07
  -4  -1  17  445.01   54.94
   4   1 -17  407.16   48.99
   4   1 -17  437.84   49.35
   9  -1   8  128.95   56.47
   9   1   8   77.28   54.41
;
_shelx_hkl_checksum              51802
loop_
_space_group_symop_operation_xyz
'x, y, z'
'-x+1/2, y, -z'
'x+1/2, y+1/2, z+1/2'
'-x+1, y+1/2, -z+1/2'
'-x, -y, -z'
'x-1/2, -y, z'
'-x+1/2, -y+1/2, -z+1/2'
'x, -y+1/2, z+1/2'
loop_
_atom_site_label
_atom_site_type_symbol
_atom_site_fract_x
_atom_site_fract_y
_atom_site_fract_z
_atom_site_U_iso_or_equiv
_atom_site_adp_type
_atom_site_occupancy
_atom_site_site_symmetry_order
_atom_site_calc_flag
_atom_site_refinement_flags_posn
_atom_site_refinement_flags_adp
_atom_site_refinement_flags_occupancy
_atom_site_disorder_assembly
_atom_site_disorder_group
Te1 Te 0.500000 0.500000 0.500000 0.00585(11) Uani 1 2 d S . P . .
Te2 Te 0.85767(3) 0.58770(4) 0.71576(2) 0.00833(10) Uani 1 1 d . . . . .
Ca Ca 0.250000 -0.4399(2) 0.000000 0.0087(2) Uani 1 2 d S T P . .
O1 O 0.5188(3) 0.2584(5) 0.4019(2) 0.0100(5) Uani 1 1 d . . . . .
O2 O 0.6967(3) 0.4085(5) 0.6041(2) 0.0092(5) Uani 1 1 d . . . . .
O3 O 0.5807(3) 0.7181(5) 0.4195(2) 0.0098(5) Uani 1 1 d . . . . .
O4 O 0.7741(3) 0.8965(5) 0.6850(2) 0.0093(5) Uani 1 1 d . . . . .
loop_
_atom_site_aniso_label
_atom_site_aniso_U_11
_atom_site_aniso_U_22
_atom_site_aniso_U_33
_atom_site_aniso_U_23
_atom_site_aniso_U_13
_atom_site_aniso_U_12
Te1 0.00538(18) 0.0060(2) 0.00688(16) -0.00051(12) 0.00316(13) -0.00029(11)
Te2 0.00721(15) 0.00797(16) 0.00966(14) -0.00033(9) 0.00298(10) 0.00069(8)
Ca 0.0099(5) 0.0078(5) 0.0083(5) 0.000 0.0034(4) 0.000
O1 0.0100(14) 0.0100(13) 0.0101(12) -0.0022(10) 0.0040(10) 0.0001(10)
O2 0.0069(13) 0.0100(13) 0.0092(13) -0.0036(10) 0.0012(11) 0.0006(10)
O3 0.0117(14) 0.0085(13) 0.0120(12) 0.0007(10) 0.0079(11) -0.0013(10)
O4 0.0122(14) 0.0070(13) 0.0112(12) 0.0018(10) 0.0074(11) 0.0039(10)
loop_
_atom_type_symbol
_atom_type_description
_atom_type_scat_dispersion_real
_atom_type_scat_dispersion_imag
_atom_type_scat_source
Ca Ca 0.2262 0.3064 'International Tables Vol C Tables 4.2.6.8 and 6.1.1.4'
O O 0.0106 0.0060 'International Tables Vol C Tables 4.2.6.8 and 6.1.1.4'
Te Te -0.5308 1.6751 'International Tables Vol C Tables 4.2.6.8 and 6.1.1.4'
loop_
_geom_angle_atom_site_label_1
_geom_angle_atom_site_label_2
_geom_angle_atom_site_label_3
_geom_angle
_geom_angle_site_symmetry_1
_geom_angle_site_symmetry_3
O1 Te1 O1 180.00(12) 5_666 .
O1 Te1 O3 91.08(13) 5_666 .
O1 Te1 O3 88.92(13) . .
O1 Te1 O3 88.92(13) 5_666 5_666
O1 Te1 O3 91.08(13) . 5_666
O3 Te1 O3 180.0 . 5_666
O1 Te1 O2 84.70(12) 5_666 5_666
O1 Te1 O2 95.30(12) . 5_666
O3 Te1 O2 90.38(12) . 5_666
O3 Te1 O2 89.62(12) 5_666 5_666
O1 Te1 O2 95.30(12) 5_666 .
O1 Te1 O2 84.70(12) . .
O3 Te1 O2 89.62(12) . .
O3 Te1 O2 90.38(12) 5_666 .
O2 Te1 O2 180.0 5_666 .
O1 Te1 Te2 56.68(9) 5_666 6_565
O1 Te1 Te2 123.32(9) . 6_565
O3 Te1 Te2 147.76(8) . 6_565
O3 Te1 Te2 32.24(8) 5_666 6_565
O2 Te1 Te2 86.38(9) 5_666 6_565
O2 Te1 Te2 93.62(9) . 6_565
O1 Te1 Te2 123.32(9) 5_666 2_656
O1 Te1 Te2 56.68(9) . 2_656
O3 Te1 Te2 32.24(8) . 2_656
O3 Te1 Te2 147.76(8) 5_666 2_656
O2 Te1 Te2 93.62(9) 5_666 2_656
O2 Te1 Te2 86.38(9) . 2_656
Te2 Te1 Te2 180.0 6_565 2_656
O1 Te1 Ca 40.91(9) 5_666 7
O1 Te1 Ca 139.09(9) . 7
O3 Te1 Ca 88.67(9) . 7
O3 Te1 Ca 91.33(9) 5_666 7
O2 Te1 Ca 43.89(8) 5_666 7
O2 Te1 Ca 136.11(8) . 7
Te2 Te1 Ca 67.090(10) 6_565 7
Te2 Te1 Ca 112.910(10) 2_656 7
O1 Te1 Ca 139.09(9) 5_666 3
O1 Te1 Ca 40.91(9) . 3
O3 Te1 Ca 91.33(9) . 3
O3 Te1 Ca 88.67(9) 5_666 3
O2 Te1 Ca 136.11(8) 5_666 3
O2 Te1 Ca 43.89(8) . 3
Te2 Te1 Ca 112.910(10) 6_565 3
Te2 Te1 Ca 67.090(10) 2_656 3
Ca Te1 Ca 180.0 7 3
O1 Te1 Te2 105.15(9) 5_666 5_666
O1 Te1 Te2 74.85(9) . 5_666
O3 Te1 Te2 101.71(9) . 5_666
O3 Te1 Te2 78.29(9) 5_666 5_666
O2 Te1 Te2 23.74(8) 5_666 5_666
O2 Te1 Te2 156.26(8) . 5_666
Te2 Te1 Te2 87.821(10) 6_565 5_666
Te2 Te1 Te2 92.179(10) 2_656 5_666
Ca Te1 Te2 65.737(10) 7 5_666
Ca Te1 Te2 114.263(10) 3 5_666
O1 Te1 Te2 74.85(9) 5_666 .
O1 Te1 Te2 105.15(9) . .
O3 Te1 Te2 78.29(9) . .
O3 Te1 Te2 101.71(9) 5_666 .
O2 Te1 Te2 156.26(8) 5_666 .
O2 Te1 Te2 23.74(8) . .
Te2 Te1 Te2 92.179(10) 6_565 .
Te2 Te1 Te2 87.821(10) 2_656 .
Ca Te1 Te2 114.263(10) 7 .
Ca Te1 Te2 65.737(10) 3 .
Te2 Te1 Te2 180.0 5_666 .
O4 Te2 O2 98.82(12) . .
O4 Te2 O4 75.75(13) . 7_666
O2 Te2 O4 84.10(12) . 7_666
O4 Te2 O3 75.99(12) . 2_656
O2 Te2 O3 92.22(12) . 2_656
O4 Te2 O3 150.55(11) 7_666 2_656
O4 Te2 O1 84.72(11) . 3
O2 Te2 O1 159.68(12) . 3
O4 Te2 O1 77.36(11) 7_666 3
O3 Te2 O1 108.02(11) 2_656 3
O4 Te2 O1 136.55(10) . 2_656
O2 Te2 O1 73.16(10) . 2_656
O4 Te2 O1 142.12(9) 7_666 2_656
O3 Te2 O1 62.11(10) 2_656 2_656
O1 Te2 O1 117.60(6) 3 2_656
O4 Te2 Te2 39.91(9) . 7_666
O2 Te2 Te2 91.41(9) . 7_666
O4 Te2 Te2 35.83(7) 7_666 7_666
O3 Te2 Te2 115.48(8) 2_656 7_666
O1 Te2 Te2 78.44(7) 3 7_666
O1 Te2 Te2 163.95(6) 2_656 7_666
O4 Te2 O3 146.16(10) . 3_545
O2 Te2 O3 109.61(10) . 3_545
O4 Te2 O3 89.00(9) 7_666 3_545
O3 Te2 O3 119.51(6) 2_656 3_545
O1 Te2 O3 62.30(8) 3 3_545
O1 Te2 O3 71.42(7) 2_656 3_545
Te2 Te2 O3 119.35(5) 7_666 3_545
O4 Ca O4 133.97(14) 4_535 3_434
O4 Ca O1 112.94(10) 4_535 4_545
O4 Ca O1 88.30(10) 3_434 4_545
O4 Ca O1 88.30(10) 4_535 3_444
O4 Ca O1 112.94(10) 3_434 3_444
O1 Ca O1 125.17(14) 4_545 3_444
O4 Ca O2 145.61(10) 4_535 3_444
O4 Ca O2 77.85(9) 3_434 3_444
O1 Ca O2 74.27(10) 4_545 3_444
O1 Ca O2 63.07(9) 3_444 3_444
O4 Ca O2 77.85(9) 4_535 4_545
O4 Ca O2 145.61(10) 3_434 4_545
O1 Ca O2 63.07(9) 4_545 4_545
O1 Ca O2 74.27(10) 3_444 4_545
O2 Ca O2 76.32(14) 3_444 4_545
O4 Ca O3 60.79(10) 4_535 3_434
O4 Ca O3 83.46(10) 3_434 3_434
O1 Ca O3 156.90(10) 4_545 3_434
O1 Ca O3 77.83(9) 3_444 3_434
O2 Ca O3 124.41(9) 3_444 3_434
O2 Ca O3 130.20(9) 4_545 3_434
O4 Ca O3 83.46(10) 4_535 4_535
O4 Ca O3 60.79(10) 3_434 4_535
O1 Ca O3 77.83(9) 4_545 4_535
O1 Ca O3 156.90(10) 3_444 4_535
O2 Ca O3 130.20(9) 3_444 4_535
O2 Ca O3 124.41(9) 4_545 4_535
O3 Ca O3 79.32(14) 3_434 4_535
O4 Ca Te1 95.54(7) 4_535 4_545
O4 Ca Te1 117.14(7) 3_434 4_545
O1 Ca Te1 30.21(7) 4_545 4_545
O1 Ca Te1 102.31(8) 3_444 4_545
O2 Ca Te1 74.20(7) 3_444 4_545
O2 Ca Te1 32.93(6) 4_545 4_545
O3 Ca Te1 156.31(6) 3_434 4_545
O3 Ca Te1 99.94(7) 4_535 4_545
O4 Ca Te1 117.14(7) 4_535 3_444
O4 Ca Te1 95.54(7) 3_434 3_444
O1 Ca Te1 102.31(8) 4_545 3_444
O1 Ca Te1 30.21(7) 3_444 3_444
O2 Ca Te1 32.93(6) 3_444 3_444
O2 Ca Te1 74.20(7) 4_545 3_444
O3 Ca Te1 99.94(7) 3_434 3_444
O3 Ca Te1 156.31(6) 4_535 3_444
Te1 Ca Te1 90.04(3) 4_545 3_444
O4 Ca Te2 28.50(7) 4_535 4_535
O4 Ca Te2 107.57(8) 3_434 4_535
O1 Ca Te2 131.77(7) 4_545 4_535
O1 Ca Te2 90.76(7) 3_444 4_535
O2 Ca Te2 152.54(6) 3_444 4_535
O2 Ca Te2 105.84(6) 4_545 4_535
O3 Ca Te2 34.35(7) 3_434 4_535
O3 Ca Te2 71.90(7) 4_535 4_535
Te1 Ca Te2 122.626(6) 4_545 4_535
Te1 Ca Te2 120.270(7) 3_444 4_535
O4 Ca Te2 107.57(8) 4_535 3_434
O4 Ca Te2 28.50(7) 3_434 3_434
O1 Ca Te2 90.76(7) 4_545 3_434
O1 Ca Te2 131.77(7) 3_444 3_434
O2 Ca Te2 105.84(6) 3_444 3_434
O2 Ca Te2 152.54(6) 4_545 3_434
O3 Ca Te2 71.90(7) 3_434 3_434
O3 Ca Te2 34.35(7) 4_535 3_434
Te1 Ca Te2 120.270(7) 4_545 3_434
Te1 Ca Te2 122.626(6) 3_444 3_434
Te2 Ca Te2 84.89(3) 4_535 3_434
Te1 O1 Ca 108.88(12) . 3
Te1 O1 Te2 134.16(15) . 3_444
Ca O1 Te2 116.63(12) 3 3_444
Te1 O1 Te2 90.57(11) . 2_656
Ca O1 Te2 92.38(10) 3 2_656
Te2 O1 Te2 92.69(9) 3_444 2_656
Te1 O1 Te2 74.90(9) . 5_666
Ca O1 Te2 164.51(12) 3 5_666
Te2 O1 Te2 59.79(6) 3_444 5_666
Te2 O1 Te2 102.70(8) 2_656 5_666
Te1 O1 Te2 161.25(12) . 2_646
Ca O1 Te2 55.54(6) 3 2_646
Te2 O1 Te2 61.36(6) 3_444 2_646
Te2 O1 Te2 99.87(8) 2_656 2_646
Te2 O1 Te2 117.22(7) 5_666 2_646
Te1 O1 Te2 50.94(7) . .
Ca O1 Te2 59.78(6) 3 .
Te2 O1 Te2 171.74(11) 3_444 .
Te2 O1 Te2 80.30(6) 2_656 .
Te2 O1 Te2 125.84(7) 5_666 .
Te2 O1 Te2 115.29(6) 2_646 .
Te2 O2 Te1 132.40(15) . .
Te2 O2 Ca 119.15(13) . 3
Te1 O2 Ca 103.18(11) . 3
Te2 O2 Te2 103.96(10) . 7_656
Te1 O2 Te2 104.49(11) . 7_656
Ca O2 Te2 79.14(7) 3 7_656
Te2 O2 Te2 57.27(7) . 7_666
Te1 O2 Te2 81.49(9) . 7_666
Ca O2 Te2 175.03(10) 3 7_666
Te2 O2 Te2 98.15(7) 7_656 7_666
Te2 O2 Te2 109.68(11) . 2_656
Te1 O2 Te2 63.16(7) . 2_656
Ca O2 Te2 70.80(6) 3 2_656
Te2 O2 Te2 142.71(7) 7_656 2_656
Te2 O2 Te2 113.24(7) 7_666 2_656
Te2 O2 Te2 109.25(10) . 6_565
Te1 O2 Te2 57.69(7) . 6_565
Ca O2 Te2 122.06(9) 3 6_565
Te2 O2 Te2 59.15(4) 7_656 6_565
Te2 O2 Te2 58.92(4) 7_666 6_565
Te2 O2 Te2 120.86(7) 2_656 6_565
Te2 O2 Te2 57.98(7) . 4_646
Te1 O2 Te2 168.09(11) . 4_646
Ca O2 Te2 64.96(6) 3 4_646
Te2 O2 Te2 75.16(5) 7_656 4_646
Te2 O2 Te2 110.41(6) 7_666 4_646
Te2 O2 Te2 109.70(7) 2_656 4_646
Te2 O2 Te2 128.46(7) 6_565 4_646
Te1 O3 Te2 118.40(14) . 2_656
Te1 O3 Ca 129.78(13) . 3_565
Te2 O3 Ca 103.13(11) 2_656 3_565
Te1 O3 Te2 119.16(12) . 3_454
Te2 O3 Te2 86.76(9) 2_656 3_454
Ca O3 Te2 88.40(8) 3_565 3_454
Te1 O3 Te2 71.13(8) . .
Te2 O3 Te2 111.52(11) 2_656 .
Ca O3 Te2 68.03(6) 3_565 .
Te2 O3 Te2 152.51(9) 3_454 .
Te1 O3 Te2 64.67(7) . 7_666
Te2 O3 Te2 155.83(12) 2_656 7_666
Ca O3 Te2 65.95(6) 3_565 7_666
Te2 O3 Te2 113.33(7) 3_454 7_666
Te2 O3 Te2 44.93(3) . 7_666
Te1 O3 Te2 52.89(7) . 5_666
Te2 O3 Te2 96.16(9) 2_656 5_666
Ca O3 Te2 151.12(10) 3_565 5_666
Te2 O3 Te2 71.28(5) 3_454 5_666
Te2 O3 Te2 124.03(7) . 5_666
Te2 O3 Te2 102.82(6) 7_666 5_666
Te1 O3 Te2 63.58(7) . 3_444
Te2 O3 Te2 60.61(7) 2_656 3_444
Ca O3 Te2 163.68(10) 3_565 3_444
Te2 O3 Te2 91.77(6) 3_454 3_444
Te2 O3 Te2 114.87(7) . 3_444
Te2 O3 Te2 128.25(7) 7_666 3_444
Te2 O3 Te2 41.92(3) 5_666 3_444
Te1 O3 Te2 153.90(12) . 8_564
Te2 O3 Te2 39.54(6) 2_656 8_564
Ca O3 Te2 64.28(6) 3_565 8_564
Te2 O3 Te2 79.13(5) 3_454 8_564
Te2 O3 Te2 101.60(7) . 8_564
Te2 O3 Te2 128.10(7) 7_666 8_564
Te2 O3 Te2 128.10(6) 5_666 8_564
Te2 O3 Te2 99.72(6) 3_444 8_564
Te2 O4 Te2 104.25(13) . 7_666
Te2 O4 Ca 115.26(13) . 3_565
Te2 O4 Ca 132.24(14) 7_666 3_565
Te2 O4 Te2 83.90(10) . 4_656
Te2 O4 Te2 125.21(11) 7_666 4_656
Ca O4 Te2 86.05(9) 3_565 4_656
Te2 O4 Te2 144.88(13) . 1_565
Te2 O4 Te2 93.29(9) 7_666 1_565
Ca O4 Te2 69.49(7) 3_565 1_565
Te2 O4 Te2 61.28(5) 4_656 1_565
loop_
_geom_bond_atom_site_label_1
_geom_bond_atom_site_label_2
_geom_bond_distance
_geom_bond_site_symmetry_2
Te1 O1 1.877(3) 5_666
Te1 O1 1.877(3) .
Te1 O3 1.934(3) .
Te1 O3 1.934(3) 5_666
Te1 O2 1.971(3) 5_666
Te1 O2 1.971(3) .
Te1 Te2 3.4695(4) 6_565
Te1 Te2 3.4695(4) 2_656
Te1 Ca 3.5297(8) 7
Te1 Ca 3.5297(8) 3
Te1 Te2 3.5967(4) 5_666
Te1 Te2 3.5967(4) .
Te2 O4 1.916(3) .
Te2 O2 1.961(3) .
Te2 O4 2.100(3) 7_666
Te2 O3 2.104(3) 2_656
Te2 O1 2.445(3) 3
Te2 O1 2.899(3) 2_656
Te2 Te2 3.1720(5) 7_666
Te2 O3 3.380(3) 3_545
Ca O4 2.374(3) 4_535
Ca O4 2.374(3) 3_434
Ca O1 2.443(3) 4_545
Ca O1 2.443(3) 3_444
Ca O2 2.513(3) 3_444
Ca O2 2.513(3) 4_545
Ca O3 2.520(3) 3_434
Ca O3 2.520(3) 4_535
