#------------------------------------------------------------------------------
#$Date: 2021-02-18 12:09:13 +0200 (Thu, 18 Feb 2021) $
#$Revision: 262064 $
#$URL: file:///home/coder/svn-repositories/cod/cif/1/56/04/1560469.cif $
#------------------------------------------------------------------------------
#
# This file is available in the Crystallography Open Database (COD),
# http://www.crystallography.net/
#
# All data on this site have been placed in the public domain by the
# contributors.
#
data_1560469
loop_
_publ_author_name
'Iyer, Abishek K.'
'Yin, Wenlong'
'Lee, Emma J.'
'Lin, Xinsong'
'Mar, Arthur'
_publ_section_title
;
 Quaternary rare-earth sulfides RE 3 M 0.5 GeS 7 (RE=La--Nd, Sm; M=Co, Ni)
 and Y 3 Pd 0.5 SiS 7
;
_journal_name_full               'Journal of Solid State Chemistry'
_journal_page_first              14
_journal_page_last               23
_journal_paper_doi               10.1016/j.jssc.2017.03.009
_journal_volume                  250
_journal_year                    2017
_chemical_absolute_configuration ad
_chemical_formula_structural     'Pr3 Ni0.50 Ge S7'
_chemical_formula_sum            'Ge Ni0.5 Pr3 S7'
_chemical_formula_weight         749.09
_chemical_name_common
'praseodymium nickel germanium sulfide (3/0.5/1/7)'
_chemical_name_systematic
'praseodymium nickel germanium sulfide (3/0.5/1/7)'
_space_group_crystal_system      hexagonal
_space_group_IT_number           173
_space_group_name_Hall           'P 6c'
_space_group_name_H-M_alt        'P 63'
_atom_sites_solution_hydrogens   .
_audit_creation_method           SHELXL-2014/7
_cell_angle_alpha                90
_cell_angle_beta                 90
_cell_angle_gamma                120
_cell_formula_units_Z            2
_cell_length_a                   10.1303(4)
_cell_length_b                   10.1303(4)
_cell_length_c                   5.7752(2)
_cell_measurement_reflns_used    4898
_cell_measurement_temperature    296(2)
_cell_measurement_theta_max      32.78
_cell_measurement_theta_min      4.22
_cell_volume                     513.27(3)
_computing_structure_refinement  'SHELXL-2014/7 (Sheldrick, 2014)'
_diffrn_ambient_temperature      296(2)
_diffrn_measured_fraction_theta_full 1.000
_diffrn_measured_fraction_theta_max 0.999
_diffrn_measurement_device_type  'Bruker PLATFORM/SMART APEX II CCD'
_diffrn_measurement_method       '\w and \f scans'
_diffrn_radiation_type           MoK\a
_diffrn_radiation_wavelength     0.71073
_diffrn_reflns_av_R_equivalents  0.0356
_diffrn_reflns_av_unetI/netI     0.0234
_diffrn_reflns_Laue_measured_fraction_full 1.000
_diffrn_reflns_Laue_measured_fraction_max 0.999
_diffrn_reflns_limit_h_max       15
_diffrn_reflns_limit_h_min       -15
_diffrn_reflns_limit_k_max       15
_diffrn_reflns_limit_k_min       -15
_diffrn_reflns_limit_l_max       8
_diffrn_reflns_limit_l_min       -8
_diffrn_reflns_number            7378
_diffrn_reflns_point_group_measured_fraction_full 1.000
_diffrn_reflns_point_group_measured_fraction_max 0.999
_diffrn_reflns_theta_full        25.242
_diffrn_reflns_theta_max         33.093
_diffrn_reflns_theta_min         2.321
_diffrn_source                   'fine-focus sealed tube'
_exptl_absorpt_coefficient_mu    19.128
_exptl_absorpt_correction_T_max  0.527
_exptl_absorpt_correction_T_min  0.440
_exptl_absorpt_correction_type   numerical
_exptl_absorpt_process_details   'SHELXL-2014/7 (Sheldrick, 2014)'
_exptl_crystal_colour            grey
_exptl_crystal_density_diffrn    4.847
_exptl_crystal_description       irregular
_exptl_crystal_F_000             670
_exptl_crystal_size_max          0.059
_exptl_crystal_size_mid          0.054
_exptl_crystal_size_min          0.042
_refine_diff_density_max         2.013
_refine_diff_density_min         -1.007
_refine_diff_density_rms         0.201
_refine_ls_abs_structure_details
;
 Refined as an inversion twin.
;
_refine_ls_abs_structure_Flack   -0.01(3)
_refine_ls_extinction_coef       0.0035(3)
_refine_ls_extinction_expression Fc^*^=kFc[1+0.001xFc^2^\l^3^/sin(2\q)]^-1/4^
_refine_ls_extinction_method     'SHELXL-2014/7 (Sheldrick 2014'
_refine_ls_goodness_of_fit_ref   1.088
_refine_ls_hydrogen_treatment    undef
_refine_ls_matrix_type           full
_refine_ls_number_parameters     41
_refine_ls_number_reflns         1303
_refine_ls_number_restraints     1
_refine_ls_restrained_S_all      1.088
_refine_ls_R_factor_all          0.0209
_refine_ls_R_factor_gt           0.0195
_refine_ls_shift/su_max          0.001
_refine_ls_shift/su_mean         0.000
_refine_ls_structure_factor_coef Fsqd
_refine_ls_weighting_details
'w=1/[\s^2^(Fo^2^)+(0.0146P)^2^+1.0705P] where P=(Fo^2^+2Fc^2^)/3'
_refine_ls_weighting_scheme      calc
_refine_ls_wR_factor_gt          0.0394
_refine_ls_wR_factor_ref         0.0400
_reflns_Friedel_coverage         0.846
_reflns_Friedel_fraction_full    1.000
_reflns_Friedel_fraction_max     1.000
_reflns_number_gt                1255
_reflns_number_total             1303
_reflns_threshold_expression     'I > 2\s(I)'
_cod_data_source_file            mmc19.cif
_cod_data_source_block           8
_cod_original_cell_volume        513.27(4)
_cod_original_formula_sum        'Ge Ni0.50 Pr3 S7'
_cod_database_code               1560469
_shelx_shelxl_version_number     2014/7
_shelx_space_group_comment
;
The symmetry employed for this shelxl refinement is uniquely defined
by the following loop, which should always be used as a source of
symmetry information in preference to the above space-group names.
They are only intended as comments.
;
_shelx_estimated_absorpt_t_min   0.398
_shelx_estimated_absorpt_t_max   0.500
_shelx_res_file
;

    p63.res created by SHELXL-2014/7

TITL Pr3Ni0.5GeS7 P6(3) lsf final refinement
CELL 0.71073  10.13030  10.13030   5.77520  90.0000  90.0000 120.0000
ZERR    2.00   0.00040   0.00040   0.00020   0.0000   0.0000   0.0000
LATT -1
SYMM -Y, X-Y, Z
SYMM -X+Y, -X, Z
SYMM -X, -Y, 0.5+Z
SYMM Y, -X+Y, 0.5+Z
SYMM X-Y, X, 0.5+Z
SFAC S NI GE PR
UNIT 14 1 2 6
TEMP 23
SIZE 0.042 0.054 0.059

L.S. 4
ACTA

TWIN

EADP NIA NIB
WGHT    0.014600    1.070500
EXTI    0.003485
BASF  -0.01299
FVAR       0.11261   0.95531
PR    4    0.128042    0.355663    0.015978    11.00000    0.00998    0.00888 =
         0.01009    0.00085    0.00089    0.00478
NIA   2    0.000000    0.000000    0.249184    20.16667    0.01012    0.01012 =
         0.01743    0.00000    0.00000    0.00506
NIB   2    0.000000    0.000000   -0.006924   -20.16667    0.01012    0.01012 =
         0.01743    0.00000    0.00000    0.00506
GE    3    0.333333    0.666667    0.597838    10.33333    0.01103    0.01103 =
         0.00704    0.00000    0.00000    0.00552
S1    1    0.242722    0.155214    0.000000    11.00000    0.01424    0.01142 =
         0.01971    0.00288    0.00154    0.00824
S2    1    0.520392    0.103053    0.248274    11.00000    0.00996    0.01054 =
         0.00989    0.00035   -0.00138    0.00407
S3    1    0.333333    0.666667    0.221750    10.33333    0.01328    0.01328 =
         0.00774    0.00000    0.00000    0.00664
HKLF 4

REM  Pr3Ni0.5GeS7 P6(3) lsf final refinement
REM R1 =  0.0195 for    1255 Fo > 4sig(Fo)  and  0.0209 for all    1303 data
REM     41 parameters refined using      1 restraints

END

WGHT      0.0146      1.0877

REM Highest difference peak  2.013,  deepest hole -1.007,  1-sigma level  0.201
Q1    1   0.3333  0.6667  0.4275  10.33333  0.05    2.01
Q2    1   0.2545  0.7128  0.5149  11.00000  0.05    1.85
Q3    1   0.3181  0.3851  0.0173  11.00000  0.05    1.33
Q4    1   0.5776  0.0942  0.5127  11.00000  0.05    0.95
Q5    1   0.5749  0.0962  0.0182  11.00000  0.05    0.93
Q6    1   0.4684  0.0268  0.1061  11.00000  0.05    0.72
Q7    1   0.0590  0.2726 -0.0045  11.00000  0.05    0.69
Q8    1   0.3333  0.6667  0.0006  10.33333  0.05    0.67
Q9    1   0.1858  0.4623  0.1843  11.00000  0.05    0.66
Q10   1   0.4817 -0.1036  0.2820  11.00000  0.05    0.66
Q11   1   0.2599  0.7072  0.7748  11.00000  0.05    0.65
Q12   1   0.1480  0.4987  0.0248  11.00000  0.05    0.62
Q13   1   0.1482  0.1659  0.0229  11.00000  0.05    0.62
Q14   1   0.2452  0.4305 -0.1499  11.00000  0.05    0.61
Q15   1   0.2855  0.7664  0.1001  11.00000  0.05    0.60
Q16   1   0.0920  0.2264  0.0963  11.00000  0.05    0.59
Q17   1   0.2390  0.0805  0.1201  11.00000  0.05    0.59
Q18   1   0.3910  0.7895  0.6091  11.00000  0.05    0.59
Q19   1   0.2226  0.3998  0.0012  11.00000  0.05    0.59
Q20   1   0.1720  0.2976  0.0156  11.00000  0.05    0.58
;
_shelx_res_checksum              17778
_shelx_hkl_file
;
   3  -6  -8   44.04    5.71
   4  -6  -8    1.39    1.41
   5  -6  -8    1.88    1.53
   6  -5  -8  135.79    9.20
  -5  -1  -8  118.20    8.27
  -4  -1  -8    8.16    2.61
  -3  -1  -8   17.35    3.51
  -2  -1  -8   -0.26    1.06
  -1  -1  -8   37.98    5.18
   0  -1  -8    5.94    2.24
   1  -1  -8    2.75    1.60
   2  -1  -8   45.98    5.57
   3  -1  -8   59.17    5.33
   4  -1  -8   85.79    6.55
   5  -1  -8   36.14    4.97
   6  -1  -8    1.59    1.51
  -5   0  -8    2.01    1.59
  -4   0  -8    8.47    2.58
  -3   0  -8   18.49    3.79
  -2   0  -8    8.41    2.58
  -1   0  -8    6.04    2.22
   0   0  -8  244.20   11.42
   1   0  -8    2.84    1.66
   2   0  -8    5.96    2.20
   3   0  -8   13.47    3.16
   4   0  -8   10.25    2.93
   5   0  -8    1.19    1.45
  -6   1  -8    3.15    2.56
  -5   1  -8   37.38    5.29
  -4   1  -8   95.70    7.12
  -3   1  -8   62.16    5.73
  -2   1  -8   33.45    4.93
  -1   1  -8    5.21    2.13
   0   1  -8    4.25    1.87
   1   1  -8   38.70    5.24
   2   1  -8    0.58    1.21
   3   1  -8   18.50    3.88
   4   1  -8    9.91    2.88
   5   1  -8  101.53    7.73
  -6   2  -8   -0.12    1.23
  -5   2  -8    1.64    1.43
  -4   2  -8   52.09    6.46
  -3   2  -8    1.14    1.23
  -2   2  -8   10.82    2.92
  -1   2  -8   37.12    5.32
   0   2  -8    4.78    1.99
   1   2  -8   51.92    5.25
   2   2  -8   44.10    5.98
   3   2  -8    8.44    2.68
   4   2  -8    2.52    1.68
  -6   3  -8   30.12    7.22
  -5   3  -8    5.86    2.31
  -4   3  -8   17.19    3.79
  -3   3  -8   14.37    3.49
  -2   3  -8   58.40    5.67
  -1   3  -8    2.61    1.57
   0   3  -8    7.59    2.43
   1   3  -8   99.00    7.48
   2   3  -8    2.45    1.51
   3   3  -8   27.28    5.28
  -5   4  -8   12.91    3.22
  -4   4  -8    9.56    2.89
  -3   4  -8  100.72    7.58
  -2   4  -8   41.28    5.80
  -1   4  -8    9.37    2.69
   0   4  -8   14.01    3.35
   1   4  -8   33.12    5.28
  -5   5  -8    4.55    2.38
  -4   5  -8   37.39    5.53
  -3   5  -8    1.55    1.55
  -2   5  -8    5.64    2.34
  -1   5  -8    8.91    2.77
   0   5  -8    4.98    2.48
   3  -9  -7    1.69    1.79
   4  -9  -7    7.31    2.49
   5  -9  -7   63.22    6.17
   6  -9  -7   11.86    3.99
   0  -8  -7    0.45    1.29
   1  -8  -7   73.23    6.46
   2  -8  -7   19.55    3.91
   3  -8  -7   89.37    7.00
   4  -8  -7   23.49    4.33
   5  -8  -7    1.45    1.44
   6  -8  -7    9.55    2.78
   7  -8  -7    5.88    2.26
   8  -8  -7    0.76    1.68
  -2  -7  -7   33.20    5.23
  -1  -7  -7    7.91    2.64
   0  -7  -7   18.96    3.73
   1  -7  -7   12.92    3.18
   2  -7  -7    8.20    2.60
   3  -7  -7   16.28    3.33
   4  -7  -7    0.90    1.16
   5  -7  -7    2.32    1.52
   6  -7  -7   93.92    6.98
   7  -7  -7   24.96    4.22
   8  -7  -7   83.97    6.75
  -3  -6  -7   14.92    3.39
  -2  -6  -7   11.54    3.05
  -1  -6  -7   88.82    6.65
   0  -6  -7   16.48    3.36
   1  -6  -7    9.16    2.63
   2  -6  -7   19.21    3.54
   3  -6  -7   96.05    6.66
   4  -6  -7    3.31    1.60
   5  -6  -7   24.33    4.00
   6  -6  -7   19.29    3.58
   7  -6  -7   11.30    2.78
   8  -6  -7   22.79    4.12
   9  -6  -7   -0.09    1.14
  -2  -5  -7    3.51    1.83
  -1  -5  -7   33.79    4.71
   0  -5  -7   25.98    4.04
   1  -5  -7    7.56    2.20
   2  -5  -7   65.33    5.16
   3  -5  -7    4.05    1.66
   4  -5  -7   91.10    6.27
   5  -5  -7   18.88    3.46
   6  -5  -7    7.18    2.19
   7  -5  -7    4.22    1.86
   8  -5  -7  100.69    7.08
   9  -5  -7    3.54    1.83
  -1  -4  -7   92.32   10.70
   0  -4  -7   20.63    3.38
   1  -4  -7  165.86    8.14
   2  -4  -7    2.27    1.23
   3  -4  -7    1.82    1.23
   4  -4  -7   20.94    3.44
   5  -4  -7   10.51    2.59
   6  -4  -7    9.47    2.33
   7  -4  -7   19.64    3.57
   8  -4  -7   25.58    4.11
   9  -4  -7   64.09    5.78
   2  -3  -7   -0.11    0.65
   3  -3  -7   13.92    2.64
   4  -3  -7  147.77    7.62
   5  -3  -7   66.15    4.95
   6  -3  -7   96.20    6.33
   7  -3  -7    1.70    1.23
   8  -3  -7    2.49    1.62
   9  -3  -7   13.93    3.15
  -7  -2  -7   -0.25    1.36
  -6  -2  -7   17.20    3.64
  -5  -2  -7    6.67    2.12
  -4  -2  -7   14.15    3.08
  -3  -2  -7   63.26    5.25
  -2  -2  -7    3.00    1.51
  -1  -2  -7    0.17    0.79
   0  -2  -7   67.78    5.13
   1  -2  -7   20.32    3.29
   2  -2  -7   66.83    5.04
   3  -2  -7    5.69    1.81
   4  -2  -7    1.69    1.20
   5  -2  -7    4.15    1.70
   6  -2  -7    1.80    0.90
   7  -2  -7    3.71    1.12
   8  -2  -7    7.69    2.25
   9  -2  -7   37.28    5.04
  -7  -1  -7   82.87    6.78
  -6  -1  -7   13.02    3.22
  -5  -1  -7    5.77    2.08
  -4  -1  -7    8.65    2.58
  -3  -1  -7  164.76    8.71
  -2  -1  -7    4.22    1.61
  -1  -1  -7   21.84    3.64
   0  -1  -7   36.71    4.61
   1  -1  -7   37.88    3.90
   2  -1  -7   22.24    3.68
   3  -1  -7   -0.38    0.69
   4  -1  -7    0.91    0.90
   5  -1  -7   92.95    6.20
   6  -1  -7   21.64    3.70
   7  -1  -7   92.61    6.50
   8  -1  -7   10.71    2.85
  -8   0  -7    1.24    1.57
  -7   0  -7   20.13    3.93
  -6   0  -7   15.27    3.28
  -5   0  -7   24.45    4.11
  -4   0  -7   21.43    3.87
  -3   0  -7   16.79    3.25
  -2   0  -7   73.56    5.52
  -1   0  -7   38.43    4.83
   0   0  -7    0.46    0.91
   1   0  -7   49.22    4.50
   2   0  -7   61.10    5.08
   3   0  -7   17.39    3.23
   4   0  -7   17.14    3.28
   5   0  -7   19.55    3.60
   6   0  -7   16.55    3.33
   7   0  -7   15.92    3.25
   8   0  -7    2.25    1.65
  -8   1  -7    5.04    2.14
  -7   1  -7   88.46    6.88
  -6   1  -7   25.66    4.28
  -5   1  -7  100.84    7.06
  -4   1  -7    0.46    0.87
  -3   1  -7    1.35    1.02
  -2   1  -7   24.73    3.92
  -1   1  -7   38.48    4.91
   0   1  -7   45.21    4.41
   1   1  -7   18.09    3.38
   2   1  -7    4.89    1.76
   3   1  -7  156.19    8.56
   4   1  -7    7.87    2.29
   5   1  -7    6.95    2.30
   6   1  -7   11.79    2.84
   7   1  -7   87.97    6.76
  -8   2  -7    5.95    2.39
  -7   2  -7    2.13    1.56
  -6   2  -7    2.53    1.51
  -5   2  -7    2.58    1.53
  -4   2  -7    2.10    1.27
  -3   2  -7    3.91    1.67
  -2   2  -7   69.43    5.58
  -1   2  -7   22.96    3.90
   0   2  -7   75.60    5.78
   1   2  -7    0.42    0.94
   2   2  -7    3.38    1.56
   3   2  -7   53.24    5.06
   4   2  -7   14.71    3.11
   5   2  -7    7.72    2.44
   6   2  -7   18.77    3.71
  -8   3  -7    0.70    1.32
  -7   3  -7    1.56    1.25
  -6   3  -7   92.35    6.91
  -5   3  -7   56.12    5.18
  -4   3  -7  163.45    8.82
  -3   3  -7   17.83    3.35
  -2   3  -7   -0.14    0.78
  -1   3  -7    3.67    1.69
   0   3  -7   15.17    3.22
   1   3  -7    0.16    0.83
   2   3  -7    3.93    1.74
   3   3  -7   94.56    6.92
   4   3  -7   18.73    3.76
   5   3  -7   88.41    6.90
  -8   4  -7   26.64    4.64
  -7   4  -7   24.12    4.41
  -6   4  -7   11.45    2.93
  -5   4  -7    9.07    2.59
  -4   4  -7   19.78    3.65
  -3   4  -7    0.15    0.86
  -2   4  -7    2.74    1.49
  -1   4  -7  163.95    9.02
   0   4  -7   17.85    3.52
   1   4  -7   85.37    6.57
   2   4  -7    2.21    1.34
   3   4  -7    0.77    1.14
   4   4  -7   22.11    4.28
   5   4  -7    6.38    3.55
  -8   5  -7   82.08    6.83
  -7   5  -7    5.42    2.10
  -6   5  -7    9.72    2.71
  -5   5  -7   18.61    3.57
  -4   5  -7   86.23    6.54
  -3   5  -7    5.11    1.89
  -2   5  -7   61.75    5.49
  -1   5  -7    7.51    2.33
   0   5  -7   19.30    3.80
   1   5  -7   28.70    4.89
   2   5  -7    2.85    1.69
   3   5  -7    0.79    1.25
  -8   6  -7   16.47    3.55
  -7   6  -7    9.12    2.54
  -6   6  -7   19.25    3.68
  -5   6  -7   23.81    4.17
  -4   6  -7    3.34    1.77
  -3   6  -7   88.59    6.75
  -2   6  -7   13.42    3.18
  -1   6  -7   11.41    2.98
   0   6  -7   20.26    3.92
   1   6  -7   86.65    6.91
   2   6  -7   15.61    3.62
  -8   7  -7   77.91    6.52
  -7   7  -7   19.68    3.80
  -6   7  -7   92.80    6.98
  -5   7  -7    2.78    1.64
  -4   7  -7    1.31    1.35
  -3   7  -7   18.32    3.60
  -2   7  -7    7.90    2.58
  -1   7  -7   12.63    3.21
   0   7  -7   20.10    4.00
   1   7  -7   11.61    3.18
  -7   8  -7    7.97    2.56
  -6   8  -7    7.52    1.64
  -5   8  -7    1.57    0.93
  -4   8  -7   20.09    3.93
  -3   8  -7   87.54    6.91
  -2   8  -7   20.94    4.03
  -1   8  -7   80.18    6.76
  -7   9  -7   31.68    4.53
  -6   9  -7   11.06    1.95
  -5   9  -7   63.86    5.96
  -4   9  -7    7.62    2.65
  -3   9  -7    0.00    1.20
   7 -11  -6  125.25    7.45
   8 -11  -6    8.13    2.43
   1 -10  -6    7.20    2.97
   2 -10  -6   48.94    6.28
   3 -10  -6   61.72    5.89
   4 -10  -6   63.05    5.98
   5 -10  -6   38.56    5.47
   6 -10  -6    2.81    1.06
   7 -10  -6   12.43    2.09
   8 -10  -6   70.90    4.17
   9 -10  -6    1.54    1.36
  -1  -9  -6    2.13    1.62
   0  -9  -6   20.72    4.10
   1  -9  -6    2.41    1.46
   2  -9  -6    0.00    0.99
   3  -9  -6   28.87    4.55
   4  -9  -6    6.10    2.28
   5  -9  -6   13.82    3.15
   6  -9  -6   47.76    3.20
   7  -9  -6   12.53    1.97
   8  -9  -6   64.04    3.82
   9  -9  -6   17.22    2.43
  10  -9  -6    7.72    2.38
  -2  -8  -6   58.61    5.84
  -1  -8  -6   57.44    5.65
   0  -8  -6   65.03    5.82
   1  -8  -6   23.43    4.09
   2  -8  -6    4.86    1.98
   3  -8  -6   22.10    3.82
   4  -8  -6   20.32    3.68
   5  -8  -6   36.88    2.84
   6  -8  -6    2.39    0.94
   7  -8  -6   45.64    3.30
   8  -8  -6   72.22    3.95
   9  -8  -6    3.85    1.26
  10  -8  -6   34.55    5.25
  -4  -7  -6  119.20    8.39
  -3  -7  -6   10.77    2.98
  -2  -7  -6   17.79    3.72
  -1  -7  -6   42.34    5.52
   0  -7  -6   12.09    2.80
   1  -7  -6    0.64    0.96
   2  -7  -6   15.52    3.15
   3  -7  -6   20.32    3.69
   4  -7  -6   79.64    5.85
   5  -7  -6   50.99    2.98
   6  -7  -6   21.80    2.39
   7  -7  -6   16.83    2.17
   8  -7  -6   25.18    2.69
   9  -7  -6    0.27    1.03
  10  -7  -6   61.66    5.71
  -5  -6  -6    1.61    1.52
  -4  -6  -6    5.98    2.35
  -3  -6  -6   52.23    6.18
  -2  -6  -6    1.28    1.21
  -1  -6  -6   19.49    3.53
   0  -6  -6    5.67    1.94
   1  -6  -6  198.78    9.39
   2  -6  -6    5.83    1.88
   3  -6  -6   91.27    6.17
   4  -6  -6    9.22    2.39
   5  -6  -6   44.55    2.88
   6  -6  -6    7.27    1.38
   7  -6  -6    0.26    0.50
   8  -6  -6    4.76    1.83
   9  -6  -6   34.69    4.87
  10  -6  -6   58.34    5.45
  11  -6  -6   12.98    3.77
  -6  -5  -6    9.91    2.90
  -5  -5  -6   40.07    5.49
  -4  -5  -6   13.21    3.06
  -3  -5  -6   46.28    5.62
  -2  -5  -6   45.27    4.30
  -1  -5  -6   39.82    3.98
   0  -5  -6    4.01    1.64
   1  -5  -6   26.95    3.69
   2  -5  -6    8.96    2.25
   3  -5  -6    5.37    1.71
   4  -5  -6   51.47    2.74
   5  -5  -6    2.80    0.85
   6  -5  -6  201.31    9.31
   7  -5  -6   16.11    3.03
   8  -5  -6   33.22    4.63
   9  -5  -6    5.66    2.00
  10  -5  -6   39.43    5.25
  11  -5  -6   -0.64    1.03
  -6  -4  -6   65.79    5.65
  -5  -4  -6    6.54    1.96
  -4  -4  -6   24.79    3.98
  -3  -4  -6   83.76    5.78
  -2  -4  -6    8.27    2.14
  -1  -4  -6   49.36    4.15
   0  -4  -6   22.89    3.38
   1  -4  -6   49.68    4.07
   2  -4  -6   41.87    3.75
   3  -4  -6   79.85    5.24
   4  -4  -6   20.37    3.21
   5  -4  -6   45.16    3.93
   6  -4  -6    7.41    2.11
   7  -4  -6   17.80    3.16
   8  -4  -6   22.85    3.68
   9  -4  -6   14.42    3.11
  10  -4  -6    5.31    2.09
  11  -4  -6  112.23    7.88
  -8  -3  -6    9.91    2.93
  -7  -3  -6   51.45    5.25
  -6  -3  -6   33.20    4.74
  -5  -3  -6   28.98    3.43
  -4  -3  -6   21.58    2.46
  -3  -3  -6   99.91    4.28
  -2  -3  -6    5.70    1.22
  -1  -3  -6   85.26    3.70
   0  -3  -6   22.31    2.18
   1  -3  -6    6.32    1.20
   2  -3  -6  131.36    4.53
   3  -3  -6   23.21    2.23
   4  -3  -6   54.53    2.86
   5  -3  -6    9.69    1.49
   6  -3  -6   95.87    4.03
   7  -3  -6   78.03    3.76
   8  -3  -6   39.60    3.79
   9  -3  -6   46.35    4.60
  10  -3  -6    7.58    2.27
  -8  -2  -6   38.51    5.23
  -7  -2  -6    1.85    1.29
  -6  -2  -6    6.72    2.17
  -5  -2  -6   12.78    2.85
  -4  -2  -6    8.82    2.25
  -3  -2  -6    9.44    1.61
  -2  -2  -6   41.71    2.58
  -1  -2  -6  135.78    4.58
   0  -2  -6   77.89    3.40
   1  -2  -6   96.87    3.78
   2  -2  -6   74.71    3.31
   3  -2  -6    5.81    1.09
   4  -2  -6   43.69    2.56
   5  -2  -6    5.44    1.12
   6  -2  -6    8.03    1.43
   7  -2  -6   42.25    2.79
   8  -2  -6    3.14    1.05
   9  -2  -6   15.49    2.19
  10  -2  -6   60.85    3.80
  -9  -1  -6    7.60    2.60
  -8  -1  -6    2.38    1.44
  -7  -1  -6   21.06    3.77
  -6  -1  -6   -0.03    0.81
  -5  -1  -6  203.00    9.54
  -4  -1  -6   31.50    4.26
  -3  -1  -6   49.35    4.18
  -2  -1  -6    5.70    1.71
  -1  -1  -6   99.19    5.71
   0  -1  -6   22.33    2.20
   1  -1  -6   22.14    1.83
   2  -1  -6  101.86    3.81
   3  -1  -6  129.14    4.47
   4  -1  -6   85.43    3.66
   5  -1  -6   46.65    2.75
   6  -1  -6   43.88    2.75
   7  -1  -6   24.75    2.57
   8  -1  -6   36.93    2.94
   9  -1  -6   50.36    3.36
  10  -1  -6    3.24    1.20
  -9   0  -6   12.16    3.13
  -8   0  -6   68.20    5.83
  -7   0  -6   17.78    3.49
  -6   0  -6    9.07    2.34
  -5   0  -6    2.46    1.34
  -4   0  -6   21.51    3.47
  -3   0  -6   23.22    3.55
  -2   0  -6   80.28    5.27
  -1   0  -6   20.32    3.22
   0   0  -6  169.21    7.91
   1   0  -6   26.18    3.49
   2   0  -6   77.66    5.16
   3   0  -6   22.41    2.58
   4   0  -6   19.91    2.12
   5   0  -6    4.48    1.06
   6   0  -6    7.31    1.42
   7   0  -6   16.02    2.08
   8   0  -6   67.77    3.77
   9   0  -6   14.30    2.23
 -10   1  -6    3.55    2.15
  -9   1  -6   50.09    6.22
  -8   1  -6   47.20    5.82
  -7   1  -6   24.35    4.06
  -6   1  -6   42.30    4.22
  -5   1  -6   49.96    4.46
  -4   1  -6   83.65    5.63
  -3   1  -6  136.44    7.20
  -2   1  -6  107.26    6.13
  -1   1  -6   22.99    3.51
   0   1  -6   23.34    3.52
   1   1  -6   87.72    5.64
   2   1  -6    5.21    1.69
   3   1  -6   55.67    4.52
   4   1  -6   36.05    4.55
   5   1  -6  192.95    9.21
   6   1  -6    0.48    0.89
   7   1  -6   26.60    4.01
   8   1  -6    2.24    1.53
   9   1  -6    9.31    2.69
 -10   2  -6   61.27    5.82
  -9   2  -6   13.08    3.04
  -8   2  -6    1.62    1.20
  -7   2  -6   48.05    4.63
  -6   2  -6    5.15    1.80
  -5   2  -6    4.82    1.67
  -4   2  -6   42.93    4.11
  -3   2  -6    6.73    1.96
  -2   2  -6   78.38    5.32
  -1   2  -6   95.36    5.95
   0   2  -6   77.19    5.34
   1   2  -6  127.63    7.09
   2   2  -6   46.38    4.20
   3   2  -6   10.56    2.46
   4   2  -6    6.39    1.95
   5   2  -6   12.53    2.77
   6   2  -6    5.83    1.99
   7   2  -6    2.17    1.32
   8   2  -6   40.73    5.45
 -10   3  -6    5.63    2.11
  -9   3  -6   42.31    5.46
  -8   3  -6   43.52    5.54
  -7   3  -6   79.28    5.93
  -6   3  -6  100.97    6.55
  -5   3  -6   10.81    2.44
  -4   3  -6   44.91    4.17
  -3   3  -6   24.64    3.83
  -2   3  -6  131.15    7.17
  -1   3  -6    4.28    1.52
   0   3  -6   20.94    3.34
   1   3  -6   88.84    5.96
   2   3  -6    4.86    1.76
   3   3  -6  101.79    6.63
   4   3  -6   23.22    3.84
   5   3  -6   20.45    3.62
   6   3  -6   29.91    4.64
   7   3  -6   63.57    5.67
 -10   4  -6    2.27    1.46
  -9   4  -6   15.35    3.19
  -8   4  -6   22.84    3.92
  -7   4  -6   18.61    3.41
  -6   4  -6    6.76    2.00
  -5   4  -6   30.71    4.20
  -4   4  -6   24.91    3.84
  -3   4  -6   81.79    5.66
  -2   4  -6   46.38    4.22
  -1   4  -6   48.50    4.39
   0   4  -6   19.06    3.35
   1   4  -6   46.32    4.38
   2   4  -6    7.23    2.18
   3   4  -6   92.53    6.40
   4   4  -6   26.05    4.25
   5   4  -6    6.73    2.12
   6   4  -6   63.56    5.70
 -11   5  -6    0.44    1.77
 -10   5  -6   36.41    5.38
  -9   5  -6    4.54    1.86
  -8   5  -6   22.81    3.78
  -7   5  -6   11.18    2.66
  -6   5  -6  210.01    9.81
  -5   5  -6    4.64    1.74
  -4   5  -6   48.35    4.37
  -3   5  -6    3.86    1.54
  -2   5  -6   10.44    2.56
  -1   5  -6   30.65    4.25
   0   5  -6    4.30    1.65
   1   5  -6   44.01    4.38
   2   5  -6   46.11    4.62
   3   5  -6   49.57    4.76
   4   5  -6   14.95    3.25
   5   5  -6   29.82    4.67
 -11   6  -6   15.32    3.98
 -10   6  -6   69.67    6.00
  -9   6  -6   33.00    4.78
  -8   6  -6    3.48    1.55
  -7   6  -6   -0.65    0.54
  -6   6  -6    4.86    1.72
  -5   6  -6   46.90    4.38
  -4   6  -6    7.71    2.17
  -3   6  -6   97.87    6.49
  -2   6  -6    9.13    2.51
  -1   6  -6  191.73    9.56
   0   6  -6    5.90    2.05
   1   6  -6   15.64    3.21
   2   6  -6    1.32    1.23
   3   6  -6   50.12    5.00
   4   6  -6    4.03    1.91
   5   6  -6    0.59    1.72
 -11   7  -6   39.38    8.02
 -10   7  -6   60.63    5.61
  -9   7  -6    0.96    1.08
  -8   7  -6   28.11    4.42
  -7   7  -6   16.61    3.24
  -6   7  -6   22.34    3.78
  -5   7  -6   47.50    4.56
  -4   7  -6   79.24    3.88
  -3   7  -6   23.46    2.50
  -2   7  -6   12.20    2.76
  -1   7  -6    0.44    0.81
   0   7  -6   15.21    3.33
   1   7  -6   36.04    4.92
   2   7  -6   14.45    3.19
   3   7  -6   12.20    3.09
 -10   8  -6   32.53    4.98
  -9   8  -6    3.03    1.51
  -8   8  -6   75.58    5.92
  -7   8  -6   33.20    4.57
  -6   8  -6    2.63    0.98
  -5   8  -6   40.01    2.82
  -4   8  -6   21.08    2.43
  -3   8  -6   35.15    4.85
  -2   8  -6    4.88    1.91
  -1   8  -6   22.19    3.86
   0   8  -6   59.81    5.49
   1   8  -6   57.81    5.41
   2   8  -6   59.91    5.60
 -10   9  -6    5.42    2.09
  -9   9  -6   17.31    2.43
  -8   9  -6   55.92    3.58
  -7   9  -6   14.34    2.10
  -6   9  -6   46.02    3.13
  -5   9  -6   16.04    2.20
  -4   9  -6    7.00    1.50
  -3   9  -6   38.56    5.26
  -2   9  -6    1.04    1.15
  -1   9  -6    3.01    1.63
   0   9  -6   17.37    3.56
   1   9  -6    2.53    1.63
  -9  10  -6    1.58    1.01
  -8  10  -6   66.51    4.00
  -7  10  -6   11.81    1.92
  -6  10  -6    4.04    1.16
  -5  10  -6   37.49    3.45
  -4  10  -6   61.95    5.58
  -3  10  -6   61.40    5.58
  -2  10  -6   42.15    5.73
  -1  10  -6    6.64    2.52
  -8  11  -6    8.34    2.65
  -7  11  -6  111.87    5.22
  -6  11  -6    0.48    0.78
  -5  11  -6   16.63    3.70
  -4  11  -6   40.32    5.57
  -3  11  -6    7.53    2.62
   4 -12  -5  117.45    5.81
   5 -12  -5    2.76    1.11
   6 -12  -5   17.97    2.50
   7 -12  -5   32.06    3.33
   8 -12  -5   21.23    2.71
   9 -12  -5   13.20    3.19
   1 -11  -5   19.53    3.99
   2 -11  -5    3.92    1.95
   3 -11  -5   14.64    3.49
   4 -11  -5   26.06    2.82
   5 -11  -5   45.15    3.37
   6 -11  -5   42.49    3.66
   7 -11  -5    2.32    0.94
   8 -11  -5   33.00    3.35
   9 -11  -5   30.33    3.17
  10 -11  -5    9.59    1.88
  -1 -10  -5    6.28    2.27
   0 -10  -5  158.53    9.45
   1 -10  -5   47.31    5.99
   2 -10  -5   97.41    7.20
   3 -10  -5    5.21    1.23
   4 -10  -5    5.71    1.33
   5 -10  -5   24.78    2.73
   6 -10  -5   43.15    3.17
   7 -10  -5   30.49    2.97
   8 -10  -5   19.70    2.50
   9 -10  -5    9.91    1.83
  10 -10  -5  139.51    5.91
  11 -10  -5   20.82    2.68
  -2  -9  -5   31.19    5.07
  -1  -9  -5    9.34    2.74
   0  -9  -5    2.29    1.40
   1  -9  -5    0.66    1.04
   2  -9  -5   -0.26    0.58
   3  -9  -5    1.09    0.63
   4  -9  -5   14.62    1.92
   5  -9  -5   37.52    3.18
   6  -9  -5   14.41    2.00
   7  -9  -5   73.95    3.84
   8  -9  -5   12.65    1.94
   9  -9  -5    4.24    1.13
  10  -9  -5   49.66    3.36
  11  -9  -5    6.65    1.59
  -4  -8  -5   23.56    4.46
  -3  -8  -5   32.86    5.07
  -2  -8  -5   17.18    3.53
  -1  -8  -5   11.76    2.89
   0  -8  -5    8.27    2.39
   1  -8  -5   87.00    6.26
   2  -8  -5   99.54    6.61
   3  -8  -5  242.74    6.79
   4  -8  -5   29.12    2.62
   5  -8  -5    8.56    1.46
   6  -8  -5   19.20    2.22
   7  -8  -5   13.94    1.88
   8  -8  -5    8.86    1.57
   9  -8  -5    0.08    0.52
  10  -8  -5   99.88    4.70
  11  -8  -5    7.63    1.60
  12  -8  -5  110.06    7.86
  -5  -7  -5   39.49    5.66
  -4  -7  -5    1.36    1.31
  -3  -7  -5   28.54    4.49
  -2  -7  -5   62.45    5.51
  -1  -7  -5   15.94    3.30
   0  -7  -5   15.29    3.07
   1  -7  -5   10.64    2.48
   2  -7  -5   18.22    1.93
   3  -7  -5   32.65    2.35
   4  -7  -5   11.30    1.56
   5  -7  -5    3.22    0.88
   6  -7  -5  285.76    7.62
   7  -7  -5   12.25    1.71
   8  -7  -5   90.59    4.11
   9  -7  -5    0.52    0.61
  10  -7  -5    5.57    1.35
  11  -7  -5   19.56    3.77
  12  -7  -5    3.56    1.98
  -6  -6  -5   25.92    4.50
  -5  -6  -5   33.89    5.08
  -4  -6  -5   38.78    5.12
  -3  -6  -5   14.24    2.90
  -2  -6  -5   18.62    3.39
  -1  -6  -5  294.82   11.62
   0  -6  -5   12.84    2.58
   1  -6  -5   41.63    3.81
   2  -6  -5   27.82    2.02
   3  -6  -5  157.05    4.84
   4  -6  -5    0.65    0.43
   5  -6  -5   79.04    3.46
   6  -6  -5   13.63    1.73
   7  -6  -5    4.16    0.93
   8  -6  -5   99.42    4.24
   9  -6  -5   -0.05    0.71
  10  -6  -5    2.16    1.44
  11  -6  -5   43.66    5.64
  12  -6  -5   23.36    4.27
  -7  -5  -5    2.80    1.78
  -6  -5  -5   39.29    5.45
  -5  -5  -5   23.05    3.92
  -4  -5  -5   39.76    5.00
  -3  -5  -5    6.90    2.04
  -2  -5  -5    4.47    1.66
  -1  -5  -5   85.40    5.52
   0  -5  -5   10.80    2.34
   1  -5  -5   12.21    2.38
   2  -5  -5   96.91    3.46
   3  -5  -5    5.38    1.00
   4  -5  -5  199.34    5.52
   5  -5  -5    9.08    1.37
   6  -5  -5   37.99    2.35
   7  -5  -5   17.59    1.98
   8  -5  -5  228.84   10.13
   9  -5  -5   12.63    2.73
  10  -5  -5   25.73    4.13
  11  -5  -5   41.74    5.40
  12  -5  -5   24.84    4.20
  -8  -4  -5  113.40    5.46
  -7  -4  -5   19.84    2.58
  -6  -4  -5    2.88    1.06
  -5  -4  -5   13.87    2.02
  -4  -4  -5   30.49    2.82
  -3  -4  -5   14.28    1.84
  -2  -4  -5    0.68    0.52
  -1  -4  -5  202.28    5.70
   0  -4  -5    6.22    1.11
   1  -4  -5  358.61    7.80
   2  -4  -5    3.88    0.64
   3  -4  -5   13.47    1.18
   4  -4  -5    6.81    0.89
   5  -4  -5   13.39    1.25
   6  -4  -5   31.97    1.66
   7  -4  -5   28.41    2.18
   8  -4  -5   31.46    4.15
   9  -4  -5   31.53    4.24
  10  -4  -5   43.24    5.31
  11  -4  -5    3.59    1.71
  12  -4  -5   23.11    4.26
  -9  -3  -5    2.78    1.19
  -8  -3  -5   10.99    2.00
  -7  -3  -5    4.91    1.35
  -6  -3  -5    1.42    0.77
  -5  -3  -5  231.24    7.03
  -4  -3  -5   27.34    2.56
  -3  -3  -5  156.04    5.10
  -2  -3  -5    3.08    0.83
  -1  -3  -5   16.38    1.78
   0  -3  -5   66.95    2.92
   1  -3  -5   35.36    1.53
   2  -3  -5   32.94    1.50
   3  -3  -5   68.02    2.24
   4  -3  -5  351.90    6.22
   5  -3  -5   97.46    3.61
   6  -3  -5  155.59    4.91
   7  -3  -5   12.47    1.63
   8  -3  -5   10.63    1.61
   9  -3  -5   11.79    1.81
  10  -3  -5   31.72    3.02
  11  -3  -5   30.85    3.14
  12  -3  -5   13.99    3.70
  -9  -2  -5    7.86    2.56
  -8  -2  -5   96.70    4.79
  -7  -2  -5    0.26    0.61
  -6  -2  -5  101.92    4.44
  -5  -2  -5   14.14    1.84
  -4  -2  -5   29.76    2.27
  -3  -2  -5   96.14    3.74
  -2  -2  -5    3.45    0.84
  -1  -2  -5   34.02    2.05
   0  -2  -5   87.57    3.26
   1  -2  -5   57.40    2.60
   2  -2  -5   87.48    3.26
   3  -2  -5   36.30    2.08
   4  -2  -5    4.31    0.88
   5  -2  -5    3.09    0.81
   6  -2  -5    0.57    0.44
   7  -2  -5    4.38    1.03
   8  -2  -5   17.25    2.06
   9  -2  -5   71.42    3.72
  10  -2  -5   16.94    2.32
  11  -2  -5   31.21    3.20
  12  -2  -5    5.45    2.19
 -10  -1  -5   15.90    3.53
  -9  -1  -5   36.19    5.04
  -8  -1  -5   -0.49    0.74
  -7  -1  -5   88.52    6.04
  -6  -1  -5    7.13    1.35
  -5  -1  -5   39.32    2.45
  -4  -1  -5   12.21    1.58
  -3  -1  -5  353.40    7.93
  -2  -1  -5   33.59    2.02
  -1  -1  -5   51.42    2.44
   0  -1  -5   87.34    3.19
   1  -1  -5   89.91    3.21
   2  -1  -5   55.27    2.53
   3  -1  -5   34.33    2.01
   4  -1  -5   15.88    1.74
   5  -1  -5  185.79    5.50
   6  -1  -5   81.38    3.57
   7  -1  -5  290.36    7.62
   8  -1  -5   13.97    1.92
   9  -1  -5   12.49    1.91
  10  -1  -5    7.75    1.63
  11  -1  -5    4.36    1.77
 -10   0  -5  163.05    9.38
  -9   0  -5    2.03    1.44
  -8   0  -5    5.42    1.86
  -7   0  -5    7.80    2.14
  -6   0  -5   12.41    2.59
  -5   0  -5    8.57    2.04
  -4   0  -5    7.59    1.29
  -3   0  -5   67.87    2.81
  -2   0  -5   85.77    3.14
  -1   0  -5   87.40    3.10
   0   0  -5   -0.05    0.26
   1   0  -5   88.94    3.16
   2   0  -5   84.80    3.18
   3   0  -5   68.82    2.93
   4   0  -5    5.36    1.04
   5   0  -5    8.42    1.29
   6   0  -5   13.15    1.74
   7   0  -5   12.06    1.74
   8   0  -5    3.59    0.99
   9   0  -5    1.89    0.82
  10   0  -5  137.66    8.32
 -11   1  -5    8.04    2.62
 -10   1  -5    8.93    2.58
  -9   1  -5    8.68    2.37
  -8   1  -5   16.97    3.24
  -7   1  -5  286.98   11.43
  -6   1  -5   76.90    5.28
  -5   1  -5  204.62    8.65
  -4   1  -5   10.05    2.19
  -3   1  -5   35.35    3.24
  -2   1  -5   51.11    3.84
  -1   1  -5   80.32    4.78
   0   1  -5   87.55    3.00
   1   1  -5   53.97    2.36
   2   1  -5   34.44    1.98
   3   1  -5  360.17    7.89
   4   1  -5   11.87    1.51
   5   1  -5   37.83    2.36
   6   1  -5    6.32    1.25
   7   1  -5   86.21    4.01
   8   1  -5    0.30    0.82
   9   1  -5   50.10    4.84
  10   1  -5   14.04    3.14
 -11   2  -5   23.61    4.17
 -10   2  -5   14.23    3.14
  -9   2  -5   68.00    5.53
  -8   2  -5   17.46    3.22
  -7   2  -5    4.22    1.53
  -6   2  -5    1.48    1.04
  -5   2  -5    3.98    1.38
  -4   2  -5    2.85    1.14
  -3   2  -5   34.95    3.31
  -2   2  -5   89.50    5.15
  -1   2  -5   53.51    3.95
   0   2  -5   80.15    4.97
   1   2  -5   29.65    3.01
   2   2  -5    3.88    1.38
   3   2  -5  101.25    3.65
   4   2  -5   28.33    2.14
   5   2  -5   16.93    1.95
   6   2  -5   95.03    4.20
   7   2  -5    0.67    0.97
   8   2  -5  102.16    6.79
   9   2  -5    3.47    1.74
 -11   3  -5   34.58    5.14
 -10   3  -5   31.00    4.59
  -9   3  -5   14.32    3.00
  -8   3  -5   11.97    2.59
  -7   3  -5   12.87    2.66
  -6   3  -5  148.38    7.55
  -5   3  -5   98.43    5.78
  -4   3  -5  342.89   11.88
  -3   3  -5   70.22    4.71
  -2   3  -5   34.57    3.22
  -1   3  -5   33.18    3.18
   0   3  -5   76.18    4.87
   1   3  -5   10.78    2.22
   2   3  -5    3.26    1.36
   3   3  -5  167.88    7.96
   4   3  -5   30.85    4.09
   5   3  -5  235.21   10.29
   6   3  -5    0.31    0.69
   7   3  -5    5.87    1.98
   8   3  -5   10.29    2.73
 -12   4  -5   20.53    3.97
 -11   4  -5    2.40    1.46
 -10   4  -5   38.47    5.06
  -9   4  -5   35.04    4.73
  -8   4  -5   31.59    4.34
  -7   4  -5   23.89    3.50
  -6   4  -5   30.06    3.95
  -5   4  -5   12.90    2.44
  -4   4  -5    5.61    1.70
  -3   4  -5   10.94    2.23
  -2   4  -5    4.65    1.51
  -1   4  -5  352.91   12.16
   0   4  -5    7.84    1.15
   1   4  -5  206.04    8.83
   2   4  -5    0.20    0.63
   3   4  -5   14.50    2.78
   4   4  -5   32.99    4.39
   5   4  -5   16.51    3.14
   6   4  -5    4.55    1.82
   7   4  -5   22.33    3.92
   8   4  -5  109.55    7.70
 -12   5  -5   31.56    4.79
 -11   5  -5   40.84    5.52
 -10   5  -5   21.73    3.79
  -9   5  -5   14.70    3.00
  -8   5  -5  248.83   10.57
  -7   5  -5   17.31    3.07
  -6   5  -5   33.29    4.23
  -5   5  -5    7.01    1.92
  -4   5  -5  188.01    8.41
  -3   5  -5    3.02    1.28
  -2   5  -5   99.62    5.83
  -1   5  -5   14.75    1.68
   0   5  -5    8.97    2.12
   1   5  -5   79.05    5.41
   2   5  -5    4.05    1.44
   3   5  -5    6.61    1.98
   4   5  -5   34.01    4.52
   5   5  -5   18.24    3.44
   6   5  -5   48.55    4.79
   7   5  -5    2.18    1.43
 -12   6  -5   18.86    3.63
 -11   6  -5   40.41    5.24
 -10   6  -5    4.63    1.85
  -9   6  -5    1.27    1.14
  -8   6  -5  108.60    6.63
  -7   6  -5    8.49    2.18
  -6   6  -5   13.75    2.74
  -5   6  -5   97.42    5.77
  -4   6  -5    0.18    0.56
  -3   6  -5  158.17    7.69
  -2   6  -5   31.25    2.22
  -1   6  -5   37.25    2.24
   0   6  -5   16.41    3.07
   1   6  -5  291.70   11.50
   2   6  -5   15.56    2.94
   3   6  -5   17.57    3.34
   4   6  -5   33.54    4.59
   5   6  -5   34.17    4.87
   6   6  -5   13.33    3.10
 -12   7  -5    3.28    1.61
 -11   7  -5   22.39    4.09
 -10   7  -5    7.48    2.18
  -9   7  -5    0.22    0.67
  -8   7  -5   93.40    6.08
  -7   7  -5   11.51    2.54
  -6   7  -5  271.98   10.90
  -5   7  -5    2.39    1.20
  -4   7  -5   13.53    1.80
  -3   7  -5   32.96    2.44
  -2   7  -5   18.15    1.98
  -1   7  -5    7.43    2.06
   0   7  -5   13.83    2.79
   1   7  -5   15.14    2.96
   2   7  -5   70.70    5.55
   3   7  -5   24.85    4.01
   4   7  -5    2.85    1.45
   5   7  -5   35.14    4.93
 -12   8  -5  114.25    7.64
 -11   8  -5   10.33    2.83
 -10   8  -5   91.65    6.49
  -9   8  -5    1.00    0.83
  -8   8  -5    8.04    2.30
  -7   8  -5   21.04    3.50
  -6   8  -5   18.09    2.15
  -5   8  -5    9.42    1.58
  -4   8  -5   28.54    2.64
  -3   8  -5  254.19    6.98
  -2   8  -5  104.97    4.22
  -1   8  -5   89.25    6.05
   0   8  -5    9.57    2.50
   1   8  -5    9.95    2.51
   2   8  -5   14.85    3.03
   3   8  -5   27.87    4.35
   4   8  -5   14.86    3.40
 -12   9  -5    2.80    1.50
 -11   9  -5    7.67    2.35
 -10   9  -5   48.66    4.82
  -9   9  -5    3.18    1.04
  -8   9  -5   12.22    1.87
  -7   9  -5   67.38    3.62
  -6   9  -5   15.89    2.08
  -5   9  -5   40.34    2.68
  -4   9  -5   15.92    2.03
  -3   9  -5    0.59    0.58
  -2   9  -5    0.20    0.86
  -1   9  -5    0.49    0.84
   0   9  -5    3.48    1.51
   1   9  -5    8.22    2.28
   2   9  -5   40.86    5.29
   3   9  -5   10.48    2.87
 -12  10  -5   11.16    2.91
 -11  10  -5   15.34    2.28
 -10  10  -5  156.02    6.05
  -9  10  -5    6.53    1.44
  -8  10  -5   18.98    2.38
  -7  10  -5   26.52    2.75
  -6  10  -5   42.09    3.17
  -5  10  -5   22.97    2.54
  -4  10  -5    5.36    1.30
  -3  10  -5    8.17    1.57
  -2  10  -5   94.87    6.52
  -1  10  -5   50.12    4.76
   0  10  -5  144.45    8.38
   1  10  -5    9.23    2.63
   2  10  -5    4.86    2.05
 -10  11  -5    5.12    2.03
  -9  11  -5   19.67    3.50
  -8  11  -5   37.22    4.92
  -7  11  -5    2.20    1.28
  -6  11  -5   41.17    3.95
  -5  11  -5   42.58    3.24
  -4  11  -5   23.74    2.68
  -3  11  -5   12.35    2.87
  -2  11  -5    4.92    2.06
  -1  11  -5   15.46    3.35
   0  11  -5    3.31    2.73
  -9  12  -5   13.90    3.49
  -8  12  -5   25.82    4.17
  -7  12  -5   30.91    4.55
  -6  12  -5   28.17    4.25
  -5  12  -5    5.40    1.95
   3 -13  -4    0.27    0.97
   4 -13  -4    2.43    1.17
   5 -13  -4   59.34    3.82
   6 -13  -4   77.24    4.39
   7 -13  -4   10.32    1.85
   8 -13  -4   25.78    2.92
   9 -13  -4   15.04    2.31
  10 -13  -4    9.11    2.91
   1 -12  -4    0.69    1.39
   2 -12  -4  125.79    5.54
   3 -12  -4    1.43    0.88
   4 -12  -4   33.71    3.31
   5 -12  -4    1.05    0.72
   6 -12  -4   21.21    2.54
   7 -12  -4    0.83    0.70
   8 -12  -4   17.00    2.35
   9 -12  -4   26.97    2.93
  10 -12  -4   87.29    4.63
  11 -12  -4   67.55    4.15
  -1 -11  -4   67.60    6.34
   0 -11  -4    9.19    2.73
   1 -11  -4    2.80    1.07
   2 -11  -4   14.51    2.14
   3 -11  -4   27.87    2.88
   4 -11  -4    0.05    0.54
   5 -11  -4   41.73    3.47
   6 -11  -4   18.69    2.39
   7 -11  -4  232.98    7.22
   8 -11  -4    8.83    1.65
   9 -11  -4   31.44    3.06
  10 -11  -4    2.56    1.02
  11 -11  -4    9.29    1.79
  12 -11  -4    2.48    1.08
  -2 -10  -4   93.98    7.29
  -1 -10  -4    4.85    1.97
   0 -10  -4   20.29    3.76
   1 -10  -4   19.49    2.39
   2 -10  -4   24.64    2.61
   3 -10  -4   69.66    3.62
   4 -10  -4   68.43    3.55
   5 -10  -4   25.32    2.58
   6 -10  -4   26.37    2.62
   7 -10  -4   22.16    2.49
   8 -10  -4    5.69    1.27
   9 -10  -4    8.96    1.61
  10 -10  -4   17.94    2.37
  11 -10  -4    3.58    1.09
  12 -10  -4  121.48    5.47
  -4  -9  -4   19.01    3.89
  -3  -9  -4   22.75    4.18
  -2  -9  -4   42.36    5.62
  -1  -9  -4    7.99    2.46
   0  -9  -4   84.92    6.26
   1  -9  -4    7.51    1.39
   2  -9  -4   24.14    2.42
   3  -9  -4   91.13    3.96
   4  -9  -4    3.71    0.96
   5  -9  -4   59.70    3.15
   6  -9  -4   22.53    2.29
   7  -9  -4   51.64    2.98
   8  -9  -4   47.05    2.95
   9  -9  -4   82.49    4.00
  10  -9  -4   17.70    2.20
  11  -9  -4    8.75    1.62
  12  -9  -4    2.45    0.99
  13  -9  -4    4.21    1.30
  -5  -8  -4   21.47    4.17
  -4  -8  -4   18.68    3.77
  -3  -8  -4   10.65    2.73
  -2  -8  -4    5.99    2.10
  -1  -8  -4   47.84    4.58
   0  -8  -4  165.05    5.39
   1  -8  -4   28.45    2.21
   2  -8  -4   24.23    1.96
   3  -8  -4   40.69    2.44
   4  -8  -4   26.87    2.14
   5  -8  -4  146.41    4.92
   6  -8  -4    1.55    0.66
   7  -8  -4    1.45    0.67
   8  -8  -4  148.41    5.31
   9  -8  -4    4.99    1.20
  10  -8  -4   27.58    2.77
  11  -8  -4   24.70    2.70
  12  -8  -4   27.42    2.94
  13  -8  -4   60.50    5.66
  -6  -7  -4   16.10    3.48
  -5  -7  -4    0.72    1.05
  -4  -7  -4  211.93   10.65
  -3  -7  -4   17.86    3.32
  -2  -7  -4   45.91    4.36
  -1  -7  -4    1.65    1.09
   0  -7  -4   23.19    2.18
   1  -7  -4   19.37    1.95
   2  -7  -4    2.52    0.69
   3  -7  -4   34.10    2.11
   4  -7  -4  155.65    4.85
   5  -7  -4  112.22    4.08
   6  -7  -4   72.10    3.24
   7  -7  -4   27.94    2.17
   8  -7  -4   23.42    2.37
   9  -7  -4   24.87    2.46
  10  -7  -4   72.47    3.72
  11  -7  -4    0.13    0.55
  12  -7  -4    1.22    1.18
  13  -7  -4   75.84    6.30
  -7  -6  -4   89.35    7.15
  -6  -6  -4   18.36    3.71
  -5  -6  -4   15.03    3.21
  -4  -6  -4   28.23    4.20
  -3  -6  -4   17.52    3.15
  -2  -6  -4    2.00    1.18
  -1  -6  -4   64.37    4.76
   0  -6  -4    5.96    1.03
   1  -6  -4  338.17    7.41
   2  -6  -4    1.06    0.46
   3  -6  -4    9.55    1.27
   4  -6  -4    5.49    1.00
   5  -6  -4    9.61    1.32
   6  -6  -4    5.59    0.98
   7  -6  -4   15.59    1.79
   8  -6  -4   21.70    2.16
   9  -6  -4   97.55    4.08
  10  -6  -4   70.22    3.60
  11  -6  -4   43.66    5.23
  12  -6  -4   19.88    3.66
  13  -6  -4   11.58    3.02
  -8  -5  -4   58.03    3.93
  -7  -5  -4    3.70    1.27
  -6  -5  -4   31.78    3.19
  -5  -5  -4   26.02    2.68
  -4  -5  -4   58.86    3.20
  -3  -5  -4  145.06    4.96
  -2  -5  -4  114.69    4.07
  -1  -5  -4   11.42    1.09
   0  -5  -4    0.62    0.32
   1  -5  -4   10.48    0.97
   2  -5  -4   40.85    2.04
   3  -5  -4   11.33    1.30
   4  -5  -4   51.68    2.42
   5  -5  -4    1.01    0.48
   6  -5  -4  328.69    7.60
   7  -5  -4    2.70    0.77
   8  -5  -4   36.09    2.31
   9  -5  -4    2.18    1.16
  10  -5  -4   22.49    3.61
  11  -5  -4   18.59    3.39
  12  -5  -4    1.46    1.11
  13  -5  -4   26.35    4.60
  -9  -4  -4    1.91    1.07
  -8  -4  -4   30.08    3.24
  -7  -4  -4    0.21    0.58
  -6  -4  -4   72.72    3.81
  -5  -4  -4    2.65    0.91
  -4  -4  -4   23.20    2.27
  -3  -4  -4  161.65    5.06
  -2  -4  -4    7.08    1.17
  -1  -4  -4   50.39    1.76
   0  -4  -4   42.80    1.57
   1  -4  -4   67.39    1.97
   2  -4  -4  180.46    3.59
   3  -4  -4  380.53    6.03
   4  -4  -4   42.73    1.62
   5  -4  -4   11.80    1.04
   6  -4  -4    1.61    0.43
   7  -4  -4   35.47    1.66
   8  -4  -4   23.35    1.92
   9  -4  -4   55.08    2.95
  10  -4  -4   25.36    2.55
  11  -4  -4  219.20    6.91
  12  -4  -4   19.48    2.50
  13  -4  -4    9.24    2.71
 -10  -3  -4    0.79    0.94
  -9  -3  -4    1.76    0.98
  -8  -3  -4   25.27    2.88
  -7  -3  -4   71.24    3.85
  -6  -3  -4   90.54    4.14
  -5  -3  -4   39.43    2.53
  -4  -3  -4   34.46    2.22
  -3  -3  -4   10.89    1.47
  -2  -3  -4   11.35    1.36
  -1  -3  -4  373.18    5.86
   0  -3  -4   34.38    1.33
   1  -3  -4    4.99    0.63
   2  -3  -4  163.06    3.37
   3  -3  -4   34.34    1.41
   4  -3  -4   66.67    2.08
   5  -3  -4   40.80    1.67
   6  -3  -4    9.78    1.32
   7  -3  -4  160.12    4.83
   8  -3  -4  142.57    4.79
   9  -3  -4   21.71    2.28
  10  -3  -4   19.46    2.35
  11  -3  -4   10.33    1.77
  12  -3  -4   24.37    2.75
  13  -3  -4    6.99    2.37
 -10  -2  -4  118.46    5.63
  -9  -2  -4   11.86    2.00
  -8  -2  -4   27.40    2.94
  -7  -2  -4   22.20    2.50
  -6  -2  -4   24.92    2.47
  -5  -2  -4    2.67    0.78
  -4  -2  -4    2.00    0.65
  -3  -2  -4   42.40    2.23
  -2  -2  -4  189.19    4.90
  -1  -2  -4  168.24    3.19
   0  -2  -4   43.65    1.45
   1  -2  -4   77.91    2.06
   2  -2  -4   42.65    1.51
   3  -2  -4    3.93    0.58
   4  -2  -4  184.37    4.79
   5  -2  -4   11.47    1.37
   6  -2  -4    5.49    1.01
   7  -2  -4  113.03    4.07
   8  -2  -4    1.99    0.73
   9  -2  -4   46.60    2.81
  10  -2  -4    5.71    1.32
  11  -2  -4   34.19    3.32
  12  -2  -4   90.53    6.44
 -11  -1  -4    3.15    1.83
 -10  -1  -4    4.19    1.28
  -9  -1  -4   17.58    2.41
  -8  -1  -4    9.42    1.70
  -7  -1  -4   24.13    2.47
  -6  -1  -4   17.76    1.99
  -5  -1  -4  330.97    7.77
  -4  -1  -4   11.22    1.36
  -3  -1  -4   65.91    2.68
  -2  -1  -4    5.41    0.91
  -1  -1  -4   78.94    1.89
   0  -1  -4   22.76    1.39
   1  -1  -4   20.67    1.33
   2  -1  -4   81.57    2.80
   3  -1  -4  163.40    4.39
   4  -1  -4  380.84    7.82
   5  -1  -4   46.57    2.37
   6  -1  -4    8.34    1.24
   7  -1  -4   69.06    3.17
   8  -1  -4    1.07    0.61
   9  -1  -4   42.65    2.82
  10  -1  -4    8.98    1.71
  11  -1  -4    4.14    1.83
  12  -1  -4   80.58    6.28
 -11   0  -4    7.06    2.47
 -10   0  -4   16.02    3.37
  -9   0  -4   77.51    3.95
  -8   0  -4  149.06    5.36
  -7   0  -4   21.98    2.26
  -6   0  -4    6.67    1.20
  -5   0  -4    0.50    0.39
  -4   0  -4   45.76    2.20
  -3   0  -4   34.39    1.80
  -2   0  -4   45.42    1.99
  -1   0  -4   19.42    1.37
   0   0  -4  979.19   15.08
   1   0  -4   24.16    1.41
   2   0  -4   42.07    1.96
   3   0  -4   35.99    1.88
   4   0  -4   37.31    2.03
   5   0  -4    0.30    0.36
   6   0  -4    7.39    1.22
   7   0  -4   21.80    2.22
   8   0  -4  156.89    5.40
   9   0  -4   79.73    3.98
  10   0  -4   13.27    2.91
  11   0  -4   11.20    2.79
 -12   1  -4   70.46    6.16
 -11   1  -4    3.74    1.57
 -10   1  -4    5.99    2.04
  -9   1  -4   52.36    4.60
  -8   1  -4    2.04    0.98
  -7   1  -4   66.38    3.12
  -6   1  -4    9.07    1.30
  -5   1  -4   48.68    2.32
  -4   1  -4  378.98    7.54
  -3   1  -4  167.25    4.20
  -2   1  -4   78.35    2.55
  -1   1  -4   19.76    1.19
   0   1  -4   20.84    1.25
   1   1  -4   74.71    2.60
   2   1  -4    4.38    0.75
   3   1  -4   64.33    2.62
   4   1  -4   11.24    1.36
   5   1  -4  322.69    7.60
   6   1  -4   15.29    1.79
   7   1  -4   21.70    2.28
   8   1  -4    9.01    2.26
   9   1  -4   15.51    3.09
  10   1  -4    1.01    1.16
  11   1  -4    2.27    1.58
 -12   2  -4   95.27    7.05
 -11   2  -4   29.96    4.52
 -10   2  -4    9.46    2.47
  -9   2  -4   54.72    4.54
  -8   2  -4    1.25    0.90
  -7   2  -4   99.92    5.82
  -6   2  -4    3.12    1.21
  -5   2  -4    7.16    1.64
  -4   2  -4  184.04    7.30
  -3   2  -4    6.63    0.83
  -2   2  -4   42.09    1.63
  -1   2  -4   79.99    2.38
   0   2  -4   46.65    1.84
   1   2  -4  160.96    4.15
   2   2  -4  190.39    3.73
   3   2  -4   42.26    2.13
   4   2  -4    0.71    0.41
   5   2  -4    2.55    0.75
   6   2  -4   24.89    3.58
   7   2  -4   22.70    3.55
   8   2  -4   27.01    3.99
   9   2  -4   14.12    3.16
  10   2  -4  122.64    7.98
 -12   3  -4   26.53    4.22
 -11   3  -4   10.62    2.64
 -10   3  -4   19.05    3.45
  -9   3  -4   20.19    3.29
  -8   3  -4  138.46    7.15
  -7   3  -4  153.17    7.26
  -6   3  -4   12.97    2.35
  -5   3  -4   36.85    3.13
  -4   3  -4   62.01    3.99
  -3   3  -4   34.65    2.91
  -2   3  -4  149.83    6.50
  -1   3  -4    6.80    1.64
   0   3  -4   31.78    1.52
   1   3  -4  384.67    5.85
   2   3  -4   12.62    1.36
   3   3  -4   11.90    2.32
   4   3  -4   32.14    3.15
   5   3  -4   35.29    3.41
   6   3  -4   86.63    5.71
   7   3  -4   67.28    5.17
   8   3  -4   22.49    3.75
   9   3  -4    0.56    1.01
 -13   4  -4   13.46    3.10
 -12   4  -4   20.86    3.74
 -11   4  -4  226.68   10.47
 -10   4  -4   24.08    3.75
  -9   4  -4   61.28    4.70
  -8   4  -4   20.87    3.21
  -7   4  -4   35.17    3.27
  -6   4  -4    0.79    0.73
  -5   4  -4   12.06    2.18
  -4   4  -4   43.28    3.33
  -3   4  -4  361.94   11.53
  -2   4  -4  197.21    7.52
  -1   4  -4   64.97    4.12
   0   4  -4   45.35    2.07
   1   4  -4   52.98    2.20
   2   4  -4    5.33    1.60
   3   4  -4  146.88    7.07
   4   4  -4   18.39    2.93
   5   4  -4    3.02    1.40
   6   4  -4   59.38    4.85
   7   4  -4    0.75    0.82
   8   4  -4   30.42    4.60
   9   4  -4    3.23    1.76
 -13   5  -4   17.60    3.56
 -12   5  -4    1.63    1.11
 -11   5  -4   12.39    2.67
 -10   5  -4   26.55    3.90
  -9   5  -4    2.44    1.17
  -8   5  -4   41.44    3.66
  -7   5  -4    3.86    1.38
  -6   5  -4  319.99   11.10
  -5   5  -4    1.09    0.72
  -4   5  -4   49.85    3.66
  -3   5  -4   14.23    2.36
  -2   5  -4   44.01    3.41
  -1   5  -4   11.29    1.34
   0   5  -4    1.72    0.56
   1   5  -4    9.56    2.11
   2   5  -4  110.33    6.02
   3   5  -4  147.37    7.31
   4   5  -4   52.87    4.33
   5   5  -4   29.87    4.13
   6   5  -4   33.60    4.41
   7   5  -4    0.94    1.07
   8   5  -4   55.21    5.37
 -13   6  -4    9.82    2.55
 -12   6  -4   19.10    3.43
 -11   6  -4   36.87    4.66
 -10   6  -4   59.58    4.85
  -9   6  -4   87.04    5.61
  -8   6  -4   20.92    3.11
  -7   6  -4   18.39    2.95
  -6   6  -4    4.93    1.53
  -5   6  -4   10.37    2.13
  -4   6  -4    4.70    1.35
  -3   6  -4    8.88    1.29
  -2   6  -4    1.99    0.64
  -1   6  -4  340.41    7.47
   0   6  -4    6.25    1.05
   1   6  -4   65.50    4.61
   2   6  -4    2.67    1.24
   3   6  -4   21.66    3.32
   4   6  -4   30.62    4.33
   5   6  -4   18.98    3.43
   6   6  -4   15.87    3.25
   7   6  -4   81.72    6.42
 -13   7  -4   77.23    6.15
 -12   7  -4    1.85    1.31
 -11   7  -4    0.02    0.67
 -10   7  -4   70.51    5.19
  -9   7  -4   28.70    4.04
  -8   7  -4   24.80    3.49
  -7   7  -4   21.86    3.17
  -6   7  -4   70.03    4.63
  -5   7  -4  113.10    5.85
  -4   7  -4  153.27    4.84
  -3   7  -4   35.11    2.15
  -2   7  -4    2.93    0.78
  -1   7  -4   16.46    1.76
   0   7  -4   23.11    1.86
   1   7  -4    1.12    0.91
   2   7  -4   50.91    4.25
   3   7  -4   22.02    3.52
   4   7  -4  222.15   10.17
   5   7  -4    1.07    1.06
   6   7  -4   18.14    3.65
 -13   8  -4   55.48    5.18
 -12   8  -4   32.05    4.49
 -11   8  -4   24.99    3.90
 -10   8  -4   23.56    3.71
  -9   8  -4   10.41    2.39
  -8   8  -4  153.00    7.44
  -7   8  -4    3.01    0.86
  -6   8  -4    2.55    0.81
  -5   8  -4  143.85    4.82
  -4   8  -4   24.21    2.31
  -3   8  -4   40.85    2.40
  -2   8  -4   24.26    2.25
  -1   8  -4   26.63    2.10
   0   8  -4  160.58    7.77
   1   8  -4   45.66    4.12
   2   8  -4    3.81    1.55
   3   8  -4   10.23    2.55
   4   8  -4   21.85    3.73
   5   8  -4   26.60    4.46
 -13   9  -4    3.93    1.90
 -12   9  -4    3.95    1.76
 -11   9  -4   12.04    1.92
 -10   9  -4   19.54    2.34
  -9   9  -4   72.81    3.71
  -8   9  -4   48.16    2.88
  -7   9  -4   52.43    2.90
  -6   9  -4   22.40    2.25
  -5   9  -4   60.35    3.09
  -4   9  -4    3.26    0.92
  -3   9  -4   89.54    3.79
  -2   9  -4   27.26    2.49
  -1   9  -4    5.80    1.18
   0   9  -4   84.53    5.65
   1   9  -4   11.13    2.65
   2   9  -4   33.07    4.52
   3   9  -4   26.42    4.12
   4   9  -4   17.22    3.44
 -13  10  -4   -0.65    1.18
 -12  10  -4  123.26    7.67
 -11  10  -4    2.02    1.31
 -10  10  -4   14.55    2.06
  -9  10  -4    8.03    1.53
  -8  10  -4    5.25    1.19
  -7  10  -4   21.69    2.41
  -6  10  -4   27.71    2.65
  -5  10  -4   31.30    2.81
  -4  10  -4   65.61    3.36
  -3  10  -4   71.14    3.50
  -2  10  -4   26.27    2.55
  -1  10  -4   15.79    2.92
   0  10  -4   13.83    2.90
   1  10  -4    1.71    1.35
   2  10  -4   86.08    6.29
   3  10  -4    7.25    2.24
 -12  11  -4    0.03    0.94
 -11  11  -4    4.96    1.86
 -10  11  -4    5.22    1.92
  -9  11  -4   42.23    5.06
  -8  11  -4    5.17    1.84
  -7  11  -4  240.16   10.15
  -6  11  -4   13.13    2.64
  -5  11  -4   39.68    4.68
  -4  11  -4   -0.06    0.71
  -3  11  -4   23.21    3.46
 -11  12  -4   69.67    5.78
 -10  12  -4   79.69    6.12
  -9  12  -4   25.44    3.95
  -8  12  -4   15.37    3.04
  -7  12  -4    0.80    1.00
  -6  12  -4   17.09    3.22
  -5  12  -4    1.61    1.17
  -4  12  -4   28.96    4.00
  -3  12  -4    2.59    1.44
  -9  13  -4   14.79    3.14
  -8  13  -4   22.33    3.94
  -7  13  -4   10.88    2.69
  -6  13  -4   91.49    6.33
  -5  13  -4   59.65    5.06
  -4  13  -4    2.73    1.53
   4 -14  -3   55.32    3.82
   5 -14  -3   19.26    2.65
   6 -14  -3   12.29    1.73
   7 -14  -3   21.18    2.20
   8 -14  -3    1.80    0.80
   9 -14  -3   -0.38    0.56
  10 -14  -3   14.13    3.35
   1 -13  -3   16.28    3.43
   2 -13  -3    9.32    1.84
   3 -13  -3   30.27    3.21
   4 -13  -3   27.16    3.01
   5 -13  -3    0.22    0.57
   6 -13  -3    2.91    0.87
   7 -13  -3   71.00    3.30
   8 -13  -3   21.73    2.19
   9 -13  -3   66.30    3.23
  10 -13  -3    9.52    1.78
  11 -13  -3    3.68    1.17
  12 -13  -3   10.46    2.80
   0 -12  -3   70.55    4.17
   1 -12  -3   30.20    3.17
   2 -12  -3   15.33    2.23
   3 -12  -3    2.68    1.06
   4 -12  -3  112.76    4.95
   5 -12  -3    0.38    0.47
   6 -12  -3   21.43    2.05
   7 -12  -3   26.53    2.27
   8 -12  -3    9.32    1.38
   9 -12  -3   23.38    2.17
  10 -12  -3    2.68    0.94
  11 -12  -3   14.53    2.18
  12 -12  -3   68.27    4.05
  13 -12  -3   19.36    3.89
  -2 -11  -3    2.74    1.61
  -1 -11  -3   14.75    2.20
   0 -11  -3   38.91    3.50
   1 -11  -3   15.44    2.22
   2 -11  -3   41.32    3.48
   3 -11  -3   33.05    3.08
   4 -11  -3   33.73    2.27
   5 -11  -3   84.71    3.25
   6 -11  -3   24.96    2.14
   7 -11  -3    3.75    0.79
   8 -11  -3   15.79    1.74
   9 -11  -3  111.95    4.78
  10 -11  -3   17.68    2.24
  11 -11  -3   41.09    3.52
  12 -11  -3   29.59    3.03
  13 -11  -3    8.37    1.74
  -3 -10  -3    8.00    2.64
  -2 -10  -3    4.55    1.93
  -1 -10  -3   12.88    1.95
   0 -10  -3  141.88    5.43
   1 -10  -3   32.23    2.93
   2 -10  -3  154.86    5.44
   3 -10  -3    4.51    0.87
   4 -10  -3    4.66    0.90
   5 -10  -3   24.97    2.01
   6 -10  -3   25.54    2.06
   7 -10  -3   14.65    1.57
   8 -10  -3   24.01    2.02
   9 -10  -3    2.21    0.84
  10 -10  -3  133.22    5.20
  11 -10  -3   11.35    1.85
  12 -10  -3   15.06    2.14
  13 -10  -3   37.17    3.49
  14 -10  -3   52.99    6.25
  -5  -9  -3   -0.34    0.92
  -4  -9  -3   67.14    6.01
  -3  -9  -3   30.73    4.82
  -2  -9  -3  107.24    4.64
  -1  -9  -3    1.88    0.71
   0  -9  -3    3.54    0.97
   1  -9  -3   43.02    2.66
   2  -9  -3   21.82    1.76
   3  -9  -3    0.99    0.42
   4  -9  -3    7.74    1.06
   5  -9  -3  222.66    5.17
   6  -9  -3   32.14    1.90
   7  -9  -3  132.65    3.89
   8  -9  -3    0.37    0.43
   9  -9  -3    3.69    1.01
  10  -9  -3   34.85    2.99
  11  -9  -3   42.27    2.88
  12  -9  -3    6.32    1.41
  13  -9  -3   29.56    3.07
  14  -9  -3   13.13    3.12
  -6  -8  -3   -0.33    1.07
  -5  -8  -3   27.04    4.49
  -4  -8  -3   10.99    2.86
  -3  -8  -3   10.71    2.57
  -2  -8  -3   28.56    2.65
  -1  -8  -3    0.81    0.53
   0  -8  -3    5.52    1.17
   1  -8  -3  202.47    4.59
   2  -8  -3   82.56    3.14
   3  -8  -3  233.50    4.97
   4  -8  -3   66.01    2.44
   5  -8  -3   13.96    1.32
   6  -8  -3    5.43    0.85
   7  -8  -3   30.95    2.35
   8  -8  -3    4.95    1.05
   9  -8  -3   47.99    2.76
  10  -8  -3  158.89    5.46
  11  -8  -3   30.44    2.83
  12  -8  -3  115.14    4.92
  13  -8  -3    0.72    1.22
  14  -8  -3   10.55    2.72
  -7  -7  -3   25.98    4.59
  -6  -7  -3   75.56    6.31
  -5  -7  -3   22.87    4.01
  -4  -7  -3    7.98    2.34
  -3  -7  -3   13.24    2.83
  -2  -7  -3  135.27    4.70
  -1  -7  -3   29.01    2.13
   0  -7  -3  109.45    3.95
   1  -7  -3   86.05    2.59
   2  -7  -3   15.67    1.30
   3  -7  -3  106.71    2.95
   4  -7  -3   20.52    1.53
   5  -7  -3    9.73    1.27
   6  -7  -3  282.31    6.81
   7  -7  -3  104.76    3.91
   8  -7  -3  185.97    5.64
   9  -7  -3   23.86    2.27
  10  -7  -3    6.08    1.21
  11  -7  -3   33.78    2.92
  12  -7  -3   -0.08    0.70
  13  -7  -3    4.29    1.77
  14  -7  -3   27.08    4.56
  -8  -6  -3   15.98    3.75
  -7  -6  -3    2.01    0.97
  -6  -6  -3   23.99    2.73
  -5  -6  -3   17.79    2.19
  -4  -6  -3   26.92    2.58
  -3  -6  -3   34.48    1.83
  -2  -6  -3    5.90    0.85
  -1  -6  -3  279.30    5.35
   0  -6  -3   41.00    2.16
   1  -6  -3   20.88    1.61
   2  -6  -3   67.45    2.66
   3  -6  -3  259.50    6.06
   4  -6  -3   63.29    2.64
   5  -6  -3   60.33    2.62
   6  -6  -3   40.01    2.19
   7  -6  -3   87.69    3.40
   8  -6  -3   76.31    3.26
   9  -6  -3    0.90    0.52
  10  -6  -3    4.59    1.04
  11  -6  -3   88.41    5.98
  12  -6  -3   23.05    3.83
  13  -6  -3   77.21    6.12
  14  -6  -3    2.96    1.70
  -9  -5  -3   15.63    2.36
  -8  -5  -3    1.62    0.89
  -7  -5  -3   -0.01    0.58
  -6  -5  -3   93.96    4.34
  -5  -5  -3   22.75    2.44
  -4  -5  -3  230.77    6.49
  -3  -5  -3   19.51    1.52
  -2  -5  -3   11.18    1.08
  -1  -5  -3   61.16    1.97
   0  -5  -3  149.55    3.16
   1  -5  -3   20.66    1.03
   2  -5  -3   85.92    2.06
   3  -5  -3   54.55    1.53
   4  -5  -3  294.11    5.41
   5  -5  -3  153.12    3.10
   6  -5  -3   23.30    1.16
   7  -5  -3   20.07    1.26
   8  -5  -3  235.26    4.78
   9  -5  -3    6.60    0.88
  10  -5  -3   25.03    2.11
  11  -5  -3   21.86    2.29
  12  -5  -3   27.89    2.85
  13  -5  -3   14.82    3.08
  14  -5  -3   -0.56    0.96
 -10  -4  -3   53.61    4.32
  -9  -4  -3   21.54    2.70
  -8  -4  -3  109.87    5.05
  -7  -4  -3   36.06    2.91
  -6  -4  -3    4.83    1.13
  -5  -4  -3    5.60    1.17
  -4  -4  -3   66.54    3.12
  -3  -4  -3   19.06    1.18
  -2  -4  -3   64.56    2.02
  -1  -4  -3  293.02    4.88
   0  -4  -3  150.31    3.02
   1  -4  -3  405.41    5.93
   2  -4  -3    8.44    0.66
   3  -4  -3   30.26    1.15
   4  -4  -3  145.68    3.00
   5  -4  -3   19.83    1.08
   6  -4  -3   65.77    2.03
   7  -4  -3  109.52    2.87
   8  -4  -3   66.72    2.36
   9  -4  -3  218.37    6.10
  10  -4  -3   28.72    2.28
  11  -4  -3    4.43    1.11
  12  -4  -3   13.71    1.99
  13  -4  -3   67.95    3.99
  14  -4  -3   12.72    3.05
 -10  -3  -3   32.98    3.47
  -9  -3  -3    3.42    1.13
  -8  -3  -3   33.03    3.13
  -7  -3  -3    4.61    1.17
  -6  -3  -3    1.62    0.69
  -5  -3  -3  237.93    6.45
  -4  -3  -3  106.49    3.83
  -3  -3  -3  267.86    4.71
  -2  -3  -3   53.80    1.67
  -1  -3  -3   29.37    1.15
   0  -3  -3   89.85    2.07
   1  -3  -3   36.18    1.22
   2  -3  -3   89.23    2.05
   3  -3  -3   88.12    2.10
   4  -3  -3  399.15    6.06
   5  -3  -3   83.72    2.27
   6  -3  -3  264.47    4.82
   7  -3  -3   21.82    1.71
   8  -3  -3   15.97    1.78
   9  -3  -3   32.77    2.20
  10  -3  -3   15.15    1.93
  11  -3  -3   18.55    2.23
  12  -3  -3   24.15    2.78
  13  -3  -3    7.28    2.32
 -11  -2  -3   11.94    2.17
 -10  -2  -3   12.74    2.07
  -9  -2  -3   46.03    3.15
  -8  -2  -3  141.61    5.43
  -7  -2  -3   23.76    2.45
  -6  -2  -3   75.81    3.40
  -5  -2  -3   15.77    1.75
  -4  -2  -3   68.45    2.87
  -3  -2  -3   84.41    2.09
  -2  -2  -3    9.83    0.66
  -1  -2  -3   90.49    1.97
   0  -2  -3  351.30    5.12
   1  -2  -3   80.95    1.89
   2  -2  -3  347.26    5.21
   3  -2  -3   38.30    1.32
   4  -2  -3   10.62    0.90
   5  -2  -3   50.33    2.19
   6  -2  -3   65.92    2.67
   7  -2  -3    8.38    1.22
   8  -2  -3    5.96    1.09
   9  -2  -3  130.99    4.76
  10  -2  -3   25.13    2.52
  11  -2  -3  101.27    4.64
  12  -2  -3    5.46    1.93
  13  -2  -3    2.80    1.73
 -12  -1  -3   23.49    4.50
 -11  -1  -3   33.40    3.41
 -10  -1  -3   11.60    1.94
  -9  -1  -3   35.78    3.23
  -8  -1  -3   46.72    2.86
  -7  -1  -3  195.24    5.96
  -6  -1  -3   87.05    3.53
  -5  -1  -3   18.83    1.78
  -4  -1  -3   19.39    1.75
  -3  -1  -3  404.37    5.67
  -2  -1  -3   38.12    1.02
  -1  -1  -3   85.29    1.76
   0  -1  -3   63.17    1.53
   1  -1  -3   58.71    1.55
   2  -1  -3   83.43    1.98
   3  -1  -3   88.26    2.72
   4  -1  -3   30.56    1.62
   5  -1  -3  288.00    6.32
   6  -1  -3   61.02    2.65
   7  -1  -3  268.13    6.68
   8  -1  -3   31.39    2.17
   9  -1  -3    1.79    0.75
  10  -1  -3    3.27    1.33
  11  -1  -3   12.75    2.74
  12  -1  -3   13.00    3.04
 -12   0  -3   64.29    4.07
 -11   0  -3   39.91    3.61
 -10   0  -3  129.85    5.31
  -9   0  -3    3.58    1.01
  -8   0  -3    3.79    1.02
  -7   0  -3  113.03    4.15
  -6   0  -3   41.18    2.29
  -5   0  -3  149.34    4.32
  -4   0  -3  146.70    4.05
  -3   0  -3   91.24    2.79
  -2   0  -3  340.37    6.50
  -1   0  -3   57.12    1.95
   0   0  -3    0.22    0.17
   1   0  -3   58.82    2.01
   2   0  -3  352.81    6.60
   3   0  -3   88.24    2.78
   4   0  -3  146.15    4.02
   5   0  -3  147.39    4.25
   6   0  -3   41.07    2.25
   7   0  -3  113.09    4.10
   8   0  -3    3.48    0.91
   9   0  -3    3.20    1.41
  10   0  -3  138.92    7.71
  11   0  -3   44.52    4.48
  12   0  -3   71.23    6.11
 -12   1  -3   13.00    2.12
 -11   1  -3   14.76    2.17
 -10   1  -3    2.68    0.93
  -9   1  -3    1.41    0.63
  -8   1  -3   28.10    2.51
  -7   1  -3  275.27    6.80
  -6   1  -3   63.90    2.71
  -5   1  -3  278.43    6.23
  -4   1  -3   28.50    1.54
  -3   1  -3   92.78    2.61
  -2   1  -3   85.06    2.36
  -1   1  -3   61.70    1.90
   0   1  -3   61.66    1.93
   1   1  -3   82.22    2.41
   2   1  -3   37.28    1.64
   3   1  -3  390.22    7.65
   4   1  -3   19.45    1.38
   5   1  -3   20.24    1.86
   6   1  -3   89.80    3.50
   7   1  -3  196.30    8.39
   8   1  -3   38.97    3.72
   9   1  -3   25.56    3.76
  10   1  -3    7.63    2.12
  11   1  -3   33.45    4.85
 -13   2  -3    2.97    1.68
 -12   2  -3    4.93    1.83
 -11   2  -3  103.80    5.32
 -10   2  -3   26.91    2.68
  -9   2  -3  131.04    4.71
  -8   2  -3    6.19    1.12
  -7   2  -3    8.30    1.24
  -6   2  -3   66.39    2.62
  -5   2  -3   54.66    2.15
  -4   2  -3   11.40    0.91
  -3   2  -3   38.86    1.39
  -2   2  -3  356.35    6.04
  -1   2  -3   82.75    2.10
   0   2  -3  362.85    6.32
   1   2  -3   88.45    2.57
   2   2  -3    9.18    0.63
   3   2  -3   85.97    1.96
   4   2  -3   65.48    2.69
   5   2  -3   14.15    2.42
   6   2  -3   72.96    4.69
   7   2  -3   25.33    3.50
   8   2  -3  142.53    7.71
   9   2  -3   37.73    4.81
  10   2  -3   18.82    3.62
  11   2  -3    8.68    2.48
 -13   3  -3   11.31    2.81
 -12   3  -3   20.40    3.70
 -11   3  -3   14.83    2.98
 -10   3  -3   15.26    2.89
  -9   3  -3   30.97    3.90
  -8   3  -3   15.88    1.65
  -7   3  -3   19.48    1.50
  -6   3  -3  260.42    5.73
  -5   3  -3   85.48    2.55
  -4   3  -3  401.10    6.85
  -3   3  -3   91.20    4.29
  -2   3  -3   87.96    4.17
  -1   3  -3   37.58    1.20
   0   3  -3   94.35    2.47
   1   3  -3   31.02    1.13
   2   3  -3   54.52    1.89
   3   3  -3  261.61    8.95
   4   3  -3   99.67    5.33
   5   3  -3  224.62    8.98
   6   3  -3    2.59    1.13
   7   3  -3    6.54    1.84
   8   3  -3   39.14    4.95
   9   3  -3    3.03    1.48
  10   3  -3   34.38    4.95
 -13   4  -3   67.01    5.71
 -12   4  -3   15.75    3.14
 -11   4  -3    5.30    1.77
 -10   4  -3   22.60    3.41
  -9   4  -3  209.61    8.91
  -8   4  -3   68.94    4.42
  -7   4  -3  101.48    5.28
  -6   4  -3   73.23    4.12
  -5   4  -3   20.14    2.06
  -4   4  -3  150.18    5.94
  -3   4  -3   29.03    2.44
  -2   4  -3    9.52    1.62
  -1   4  -3  412.05   11.40
   0   4  -3  147.30    3.80
   1   4  -3  297.07    5.94
   2   4  -3   64.62    2.29
   3   4  -3   20.71    2.76
   4   4  -3   70.46    4.57
   5   4  -3    5.00    1.59
   6   4  -3    5.39    1.68
   7   4  -3   35.87    4.45
   8   4  -3  112.99    7.34
   9   4  -3   28.70    4.48
 -14   5  -3    0.15    1.06
 -13   5  -3   24.36    4.13
 -12   5  -3   30.00    4.37
 -11   5  -3   23.83    3.62
 -10   5  -3   24.50    3.46
  -9   5  -3    6.56    1.70
  -8   5  -3  242.52    8.93
  -7   5  -3   13.12    2.17
  -6   5  -3   25.84    2.43
  -5   5  -3  144.18    6.06
  -4   5  -3  295.34    9.24
  -3   5  -3   50.80    3.26
  -2   5  -3   82.44    2.90
  -1   5  -3   19.91    1.34
   0   5  -3  150.14    4.01
   1   5  -3   59.86    2.35
   2   5  -3   10.37    1.15
   3   5  -3   20.33    3.03
   4   5  -3  209.32    8.93
   5   5  -3   21.23    3.20
   6   5  -3   79.92    5.74
   7   5  -3    0.49    0.81
   8   5  -3    0.60    1.04
   9   5  -3   14.80    3.36
 -14   6  -3    0.78    1.07
 -13   6  -3   66.13    5.46
 -12   6  -3   21.11    3.58
 -11   6  -3   90.84    5.86
 -10   6  -3    5.37    1.60
  -9   6  -3    1.32    0.86
  -8   6  -3   73.52    4.53
  -7   6  -3   87.54    4.78
  -6   6  -3   42.24    3.18
  -5   6  -3   62.16    3.76
  -4   6  -3   60.89    3.70
  -3   6  -3  260.87    6.05
  -2   6  -3   71.93    2.72
  -1   6  -3   24.05    1.56
   0   6  -3   42.52    2.10
   1   6  -3  279.64    6.24
   2   6  -3    6.94    1.71
   3   6  -3   31.10    3.14
   4   6  -3   21.55    3.26
   5   6  -3   22.93    3.46
   6   6  -3   23.65    3.74
   7   6  -3    2.37    1.40
   8   6  -3   12.09    3.05
 -14   7  -3   18.08    3.54
 -13   7  -3    3.97    1.62
 -12   7  -3    0.41    0.75
 -11   7  -3   33.32    4.18
 -10   7  -3    4.20    1.45
  -9   7  -3   25.77    3.38
  -8   7  -3  204.04    8.10
  -7   7  -3  119.41    5.68
  -6   7  -3  280.30    9.32
  -5   7  -3    9.51    1.30
  -4   7  -3   23.31    1.63
  -3   7  -3  107.92    3.62
  -2   7  -3   17.94    1.70
  -1   7  -3   88.51    3.25
   0   7  -3  115.72    3.78
   1   7  -3   29.82    1.85
   2   7  -3  134.34    6.70
   3   7  -3   17.66    2.99
   4   7  -3    3.40    1.37
   5   7  -3   22.81    3.70
   6   7  -3   69.48    5.75
   7   7  -3   29.19    4.75
 -14   8  -3   17.82    3.53
 -13   8  -3   -0.36    0.86
 -12   8  -3  118.09    6.88
 -11   8  -3   38.89    3.70
 -10   8  -3  145.24    7.14
  -9   8  -3   41.22    3.55
  -8   8  -3    4.59    0.97
  -7   8  -3   32.53    2.32
  -6   8  -3    5.07    0.96
  -5   8  -3   15.23    1.65
  -4   8  -3   65.95    2.92
  -3   8  -3  233.49    5.97
  -2   8  -3   72.20    3.06
  -1   8  -3  183.37    5.33
   0   8  -3    6.06    1.09
   1   8  -3    1.97    1.01
   2   8  -3   22.48    3.29
   3   8  -3   17.89    3.14
   4   8  -3    8.31    2.29
   5   8  -3   28.81    4.36
   6   8  -3    2.22    1.60
 -14   9  -3   17.77    3.47
 -13   9  -3   22.47    3.79
 -12   9  -3    4.89    1.28
 -11   9  -3   42.66    2.78
 -10   9  -3   38.78    2.70
  -9   9  -3    3.63    0.97
  -8   9  -3    1.59    0.67
  -7   9  -3  138.73    4.61
  -6   9  -3   32.76    2.13
  -5   9  -3  226.13    6.12
  -4   9  -3    8.31    1.29
  -3   9  -3    0.69    0.50
  -2   9  -3   24.55    2.23
  -1   9  -3   45.65    2.52
   0   9  -3    4.73    1.03
   1   9  -3    3.13    1.44
   2   9  -3  100.10    6.21
   3   9  -3   24.96    3.90
   4   9  -3   64.23    5.33
   5   9  -3   -0.67    0.94
 -14  10  -3   52.51    4.96
 -13  10  -3   29.70    4.41
 -12  10  -3   18.23    3.31
 -11  10  -3   12.44    2.67
 -10  10  -3  143.06    7.49
  -9  10  -3    1.37    0.96
  -8  10  -3   21.12    3.16
  -7  10  -3   12.36    2.51
  -6  10  -3   27.35    3.51
  -5  10  -3   23.08    3.39
  -4  10  -3    3.61    0.92
  -3  10  -3    3.67    0.89
  -2  10  -3  152.75    5.02
  -1  10  -3   34.96    2.31
   0  10  -3  142.56    7.21
   1  10  -3   19.23    3.32
   2  10  -3    4.59    1.90
 -13  11  -3   11.35    2.84
 -12  11  -3   31.02    4.31
 -11  11  -3   41.46    4.96
 -10  11  -3   12.36    2.60
  -9  11  -3   90.52    6.07
  -8  11  -3   15.41    3.02
  -7  11  -3    3.48    1.51
  -6  11  -3   27.32    3.74
  -5  11  -3   94.99    5.92
  -4  11  -3   33.39    4.07
  -3  11  -3   33.07    3.98
  -2  11  -3   44.78    3.84
  -1  11  -3   13.32    2.46
 -12  12  -3   68.17    5.62
 -11  12  -3   13.97    2.99
 -10  12  -3    3.95    1.56
  -9  12  -3   23.28    3.82
  -8  12  -3   13.77    2.98
  -7  12  -3   31.90    4.31
  -6  12  -3   24.99    3.79
  -5  12  -3    1.08    0.98
  -4  12  -3  106.54    6.55
  -3  12  -3    2.19    1.20
  -2  12  -3   18.40    3.17
 -11  13  -3    4.41    1.85
 -10  13  -3    7.87    2.39
  -9  13  -3   68.58    5.69
  -8  13  -3   25.97    4.16
  -7  13  -3   75.49    5.77
  -6  13  -3    2.16    1.30
  -5  13  -3    1.16    1.02
  -4  13  -3   22.00    3.66
  -3  13  -3   35.12    4.51
  -2  13  -3    9.78    2.50
  -9  14  -3    0.28    1.04
  -8  14  -3    0.28    1.06
  -7  14  -3   21.17    3.67
  -6  14  -3   12.99    3.04
  -5  14  -3   15.06    3.09
  -4  14  -3   44.41    5.28
   6 -15  -2   15.46    4.28
   7 -15  -2   50.01    6.31
   8 -15  -2   24.82    4.53
   2 -14  -2   23.31    4.10
   3 -14  -2   46.81    3.66
   4 -14  -2    6.15    1.43
   5 -14  -2    0.94    0.82
   6 -14  -2   57.10    3.00
   7 -14  -2    3.77    0.97
   8 -14  -2    8.80    1.40
   9 -14  -2   53.59    3.95
  10 -14  -2    8.84    1.74
  11 -14  -2   46.92    4.25
   0 -13  -2    1.06    0.93
   1 -13  -2   11.05    2.02
   2 -13  -2    3.81    1.23
   3 -13  -2    1.59    0.81
   4 -13  -2   27.12    2.93
   5 -13  -2   64.68    3.04
   6 -13  -2   41.34    2.67
   7 -13  -2   61.14    3.53
   8 -13  -2   30.15    2.45
   9 -13  -2   43.15    2.79
  10 -13  -2    7.35    1.29
  11 -13  -2   55.13    2.95
  12 -13  -2    1.07    0.89
  -2 -12  -2   29.31    4.53
  -1 -12  -2    1.33    0.91
   0 -12  -2   20.51    2.64
   1 -12  -2    3.91    1.20
   2 -12  -2  131.78    5.39
   3 -12  -2    4.68    1.22
   4 -12  -2   38.88    2.53
   5 -12  -2    4.07    0.90
   6 -12  -2   42.43    2.49
   7 -12  -2    3.63    0.85
   8 -12  -2    2.55    0.71
   9 -12  -2   28.54    2.31
  10 -12  -2   14.38    1.72
  11 -12  -2   95.31    3.73
  12 -12  -2   16.40    1.90
  13 -12  -2   15.18    2.21
  -3 -11  -2   46.71    4.06
  -2 -11  -2   54.53    3.61
  -1 -11  -2   94.00    4.58
   0 -11  -2   22.36    2.63
   1 -11  -2    4.94    1.21
   2 -11  -2    6.56    1.34
   3 -11  -2   35.34    2.08
   4 -11  -2   59.82    2.63
   5 -11  -2   60.47    2.64
   6 -11  -2    1.36    0.56
   7 -11  -2  359.89    7.35
   8 -11  -2    8.29    1.22
   9 -11  -2   47.04    2.43
  10 -11  -2    8.67    1.26
  11 -11  -2   21.52    2.04
  12 -11  -2    2.88    1.00
  13 -11  -2    6.36    1.46
  14 -11  -2   57.49    4.00
  -4 -10  -2   11.41    3.04
  -3 -10  -2   10.44    1.89
  -2 -10  -2   12.07    1.96
  -1 -10  -2    8.49    1.61
   0 -10  -2  107.94    4.53
   1 -10  -2   27.69    2.64
   2 -10  -2   38.20    1.99
   3 -10  -2   94.16    3.16
   4 -10  -2   92.54    3.13
   5 -10  -2   41.60    2.06
   6 -10  -2    4.73    0.87
   7 -10  -2   11.95    1.36
   8 -10  -2   99.27    3.39
   9 -10  -2   17.56    1.74
  10 -10  -2  102.76    3.57
  11 -10  -2    7.05    1.19
  12 -10  -2  133.69    5.23
  13 -10  -2    0.97    0.78
  14 -10  -2    7.63    1.57
  -5  -9  -2   54.58    5.40
  -4  -9  -2   38.48    3.43
  -3  -9  -2   30.69    3.01
  -2  -9  -2   44.89    2.95
  -1  -9  -2   19.62    2.15
   0  -9  -2   84.77    3.79
   1  -9  -2    4.59    0.84
   2  -9  -2    9.12    1.09
   3  -9  -2  163.13    4.06
   4  -9  -2   45.72    2.04
   5  -9  -2   68.67    2.56
   6  -9  -2   56.76    2.35
   7  -9  -2   73.02    2.70
   8  -9  -2   82.75    2.93
   9  -9  -2   80.01    2.97
  10  -9  -2   28.88    2.16
  11  -9  -2    4.42    1.06
  12  -9  -2    4.92    1.20
  13  -9  -2   28.88    2.92
  14  -9  -2    1.21    1.14
  15  -9  -2   10.60    3.02
  -6  -8  -2    7.57    2.43
  -5  -8  -2   25.05    4.20
  -4  -8  -2    2.26    0.86
  -3  -8  -2    9.39    1.57
  -2  -8  -2  100.24    4.19
  -1  -8  -2   82.09    3.65
   0  -8  -2  121.62    4.35
   1  -8  -2   19.43    1.39
   2  -8  -2   29.10    1.61
   3  -8  -2  126.14    3.33
   4  -8  -2   28.26    1.51
   5  -8  -2   40.27    1.83
   6  -8  -2   26.95    1.50
   7  -8  -2   54.05    2.20
   8  -8  -2  119.57    3.49
   9  -8  -2    5.02    0.85
  10  -8  -2   37.27    2.43
  11  -8  -2   36.40    2.47
  12  -8  -2   33.16    2.88
  13  -8  -2   63.72    3.60
  14  -8  -2   69.69    5.83
  15  -8  -2   37.76    5.09
  -7  -7  -2    1.49    1.35
  -6  -7  -2   54.18    5.28
  -5  -7  -2    3.54    1.05
  -4  -7  -2  360.58    9.01
  -3  -7  -2   14.20    1.82
  -2  -7  -2   67.03    3.20
  -1  -7  -2   47.49    2.58
   0  -7  -2   87.28    2.55
   1  -7  -2   11.47    1.08
   2  -7  -2   23.37    1.34
   3  -7  -2  107.51    2.89
   4  -7  -2  145.08    3.48
   5  -7  -2  235.61    4.75
   6  -7  -2  105.67    2.98
   7  -7  -2   82.33    2.66
   8  -7  -2   18.49    1.50
   9  -7  -2   11.91    1.57
  10  -7  -2   93.86    3.84
  11  -7  -2   59.92    3.16
  12  -7  -2    3.60    1.00
  13  -7  -2   35.30    4.67
  14  -7  -2    4.08    1.82
  15  -7  -2   26.05    5.13
  -8  -6  -2   64.84    5.92
  -7  -6  -2   33.18    4.86
  -6  -6  -2   36.68    4.92
  -5  -6  -2    4.30    0.91
  -4  -6  -2    4.40    1.03
  -3  -6  -2   61.78    2.98
  -2  -6  -2   29.65    2.10
  -1  -6  -2  106.63    2.73
   0  -6  -2   18.39    0.91
   1  -6  -2  358.37    4.73
   2  -6  -2    7.73    0.84
   3  -6  -2  157.97    3.41
   4  -6  -2   11.37    1.03
   5  -6  -2  189.84    3.94
   6  -6  -2   19.30    1.41
   7  -6  -2   10.33    0.81
   8  -6  -2   32.41    1.45
   9  -6  -2  164.85    3.84
  10  -6  -2   94.42    2.93
  11  -6  -2   57.89    2.43
  12  -6  -2   39.85    4.87
  13  -6  -2   62.95    5.34
  14  -6  -2    9.44    2.52
  -9  -5  -2    0.71    0.99
  -8  -5  -2   56.47    5.30
  -7  -5  -2    4.14    1.89
  -6  -5  -2   58.41    4.82
  -5  -5  -2   41.24    2.48
  -4  -5  -2   72.29    3.17
  -3  -5  -2   38.50    2.87
  -2  -5  -2  241.21    5.85
  -1  -5  -2  193.76    3.64
   0  -5  -2    4.18    0.47
   1  -5  -2   50.05    1.25
   2  -5  -2   63.71    1.90
   3  -5  -2   10.85    0.90
   4  -5  -2   57.03    1.25
   5  -5  -2    3.95    0.44
   6  -5  -2  353.03    5.54
   7  -5  -2   22.36    1.27
   8  -5  -2  126.28    3.14
   9  -5  -2   46.59    1.93
  10  -5  -2   40.26    2.36
  11  -5  -2    2.01    0.72
  12  -5  -2    1.97    0.81
  13  -5  -2   23.53    2.62
  14  -5  -2   58.15    5.02
 -10  -4  -2    7.73    2.55
  -9  -4  -2   26.09    4.36
  -8  -4  -2   32.52    4.61
  -7  -4  -2   60.03    5.05
  -6  -4  -2   85.11    3.66
  -5  -4  -2   47.70    2.48
  -4  -4  -2   30.64    1.89
  -3  -4  -2  153.07    4.30
  -2  -4  -2   11.66    0.71
  -1  -4  -2   57.82    1.60
   0  -4  -2  127.45    2.16
   1  -4  -2  276.27    3.60
   2  -4  -2  279.36    3.65
   3  -4  -2  153.96    2.35
   4  -4  -2  123.59    2.42
   5  -4  -2   48.00    1.51
   6  -4  -2    7.52    0.76
   7  -4  -2  107.48    2.73
   8  -4  -2   29.50    1.44
   9  -4  -2   71.76    3.08
  10  -4  -2    3.70    0.92
  11  -4  -2  358.61    8.90
  12  -4  -2    2.38    0.91
  13  -4  -2   48.62    4.45
  14  -4  -2    9.03    2.52
 -11  -3  -2   56.99    6.92
 -10  -3  -2    3.91    1.82
  -9  -3  -2    4.15    1.76
  -8  -3  -2   31.37    4.39
  -7  -3  -2   89.01    5.88
  -6  -3  -2  163.90    4.90
  -5  -3  -2  131.08    4.04
  -4  -3  -2  107.14    3.44
  -3  -3  -2  158.49    4.07
  -2  -3  -2   10.43    1.08
  -1  -3  -2  153.00    2.86
   0  -3  -2   42.62    1.24
   1  -3  -2   83.00    1.73
   2  -3  -2  276.84    4.08
   3  -3  -2   43.56    1.24
   4  -3  -2  274.90    4.28
   5  -3  -2   67.98    1.86
   6  -3  -2  151.84    3.25
   7  -3  -2  148.59    3.37
   8  -3  -2   42.92    2.25
   9  -3  -2   58.58    2.84
  10  -3  -2   13.59    1.78
  11  -3  -2   10.30    1.66
  12  -3  -2   32.78    4.25
  13  -3  -2    5.60    1.95
  14  -3  -2   49.38    5.01
 -11  -2  -2    6.32    2.32
 -10  -2  -2  127.74    8.10
  -9  -2  -2    4.72    1.78
  -8  -2  -2   40.39    3.90
  -7  -2  -2    8.22    2.00
  -6  -2  -2   29.27    1.90
  -5  -2  -2   21.62    1.54
  -4  -2  -2   10.07    1.06
  -3  -2  -2   71.15    2.29
  -2  -2  -2  292.94    4.46
  -1  -2  -2  287.02    4.18
   0  -2  -2  423.98    5.61
   1  -2  -2  201.63    3.11
   2  -2  -2  430.81    5.69
   3  -2  -2   82.81    1.84
   4  -2  -2  286.43    4.50
   5  -2  -2    8.75    0.79
   6  -2  -2   11.15    1.26
   7  -2  -2  236.14    5.80
   8  -2  -2   30.71    1.97
   9  -2  -2   67.10    3.20
  10  -2  -2   97.77    4.20
  11  -2  -2   42.70    4.09
  12  -2  -2   15.96    3.20
  13  -2  -2   60.23    5.44
 -12  -1  -2    8.98    2.77
 -11  -1  -2    2.51    1.59
 -10  -1  -2    8.50    2.48
  -9  -1  -2   28.24    4.10
  -8  -1  -2    4.22    1.48
  -7  -1  -2   15.62    2.62
  -6  -1  -2   11.38    1.23
  -5  -1  -2  366.68    6.92
  -4  -1  -2   51.70    1.85
  -3  -1  -2  278.05    4.27
  -2  -1  -2   82.21    1.69
  -1  -1  -2  203.71    3.02
   0  -1  -2   54.46    1.22
   1  -1  -2   52.53    1.26
   2  -1  -2  202.25    3.21
   3  -1  -2  283.80    4.32
   4  -1  -2  153.16    3.73
   5  -1  -2   57.38    2.25
   6  -1  -2  192.54    4.93
   7  -1  -2  108.91    3.77
   8  -1  -2   55.99    2.78
   9  -1  -2   82.44    3.71
  10  -1  -2   17.96    3.09
  11  -1  -2    5.32    1.84
  12  -1  -2  100.05    6.87
  13  -1  -2    1.21    1.24
 -13   0  -2    2.05    1.52
 -12   0  -2   12.88    3.07
 -11   0  -2   15.16    3.21
 -10   0  -2  111.07    6.72
  -9   0  -2   84.95    5.50
  -8   0  -2  118.40    6.25
  -7   0  -2   76.38    4.62
  -6   0  -2   22.53    1.36
  -5   0  -2    4.15    0.59
  -4   0  -2  128.34    2.46
  -3   0  -2   43.53    1.07
  -2   0  -2  433.47    7.17
  -1   0  -2   52.74    1.08
   0   0  -2  808.70   11.96
   1   0  -2   51.54    1.60
   2   0  -2  418.76    7.14
   3   0  -2   46.12    1.75
   4   0  -2  125.02    3.43
   5   0  -2    4.24    0.77
   6   0  -2   17.78    1.72
   7   0  -2   81.29    3.35
   8   0  -2  121.87    6.23
   9   0  -2   81.99    5.35
  10   0  -2   94.00    6.20
  11   0  -2   19.73    3.60
  12   0  -2   15.68    3.40
 -13   1  -2    0.56    0.82
 -12   1  -2   93.00    6.66
 -11   1  -2    3.81    1.65
 -10   1  -2   20.06    3.24
  -9   1  -2   86.52    5.28
  -8   1  -2   52.97    3.84
  -7   1  -2  110.03    5.26
  -6   1  -2  192.93    4.11
  -5   1  -2   57.58    1.49
  -4   1  -2  156.27    2.55
  -3   1  -2  282.31    5.27
  -2   1  -2  202.25    3.83
  -1   1  -2   55.59    1.47
   0   1  -2   56.81    1.55
   1   1  -2  209.20    3.97
   2   1  -2   83.12    1.59
   3   1  -2  272.31    5.54
   4   1  -2   55.50    2.24
   5   1  -2  343.98    7.34
   6   1  -2    8.23    1.68
   7   1  -2   18.36    2.74
   8   1  -2    6.66    1.83
   9   1  -2   25.59    3.64
  10   1  -2    8.79    2.42
  11   1  -2    2.36    1.49
  12   1  -2   12.68    3.19
 -14   2  -2   26.66    4.51
 -13   2  -2   54.73    3.64
 -12   2  -2   12.52    1.95
 -11   2  -2   48.86    4.32
 -10   2  -2   98.04    5.83
  -9   2  -2   65.16    4.39
  -8   2  -2   25.88    2.53
  -7   2  -2  238.67    4.35
  -6   2  -2   11.57    0.74
  -5   2  -2    8.89    0.56
  -4   2  -2  286.51    4.02
  -3   2  -2   86.18    2.09
  -2   2  -2  432.70    6.57
  -1   2  -2  201.58    3.51
   0   2  -2  434.60    6.85
   1   2  -2  286.68    4.09
   2   2  -2  287.43    4.23
   3   2  -2   73.01    1.88
   4   2  -2    8.48    0.62
   5   2  -2   20.56    2.67
   6   2  -2   28.49    2.80
   7   2  -2   10.47    2.19
   8   2  -2   37.26    3.65
   9   2  -2    5.07    1.74
  10   2  -2  131.82    7.95
  11   2  -2    4.21    1.91
 -14   3  -2   41.54    5.50
 -13   3  -2    9.83    1.80
 -12   3  -2   31.94    3.07
 -11   3  -2    8.52    1.50
 -10   3  -2   11.77    1.60
  -9   3  -2   54.63    2.73
  -8   3  -2   40.21    2.15
  -7   3  -2  154.28    3.04
  -6   3  -2  158.18    2.90
  -5   3  -2   69.86    2.21
  -4   3  -2  274.00    4.97
  -3   3  -2   39.63    2.38
  -2   3  -2  282.85    7.84
  -1   3  -2   82.74    3.49
   0   3  -2   42.62    1.57
   1   3  -2  147.71    3.38
   2   3  -2    9.06    0.75
   3   3  -2  154.56    3.53
   4   3  -2  113.62    2.87
   5   3  -2  121.71    5.89
   6   3  -2  172.89    7.51
   7   3  -2   94.83    5.86
   8   3  -2   41.01    3.96
   9   3  -2    8.28    2.39
  10   3  -2    1.10    1.14
  11   3  -2   45.26    6.28
 -14   4  -2    6.14    2.17
 -13   4  -2   43.70    4.37
 -12   4  -2    2.82    1.06
 -11   4  -2  362.78    8.79
 -10   4  -2    4.55    1.00
  -9   4  -2   70.20    3.01
  -8   4  -2   30.37    1.80
  -7   4  -2  110.61    2.46
  -6   4  -2    9.54    1.02
  -5   4  -2   48.40    1.70
  -4   4  -2  129.97    2.61
  -3   4  -2  157.16    5.36
  -2   4  -2  283.16    7.99
  -1   4  -2  271.00    5.37
   0   4  -2  122.40    3.16
   1   4  -2   54.74    1.98
   2   4  -2   10.79    0.91
   3   4  -2  149.15    3.70
   4   4  -2   29.11    2.71
   5   4  -2   47.39    3.71
   6   4  -2   99.60    5.82
   7   4  -2   65.56    5.04
   8   4  -2   40.80    4.09
   9   4  -2   36.08    4.91
  10   4  -2    4.93    1.99
 -14   5  -2   51.01    4.94
 -13   5  -2   35.89    4.88
 -12   5  -2    5.00    1.72
 -11   5  -2    1.50    0.97
 -10   5  -2   45.55    3.69
  -9   5  -2   45.08    2.29
  -8   5  -2  129.62    3.78
  -7   5  -2   20.60    1.38
  -6   5  -2  355.86    6.51
  -5   5  -2    4.56    0.56
  -4   5  -2   59.69    3.12
  -3   5  -2    8.72    1.00
  -2   5  -2   69.85    2.40
  -1   5  -2   49.54    1.98
   0   5  -2    4.95    0.77
   1   5  -2  190.64    4.46
   2   5  -2  236.64    5.27
   3   5  -2   41.58    1.90
   4   5  -2   68.10    4.38
   5   5  -2   39.30    3.57
   6   5  -2   62.59    4.78
   7   5  -2    5.03    1.81
   8   5  -2   60.22    5.31
   9   5  -2    2.14    1.40
 -15   6  -2   27.62    5.23
 -14   6  -2   11.44    2.82
 -13   6  -2   57.80    4.89
 -12   6  -2   38.74    3.79
 -11   6  -2   58.40    4.39
 -10   6  -2   87.81    5.17
  -9   6  -2  158.60    6.81
  -8   6  -2   31.99    2.71
  -7   6  -2   14.85    2.16
  -6   6  -2   17.89    1.82
  -5   6  -2  186.42    4.68
  -4   6  -2   11.74    1.25
  -3   6  -2  154.75    4.04
  -2   6  -2    8.46    1.03
  -1   6  -2  362.58    7.10
   0   6  -2   19.07    1.31
   1   6  -2  107.67    3.34
   2   6  -2   27.04    1.63
   3   6  -2   56.77    2.44
   4   6  -2    4.93    1.52
   5   6  -2    1.58    1.03
   6   6  -2   37.16    4.84
   7   6  -2   41.23    5.20
   8   6  -2   57.45    5.32
 -15   7  -2   36.01    5.16
 -14   7  -2    3.06    1.46
 -13   7  -2   39.86    3.99
 -12   7  -2    4.16    1.56
 -11   7  -2   67.98    4.60
 -10   7  -2   93.79    5.30
  -9   7  -2   13.17    2.24
  -8   7  -2   22.71    2.77
  -7   7  -2   78.61    3.04
  -6   7  -2  105.71    3.49
  -5   7  -2  235.26    5.58
  -4   7  -2  144.63    4.06
  -3   7  -2  113.24    3.46
  -2   7  -2   18.11    1.45
  -1   7  -2   11.36    1.26
   0   7  -2   79.07    2.94
   1   7  -2   58.93    2.53
   2   7  -2   65.17    2.76
   3   7  -2   12.68    2.37
   4   7  -2  354.94   12.50
   5   7  -2    2.23    1.31
   6   7  -2   59.41    5.06
   7   7  -2    5.13    2.08
   8   7  -2   48.26    6.24
 -14   8  -2   66.68    5.38
 -13   8  -2   65.05    3.55
 -12   8  -2   39.02    2.63
 -11   8  -2   35.14    2.57
 -10   8  -2   36.99    2.33
  -9   8  -2    3.46    0.85
  -8   8  -2  116.93    4.00
  -7   8  -2   51.22    2.47
  -6   8  -2   30.49    1.83
  -5   8  -2   41.02    2.10
  -4   8  -2   29.12    1.77
  -3   8  -2  128.15    3.94
  -2   8  -2   29.49    1.79
  -1   8  -2   21.64    1.68
   0   8  -2  114.33    3.82
   1   8  -2   88.11    3.33
   2   8  -2  101.38    3.70
   3   8  -2    7.86    2.10
   4   8  -2    1.94    1.23
   5   8  -2   30.55    4.38
   6   8  -2   11.95    2.89
   7   8  -2   34.21    5.06
 -14   9  -2    3.01    1.44
 -13   9  -2   21.22    3.33
 -12   9  -2    5.13    1.73
 -11   9  -2    4.88    1.63
 -10   9  -2   31.01    3.76
  -9   9  -2   75.80    4.92
  -8   9  -2   87.87    3.46
  -7   9  -2   68.48    2.95
  -6   9  -2   58.72    2.66
  -5   9  -2   73.10    2.99
  -4   9  -2   48.81    2.40
  -3   9  -2  163.37    4.73
  -2   9  -2    9.48    1.31
  -1   9  -2    4.30    0.91
   0   9  -2   82.29    3.34
   1   9  -2   16.85    1.84
   2   9  -2   50.16    4.10
   3   9  -2   26.72    3.87
   4   9  -2   41.28    4.24
   5   9  -2   60.58    5.23
   6   9  -2   23.76    4.14
 -14  10  -2   10.82    2.66
 -13  10  -2    2.58    1.26
 -12  10  -2  121.88    7.07
 -11  10  -2    4.39    1.61
 -10  10  -2  103.24    6.09
  -9  10  -2   18.00    2.91
  -8  10  -2  108.74    6.04
  -7  10  -2   10.03    2.13
  -6  10  -2    3.35    1.26
  -5  10  -2   33.82    3.29
  -4  10  -2   88.36    5.23
  -3  10  -2  102.21    5.55
  -2  10  -2   40.25    3.38
  -1  10  -2   34.76    3.09
   0  10  -2  101.86    5.52
   1  10  -2    8.23    1.95
 -14  11  -2   52.26    4.92
 -13  11  -2    5.79    1.96
 -12  11  -2    1.61    1.15
 -11  11  -2   20.92    3.38
 -10  11  -2    7.63    2.08
  -9  11  -2   54.87    4.48
  -8  11  -2    9.82    2.31
  -7  11  -2  371.47   12.91
  -6  11  -2    1.71    1.06
  -5  11  -2   59.68    4.50
  -4  11  -2   55.73    4.33
  -3  11  -2   37.45    3.50
  -2  11  -2    4.74    1.49
  -1  11  -2    6.74    1.79
   0  11  -2   20.54    3.07
 -14  12  -2   28.69    4.80
 -13  12  -2   11.55    2.81
 -12  12  -2   19.07    3.42
 -11  12  -2   94.29    6.43
 -10  12  -2   12.07    2.70
  -9  12  -2   26.05    3.94
  -8  12  -2    5.97    1.99
  -7  12  -2    2.36    1.35
  -6  12  -2   43.24    4.07
  -5  12  -2    4.66    1.73
  -4  12  -2   37.29    4.44
  -3  12  -2    6.26    1.87
  -2  12  -2  132.94    7.06
  -1  12  -2    4.89    1.65
   0  12  -2   17.73    3.65
 -13  13  -2    1.06    1.34
 -12  13  -2    0.52    1.09
 -11  13  -2   57.54    5.21
 -10  13  -2   10.46    2.76
  -9  13  -2   35.91    4.80
  -8  13  -2   34.08    4.69
  -7  13  -2   62.09    5.14
  -6  13  -2   40.29    5.08
  -5  13  -2   61.17    5.05
  -4  13  -2   25.13    3.74
  -3  13  -2    1.67    1.22
  -2  13  -2    2.38    1.30
  -1  13  -2   10.38    2.44
 -11  14  -2   45.73    5.66
 -10  14  -2    6.85    2.20
  -9  14  -2   55.09    5.14
  -8  14  -2    4.78    1.98
  -7  14  -2    6.58    2.26
  -6  14  -2   53.49    4.98
  -5  14  -2    1.27    1.08
  -4  14  -2    8.00    2.42
  -3  14  -2   48.55    4.68
  -2  14  -2   21.83    3.60
   6 -15  -1   78.50   10.26
   7 -15  -1   16.42    2.34
   8 -15  -1   68.69    4.25
   9 -15  -1    0.31    0.90
   2 -14  -1   60.74    7.35
   3 -14  -1   56.98    5.33
   4 -14  -1   72.71    5.82
   5 -14  -1   16.63    2.36
   6 -14  -1    2.45    1.01
   7 -14  -1   24.05    2.88
   8 -14  -1    1.78    0.88
   9 -14  -1    3.60    1.20
  10 -14  -1   16.72    2.40
  11 -14  -1   67.40    4.13
  12 -14  -1    5.44    2.01
   0 -13  -1   12.16    2.14
   1 -13  -1   12.79    2.04
   2 -13  -1   11.02    1.84
   3 -13  -1   37.14    3.32
   4 -13  -1   17.91    1.87
   5 -13  -1    0.95    0.57
   6 -13  -1    1.38    0.68
   7 -13  -1   83.04    4.23
   8 -13  -1   24.04    2.72
   9 -13  -1   79.80    4.20
  10 -13  -1    1.23    0.84
  11 -13  -1    2.26    1.01
  12 -13  -1   15.30    2.17
  13 -13  -1    9.78    1.81
  -2 -12  -1    5.74    1.55
  -1 -12  -1   16.13    2.31
   0 -12  -1   88.48    4.43
   1 -12  -1   48.29    3.19
   2 -12  -1    1.66    0.88
   3 -12  -1    4.81    0.98
   4 -12  -1  111.21    3.77
   5 -12  -1    4.75    0.92
   6 -12  -1   33.17    2.20
   7 -12  -1   10.79    1.39
   8 -12  -1    4.36    0.92
   9 -12  -1   28.19    2.23
  10 -12  -1    1.02    0.70
  11 -12  -1    4.08    1.17
  12 -12  -1   78.46    4.24
  13 -12  -1   11.10    1.97
  14 -12  -1   68.71    5.49
  -3 -11  -1   76.46    4.26
  -2 -11  -1    5.37    1.38
  -1 -11  -1    3.05    1.02
   0 -11  -1   45.88    3.26
   1 -11  -1   19.18    2.25
   2 -11  -1   69.76    2.82
   3 -11  -1   59.93    2.59
   4 -11  -1   45.24    2.24
   5 -11  -1  141.88    4.08
   6 -11  -1   10.91    1.26
   7 -11  -1    4.30    0.85
   8 -11  -1    5.51    0.94
   9 -11  -1  127.56    3.96
  10 -11  -1   18.68    1.82
  11 -11  -1   44.64    2.36
  12 -11  -1   52.91    2.76
  13 -11  -1   12.14    1.89
  14 -11  -1   48.82    4.55
  -5 -10  -1    5.18    1.65
  -4 -10  -1   13.46    2.16
  -3 -10  -1    0.20    0.59
  -2 -10  -1    1.51    0.77
  -1 -10  -1   15.82    2.07
   0 -10  -1  138.45    5.14
   1 -10  -1   19.11    1.69
   2 -10  -1  191.47    4.67
   3 -10  -1    3.87    0.76
   4 -10  -1    6.02    0.89
   5 -10  -1   35.29    1.84
   6 -10  -1    9.28    1.14
   7 -10  -1    8.87    1.11
   8 -10  -1   30.92    1.81
   9 -10  -1    2.51    0.66
  10 -10  -1  134.64    4.01
  11 -10  -1   20.83    1.91
  12 -10  -1    1.69    0.63
  13 -10  -1   36.07    3.13
  14 -10  -1   79.10    4.40
  -6  -9  -1    1.00    0.93
  -5  -9  -1    5.47    1.37
  -4  -9  -1   75.04    4.07
  -3  -9  -1   24.23    2.62
  -2  -9  -1  130.98    5.04
  -1  -9  -1    1.72    0.73
   0  -9  -1    5.11    1.08
   1  -9  -1   39.01    1.88
   2  -9  -1   31.60    1.67
   3  -9  -1    2.19    0.54
   4  -9  -1    0.80    0.39
   5  -9  -1  235.22    4.94
   6  -9  -1   33.99    1.71
   7  -9  -1  238.34    5.14
   8  -9  -1   10.54    1.18
   9  -9  -1    7.02    1.03
  10  -9  -1   15.56    1.51
  11  -9  -1   64.68    2.69
  12  -9  -1    4.40    0.90
  13  -9  -1   15.37    1.99
  14  -9  -1   18.41    2.33
  15  -9  -1   84.46    6.50
  -7  -8  -1   67.91    6.22
  -6  -8  -1    1.27    0.84
  -5  -8  -1   25.16    2.77
  -4  -8  -1    4.06    1.18
  -3  -8  -1    5.49    1.21
  -2  -8  -1   33.40    2.55
  -1  -8  -1   12.10    1.62
   0  -8  -1    6.44    0.88
   1  -8  -1  209.28    4.55
   2  -8  -1   48.98    1.97
   3  -8  -1  231.20    4.76
   4  -8  -1   80.68    2.51
   5  -8  -1    2.68    0.57
   6  -8  -1    0.19    0.26
   7  -8  -1   41.70    1.81
   8  -8  -1    7.26    0.94
   9  -8  -1   37.99    1.85
  10  -8  -1  185.91    4.55
  11  -8  -1   61.32    2.55
  12  -8  -1  117.37    4.52
  13  -8  -1    0.43    0.59
  14  -8  -1    2.58    1.49
  15  -8  -1   15.68    3.41
  -8  -7  -1   11.43    3.01
  -7  -7  -1   24.33    2.78
  -6  -7  -1   84.10    4.21
  -5  -7  -1   11.96    1.85
  -4  -7  -1    3.49    1.01
  -3  -7  -1    6.00    1.16
  -2  -7  -1  245.64    6.58
  -1  -7  -1   42.62    1.80
   0  -7  -1  150.78    3.55
   1  -7  -1  134.76    3.25
   2  -7  -1   26.78    1.34
   3  -7  -1  199.06    4.05
   4  -7  -1    3.58    0.57
   5  -7  -1   10.70    1.03
   6  -7  -1  282.53    5.24
   7  -7  -1  151.05    3.56
   8  -7  -1  217.66    4.53
   9  -7  -1   32.60    1.64
  10  -7  -1    4.08    0.76
  11  -7  -1   43.55    2.57
  12  -7  -1    5.06    1.11
  13  -7  -1    2.54    1.49
  14  -7  -1   32.58    4.54
  -9  -6  -1   71.97   11.04
  -8  -6  -1    3.18    1.64
  -7  -6  -1    2.06    0.90
  -6  -6  -1   28.55    2.81
  -5  -6  -1   12.14    1.68
  -4  -6  -1   10.32    1.52
  -3  -6  -1   35.23    2.20
  -2  -6  -1    1.17    0.51
  -1  -6  -1  295.25    5.26
   0  -6  -1   40.99    1.61
   1  -6  -1    7.68    0.84
   2  -6  -1  197.00    3.79
   3  -6  -1  341.93    5.61
   4  -6  -1   58.53    1.84
   5  -6  -1   29.29    1.32
   6  -6  -1   42.50    1.23
   7  -6  -1  131.78    2.56
   8  -6  -1   49.30    1.58
   9  -6  -1    2.39    0.45
  10  -6  -1    7.00    0.92
  11  -6  -1  152.45    3.95
  12  -6  -1   30.74    2.48
  13  -6  -1   82.18    3.96
  14  -6  -1    0.28    0.91
  -9  -5  -1   17.26    3.67
  -8  -5  -1    1.26    1.03
  -7  -5  -1    5.50    1.23
  -6  -5  -1  141.83    5.07
  -5  -5  -1   36.25    2.33
  -4  -5  -1  235.08    6.15
  -3  -5  -1    2.80    0.73
  -2  -5  -1   11.71    0.88
  -1  -5  -1   32.23    1.34
   0  -5  -1  210.80    3.82
   1  -5  -1   26.78    1.13
   2  -5  -1   77.24    1.99
   3  -5  -1   98.95    2.31
   4  -5  -1  416.13    6.24
   5  -5  -1  211.48    3.07
   6  -5  -1    7.10    0.60
   7  -5  -1   29.88    1.13
   8  -5  -1  233.49    3.92
   9  -5  -1    0.37    0.29
  10  -5  -1   35.76    1.76
  11  -5  -1   12.51    1.73
  12  -5  -1   11.62    1.74
  13  -5  -1   31.58    4.24
  14  -5  -1    1.72    1.23
  15  -5  -1    4.77    1.94
 -10  -4  -1   82.46    6.79
  -9  -4  -1   23.15    4.15
  -8  -4  -1  115.68    4.74
  -7  -4  -1   47.97    2.81
  -6  -4  -1    6.26    1.12
  -5  -4  -1    0.49    0.41
  -4  -4  -1   79.86    3.11
  -3  -4  -1    3.91    0.51
  -2  -4  -1   59.63    1.66
  -1  -4  -1  411.58    6.12
   0  -4  -1  205.09    3.47
   1  -4  -1  453.55    6.28
   2  -4  -1   15.00    0.76
   3  -4  -1   13.27    0.73
   4  -4  -1  203.57    2.83
   5  -4  -1   25.77    0.89
   6  -4  -1  191.29    3.10
   7  -4  -1  199.10    3.84
   8  -4  -1   82.02    1.96
   9  -4  -1  243.38    5.99
  10  -4  -1    9.09    1.41
  11  -4  -1    4.58    1.06
  12  -4  -1    2.80    1.29
  13  -4  -1   79.35    5.75
  14  -4  -1   16.02    3.12
 -11  -3  -1   57.14    5.77
 -10  -3  -1   30.09    4.60
  -9  -3  -1    5.50    1.97
  -8  -3  -1   60.25    3.15
  -7  -3  -1    4.32    1.00
  -6  -3  -1    1.52    0.55
  -5  -3  -1  236.63    5.85
  -4  -3  -1  198.87    5.00
  -3  -3  -1  362.36    5.14
  -2  -3  -1   96.22    2.03
  -1  -3  -1   13.54    0.65
   0  -3  -1  193.47    3.12
   1  -3  -1   19.78    0.56
   2  -3  -1   42.96    1.16
   3  -3  -1  196.73    2.61
   4  -3  -1  456.84    5.30
   5  -3  -1   77.05    1.62
   6  -3  -1  353.11    4.59
   7  -3  -1    3.68    0.45
   8  -3  -1    4.87    0.66
   9  -3  -1   33.56    2.10
  10  -3  -1    6.71    1.25
  11  -3  -1    7.70    1.91
  12  -3  -1   26.72    3.87
  13  -3  -1    1.90    1.48
  14  -3  -1   77.80    6.19
 -12  -2  -1   62.04    8.21
 -11  -2  -1   10.12    2.87
 -10  -2  -1    2.57    1.38
  -9  -2  -1   61.68    5.10
  -8  -2  -1  179.84    5.55
  -7  -2  -1   35.35    2.11
  -6  -2  -1   52.92    2.45
  -5  -2  -1   29.63    1.68
  -4  -2  -1  197.35    4.59
  -3  -2  -1   75.22    2.37
  -2  -2  -1   15.55    0.56
  -1  -2  -1   44.46    1.01
   0  -2  -1  539.93    6.55
   1  -2  -1  145.09    2.10
   2  -2  -1  534.70    5.65
   3  -2  -1   17.29    0.59
   4  -2  -1   15.34    0.90
   5  -2  -1  101.46    2.00
   6  -2  -1   59.86    1.62
   7  -2  -1   11.05    0.90
   8  -2  -1    0.63    0.39
   9  -2  -1  246.33    6.57
  10  -2  -1   34.05    3.26
  11  -2  -1  118.36    6.78
  12  -2  -1    1.54    1.10
  13  -2  -1    2.39    1.52
  14  -2  -1    9.21    2.58
 -12  -1  -1   10.35    2.85
 -11  -1  -1   53.39    5.13
 -10  -1  -1   18.14    3.38
  -9  -1  -1   16.43    1.87
  -8  -1  -1   42.64    2.33
  -7  -1  -1  220.60    5.50
  -6  -1  -1  130.91    3.76
  -5  -1  -1    5.88    0.83
  -4  -1  -1   25.57    1.27
  -3  -1  -1  452.44    7.56
  -2  -1  -1   18.18    0.85
  -1  -1  -1  143.89    2.72
   0  -1  -1   47.18    0.92
   1  -1  -1   48.32    0.95
   2  -1  -1  145.62    2.29
   3  -1  -1   45.14    1.46
   4  -1  -1   13.26    0.57
   5  -1  -1  434.23    5.93
   6  -1  -1   32.60    1.18
   7  -1  -1  288.84    4.89
   8  -1  -1   38.60    3.15
   9  -1  -1   11.09    2.29
  10  -1  -1    2.42    1.22
  11  -1  -1   17.79    3.24
  12  -1  -1    4.13    1.81
  13  -1  -1   14.92    3.32
 -13   0  -1    5.92    2.27
 -12   0  -1   85.69    6.62
 -11   0  -1   36.25    4.84
 -10   0  -1  134.23    7.53
  -9   0  -1    6.18    1.10
  -8   0  -1    6.73    1.06
  -7   0  -1  146.93    4.05
  -6   0  -1   42.19    1.84
  -5   0  -1  208.93    3.17
  -4   0  -1  207.28    2.93
  -3   0  -1  185.98    3.60
  -2   0  -1  539.60    7.83
  -1   0  -1   47.96    1.23
   0   0  -1    0.59    0.11
   1   0  -1   48.33    1.70
   2   0  -1  549.23    8.26
   3   0  -1  194.92    2.86
   4   0  -1  209.89    3.19
   5   0  -1  211.72    3.47
   6   0  -1   45.13    1.58
   7   0  -1  148.05    6.30
   8   0  -1    5.83    1.55
   9   0  -1    6.60    1.79
  10   0  -1  126.84    7.26
  11   0  -1   46.09    4.42
  12   0  -1   82.10    6.33
  13   0  -1   10.90    2.96
 -13   1  -1   15.13    3.29
 -12   1  -1    3.35    1.60
 -11   1  -1   25.19    4.06
 -10   1  -1    3.45    1.35
  -9   1  -1   12.15    1.45
  -8   1  -1   36.42    1.92
  -7   1  -1  276.23    6.02
  -6   1  -1   33.27    1.08
  -5   1  -1  426.90    5.66
  -4   1  -1   13.82    0.72
  -3   1  -1   44.90    1.14
  -2   1  -1  147.88    2.76
  -1   1  -1   47.47    1.84
   0   1  -1   48.14    1.11
   1   1  -1  147.87    2.17
   2   1  -1   17.73    0.58
   3   1  -1  467.63    6.03
   4   1  -1   27.47    1.08
   5   1  -1    6.14    0.69
   6   1  -1  136.76    3.32
   7   1  -1  217.45    8.26
   8   1  -1   44.17    3.64
   9   1  -1   15.18    2.92
  10   1  -1   23.79    3.73
  11   1  -1   49.21    4.76
  12   1  -1   11.08    2.86
 -14   2  -1   10.03    2.86
 -13   2  -1    6.43    2.36
 -12   2  -1    0.72    0.98
 -11   2  -1  136.98    7.39
 -10   2  -1   29.38    3.73
  -9   2  -1  246.06    5.92
  -8   2  -1    1.08    0.45
  -7   2  -1   12.42    0.81
  -6   2  -1   57.29    1.92
  -5   2  -1  103.12    2.44
  -4   2  -1   13.68    1.15
  -3   2  -1   18.17    0.82
  -2   2  -1  553.52    7.81
  -1   2  -1  145.86    4.08
   0   2  -1  533.37    8.04
   1   2  -1   45.51    1.66
   2   2  -1   16.19    0.79
   3   2  -1   74.88    2.00
   4   2  -1  191.83    4.05
   5   2  -1   28.47    1.36
   6   2  -1   49.65    1.98
   7   2  -1   34.91    3.16
   8   2  -1  186.22    8.37
   9   2  -1   61.95    4.95
  10   2  -1    2.73    1.38
  11   2  -1   11.66    2.93
 -14   3  -1   74.20    6.35
 -13   3  -1    1.71    1.28
 -12   3  -1   25.01    3.88
 -11   3  -1    6.01    1.82
 -10   3  -1    8.31    1.27
  -9   3  -1   35.22    1.88
  -8   3  -1    4.40    0.58
  -7   3  -1    3.50    0.60
  -6   3  -1  353.77    6.29
  -5   3  -1   79.54    2.29
  -4   3  -1  460.66   10.81
  -3   3  -1  191.48    5.38
  -2   3  -1   45.54    2.00
  -1   3  -1   18.03    0.88
   0   3  -1  198.96    3.82
   1   3  -1   14.16    0.82
   2   3  -1   99.86    2.55
   3   3  -1  358.85    6.36
   4   3  -1  203.18    4.43
   5   3  -1  239.69    5.22
   6   3  -1    1.03    0.75
   7   3  -1    5.05    1.59
   8   3  -1   66.10    4.96
   9   3  -1    5.74    2.01
  10   3  -1   39.24    5.36
  11   3  -1   53.51    5.43
 -14   4  -1   17.08    3.43
 -13   4  -1   87.19    6.16
 -12   4  -1    2.03    1.24
 -11   4  -1    4.67    1.59
 -10   4  -1   11.04    1.35
  -9   4  -1  241.49    4.37
  -8   4  -1   81.19    2.65
  -7   4  -1  205.57    4.78
  -6   4  -1  192.23    4.32
  -5   4  -1   24.91    1.80
  -4   4  -1  205.29    5.77
  -3   4  -1   13.74    0.86
  -2   4  -1   16.71    0.91
  -1   4  -1  442.92    7.51
   0   4  -1  207.55    4.16
   1   4  -1  425.94    7.37
   2   4  -1   58.36    2.02
   3   4  -1    4.15    0.66
   4   4  -1   80.64    2.63
   5   4  -1    1.26    0.45
   6   4  -1    6.32    1.73
   7   4  -1   47.07    4.09
   8   4  -1  102.02    6.60
   9   4  -1   20.74    3.69
  10   4  -1   71.77    6.12
 -15   5  -1    4.99    2.16
 -14   5  -1    2.83    1.20
 -13   5  -1   24.31    2.61
 -12   5  -1   11.82    1.74
 -11   5  -1   14.46    2.56
 -10   5  -1   39.38    1.53
  -9   5  -1    0.78    0.32
  -8   5  -1  224.95    5.41
  -7   5  -1   27.84    2.19
  -6   5  -1    7.79    1.36
  -5   5  -1  204.79    6.09
  -4   5  -1  416.18    7.43
  -3   5  -1   97.70    2.63
  -2   5  -1   76.19    2.26
  -1   5  -1   24.84    1.25
   0   5  -1  214.21    4.49
   1   5  -1   32.89    1.56
   2   5  -1   11.45    1.16
   3   5  -1    5.36    0.80
   4   5  -1  237.48    5.44
   5   5  -1   33.43    3.22
   6   5  -1  146.40    7.28
   7   5  -1    4.12    1.63
   8   5  -1   -0.27    0.80
   9   5  -1   17.54    3.53
 -15   6  -1    1.00    1.22
 -14   6  -1    0.46    0.87
 -13   6  -1   86.02    5.75
 -12   6  -1   28.46    2.62
 -11   6  -1  146.97    4.84
 -10   6  -1    6.81    0.86
  -9   6  -1    1.94    0.59
  -8   6  -1   54.21    3.28
  -7   6  -1  135.51    3.75
  -6   6  -1   47.21    1.95
  -5   6  -1   34.07    1.60
  -4   6  -1   58.32    2.70
  -3   6  -1  346.96    6.53
  -2   6  -1  200.37    4.40
  -1   6  -1    7.23    0.90
   0   6  -1   47.02    1.94
   1   6  -1  294.08    6.14
   2   6  -1    0.98    0.42
   3   6  -1   38.50    1.96
   4   6  -1   10.39    1.31
   5   6  -1   12.43    2.45
   6   6  -1   30.32    4.16
   7   6  -1    3.13    1.52
   8   6  -1    6.07    2.10
   9   6  -1   77.22    6.50
 -15   7  -1   67.63    5.91
 -14   7  -1   26.31    4.08
 -13   7  -1    1.32    1.04
 -12   7  -1    4.89    1.10
 -11   7  -1   46.79    2.60
 -10   7  -1    4.02    0.72
  -9   7  -1   34.36    1.96
  -8   7  -1  212.48    5.29
  -7   7  -1  146.57    4.03
  -6   7  -1  283.22    6.07
  -5   7  -1   13.23    1.30
  -4   7  -1    3.67    0.65
  -3   7  -1  202.69    4.62
  -2   7  -1   30.95    1.58
  -1   7  -1  135.55    3.68
   0   7  -1  158.71    4.13
   1   7  -1   41.69    2.03
   2   7  -1  236.87    5.82
   3   7  -1    7.93    1.17
   4   7  -1    4.09    0.92
   5   7  -1   11.58    2.47
   6   7  -1   82.43    5.77
   7   7  -1   22.69    3.79
   8   7  -1   15.72    3.40
 -12   8  -1  122.29    4.54
 -11   8  -1   63.05    3.03
 -10   8  -1  188.86    5.32
  -9   8  -1   42.29    2.19
  -8   8  -1    6.95    1.05
  -7   8  -1   39.35    1.95
  -6   8  -1    0.21    0.28
  -5   8  -1    4.85    0.80
  -4   8  -1   83.06    2.76
  -3   8  -1  237.57    5.38
  -2   8  -1   53.88    2.26
  -1   8  -1  222.75    5.23
   0   8  -1    8.39    1.17
   1   8  -1   12.17    1.43
   2   8  -1   33.53    2.04
   3   8  -1    3.79    0.88
   4   8  -1    5.38    1.74
   5   8  -1   29.93    4.15
   6   8  -1    0.68    1.02
   7   8  -1   70.75    6.00
 -13   9  -1   20.12    3.20
 -12   9  -1    3.33    1.41
 -11   9  -1   62.13    4.45
 -10   9  -1   17.64    2.73
  -9   9  -1    6.60    1.68
  -8   9  -1   11.11    2.06
  -7   9  -1  236.70    8.99
  -6   9  -1   36.37    3.13
  -5   9  -1  245.68    8.90
  -4   9  -1    0.30    0.55
  -3   9  -1    0.99    0.79
  -2   9  -1   34.24    2.90
  -1   9  -1   44.88    3.31
   0   9  -1    4.19    1.31
   1   9  -1    3.12    1.20
   2   9  -1  134.82    6.15
   3   9  -1   27.06    3.52
 -13  10  -1   39.25    4.65
 -12  10  -1    1.27    0.99
 -11  10  -1   22.23    3.36
 -10  10  -1  132.49    6.91
  -9  10  -1    2.76    1.22
  -8  10  -1   31.11    3.84
  -7  10  -1   10.68    2.33
  -6  10  -1   10.37    2.23
  -5  10  -1   35.04    3.24
  -4  10  -1    6.66    1.65
  -3  10  -1    2.46    1.03
  -2  10  -1  181.64    7.69
  -1  10  -1   17.87    2.72
   0  10  -1  132.07    6.50
   1  10  -1   19.68    2.93
   2  10  -1    0.67    0.81
 -13  11  -1   10.13    2.38
 -12  11  -1   48.48    4.39
 -11  11  -1   43.83    4.11
 -10  11  -1   18.26    3.20
  -9  11  -1  130.54    7.03
  -8  11  -1    6.46    1.88
  -7  11  -1    6.36    1.92
  -6  11  -1    8.95    2.10
  -5  11  -1  145.49    7.26
  -4  11  -1   46.30    3.90
  -3  11  -1   53.62    4.13
  -2  11  -1   64.04    4.54
  -1  11  -1   21.10    3.17
   0  11  -1   48.43    3.98
   1  11  -1    5.86    1.81
 -14  12  -1   66.01    3.96
 -13  12  -1   10.98    2.60
 -12  12  -1   87.31    6.12
 -11  12  -1    1.91    1.15
 -10  12  -1    0.38    0.81
  -9  12  -1   25.56    3.85
  -8  12  -1    2.92    1.38
  -7  12  -1   10.96    2.43
  -6  12  -1   23.37    3.43
  -5  12  -1    3.65    1.36
  -4  12  -1  107.24    6.30
  -3  12  -1    2.66    1.25
  -2  12  -1    2.01    1.13
  -1  12  -1   51.91    4.33
   0  12  -1   88.33    5.75
   1  12  -1   11.89    2.51
 -13  13  -1    8.77    2.59
 -12  13  -1   15.33    3.15
 -11  13  -1    3.19    1.63
 -10  13  -1    1.13    1.18
  -9  13  -1   91.54    6.28
  -8  13  -1   24.92    3.87
  -7  13  -1   81.58    5.89
  -6  13  -1    4.00    1.65
  -5  13  -1    1.48    1.04
  -4  13  -1   19.46    3.32
  -3  13  -1   25.14    3.67
  -2  13  -1   10.81    2.56
  -1  13  -1   11.27    2.64
   0  13  -1    8.83    2.34
 -12  14  -1    9.04    2.56
 -11  14  -1   77.79    6.13
 -10  14  -1   14.27    3.20
  -9  14  -1    3.54    1.66
  -8  14  -1    0.90    1.08
  -7  14  -1   24.94    4.00
  -6  14  -1    4.20    1.65
  -5  14  -1   18.16    3.34
  -4  14  -1   75.62    5.80
  -3  14  -1   59.77    5.16
  -2  14  -1   61.53    5.25
  -9  15  -1    1.35    1.83
  -8  15  -1   62.02    5.72
  -7  15  -1   13.09    3.03
  -6  15  -1   87.60    7.44
   5 -15   0    2.85    1.70
   6 -15   0    1.25    0.92
   7 -15   0    6.01    1.52
   8 -15   0   43.33    3.93
   9 -15   0  128.33    5.80
  10 -15   0   39.75    4.89
   2 -14   0   36.16    4.95
   3 -14   0   10.76    2.70
   4 -14   0    1.23    0.81
   5 -14   0    0.42    0.69
   6 -14   0   40.55    4.98
   7 -14   0   -0.32    0.59
   8 -14   0    4.22    1.26
   9 -14   0   41.72    3.67
  10 -14   0   12.96    2.09
  11 -14   0   35.89    3.54
  12 -14   0   11.45    2.04
   0 -13   0   -0.09    0.96
   1 -13   0   19.30    3.58
   2 -13   0    6.30    2.02
   3 -13   0   -0.60    0.51
   4 -13   0    8.11    1.61
   5 -13   0  166.46    6.16
   6 -13   0   76.39    4.03
   7 -13   0   30.48    3.03
   8 -13   0    5.95    1.41
   9 -13   0   40.99    3.53
  10 -13   0   21.80    2.60
  11 -13   0   85.89    4.38
  12 -13   0    0.58    0.74
  13 -13   0    0.00    0.74
  -2 -12   0   14.62    2.17
  -1 -12   0    0.18    0.71
   0 -12   0    2.89    1.01
   1 -12   0    0.08    0.53
   2 -12   0  129.79    4.14
   3 -12   0   26.24    2.67
   4 -12   0   73.21    3.79
   5 -12   0   12.93    1.90
   6 -12   0    1.51    0.70
   7 -12   0    0.92    0.56
   8 -12   0   10.41    1.74
   9 -12   0    7.29    1.49
  10 -12   0   99.30    4.52
  11 -12   0   75.71    3.96
  12 -12   0    3.06    1.10
  13 -12   0   25.22    2.79
  14 -12   0   41.87    5.68
  -4 -11   0   13.52    3.16
  -3 -11   0   37.19    3.53
  -2 -11   0   87.41    4.40
  -1 -11   0   70.93    3.80
   0 -11   0   28.41    2.75
   1 -11   0    7.26    1.11
   2 -11   0    4.37    0.85
   3 -11   0   70.64    2.80
   4 -11   0   24.47    1.78
   5 -11   0   98.49    3.23
   6 -11   0    8.40    1.11
   7 -11   0  515.85   11.42
   8 -11   0    1.75    0.71
   9 -11   0   78.05    3.72
  10 -11   0    2.73    0.92
  11 -11   0   21.88    2.39
  12 -11   0    0.68    0.59
  13 -11   0    8.16    1.57
  14 -11   0   16.11    3.46
  -5 -10   0   35.65    3.60
  -4 -10   0   13.86    2.13
  -3 -10   0   22.09    2.62
  -2 -10   0   98.20    4.46
  -1 -10   0    2.79    0.89
   0 -10   0   43.14    2.26
   1 -10   0   56.47    2.42
   2 -10   0    1.09    0.44
   3 -10   0   65.33    2.52
   4 -10   0   67.66    2.55
   5 -10   0    1.14    0.43
   6 -10   0   17.00    1.51
   7 -10   0   13.93    1.36
   8 -10   0    3.05    0.69
   9 -10   0   33.03    1.90
  10 -10   0   43.12    2.66
  11 -10   0    6.02    1.23
  12 -10   0  122.85    4.87
  13 -10   0   -0.07    0.55
  -6  -9   0  132.82    5.87
  -5  -9   0   41.51    3.59
  -4  -9   0   49.24    3.23
  -3  -9   0    6.48    1.37
  -2  -9   0   80.66    3.82
  -1  -9   0   32.60    2.49
   0  -9   0  265.84    5.69
   1  -9   0    0.00    0.29
   2  -9   0   12.56    1.28
   3  -9   0  313.75    5.98
   4  -9   0    0.69    0.36
   5  -9   0  153.39    3.73
   6  -9   0    0.26    0.28
   7  -9   0  132.76    3.45
   8  -9   0   39.56    1.82
   9  -9   0  276.29    5.58
  10  -9   0   51.54    2.21
  11  -9   0    3.17    0.72
  12  -9   0   32.88    2.36
  13  -9   0    7.46    1.36
  -7  -8   0   48.36    4.17
  -6  -8   0    3.20    1.10
  -5  -8   0    2.27    0.89
  -4  -8   0   11.42    1.75
  -3  -8   0    3.27    0.95
  -2  -8   0    3.00    0.87
  -1  -8   0   42.76    1.96
   0  -8   0  177.13    4.21
   1  -8   0   -0.01    0.23
   2  -8   0   73.48    2.40
   3  -8   0  119.48    3.09
   4  -8   0    0.18    0.23
   5  -8   0  158.95    3.61
   6  -8   0   20.20    1.31
   7  -8   0   23.14    1.37
   8  -8   0  184.35    4.10
   9  -8   0    0.32    0.29
  10  -8   0    0.96    0.42
  11  -8   0   75.43    2.72
  12  -8   0   77.65    2.90
  13  -8   0  167.05    5.56
  -8  -7   0    6.06    1.55
  -7  -7   0    0.85    0.73
  -6  -7   0   37.44    3.36
  -5  -7   0    0.99    0.69
  -4  -7   0  543.58   11.60
  -3  -7   0   13.38    1.69
  -2  -7   0  132.55    3.51
  -1  -7   0   25.73    1.51
   0  -7   0   78.90    2.48
   1  -7   0    4.86    0.71
   2  -7   0   83.67    2.38
   3  -7   0  117.32    2.88
   4  -7   0  171.69    3.61
   5  -7   0  410.38    6.47
   6  -7   0  194.98    3.92
   7  -7   0   78.81    2.34
   8  -7   0    0.50    0.30
   9  -7   0   14.98    1.09
  10  -7   0   71.20    1.89
  11  -7   0   22.70    1.34
  12  -7   0   16.25    1.56
  13  -7   0   81.71    3.89
  14  -7   0   -0.42    0.86
  -9  -6   0    0.95    0.92
  -8  -6   0   34.56    3.40
  -7  -6   0   79.98    4.06
  -6  -6   0    0.68    0.57
  -5  -6   0   10.69    1.60
  -4  -6   0   16.64    1.91
  -3  -6   0    0.24    0.33
  -2  -6   0   22.70    1.44
  -1  -6   0  195.40    4.06
   0  -6   0   25.88    1.27
   1  -6   0  398.31    6.29
   2  -6   0    5.21    0.66
   3  -6   0   21.00    1.03
   4  -6   0    0.80    0.28
   5  -6   0   12.57    0.99
   6  -6   0   25.09    1.17
   7  -6   0    4.00    0.45
   8  -6   0   74.99    1.73
   9  -6   0  326.57    4.44
  10  -6   0   67.17    1.81
  11  -6   0  100.83    2.65
  12  -6   0    0.49    0.53
  13  -6   0   32.94    4.16
  14  -6   0    8.22    2.30
  15  -6   0  126.09    7.77
  -9  -5   0   -0.04    0.60
  -8  -5   0  171.00    6.17
  -7  -5   0   14.68    1.97
  -6  -5   0   94.53    4.05
  -5  -5   0    0.98    0.53
  -4  -5   0  156.38    4.80
  -3  -5   0  159.37    3.58
  -2  -5   0  404.08    6.49
  -1  -5   0   12.25    1.00
   0  -5   0    5.41    0.64
   1  -5   0  171.97    3.30
   2  -5   0  152.83    2.96
   3  -5   0    0.26    0.17
   4  -5   0    0.47    0.22
   5  -5   0    6.06    0.65
   6  -5   0  398.58    4.61
   7  -5   0   79.44    1.67
   8  -5   0  118.66    2.22
   9  -5   0    0.91    0.26
  10  -5   0    1.19    0.35
  11  -5   0    7.13    1.28
  12  -5   0    0.67    0.80
  13  -5   0    2.91    1.34
  14  -5   0   39.68    5.02
  15  -5   0   48.25    4.89
 -10  -4   0    0.65    0.86
  -9  -4   0    7.15    1.54
  -8  -4   0   73.81    3.73
  -7  -4   0   23.20    2.36
  -6  -4   0   64.78    3.11
  -5  -4   0    0.70    0.43
  -4  -4   0    0.23    0.23
  -3  -4   0  178.63    3.58
  -2  -4   0    1.01    0.30
  -1  -4   0    0.76    0.26
   0  -4   0  180.24    3.24
   1  -4   0  241.98    3.90
   2  -4   0  764.40    9.53
   3  -4   0  546.53    7.09
   4  -4   0  182.30    2.33
   5  -4   0  170.49    2.37
   6  -4   0    5.46    0.46
   7  -4   0  121.11    2.11
   8  -4   0    0.09    0.15
   9  -4   0  153.17    3.59
  10  -4   0   17.23    1.45
  11  -4   0  542.51   15.85
  12  -4   0    8.10    2.07
  13  -4   0   48.82    4.33
  14  -4   0   15.28    3.26
 -11  -3   0   11.92    3.16
 -10  -3   0    0.02    0.59
  -9  -3   0   30.22    2.87
  -8  -3   0   72.60    3.51
  -7  -3   0   69.16    3.20
  -6  -3   0  310.79    7.36
  -5  -3   0  116.68    3.78
  -4  -3   0  119.84    2.71
  -3  -3   0   22.34    1.02
  -2  -3   0    0.35    0.19
  -1  -3   0  540.19    7.18
   0  -3   0    3.42    0.41
   1  -3   0   69.24    1.51
   2  -3   0  185.59    2.83
   3  -3   0    3.35    0.27
   4  -3   0  246.29    2.87
   5  -3   0  152.95    2.15
   6  -3   0   20.61    0.73
   7  -3   0  177.92    2.66
   8  -3   0  164.12    3.56
   9  -3   0    0.27    0.30
  10  -3   0   11.45    2.27
  11  -3   0    0.51    0.68
  12  -3   0    4.63    1.68
  13  -3   0   21.48    3.72
  14  -3   0   43.66    5.38
 -12  -2   0   51.34    6.54
 -11  -2   0    6.32    2.14
 -10  -2   0  133.04    5.19
  -9  -2   0    4.50    1.11
  -8  -2   0    1.52    0.66
  -7  -2   0   12.69    1.55
  -6  -2   0   72.59    2.91
  -5  -2   0   79.45    2.07
  -4  -2   0    5.03    0.56
  -3  -2   0  150.09    2.75
  -2  -2   0  781.22    9.43
  -1  -2   0  185.51    3.42
   0  -2   0  194.73    2.84
   1  -2   0    3.82    0.33
   2  -2   0  194.95    2.29
   3  -2   0   70.75    1.10
   4  -2   0  767.42    7.21
   5  -2   0    0.35    0.12
   6  -2   0    0.77    0.25
   7  -2   0  413.28    6.37
   8  -2   0   22.66    1.53
   9  -2   0  130.81    3.96
  10  -2   0    3.58    1.34
  11  -2   0   74.71    5.35
  12  -2   0   99.36    6.48
  13  -2   0   84.02    6.31
  14  -2   0   15.11    3.35
 -12  -1   0   21.40    4.08
 -11  -1   0    0.17    0.58
 -10  -1   0    7.61    1.37
  -9  -1   0   53.43    2.90
  -8  -1   0    0.40    0.39
  -7  -1   0    0.50    0.35
  -6  -1   0    4.75    0.58
  -5  -1   0  406.67    5.85
  -4  -1   0  171.58    2.96
  -3  -1   0  255.09    3.67
  -2  -1   0   70.65    1.66
  -1  -1   0    4.01    0.38
   0  -1   0    4.87    0.30
   1  -1   0    4.40    0.20
   2  -1   0    3.69    0.24
   3  -1   0  181.29    2.29
   4  -1   0  546.26    7.03
   5  -1   0    0.35    0.18
   6  -1   0   13.14    0.98
   7  -1   0  198.80    4.58
   8  -1   0   21.74    1.42
   9  -1   0   36.02    3.23
  10  -1   0   33.58    3.40
  11  -1   0    3.07    1.34
  12  -1   0   71.78    5.69
  13  -1   0    0.61    1.07
 -13   0   0   -0.26    1.04
 -12   0   0    2.77    1.54
 -11   0   0   23.97    2.53
 -10   0   0   43.27    2.64
  -9   0   0  275.28    7.01
  -8   0   0  180.01    5.10
  -7   0   0   77.09    2.18
  -6   0   0   26.30    1.08
  -5   0   0    5.39    0.54
  -4   0   0  177.25    2.90
  -3   0   0    3.55    0.35
  -2   0   0  196.79    2.65
  -1   0   0    5.07    0.43
   1   0   0    4.52    0.24
   2   0   0  196.50    2.73
   3   0   0    3.29    0.42
   4   0   0  175.22    3.58
   5   0   0    6.33    0.73
   6   0   0   24.78    1.33
   7   0   0   75.41    2.62
   8   0   0  182.24    4.70
   9   0   0  263.02   10.19
  10   0   0   46.85    4.11
  11   0   0   25.57    4.04
  12   0   0    1.70    1.29
  13   0   0   -0.24    0.97
 -13   1   0   -0.22    0.92
 -12   1   0   80.15    6.17
 -11   1   0    1.46    0.68
 -10   1   0   31.94    2.33
  -9   1   0   36.20    2.16
  -8   1   0   21.19    1.61
  -7   1   0  192.90    3.65
  -6   1   0   11.91    0.79
  -5   1   0    0.92    0.23
  -4   1   0  541.53    6.89
  -3   1   0  181.69    3.19
  -1   1   0    3.90    0.35
   0   1   0    4.24    0.35
   1   1   0    4.04    0.35
   2   1   0   70.68    1.69
   3   1   0  251.06    4.50
   4   1   0  173.92    3.71
   5   1   0  407.87    7.26
   6   1   0    5.30    0.78
   7   1   0    0.07    0.25
   8   1   0    0.34    0.35
   9   1   0   54.87    4.40
  10   1   0    8.44    2.19
  11   1   0   -0.04    0.73
  12   1   0   25.63    4.39
 -14   2   0    9.77    2.93
 -13   2   0   86.01    6.61
 -12   2   0  100.60    6.85
 -11   2   0   88.17    3.77
 -10   2   0    1.97    0.69
  -9   2   0  134.30    4.21
  -8   2   0   20.39    1.13
  -7   2   0  409.70    6.16
  -6   2   0    1.30    0.30
  -5   2   0    0.51    0.20
  -2   2   0  193.91    4.77
  -1   2   0    3.80    0.32
   0   2   0  197.08    3.27
   1   2   0  182.52    3.32
   2   2   0  773.63   11.40
   3   2   0  154.32    3.36
   4   2   0    4.63    0.66
   5   2   0   77.63    2.54
   6   2   0   73.69    2.65
   7   2   0   14.46    1.45
   8   2   0    0.13    0.65
   9   2   0    4.56    1.60
  10   2   0  128.46    7.62
  11   2   0    5.04    1.99
  12   2   0   35.34    5.38
 -14   3   0   31.83    4.86
 -13   3   0   20.75    3.89
 -12   3   0    7.22    1.36
 -11   3   0    3.34    0.84
 -10   3   0   13.54    1.58
  -9   3   0   -0.03    0.20
  -8   3   0  161.37    3.39
  -7   3   0  174.11    3.40
  -6   3   0   21.94    1.15
  -3   3   0    3.74    0.43
  -2   3   0  182.10    3.16
  -1   3   0   73.54    1.63
   0   3   0    4.08    0.48
   1   3   0  550.59    8.51
   2   3   0    0.22    0.18
   3   3   0   22.07    1.17
   4   3   0  118.58    3.23
   5   3   0  117.64    3.41
   6   3   0  319.25    6.90
   7   3   0   75.21    2.95
   8   3   0   56.17    4.60
   9   3   0   20.21    3.43
  10   3   0    0.37    0.79
  11   3   0   13.37    3.23
 -15   4   0   19.65    4.75
 -14   4   0   11.35    2.90
 -13   4   0   46.33    4.49
 -12   4   0   12.83    1.74
 -11   4   0  551.07   11.05
 -10   4   0   19.75    1.38
  -9   4   0  155.41    3.50
  -8   4   0    0.10    0.21
  -5   4   0  175.73    5.46
  -4   4   0  183.43    3.58
  -3   4   0  551.16    8.30
  -2   4   0  752.26   11.17
  -1   4   0  257.14    4.44
   0   4   0  178.57    3.60
   1   4   0    0.64    0.27
   2   4   0    0.49    0.24
   3   4   0  172.20    4.15
   4   4   0    0.47    0.30
   5   4   0    0.61    0.39
   6   4   0   64.70    2.75
   7   4   0   19.29    3.24
   8   4   0   74.80    5.43
   9   4   0    9.21    2.46
  10   4   0    0.63    1.06
 -15   5   0   31.59    4.81
 -14   5   0   34.27    4.77
 -13   5   0    4.18    1.64
 -12   5   0    0.74    0.55
 -11   5   0    9.09    1.34
 -10   5   0    2.72    0.52
  -9   5   0    0.91    0.40
  -8   5   0  124.44    4.97
  -7   5   0   78.38    3.74
  -6   5   0  400.19    7.16
  -5   5   0    6.49    0.71
  -4   5   0    0.73    0.25
  -3   5   0    0.71    0.22
  -2   5   0  157.05    4.02
  -1   5   0  177.01    3.60
   0   5   0    6.80    0.77
   1   5   0   14.13    1.08
   2   5   0  407.98    7.60
   3   5   0  159.65    4.17
   4   5   0  151.08    4.25
   5   5   0    1.10    0.48
   6   5   0   95.15    3.59
   7   5   0   13.54    2.72
   8   5   0  174.79    8.91
   9   5   0    0.45    1.05
  10   5   0    0.15    1.10
 -15   6   0  140.07    8.49
 -14   6   0    6.03    2.10
 -13   6   0   29.78    4.22
 -12   6   0    0.69    0.48
 -11   6   0  101.47    3.05
 -10   6   0   64.48    2.24
  -9   6   0  327.74    9.84
  -8   6   0   73.47    2.63
  -7   6   0    4.98    0.78
  -6   6   0   25.12    1.28
  -5   6   0   12.85    0.90
  -4   6   0    0.87    0.28
  -3   6   0   23.23    1.03
  -2   6   0    5.76    0.67
  -1   6   0  408.12    7.08
   0   6   0   27.02    1.39
   1   6   0  194.98    4.61
   2   6   0   22.91    1.44
   3   6   0    0.32    0.33
   4   6   0   16.61    1.67
   5   6   0    8.51    1.04
   6   6   0    1.55    1.04
   7   6   0   77.89    5.66
   8   6   0   43.73    5.40
   9   6   0    2.11    1.53
 -14   7   0    0.61    1.00
 -13   7   0   76.63    4.39
 -12   7   0   15.81    1.29
 -11   7   0   24.42    1.45
 -10   7   0   69.98    2.40
  -9   7   0   12.62    1.39
  -8   7   0    0.40    0.32
  -7   7   0   80.75    2.60
  -6   7   0  195.19    4.29
  -5   7   0  412.64    7.20
  -4   7   0  182.50    3.79
  -3   7   0  123.96    2.94
  -2   7   0   83.05    2.41
  -1   7   0    3.72    0.61
   0   7   0   78.90    2.66
   1   7   0   24.54    1.54
   2   7   0  127.46    3.93
   3   7   0   14.55    1.59
   4   7   0  522.67   10.62
   5   7   0    0.74    0.55
   6   7   0   37.80    4.72
   7   7   0    0.72    1.06
   8   7   0   12.25    3.05
 -13   8   0  174.53    5.82
 -12   8   0   80.34    2.91
 -11   8   0   72.17    3.29
 -10   8   0    1.84    0.89
  -9   8   0   -0.37    0.35
  -8   8   0  174.53    7.09
  -7   8   0   26.03    2.48
  -6   8   0   19.80    2.55
  -5   8   0  150.86    6.32
  -4   8   0   -0.02    0.36
  -3   8   0  118.39    5.34
  -2   8   0   73.62    4.07
  -1   8   0    0.12    0.45
   0   8   0  193.45    5.57
   1   8   0   40.03    2.09
   2   8   0    3.44    0.82
   3   8   0    4.96    1.03
   4   8   0   11.38    1.58
   5   8   0    3.04    1.30
   6   8   0    3.98    2.33
 -13   9   0    7.33    1.34
 -12   9   0   29.07    2.70
 -11   9   0    4.01    1.37
 -10   9   0   51.79    3.90
  -9   9   0  283.01    9.95
  -8   9   0   41.07    3.34
  -7   9   0  131.84    6.26
  -6   9   0    0.12    0.46
  -5   9   0  143.62    6.44
  -4   9   0    1.21    0.72
  -3   9   0  322.51   10.41
  -2   9   0   11.89    2.08
  -1   9   0   -0.20    0.41
   0   9   0  269.10    9.56
   1   9   0   31.67    2.94
   2   9   0   85.55    4.99
   3   9   0    7.90    1.89
   4   9   0   42.97    3.71
 -13  10   0    0.86    0.94
 -12  10   0  128.59    4.97
 -11  10   0    4.87    1.60
 -10  10   0   42.27    3.71
  -9  10   0   30.15    3.72
  -8  10   0    3.21    1.25
  -7  10   0   12.82    2.33
  -6  10   0   13.52    2.38
  -5  10   0    0.58    0.65
  -4  10   0   69.31    4.45
  -3  10   0   70.81    4.48
  -2  10   0    1.76    0.94
  -1  10   0   51.49    3.89
   0  10   0   40.74    3.49
   1  10   0    4.81    1.48
   2  10   0   92.06    5.56
   3  10   0   21.89    3.26
 -14  11   0   11.52    2.77
 -13  11   0    5.04    1.85
 -12  11   0   -0.13    0.69
 -11  11   0   28.05    3.93
 -10  11   0    3.21    1.41
  -9  11   0   88.12    5.53
  -8  11   0    2.71    1.23
  -7  11   0  541.08   16.15
  -6  11   0    9.17    2.08
  -5  11   0   95.34    5.66
  -4  11   0   24.48    3.41
  -3  11   0   79.58    5.02
  -2  11   0    5.04    1.61
  -1  11   0    6.92    1.95
   0  11   0   28.84    3.68
   1  11   0   64.48    4.80
   2  11   0   93.40    5.89
   3  11   0   33.47    6.44
 -14  12   0   36.99    5.12
 -13  12   0   24.91    2.89
 -12  12   0    3.91    1.52
 -11  12   0   75.04    5.43
 -10  12   0   99.71    6.30
  -9  12   0    5.10    1.77
  -8  12   0    8.93    2.26
  -7  12   0    1.04    0.95
  -6  12   0    0.69    0.68
  -5  12   0   13.63    2.60
  -4  12   0   70.82    5.07
  -3  12   0   27.14    3.75
  -2  12   0  126.63    6.97
  -1  12   0    0.64    0.87
   0  12   0    3.76    1.46
   1  12   0    0.47    0.85
   2  12   0   12.66    2.62
 -13  13   0    1.23    0.90
 -12  13   0    0.00    0.95
 -11  13   0   92.93    6.34
 -10  13   0   24.67    4.01
  -9  13   0   38.62    4.84
  -8  13   0    2.53    1.50
  -7  13   0   33.83    4.36
  -6  13   0   82.49    5.77
  -5  13   0  169.52    8.57
  -4  13   0    6.51    2.05
  -3  13   0    0.35    0.78
  -2  13   0    6.84    2.14
  -1  13   0   21.91    3.58
   0  13   0    0.55    1.00
 -12  14   0   12.12    3.01
 -11  14   0   37.25    4.92
 -10  14   0   10.35    2.74
  -9  14   0   37.08    4.78
  -8  14   0    3.24    1.60
  -7  14   0    0.44    0.87
  -6  14   0   40.13    5.10
  -5  14   0   -0.30    0.70
  -4  14   0    2.33    1.40
  -3  14   0    9.41    2.42
  -2  14   0   44.80    5.46
 -10  15   0   34.66    5.56
  -9  15   0  129.33    8.07
  -8  15   0   57.57    5.24
  -7  15   0   10.61    2.72
  -6  15   0    1.31    1.39
   5 -15   1    5.59    2.36
   6 -15   1   81.60    4.52
   7 -15   1   10.69    2.00
   8 -15   1   68.85    4.14
   9 -15   1    1.17    0.91
  10 -15   1    2.31    1.48
   3 -14   1   53.56    4.00
   4 -14   1   85.57    4.54
   5 -14   1   19.07    3.35
   6 -14   1    2.23    0.94
   7 -14   1   22.79    2.74
   8 -14   1    0.82    0.73
   9 -14   1    2.73    1.05
  10 -14   1   16.94    2.37
  11 -14   1   77.88    4.31
  12 -14   1    8.19    3.02
   0 -13   1   11.38    2.84
   1 -13   1   16.69    3.50
   2 -13   1    8.76    1.71
   3 -13   1   28.98    2.98
   4 -13   1   20.85    2.56
   5 -13   1    1.55    0.84
   6 -13   1    1.31    0.77
   7 -13   1   75.95    4.01
   8 -13   1   26.80    2.82
   9 -13   1   77.61    4.05
  10 -13   1    1.89    0.88
  11 -13   1    3.12    1.06
  12 -13   1   15.73    3.60
  13 -13   1    9.01    2.83
  -1 -12   1   17.34    3.39
   0 -12   1   83.19    6.10
   1 -12   1   50.14    3.25
   2 -12   1    1.13    0.74
   3 -12   1    4.38    1.16
   4 -12   1  109.15    4.72
   5 -12   1    4.99    1.24
   6 -12   1   32.37    2.96
   7 -12   1   15.87    2.09
   8 -12   1    4.25    1.13
   9 -12   1   25.45    2.61
  10 -12   1    0.18    0.56
  11 -12   1    1.80    0.83
  12 -12   1   83.25    6.40
  13 -12   1   11.52    3.07
  14 -12   1   66.75    5.92
  -3 -11   1   68.35    5.78
  -2 -11   1    6.39    2.12
  -1 -11   1    1.14    1.11
   0 -11   1   39.62    4.88
   1 -11   1   24.95    2.63
   2 -11   1   62.86    3.43
   3 -11   1   63.86    3.40
   4 -11   1   46.55    2.86
   5 -11   1  139.03    5.13
   6 -11   1   11.86    1.67
   7 -11   1    5.20    1.14
   8 -11   1    4.51    1.07
   9 -11   1  126.69    4.82
  10 -11   1   18.64    2.21
  11 -11   1   43.39    3.04
  12 -11   1   49.64    4.67
  13 -11   1   12.03    2.92
  14 -11   1   52.49    7.24
  -5 -10   1    6.74    2.34
  -4 -10   1   18.84    2.45
  -3 -10   1    2.28    0.96
  -2 -10   1    0.86    0.64
  -1 -10   1   17.60    2.09
   0 -10   1  153.93    4.25
   1 -10   1   23.24    1.83
   2 -10   1  184.86    4.49
   3 -10   1    3.19    0.89
   4 -10   1    3.63    0.95
   5 -10   1   34.28    2.29
   6 -10   1   11.78    1.55
   7 -10   1    4.16    0.88
   8 -10   1   28.01    2.50
   9 -10   1    1.74    0.69
  10 -10   1  143.56    4.91
  11 -10   1   27.43    2.55
  12 -10   1    2.69    1.37
  13 -10   1   30.71    4.45
  -6  -9   1    0.78    0.87
  -5  -9   1    4.71    1.28
  -4  -9   1   76.88    4.03
  -3  -9   1   23.62    2.51
  -2  -9   1  124.49    4.80
  -1  -9   1    1.46    0.55
   0  -9   1    6.36    0.96
   1  -9   1   35.71    1.86
   2  -9   1   31.62    1.63
   3  -9   1    2.10    0.52
   4  -9   1    0.30    0.28
   5  -9   1  216.22    4.71
   6  -9   1   32.54    2.08
   7  -9   1  229.52    6.24
   8  -9   1   11.59    1.48
   9  -9   1    5.23    1.00
  10  -9   1   18.08    1.88
  11  -9   1   68.25    3.17
  12  -9   1    6.53    1.90
  -7  -8   1   61.75    3.98
  -6  -8   1    1.69    0.88
  -5  -8   1   19.06    2.33
  -4  -8   1    3.71    1.05
  -3  -8   1    7.12    1.32
  -2  -8   1   32.27    1.89
  -1  -8   1   12.83    1.33
   0  -8   1    7.04    0.92
   1  -8   1  210.41    4.54
   2  -8   1   59.44    2.08
   3  -8   1  237.46    4.62
   4  -8   1   78.74    2.31
   5  -8   1    3.24    0.57
   6  -8   1    0.57    0.31
   7  -8   1   38.90    1.60
   8  -8   1    7.14    0.87
   9  -8   1   32.57    1.68
  10  -8   1  185.48    4.38
  11  -8   1   61.07    2.41
  12  -8   1  115.48    4.46
  13  -8   1    1.96    1.23
  -8  -7   1   15.54    2.42
  -7  -7   1   21.79    2.60
  -6  -7   1   80.57    4.07
  -5  -7   1   13.49    1.88
  -4  -7   1    4.43    1.03
  -3  -7   1    9.35    1.14
  -2  -7   1  251.45    5.23
  -1  -7   1   38.88    1.77
   0  -7   1  144.94    3.54
   1  -7   1  124.64    3.10
   2  -7   1   31.41    1.38
   3  -7   1  206.08    3.93
   4  -7   1    2.56    0.46
   5  -7   1   12.18    0.90
   6  -7   1  297.20    4.98
   7  -7   1  144.54    2.85
   8  -7   1  214.26    3.71
   9  -7   1   35.18    1.39
  10  -7   1    4.91    0.67
  11  -7   1   50.77    1.65
  12  -7   1    6.79    1.30
  13  -7   1    2.45    1.31
  14  -7   1   25.15    3.97
  15  -7   1   76.37    5.91
  -9  -6   1   81.83    4.60
  -8  -6   1    0.28    0.69
  -7  -6   1    0.82    0.66
  -6  -6   1   30.51    2.87
  -5  -6   1   15.75    1.97
  -4  -6   1   13.53    1.71
  -3  -6   1   33.16    1.66
  -2  -6   1    0.29    0.27
  -1  -6   1  292.16    5.33
   0  -6   1   37.92    1.57
   1  -6   1    8.23    0.81
   2  -6   1  199.06    3.68
   3  -6   1  356.47    5.46
   4  -6   1   52.29    1.58
   5  -6   1   36.74    1.16
   6  -6   1   38.70    1.25
   7  -6   1  128.04    2.54
   8  -6   1   59.10    1.68
   9  -6   1    2.29    0.39
  10  -6   1    5.69    0.62
  11  -6   1  151.49    4.32
  12  -6   1   35.30    2.36
  13  -6   1   80.26    5.59
  14  -6   1    1.19    1.20
  15  -6   1    2.02    1.47
 -10  -5   1    7.26    2.29
  -9  -5   1   14.56    2.27
  -8  -5   1    0.90    0.69
  -7  -5   1    3.41    0.99
  -6  -5   1  151.03    5.19
  -5  -5   1   36.55    2.31
  -4  -5   1  214.41    4.67
  -3  -5   1    2.75    0.55
  -2  -5   1   11.31    1.03
  -1  -5   1   36.11    1.79
   0  -5   1  200.92    3.82
   1  -5   1   25.45    1.08
   2  -5   1   75.67    1.84
   3  -5   1  100.74    2.38
   4  -5   1  425.98    5.23
   5  -5   1  201.64    3.10
   6  -5   1   11.81    0.79
   7  -5   1   29.55    0.97
   8  -5   1  250.56    3.49
   9  -5   1    0.42    0.22
  10  -5   1   41.20    1.78
  11  -5   1   14.88    1.70
  12  -5   1   14.67    1.91
  13  -5   1   23.08    3.65
  14  -5   1    1.24    1.20
  15  -5   1    2.70    1.69
 -10  -4   1   82.90    4.47
  -9  -4   1   21.55    2.60
  -8  -4   1  114.00    4.74
  -7  -4   1   48.92    2.85
  -6  -4   1    5.15    1.03
  -5  -4   1    0.69    0.35
  -4  -4   1   75.81    2.36
  -3  -4   1    2.15    0.47
  -2  -4   1   54.13    1.77
  -1  -4   1  428.83    6.30
   0  -4   1  196.08    4.27
   1  -4   1  464.59    6.28
   2  -4   1   15.13    0.67
   3  -4   1   12.46    0.56
   4  -4   1  192.31    2.82
   5  -4   1   26.85    0.87
   6  -4   1  198.69    2.73
   7  -4   1  202.17    2.90
   8  -4   1   75.46    1.87
   9  -4   1  221.74    4.44
  10  -4   1   11.82    1.48
  11  -4   1    4.43    1.00
  12  -4   1    1.32    1.03
  13  -4   1   82.83    5.92
  14  -4   1   19.51    3.62
 -11  -3   1   50.55    3.77
 -10  -3   1   28.25    2.91
  -9  -3   1    4.32    1.14
  -8  -3   1   57.30    3.18
  -7  -3   1    4.56    1.01
  -6  -3   1    1.78    0.61
  -5  -3   1  242.00    4.60
  -4  -3   1  199.59    3.91
  -3  -3   1  336.88    5.45
  -2  -3   1   98.58    2.26
  -1  -3   1   11.91    0.71
   0  -3   1  199.88    3.21
   1  -3   1   17.17    0.58
   2  -3   1   38.53    0.83
   3  -3   1  200.68    2.59
   4  -3   1  453.98    4.68
   5  -3   1   74.89    1.36
   6  -3   1  351.08    4.09
   7  -3   1    2.70    0.47
   8  -3   1    2.86    0.52
   9  -3   1   32.12    1.94
  10  -3   1    8.19    1.28
  11  -3   1    6.56    1.20
  12  -3   1   23.38    3.75
  13  -3   1    1.63    1.23
  14  -3   1   74.43    6.15
 -12  -2   1   70.03    5.57
 -11  -2   1   14.51    2.21
 -10  -2   1    1.64    0.75
  -9  -2   1   65.21    3.41
  -8  -2   1  181.79    5.67
  -7  -2   1   28.43    2.10
  -6  -2   1   59.81    2.00
  -5  -2   1   30.73    1.33
  -4  -2   1  194.30    3.63
  -3  -2   1   72.33    1.85
  -2  -2   1   14.65    0.72
  -1  -2   1   38.38    1.10
   0  -2   1  545.92    6.62
   1  -2   1  150.44    2.35
   2  -2   1  519.60    5.55
   3  -2   1   16.10    0.47
   4  -2   1   16.51    0.58
   5  -2   1   99.20    1.75
   6  -2   1   52.92    1.53
   7  -2   1   11.67    0.80
   8  -2   1    0.85    0.37
   9  -2   1  238.18    5.96
  10  -2   1   35.53    2.15
  11  -2   1  110.09    6.50
  12  -2   1    0.35    0.88
  13  -2   1    5.01    1.98
  14  -2   1    9.34    3.80
 -12  -1   1   12.46    2.05
 -11  -1   1   46.32    3.36
 -10  -1   1   25.65    2.59
  -9  -1   1   17.23    1.98
  -8  -1   1   37.97    2.30
  -7  -1   1  202.29    4.24
  -6  -1   1  124.53    2.97
  -5  -1   1    9.74    0.85
  -4  -1   1   26.75    1.08
  -3  -1   1  464.61    6.24
  -2  -1   1   15.95    0.69
  -1  -1   1  150.60    2.30
   0  -1   1   47.19    0.94
   1  -1   1   46.40    0.90
   2  -1   1  149.54    2.07
   3  -1   1   38.50    1.02
   4  -1   1   12.79    0.66
   5  -1   1  427.88    5.82
   6  -1   1   33.83    2.14
   7  -1   1  295.55    6.28
   8  -1   1   36.06    1.97
   9  -1   1   12.54    1.51
  10  -1   1    1.48    0.57
  11  -1   1   19.56    3.27
  12  -1   1    1.98    1.31
  13  -1   1   16.47    3.55
 -13   0   1    9.44    2.28
 -12   0   1   88.77    4.41
 -11   0   1   35.52    2.82
 -10   0   1  140.36    5.10
  -9   0   1    4.46    1.00
  -8   0   1    7.42    0.88
  -7   0   1  142.72    3.30
  -6   0   1   37.71    1.47
  -5   0   1  197.43    3.65
  -4   0   1  193.81    3.39
  -3   0   1  197.65    3.78
  -2   0   1  534.89    8.07
  -1   0   1   47.55    1.20
   0   0   1    0.64    0.11
   1   0   1   46.35    1.43
   2   0   1  538.45    6.47
   3   0   1  205.99    2.90
   4   0   1  197.87    4.21
   5   0   1  200.83    4.57
   6   0   1   39.18    1.86
   7   0   1  143.91    4.14
   8   0   1    6.21    1.00
   9   0   1    5.72    1.01
  10   0   1  138.86    7.46
  11   0   1   40.75    5.08
  12   0   1   87.38    6.36
  13   0   1    7.05    2.53
 -13   1   1   19.57    2.50
 -12   1   1    2.98    1.02
 -11   1   1   20.11    2.31
 -10   1   1    1.61    0.71
  -9   1   1   13.98    1.68
  -8   1   1   38.31    1.63
  -7   1   1  296.94    5.11
  -6   1   1   35.96    1.37
  -5   1   1  439.33    7.38
  -4   1   1   12.74    1.13
  -3   1   1   36.81    0.87
  -2   1   1  153.18    3.22
  -1   1   1   47.51    1.10
   0   1   1   45.20    1.10
   1   1   1  149.38    2.11
   2   1   1   17.02    0.86
   3   1   1  465.84    7.67
   4   1   1   27.72    1.35
   5   1   1   10.39    1.11
   6   1   1  124.86    3.67
   7   1   1  213.16    5.37
   8   1   1   34.92    2.09
   9   1   1   24.76    1.98
  10   1   1   26.95    4.00
  11   1   1   48.64    4.71
  12   1   1   11.15    2.75
 -14   2   1    8.67    3.16
 -13   2   1    4.19    1.24
 -12   2   1    0.75    0.62
 -11   2   1  125.97    4.77
 -10   2   1   28.82    2.21
  -9   2   1  246.85    4.91
  -8   2   1    0.29    0.25
  -7   2   1   12.33    1.21
  -6   2   1   53.12    1.98
  -5   2   1   96.53    2.63
  -4   2   1   15.85    0.75
  -3   2   1   16.78    0.75
  -2   2   1  536.81    8.00
  -1   2   1  147.59    2.76
   0   2   1  532.76    7.85
   1   2   1   39.86    1.30
   2   2   1   14.97    0.87
   3   2   1   72.72    2.26
   4   2   1  193.71    4.43
   5   2   1   31.47    1.65
   6   2   1   59.73    2.46
   7   2   1   34.04    1.98
   8   2   1  185.14    5.36
   9   2   1   66.13    5.09
  10   2   1    1.18    1.04
  11   2   1    6.34    2.22
  12   2   1   62.25    9.63
 -14   3   1   77.89    6.61
 -13   3   1    2.16    0.92
 -12   3   1   24.81    2.57
 -11   3   1    8.09    1.38
 -10   3   1    9.01    1.04
  -9   3   1   31.61    1.56
  -8   3   1    3.28    0.68
  -7   3   1    2.27    0.39
  -6   3   1  349.15    5.19
  -5   3   1   77.67    2.13
  -4   3   1  464.32    7.45
  -3   3   1  196.78    5.15
  -2   3   1   41.75    1.87
  -1   3   1   15.64    1.18
   0   3   1  203.69    3.63
   1   3   1   10.97    0.80
   2   3   1   93.49    2.59
   3   3   1  358.00    6.66
   4   3   1  198.51    4.73
   5   3   1  244.05    5.62
   6   3   1    2.04    0.61
   7   3   1    3.53    0.78
   8   3   1   66.72    3.10
   9   3   1    4.10    1.62
  10   3   1   24.69    4.13
  11   3   1   49.37    5.08
 -14   4   1   17.63    2.32
 -13   4   1   77.66    3.91
 -12   4   1    4.27    1.09
 -11   4   1    4.70    1.01
 -10   4   1   11.02    1.19
  -9   4   1  222.41    5.49
  -8   4   1   73.96    2.11
  -7   4   1  201.68    4.49
  -6   4   1  197.57    4.29
  -5   4   1   27.48    1.31
  -4   4   1  198.12    5.66
  -3   4   1    9.41    1.22
  -2   4   1   15.38    1.27
  -1   4   1  455.33    7.03
   0   4   1  195.70    3.88
   1   4   1  430.33    7.33
   2   4   1   52.91    2.00
   3   4   1    1.78    0.50
   4   4   1   78.76    2.84
   5   4   1    0.75    0.41
   6   4   1    4.94    0.97
   7   4   1   49.69    2.64
   8   4   1  107.83    6.73
   9   4   1   19.16    3.44
  10   4   1   75.79    6.24
 -15   5   1    3.84    1.93
 -14   5   1    4.71    1.19
 -13   5   1   21.96    2.47
 -12   5   1   14.36    1.84
 -11   5   1   14.89    1.41
 -10   5   1   39.00    2.13
  -9   5   1    0.82    0.33
  -8   5   1  240.06    5.40
  -7   5   1   30.52    1.57
  -6   5   1    9.14    1.36
  -5   5   1  199.64    6.20
  -4   5   1  436.98    6.64
  -3   5   1   96.20    3.82
  -2   5   1   69.91    3.20
  -1   5   1   26.57    1.04
   0   5   1  202.49    4.22
   1   5   1   35.33    1.59
   2   5   1   12.84    1.23
   3   5   1    2.47    0.62
   4   5   1  205.44    5.43
   5   5   1   37.05    2.13
   6   5   1  138.20    4.61
   7   5   1    6.57    1.26
   8   5   1    0.12    0.86
   9   5   1   16.27    3.40
  10   5   1    7.85    2.58
 -15   6   1    1.54    1.45
 -14   6   1    1.41    0.82
 -13   6   1   81.96    3.91
 -12   6   1   33.58    2.13
 -11   6   1  149.57    4.71
 -10   6   1    5.76    1.05
  -9   6   1    1.85    0.58
  -8   6   1   60.53    2.47
  -7   6   1  124.44    4.97
  -6   6   1   38.77    1.49
  -5   6   1   37.44    1.19
  -4   6   1   47.51    2.82
  -3   6   1  356.82    9.61
  -2   6   1  196.79    6.48
  -1   6   1    8.36    0.68
   0   6   1   40.75    1.70
   1   6   1  298.04    6.09
   2   6   1    1.42    0.51
   3   6   1   30.20    1.82
   4   6   1   14.53    1.62
   5   6   1   13.86    1.66
   6   6   1   31.28    2.71
   7   6   1    1.27    1.10
   8   6   1    2.92    1.61
   9   6   1   87.87    6.76
 -15   7   1   69.93    6.02
 -14   7   1   18.20    2.28
 -13   7   1    1.28    0.71
 -12   7   1    4.91    1.10
 -11   7   1   50.66    2.70
 -10   7   1    4.79    0.96
  -9   7   1   28.75    1.84
  -8   7   1  201.32    7.25
  -7   7   1  146.63    5.81
  -6   7   1  290.56    8.86
  -5   7   1    8.54    1.52
  -4   7   1    1.88    0.76
  -3   7   1  186.95    6.74
  -2   7   1   31.28    2.44
  -1   7   1  117.11    5.23
   0   7   1  142.48    3.78
   1   7   1   41.32    1.99
   2   7   1  251.19    5.92
   3   7   1    7.76    1.19
   4   7   1    4.66    1.01
   5   7   1   12.58    1.69
   6   7   1   85.60    3.85
   7   7   1   17.33    3.31
   8   7   1   15.67    3.44
 -15   8   1   11.86    3.01
 -14   8   1    1.88    0.85
 -13   8   1    0.85    0.47
 -12   8   1  106.95    4.30
 -11   8   1   55.43    4.33
 -10   8   1  179.73    5.36
  -9   8   1   36.01    2.18
  -8   8   1    4.03    1.24
  -7   8   1   37.51    2.90
  -6   8   1    1.11    0.66
  -5   8   1    1.74    0.81
  -4   8   1   72.46    4.04
  -3   8   1  236.86    8.19
  -2   8   1   56.45    3.61
  -1   8   1  210.24    7.77
   0   8   1    7.93    1.67
   1   8   1   11.94    2.13
   2   8   1   29.07    2.81
   3   8   1    8.12    1.86
   4   8   1    1.74    0.97
   5   8   1   27.02    3.54
 -15   9   1  101.52   11.86
 -14   9   1   14.01    1.66
 -13   9   1   22.58    2.44
 -12   9   1    3.80    1.63
 -11   9   1   63.62    4.81
 -10   9   1   24.53    2.29
  -9   9   1    5.32    1.44
  -8   9   1   12.16    2.16
  -7   9   1  234.62    8.62
  -6   9   1   31.25    2.75
  -5   9   1  217.97    8.15
  -4   9   1    0.89    0.64
  -3   9   1    0.82    0.75
  -2   9   1   28.26    2.69
  -1   9   1   29.96    2.86
   0   9   1    5.49    1.49
   1   9   1    1.19    0.95
   2   9   1  133.28    6.56
   3   9   1   23.72    3.26
   4   9   1   80.37    5.35
   5   9   1    5.15    1.72
 -15  10   1    7.57    2.26
 -14  10   1   75.94    4.00
 -13  10   1   28.51    2.81
 -12  10   1    2.25    1.25
 -11  10   1   23.64    2.47
 -10  10   1  134.39    6.66
  -9  10   1    1.68    1.00
  -8  10   1   33.15    3.10
  -7  10   1    5.58    1.57
  -6  10   1    9.50    1.97
  -5  10   1   43.13    3.45
  -4  10   1    6.69    1.67
  -3  10   1    3.55    1.23
  -2  10   1  190.37    7.97
  -1  10   1   19.17    2.94
   0  10   1  140.74    6.90
   1  10   1   18.16    2.93
   2  10   1    0.77    0.82
   3  10   1    2.75    1.31
   4  10   1   17.69    3.18
 -14  11   1   55.33    3.52
 -13  11   1   10.14    2.66
 -12  11   1   53.77    4.87
 -11  11   1   38.67    2.70
 -10  11   1   23.47    3.44
  -9  11   1  129.20    6.74
  -8  11   1    6.12    1.70
  -7  11   1    7.17    1.97
  -6  11   1   11.21    2.30
  -5  11   1  154.77    7.31
  -4  11   1   46.78    3.87
  -3  11   1   52.65    4.19
  -2  11   1   66.94    4.74
  -1  11   1   26.12    3.69
   0  11   1   43.21    3.91
   1  11   1    1.71    1.13
   2  11   1    3.84    1.53
   3  11   1   71.61    5.47
 -14  12   1   60.65    5.63
 -13  12   1    8.85    2.44
 -12  12   1   72.11    5.94
 -11  12   1    1.18    0.71
 -10  12   1    0.75    0.92
  -9  12   1   22.39    3.44
  -8  12   1    2.90    1.24
  -7  12   1   11.50    2.41
  -6  12   1   34.90    4.37
  -5  12   1    4.73    1.59
  -4  12   1  103.39    6.27
  -3  12   1    4.08    1.49
  -2  12   1    0.71    0.75
  -1  12   1   49.40    4.35
   0  12   1   83.22    5.85
   1  12   1   12.50    2.75
   2  12   1    9.53    2.52
 -13  13   1    9.60    2.85
 -12  13   1   21.77    2.78
 -11  13   1    4.84    1.92
 -10  13   1    0.96    1.11
  -9  13   1   85.05    5.82
  -8  13   1   26.49    3.91
  -7  13   1   75.53    5.55
  -6  13   1    4.13    1.72
  -5  13   1    1.18    0.97
  -4  13   1   29.64    4.22
  -3  13   1   29.21    4.21
  -2  13   1   14.71    3.01
  -1  13   1   11.19    2.70
   0  13   1   12.88    2.89
 -12  14   1    7.48    2.29
 -11  14   1   79.57    5.98
 -10  14   1   13.07    2.84
  -9  14   1    2.02    1.31
  -8  14   1   -0.09    0.71
  -7  14   1   26.59    4.11
  -6  14   1    4.05    1.71
  -5  14   1   14.91    3.06
  -4  14   1   80.13    6.03
  -3  14   1   61.53    5.29
  -2  14   1   75.56    6.64
 -10  15   1    5.59    2.10
  -9  15   1    0.90    1.20
  -8  15   1   70.34    5.88
  -7  15   1   15.37    3.32
  -6  15   1   72.66    9.92
   7 -15   2   54.65    4.82
   8 -15   2   31.25    4.39
   9 -15   2   31.44    4.24
   2 -14   2   21.93    5.94
   3 -14   2   45.94    4.04
   4 -14   2    8.39    1.76
   5 -14   2    2.91    1.05
   6 -14   2   59.72    3.75
   7 -14   2    3.34    1.18
   8 -14   2    7.63    1.51
   9 -14   2   54.78    3.75
  10 -14   2    9.94    2.81
  11 -14   2   33.32    5.17
   1 -13   2   11.08    2.72
   2 -13   2    5.85    1.58
   3 -13   2    2.17    0.97
   4 -13   2   27.34    2.95
   5 -13   2   66.47    3.79
   6 -13   2   38.51    3.43
   7 -13   2   58.48    3.49
   8 -13   2   26.65    2.86
   9 -13   2   41.66    3.14
  10 -13   2    7.71    2.61
  11 -13   2   56.89    5.58
  12 -13   2    1.28    1.30
  13 -13   2    0.52    1.22
  -1 -12   2    1.10    1.17
   0 -12   2   17.72    3.35
   1 -12   2    2.17    0.97
   2 -12   2  128.80    5.32
   3 -12   2    9.78    1.76
   4 -12   2   33.42    3.08
   5 -12   2    4.34    1.07
   6 -12   2   39.51    2.95
   7 -12   2    4.88    1.18
   8 -12   2    2.18    0.87
   9 -12   2   30.86    2.87
  10 -12   2   10.07    2.66
  11 -12   2   90.91    6.78
  12 -12   2   20.87    3.89
  13 -12   2    9.75    2.66
  -3 -11   2   42.47    5.93
  -2 -11   2   52.67    4.94
  -1 -11   2   92.27    6.39
   0 -11   2   22.77    2.61
   1 -11   2    6.02    1.37
   2 -11   2    3.46    1.02
   3 -11   2   37.30    2.82
   4 -11   2   65.31    3.43
   5 -11   2   54.35    3.10
   6 -11   2    1.62    0.72
   7 -11   2  365.66    8.90
   8 -11   2   11.09    1.64
   9 -11   2   51.17    2.95
  10 -11   2    6.82    2.12
  11 -11   2   22.49    3.89
  12 -11   2    2.88    1.55
  13 -11   2    5.05    1.90
  -4 -10   2    8.78    2.42
  -3 -10   2    5.32    1.95
  -2 -10   2   10.91    2.65
  -1 -10   2    8.32    1.51
   0 -10   2  102.82    4.48
   1 -10   2   26.89    2.64
   2 -10   2   39.47    2.61
   3 -10   2   98.05    4.07
   4 -10   2   91.84    3.88
   5 -10   2   45.51    2.65
   6 -10   2    2.81    0.86
   7 -10   2   16.90    1.95
   8 -10   2  105.71    4.04
   9 -10   2   18.08    1.98
  10 -10   2  106.66    6.54
  11 -10   2    6.97    2.11
  12 -10   2  127.30    5.15
  13 -10   2    1.28    1.15
  14 -10   2    7.02    2.27
  -6  -9   2   21.02    3.71
  -5  -9   2   53.22    3.78
  -4  -9   2   41.41    3.14
  -3  -9   2   32.74    2.99
  -2  -9   2   50.76    2.56
  -1  -9   2   17.59    2.13
   0  -9   2   87.36    3.86
   1  -9   2    5.83    1.19
   2  -9   2   10.61    1.56
   3  -9   2  168.31    5.26
   4  -9   2   41.63    2.44
   5  -9   2   73.07    3.20
   6  -9   2   61.51    2.89
   7  -9   2   71.83    3.14
   8  -9   2   81.15    3.33
   9  -9   2   86.86    2.90
  10  -9   2   27.62    2.62
  11  -9   2    3.88    1.05
  12  -9   2    6.01    1.26
  13  -9   2   28.21    3.92
  14  -9   2    1.11    1.24
  -7  -8   2   30.68    4.81
  -6  -8   2    7.63    1.60
  -5  -8   2   33.27    3.17
  -4  -8   2    3.05    0.95
  -3  -8   2   12.06    1.38
  -2  -8   2  104.22    3.34
  -1  -8   2   84.75    2.88
   0  -8   2  119.83    3.36
   1  -8   2   19.98    1.35
   2  -8   2   34.22    2.15
   3  -8   2  125.11    4.21
   4  -8   2   31.71    1.97
   5  -8   2   44.67    2.29
   6  -8   2   31.55    2.05
   7  -8   2   60.00    2.21
   8  -8   2  122.55    3.28
   9  -8   2    5.53    0.81
  10  -8   2   39.56    2.48
  11  -8   2   31.58    2.48
  12  -8   2   29.38    3.81
  13  -8   2   62.19    4.88
  14  -8   2   69.02    5.33
  -8  -7   2   41.06    5.50
  -7  -7   2    4.68    1.30
  -6  -7   2   54.38    3.38
  -5  -7   2    4.61    1.17
  -4  -7   2  351.66    8.73
  -3  -7   2   14.27    1.46
  -2  -7   2   69.68    2.54
  -1  -7   2   55.55    2.16
   0  -7   2   82.84    2.54
   1  -7   2   10.42    1.00
   2  -7   2   24.26    1.20
   3  -7   2  111.14    3.68
   4  -7   2  150.48    4.29
   5  -7   2  242.75    4.70
   6  -7   2  110.47    2.91
   7  -7   2   85.44    2.51
   8  -7   2   18.97    1.27
   9  -7   2   11.71    1.52
  10  -7   2  103.72    3.92
  11  -7   2   69.36    4.66
  12  -7   2    3.39    1.44
  13  -7   2   44.73    4.06
  -8  -6   2   61.50    3.82
  -7  -6   2   37.29    3.32
  -6  -6   2   37.84    2.82
  -5  -6   2    1.33    0.70
  -4  -6   2    4.02    0.79
  -3  -6   2   60.43    2.32
  -2  -6   2   29.32    1.53
  -1  -6   2  109.34    2.93
   0  -6   2   22.28    1.23
   1  -6   2  353.99    5.71
   2  -6   2    9.01    0.68
   3  -6   2  155.63    2.85
   4  -6   2   16.05    0.67
   5  -6   2  190.55    3.82
   6  -6   2   21.90    1.17
   7  -6   2    9.73    0.94
   8  -6   2   33.72    1.45
   9  -6   2  161.44    4.76
  10  -6   2   93.18    3.54
  11  -6   2   57.42    4.19
  12  -6   2   37.99    3.53
  13  -6   2   62.28    4.71
  -9  -5   2    3.54    1.20
  -8  -5   2   57.94    3.54
  -7  -5   2    3.54    1.02
  -6  -5   2   61.87    3.23
  -5  -5   2   42.46    2.02
  -4  -5   2   73.06    2.55
  -3  -5   2   43.76    1.84
  -2  -5   2  244.40    4.69
  -1  -5   2  189.36    3.85
   0  -5   2    5.10    0.65
   1  -5   2   57.57    1.60
   2  -5   2   74.93    1.50
   3  -5   2   14.45    0.95
   4  -5   2   55.58    1.71
   5  -5   2    4.60    0.60
   6  -5   2  352.94    5.57
   7  -5   2   25.31    1.14
   8  -5   2  131.67    2.94
   9  -5   2   45.41    2.24
  10  -5   2   43.44    2.49
  11  -5   2    2.35    0.78
  12  -5   2    4.61    1.17
  13  -5   2   33.60    3.03
  14  -5   2   58.91    5.28
 -10  -4   2    6.27    1.51
  -9  -4   2   28.18    2.99
  -8  -4   2   32.25    2.97
  -7  -4   2   64.58    3.34
  -6  -4   2   91.12    3.12
  -5  -4   2   46.15    1.98
  -4  -4   2   31.99    1.54
  -3  -4   2  144.23    3.37
  -2  -4   2   15.49    1.06
  -1  -4   2   52.28    1.68
   0  -4   2  127.73    2.61
   1  -4   2  276.86    3.63
   2  -4   2  286.83    4.59
   3  -4   2  153.03    2.92
   4  -4   2  127.35    2.57
   5  -4   2   60.29    1.58
   6  -4   2    9.41    0.69
   7  -4   2  110.31    2.46
   8  -4   2   31.65    1.45
   9  -4   2   76.14    3.15
  10  -4   2    2.61    0.75
  11  -4   2  357.15    8.68
  12  -4   2    2.95    0.94
  13  -4   2   35.51    4.76
  14  -4   2   19.97    3.86
 -11  -3   2   51.04    3.83
 -10  -3   2    0.53    0.71
  -9  -3   2    7.56    1.48
  -8  -3   2   34.99    2.99
  -7  -3   2   96.28    3.98
  -6  -3   2  170.83    4.09
  -5  -3   2  126.22    3.27
  -4  -3   2  106.44    2.80
  -3  -3   2  158.44    3.34
  -2  -3   2   13.68    0.92
  -1  -3   2  150.43    2.89
   0  -3   2   44.96    1.08
   1  -3   2   81.18    1.41
   2  -3   2  281.87    4.28
   3  -3   2   47.37    1.26
   4  -3   2  271.71    4.81
   5  -3   2   71.75    1.88
   6  -3   2  160.37    2.59
   7  -3   2  149.36    3.20
   8  -3   2   40.09    2.15
   9  -3   2   61.56    2.84
  10  -3   2   14.66    1.72
  11  -3   2   12.19    2.32
  12  -3   2   28.51    2.76
  13  -3   2    6.14    2.05
  14  -3   2   47.88    5.95
 -12  -2   2   26.81    6.20
 -11  -2   2    6.18    1.51
 -10  -2   2  134.91    5.41
  -9  -2   2    5.42    1.22
  -8  -2   2   31.30    2.42
  -7  -2   2   10.81    1.18
  -6  -2   2   33.40    1.58
  -5  -2   2   27.42    1.34
  -4  -2   2    9.11    0.91
  -3  -2   2   76.15    2.02
  -2  -2   2  290.99    4.53
  -1  -2   2  281.40    4.22
   0  -2   2  428.19    5.69
   1  -2   2  207.86    3.16
   2  -2   2  423.05    5.57
   3  -2   2   82.96    1.53
   4  -2   2  291.04    4.01
   5  -2   2   13.85    0.85
   6  -2   2   15.15    0.90
   7  -2   2  238.22    5.70
   8  -2   2   26.09    1.91
   9  -2   2   69.44    3.08
  10  -2   2   98.98    3.93
  11  -2   2   46.11    2.80
  12  -2   2   13.35    2.85
  13  -2   2   59.31    5.41
 -12  -1   2   10.93    1.96
 -11  -1   2    1.23    0.78
 -10  -1   2    6.44    1.35
  -9  -1   2   27.77    2.59
  -8  -1   2    6.70    0.95
  -7  -1   2   18.15    1.34
  -6  -1   2   10.26    1.05
  -5  -1   2  359.55    5.87
  -4  -1   2   60.64    1.82
  -3  -1   2  271.24    5.41
  -2  -1   2   83.27    2.34
  -1  -1   2  204.85    3.07
   0  -1   2   57.74    1.24
   1  -1   2   57.63    1.17
   2  -1   2  202.57    3.92
   3  -1   2  287.23    5.13
   4  -1   2  153.99    2.81
   5  -1   2   56.80    1.49
   6  -1   2  190.77    3.38
   7  -1   2  110.17    3.61
   8  -1   2   59.90    2.73
   9  -1   2   85.58    3.49
  10  -1   2   20.49    2.21
  11  -1   2    8.45    1.49
  12  -1   2   85.52    6.41
  13  -1   2    0.77    1.13
 -13   0   2    1.04    1.22
 -12   0   2   21.88    2.69
 -11   0   2   22.27    2.53
 -10   0   2   99.66    4.31
  -9   0   2   85.80    3.73
  -8   0   2  116.98    3.30
  -7   0   2   83.65    2.56
  -6   0   2   23.15    1.27
  -5   0   2    2.35    0.54
  -4   0   2  127.50    3.29
  -3   0   2   47.12    1.70
  -2   0   2  435.26    5.44
  -1   0   2   57.01    1.20
   0   0   2  824.03    9.54
   1   0   2   57.34    1.08
   2   0   2  424.70    6.79
   3   0   2   46.58    1.23
   4   0   2  128.44    2.23
   5   0   2    2.67    0.58
   6   0   2   22.00    1.60
   7   0   2   86.27    3.23
   8   0   2  126.01    4.20
   9   0   2   90.70    3.69
  10   0   2   95.58    4.01
  11   0   2   23.22    3.94
  12   0   2   19.69    3.74
 -13   1   2    2.20    0.99
 -12   1   2   89.19    4.43
 -11   1   2    7.22    1.44
 -10   1   2   20.23    2.20
  -9   1   2   83.11    2.81
  -8   1   2   56.92    2.15
  -7   1   2  111.02    2.94
  -6   1   2  186.79    4.57
  -5   1   2   53.75    2.06
  -4   1   2  150.14    3.58
  -3   1   2  288.79    3.87
  -2   1   2  203.67    2.99
  -1   1   2   56.53    1.52
   0   1   2   56.84    1.55
   1   1   2  210.39    3.75
   2   1   2   80.32    1.64
   3   1   2  269.68    5.41
   4   1   2   57.44    2.17
   5   1   2  349.77    7.18
   6   1   2   11.98    1.35
   7   1   2   18.37    1.79
   8   1   2    6.29    1.13
   9   1   2   28.33    2.21
  10   1   2    8.29    1.49
  11   1   2    1.46    1.22
  12   1   2   10.75    3.07
 -14   2   2   26.37    4.07
 -13   2   2   59.03    3.96
 -12   2   2   11.23    1.81
 -11   2   2   50.39    3.03
 -10   2   2  105.14    3.27
  -9   2   2   70.49    2.50
  -8   2   2   25.51    1.65
  -7   2   2  229.36    5.45
  -6   2   2   12.30    1.20
  -5   2   2   13.68    0.58
  -4   2   2  294.20    4.13
  -3   2   2   81.39    1.94
  -2   2   2  429.29    6.83
  -1   2   2  202.57    3.80
   0   2   2  425.17    6.83
   1   2   2  286.64    4.88
   2   2   2  291.84    4.11
   3   2   2   72.76    2.42
   4   2   2    8.59    1.08
   5   2   2   26.39    1.61
   6   2   2   35.82    2.00
   7   2   2   10.95    1.42
   8   2   2   39.74    2.38
   9   2   2    4.82    1.10
  10   2   2  123.79    5.06
  11   2   2    6.26    2.26
 -14   3   2   43.09    3.83
 -13   3   2    7.10    1.50
 -12   3   2   31.43    2.91
 -11   3   2   12.42    1.77
 -10   3   2   12.63    1.32
  -9   3   2   58.64    2.67
  -8   3   2   39.16    2.04
  -7   3   2  144.84    4.02
  -6   3   2  159.24    2.91
  -5   3   2   76.81    2.04
  -4   3   2  278.73    5.01
  -3   3   2   47.62    1.55
  -2   3   2  280.07    5.10
  -1   3   2   78.42    2.14
   0   3   2   44.56    1.49
   1   3   2  153.74    2.65
   2   3   2   15.10    0.68
   3   3   2  158.12    4.02
   4   3   2  107.95    3.39
   5   3   2  124.05    3.94
   6   3   2  162.42    4.85
   7   3   2   97.90    3.80
   8   3   2   35.16    2.53
   9   3   2    7.32    1.38
  10   3   2    0.15    0.83
  11   3   2   36.19    5.28
 -14   4   2   10.50    1.92
 -13   4   2   46.61    3.28
 -12   4   2    2.94    0.95
 -11   4   2  354.36    7.03
 -10   4   2    4.18    0.90
  -9   4   2   74.45    3.03
  -8   4   2   28.91    1.76
  -7   4   2  111.26    2.52
  -6   4   2    8.61    0.90
  -5   4   2   58.84    1.94
  -4   4   2  128.04    3.13
  -3   4   2  155.15    3.52
  -2   4   2  288.77    5.45
  -1   4   2  266.89    5.19
   0   4   2  126.48    2.40
   1   4   2   54.92    1.48
   2   4   2   16.46    0.79
   3   4   2  147.05    4.03
   4   4   2   29.20    1.76
   5   4   2   44.54    2.34
   6   4   2   94.11    3.67
   7   4   2   63.18    3.10
   8   4   2   38.64    2.70
   9   4   2   29.36    2.93
  10   4   2    6.13    2.32
 -14   5   2   46.88    3.46
 -13   5   2   28.20    2.77
 -12   5   2    3.93    0.88
 -11   5   2    1.46    0.61
 -10   5   2   42.86    2.38
  -9   5   2   46.13    2.40
  -8   5   2  122.54    5.71
  -7   5   2   27.63    1.48
  -6   5   2  359.41    6.88
  -5   5   2    4.02    0.67
  -4   5   2   56.77    2.09
  -3   5   2   14.29    1.24
  -2   5   2   74.66    2.41
  -1   5   2   59.25    3.01
   0   5   2    4.07    0.63
   1   5   2  187.95    4.38
   2   5   2  238.09    5.38
   3   5   2   44.72    2.17
   4   5   2   71.95    2.99
   5   5   2   41.79    2.37
   6   5   2   64.70    3.13
   7   5   2    4.89    1.12
   8   5   2   63.25    3.40
   9   5   2    1.90    1.58
 -15   6   2   22.44    3.75
 -14   6   2   10.04    1.74
 -13   6   2   59.88    3.46
 -12   6   2   37.22    2.68
 -11   6   2   57.19    2.95
 -10   6   2   87.90    3.59
  -9   6   2  174.69    7.30
  -8   6   2   33.01    1.79
  -7   6   2   10.76    1.21
  -6   6   2   21.01    1.48
  -5   6   2  185.28    4.60
  -4   6   2   15.19    1.21
  -3   6   2  157.50    5.64
  -2   6   2   10.67    1.70
  -1   6   2  350.39   10.07
   0   6   2   20.45    1.19
   1   6   2  109.98    3.28
   2   6   2   27.41    1.65
   3   6   2   62.10    2.72
   4   6   2    4.13    0.90
   5   6   2    2.33    0.78
   6   6   2   40.68    2.58
   7   6   2   41.16    2.96
   8   6   2   52.31    4.98
   9   6   2   13.97    3.24
 -15   7   2   32.40    3.47
 -14   7   2    3.26    1.11
 -13   7   2   39.18    2.91
 -12   7   2    4.70    1.11
 -11   7   2   67.46    3.28
 -10   7   2  111.87    6.00
  -9   7   2    8.19    1.84
  -8   7   2   16.15    1.62
  -7   7   2   80.82    3.04
  -6   7   2  107.14    3.51
  -5   7   2  227.79    7.58
  -4   7   2  138.70    5.60
  -3   7   2  117.26    5.01
  -2   7   2   23.49    2.19
  -1   7   2    8.88    1.71
   0   7   2   82.10    4.43
   1   7   2   59.70    3.82
   2   7   2   74.57    4.46
   3   7   2   11.82    2.26
   4   7   2  349.70   11.86
   5   7   2    5.03    1.59
   6   7   2   60.54    4.57
   7   7   2    4.92    1.69
 -15   8   2   44.21    3.84
 -14   8   2   57.52    2.90
 -13   8   2   65.53    3.54
 -12   8   2   36.30    2.79
 -11   8   2   36.86    3.63
 -10   8   2   33.38    3.35
  -9   8   2    6.20    1.08
  -8   8   2  119.44    4.06
  -7   8   2   56.18    2.64
  -6   8   2   29.21    2.47
  -5   8   2   41.41    2.97
  -4   8   2   32.02    2.63
  -3   8   2  134.22    5.79
  -2   8   2   31.65    2.74
  -1   8   2   16.57    2.45
   0   8   2  126.05    5.96
   1   8   2   85.73    4.96
   2   8   2  100.55    5.61
   3   8   2    8.45    2.06
   4   8   2    2.78    1.24
   5   8   2   35.83    4.28
   6   8   2    8.33    2.12
 -15   9   2   16.38    2.38
 -14   9   2    4.17    1.27
 -13   9   2   25.02    2.77
 -12   9   2    6.62    1.34
 -11   9   2    4.49    1.65
 -10   9   2   33.42    4.32
  -9   9   2   77.52    3.42
  -8   9   2   76.26    3.35
  -7   9   2   67.61    3.08
  -6   9   2   57.58    3.80
  -5   9   2   70.21    4.23
  -4   9   2   46.84    3.45
  -3   9   2  148.02    6.73
  -2   9   2    8.75    1.87
  -1   9   2    6.71    1.60
   0   9   2   90.86    5.31
   1   9   2   20.75    3.13
   2   9   2   53.03    4.22
   3   9   2   39.24    3.75
   4   9   2   44.05    4.11
   5   9   2   45.80    4.36
   6   9   2   23.25    3.75
 -14  10   2    7.91    1.62
 -13  10   2    2.62    0.99
 -12  10   2  122.29    7.42
 -11  10   2    5.81    2.04
 -10  10   2   96.72    4.37
  -9  10   2   15.27    1.85
  -8  10   2   92.71    3.91
  -7  10   2   19.08    2.75
  -6  10   2    4.29    1.33
  -5  10   2   44.89    3.56
  -4  10   2   87.15    5.14
  -3  10   2   97.54    5.50
  -2  10   2   33.85    3.24
  -1  10   2   22.41    3.14
   0  10   2  107.88    6.12
   1  10   2    8.97    2.22
   2  10   2   14.08    2.69
   3  10   2    6.45    2.10
   4  10   2   15.34    3.12
 -14  11   2   45.51    3.93
 -13  11   2    6.50    2.31
 -12  11   2    2.43    1.47
 -11  11   2   21.09    3.73
 -10  11   2    7.24    1.41
  -9  11   2   48.89    2.94
  -8  11   2    9.34    1.54
  -7  11   2  330.63   11.81
  -6  11   2    1.19    0.84
  -5  11   2   51.73    4.10
  -4  11   2   56.70    4.40
  -3  11   2   28.91    3.70
  -2  11   2    3.89    1.43
  -1  11   2    4.21    1.60
   0  11   2   21.74    3.41
   1  11   2   92.88    6.12
   2  11   2   47.36    4.52
   3  11   2   43.09    5.15
 -13  12   2    7.85    2.42
 -12  12   2   20.02    3.80
 -11  12   2   87.81    6.47
 -10  12   2   15.11    2.09
  -9  12   2   29.49    2.91
  -8  12   2    1.63    0.97
  -7  12   2    6.09    1.82
  -6  12   2   42.12    3.88
  -5  12   2    4.04    1.48
  -4  12   2   38.25    4.53
  -3  12   2    6.55    1.98
  -2  12   2  133.67    7.39
  -1  12   2    1.43    1.09
   0  12   2   15.85    2.99
   1  12   2    0.92    1.14
 -12  13   2    0.49    1.03
 -11  13   2   57.30    5.47
 -10  13   2    5.35    1.33
  -9  13   2   34.65    3.26
  -8  13   2   25.75    3.79
  -7  13   2   63.88    5.04
  -6  13   2   40.51    4.97
  -5  13   2   63.85    5.09
  -4  13   2   24.34    3.94
  -3  13   2    1.28    1.03
  -2  13   2    5.60    1.93
  -1  13   2    8.12    2.32
 -11  14   2   45.20    3.64
 -10  14   2    8.78    1.82
  -9  14   2   50.70    3.82
  -8  14   2    7.84    2.26
  -7  14   2    3.47    1.53
  -6  14   2   58.21    5.10
  -5  14   2    2.00    1.39
  -4  14   2    6.97    2.24
  -3  14   2   45.87    6.14
  -8  15   2   15.63    4.02
   4 -14   3   44.95    4.11
   5 -14   3   16.25    2.36
   6 -14   3   15.49    2.32
   7 -14   3   26.35    2.93
   8 -14   3   -0.38    1.01
   9 -14   3    0.36    1.15
   1 -13   3   22.23    4.20
   2 -13   3   11.31    2.00
   3 -13   3   29.40    3.07
   4 -13   3   27.08    2.98
   5 -13   3    0.51    0.77
   6 -13   3    2.00    0.88
   7 -13   3   81.23    4.11
   8 -13   3   31.23    5.00
   9 -13   3   67.49    6.17
  10 -13   3    5.23    2.22
  11 -13   3    3.67    1.89
  12 -13   3   10.56    3.06
   0 -12   3   69.09    4.10
   1 -12   3   25.90    2.95
   2 -12   3   15.03    2.18
   3 -12   3    5.42    1.31
   4 -12   3  118.65    5.01
   5 -12   3    0.18    0.55
   6 -12   3   19.93    2.33
   7 -12   3   21.24    2.39
   8 -12   3   11.11    2.92
   9 -12   3   20.42    3.84
  10 -12   3    3.64    1.85
  11 -12   3   11.71    2.93
  12 -12   3   76.31    6.24
  -2 -11   3    2.40    1.54
  -1 -11   3   11.38    1.99
   0 -11   3   41.79    3.26
   1 -11   3   10.02    1.77
   2 -11   3   40.14    2.97
   3 -11   3   31.58    2.91
   4 -11   3   37.82    2.85
   5 -11   3   82.53    3.89
   6 -11   3   22.60    2.43
   7 -11   3    3.45    0.98
   8 -11   3   16.87    3.36
   9 -11   3  102.31    6.88
  10 -11   3   16.53    3.39
  11 -11   3   38.28    4.94
  12 -11   3   30.38    4.43
  -3 -10   3    4.16    1.83
  -2 -10   3    3.95    1.17
  -1 -10   3   16.85    2.27
   0 -10   3  131.32    5.26
   1 -10   3   27.84    2.72
   2 -10   3  153.34    5.44
   3 -10   3    5.41    1.20
   4 -10   3    4.05    0.99
   5 -10   3   21.48    2.21
   6 -10   3   26.25    2.41
   7 -10   3   14.76    1.79
   8 -10   3   29.97    4.28
   9 -10   3    1.70    0.76
  10 -10   3  142.21    5.45
  11 -10   3    7.44    1.45
  12 -10   3   20.31    3.54
  13 -10   3   33.09    4.55
  14 -10   3   53.90    6.08
  -5  -9   3    1.69    1.19
  -4  -9   3   68.29    5.60
  -3  -9   3   26.90    4.04
  -2  -9   3  107.72    4.72
  -1  -9   3    2.52    0.90
   0  -9   3    3.58    1.03
   1  -9   3   42.33    2.69
   2  -9   3   22.64    2.29
   3  -9   3    1.54    0.66
   4  -9   3    4.70    1.04
   5  -9   3  245.73    6.40
   6  -9   3   41.45    2.36
   7  -9   3  132.94    3.85
   8  -9   3    2.82    0.91
   9  -9   3    3.36    0.99
  10  -9   3   31.85    2.92
  11  -9   3   37.58    2.87
  12  -9   3    7.13    2.19
  13  -9   3   28.03    4.09
  14  -9   3   15.04    3.17
  -6  -8   3    0.54    1.06
  -5  -8   3   23.95    3.80
  -4  -8   3    9.90    2.48
  -3  -8   3   14.59    2.03
  -2  -8   3   24.98    2.54
  -1  -8   3    1.37    0.66
   0  -8   3    4.78    1.11
   1  -8   3  205.07    5.99
   2  -8   3   69.93    3.20
   3  -8   3  222.93    6.09
   4  -8   3   67.50    2.96
   5  -8   3   13.86    1.28
   6  -8   3    4.04    0.70
   7  -8   3   32.66    2.47
   8  -8   3    3.89    1.01
   9  -8   3   44.60    2.67
  10  -8   3  152.36    5.24
  11  -8   3   25.65    3.56
  12  -8   3  128.20    7.10
  13  -8   3    0.06    0.91
  14  -8   3   15.07    3.16
  -7  -7   3   24.10    2.78
  -6  -7   3   79.42    4.16
  -5  -7   3   19.29    2.29
  -4  -7   3    4.06    0.87
  -3  -7   3   15.59    1.55
  -2  -7   3  130.22    4.74
  -1  -7   3   33.88    2.51
   0  -7   3  111.01    4.08
   1  -7   3   79.99    3.34
   2  -7   3   15.29    1.65
   3  -7   3   99.87    3.57
   4  -7   3   19.58    1.31
   5  -7   3   10.65    1.05
   6  -7   3  268.33    5.12
   7  -7   3  104.56    3.99
   8  -7   3  213.47    5.99
   9  -7   3   23.20    2.29
  10  -7   3    5.42    1.16
  11  -7   3   34.43    4.16
  12  -7   3   -0.03    0.67
  13  -7   3    2.82    1.45
  14  -7   3   20.68    3.59
  -8  -6   3   12.82    2.11
  -7  -6   3    3.80    1.17
  -6  -6   3   20.45    2.37
  -5  -6   3   24.94    2.06
  -4  -6   3   28.25    1.90
  -3  -6   3   39.49    1.92
  -2  -6   3    3.51    0.67
  -1  -6   3  266.97    5.18
   0  -6   3   45.52    2.36
   1  -6   3   27.27    1.75
   2  -6   3   59.69    2.58
   3  -6   3  264.72    4.90
   4  -6   3   62.82    2.05
   5  -6   3   62.14    1.98
   6  -6   3   49.39    1.73
   7  -6   3   83.14    3.33
   8  -6   3   70.33    3.09
   9  -6   3    0.87    0.45
  10  -6   3    3.81    1.37
  11  -6   3   90.26    5.67
  12  -6   3   18.75    3.11
  13  -6   3   87.17    5.89
  14  -6   3    0.15    1.00
  -9  -5   3   21.21    2.76
  -8  -5   3    1.30    0.83
  -7  -5   3   -0.15    0.47
  -6  -5   3   94.05    3.50
  -5  -5   3   25.36    1.99
  -4  -5   3  235.67    5.15
  -3  -5   3   15.01    1.37
  -2  -5   3   12.08    1.17
  -1  -5   3   58.13    1.98
   0  -5   3  144.66    3.13
   1  -5   3   20.68    0.94
   2  -5   3   87.91    2.36
   3  -5   3   51.51    1.73
   4  -5   3  283.20    4.86
   5  -5   3  149.51    3.09
   6  -5   3   24.35    1.78
   7  -5   3   15.40    1.55
   8  -5   3  231.46    5.86
   9  -5   3    2.19    1.04
  10  -5   3   23.92    3.32
  11  -5   3   19.31    3.02
  12  -5   3   21.18    3.30
  13  -5   3   26.02    3.74
  14  -5   3   -0.48    1.05
 -10  -4   3   49.18    6.17
  -9  -4   3   28.86    3.01
  -8  -4   3  113.20    4.89
  -7  -4   3   33.87    2.97
  -6  -4   3    4.46    0.80
  -5  -4   3    4.23    0.79
  -4  -4   3   69.83    2.45
  -3  -4   3   20.08    1.36
  -2  -4   3   64.91    2.10
  -1  -4   3  284.84    4.90
   0  -4   3  148.72    2.55
   1  -4   3  408.31    4.99
   2  -4   3   11.89    0.82
   3  -4   3   30.36    1.18
   4  -4   3  151.65    2.91
   5  -4   3   22.31    0.88
   6  -4   3   59.50    2.52
   7  -4   3  107.62    3.49
   8  -4   3   71.80    4.34
   9  -4   3  223.48    8.75
  10  -4   3   29.50    3.74
  11  -4   3    3.95    1.47
  12  -4   3    7.89    2.17
  13  -4   3   68.47    5.27
 -10  -3   3   39.09    3.59
  -9  -3   3    3.81    1.08
  -8  -3   3   30.34    2.85
  -7  -3   3    6.59    0.97
  -6  -3   3    1.37    0.49
  -5  -3   3  237.16    4.98
  -4  -3   3  102.44    2.89
  -3  -3   3  262.98    4.87
  -2  -3   3   50.72    1.73
  -1  -3   3   29.74    1.20
   0  -3   3   84.31    1.68
   1  -3   3   30.27    0.86
   2  -3   3   86.32    2.01
   3  -3   3   84.04    1.89
   4  -3   3  400.49    5.57
   5  -3   3   94.34    2.98
   6  -3   3  256.70    5.72
   7  -3   3   20.68    1.53
   8  -3   3   17.11    2.44
   9  -3   3   36.84    3.18
  10  -3   3   18.35    2.11
  11  -3   3   17.64    2.20
  12  -3   3   24.85    2.68
  13  -3   3    8.38    1.64
 -11  -2   3    9.06    1.77
 -10  -2   3   13.70    2.05
  -9  -2   3   39.41    3.35
  -8  -2   3  149.50    4.22
  -7  -2   3   26.52    1.82
  -6  -2   3   70.33    2.53
  -5  -2   3   17.00    1.37
  -4  -2   3   61.35    2.09
  -3  -2   3   86.76    2.37
  -2  -2   3    9.84    1.12
  -1  -2   3   82.20    1.95
   0  -2   3  359.26    5.17
   1  -2   3   75.83    1.80
   2  -2   3  353.51    4.98
   3  -2   3   31.70    1.53
   4  -2   3    9.12    1.01
   5  -2   3   52.98    2.07
   6  -2   3   67.87    2.34
   7  -2   3    8.78    1.78
   8  -2   3    3.79    0.93
   9  -2   3  131.98    4.69
  10  -2   3   28.11    2.62
  11  -2   3  107.52    4.58
  12  -2   3    2.94    1.03
  13  -2   3    3.85    1.96
 -11  -1   3   28.89    3.07
 -10  -1   3    7.20    1.41
  -9  -1   3   29.54    2.80
  -8  -1   3   48.46    2.23
  -7  -1   3  215.88    4.78
  -6  -1   3   83.66    2.68
  -5  -1   3   24.52    1.33
  -4  -1   3   19.49    1.51
  -3  -1   3  411.33    7.72
  -2  -1   3   31.08    1.03
  -1  -1   3   81.51    1.83
   0  -1   3   62.08    1.51
   1  -1   3   63.06    1.45
   2  -1   3   81.42    2.41
   3  -1   3   89.82    2.58
   4  -1   3   31.68    1.47
   5  -1   3  285.52    5.58
   6  -1   3   56.61    3.50
   7  -1   3  262.13    6.58
   8  -1   3   30.26    2.08
   9  -1   3    2.47    0.80
  10  -1   3    1.08    0.68
  11  -1   3   14.70    2.03
  12  -1   3   14.99    2.13
 -12   0   3   74.28    4.22
 -11   0   3   40.88    3.54
 -10   0   3  138.06    5.32
  -9   0   3    3.58    0.81
  -8   0   3    4.29    0.77
  -7   0   3  111.80    3.22
  -6   0   3   46.67    2.26
  -5   0   3  146.95    4.13
  -4   0   3  148.89    3.96
  -3   0   3   84.81    1.68
  -2   0   3  364.98    5.00
  -1   0   3   61.61    1.48
   0   0   3    0.07    0.12
   1   0   3   62.26    1.36
   2   0   3  345.83    6.29
   3   0   3   84.70    2.41
   4   0   3  150.08    3.39
   5   0   3  147.23    4.25
   6   0   3   45.76    2.33
   7   0   3  109.18    3.98
   8   0   3    3.97    0.97
   9   0   3    3.09    0.91
  10   0   3  136.67    5.14
  11   0   3   36.10    3.18
  12   0   3   72.95    6.22
 -13   1   3   16.38    4.56
 -12   1   3   12.28    1.99
 -11   1   3   15.17    2.10
 -10   1   3    1.39    0.52
  -9   1   3    1.58    0.52
  -8   1   3   30.63    1.78
  -7   1   3  259.83    6.41
  -6   1   3   53.04    2.41
  -5   1   3  285.64    6.22
  -4   1   3   28.16    1.53
  -3   1   3   84.34    1.78
  -2   1   3   82.25    1.78
  -1   1   3   61.56    1.49
   0   1   3   61.89    1.94
   1   1   3   82.22    2.30
   2   1   3   28.76    1.28
   3   1   3  408.87    6.93
   4   1   3   19.85    1.53
   5   1   3   25.93    1.67
   6   1   3   86.71    3.37
   7   1   3  211.46    5.85
   8   1   3   45.03    2.66
   9   1   3   34.35    2.63
  10   1   3    6.86    1.39
  11   1   3   23.41    2.63
 -13   2   3    3.12    1.15
 -12   2   3    3.42    1.09
 -11   2   3  103.21    4.58
 -10   2   3   27.11    1.91
  -9   2   3  130.27    3.75
  -8   2   3    4.25    0.89
  -7   2   3    8.32    1.13
  -6   2   3   63.34    2.56
  -5   2   3   48.41    2.12
  -4   2   3   10.61    0.61
  -3   2   3   30.99    1.06
  -2   2   3  359.36    6.25
  -1   2   3   81.51    2.30
   0   2   3  346.77    6.26
   1   2   3   86.54    2.40
   2   2   3   10.19    0.77
   3   2   3   87.44    2.28
   4   2   3   57.58    2.50
   5   2   3   16.49    1.69
   6   2   3   68.78    3.05
   7   2   3   21.20    2.11
   8   2   3  152.37    5.21
   9   2   3   36.31    2.79
  10   2   3   15.15    2.12
  11   2   3    7.79    2.42
 -13   3   3    4.10    1.19
 -12   3   3   23.92    2.71
 -11   3   3   14.91    1.62
 -10   3   3   14.06    1.77
  -9   3   3   35.87    2.19
  -8   3   3   12.96    1.51
  -7   3   3   19.20    1.74
  -6   3   3  254.38    5.91
  -5   3   3   88.77    1.98
  -4   3   3  412.98    7.04
  -3   3   3   85.64    2.43
  -2   3   3   86.96    2.49
  -1   3   3   30.86    1.41
   0   3   3   80.97    2.43
   1   3   3   30.85    1.36
   2   3   3   53.92    1.76
   3   3   3  258.11    5.90
   4   3   3  101.52    3.54
   5   3   3  231.86    6.02
   6   3   3    0.64    0.46
   7   3   3    6.66    1.24
   8   3   3   30.81    2.83
   9   3   3    4.26    1.20
  10   3   3   31.55    3.08
 -14   4   3   10.31    2.89
 -13   4   3   68.58    3.88
 -12   4   3    9.07    1.26
 -11   4   3    2.85    0.82
 -10   4   3   25.20    2.35
  -9   4   3  229.66    6.15
  -8   4   3   70.02    2.95
  -7   4   3   98.30    3.50
  -6   4   3   62.33    3.77
  -5   4   3   22.40    1.19
  -4   4   3  145.81    3.57
  -3   4   3   30.13    1.44
  -2   4   3   11.58    1.13
  -1   4   3  407.84    7.32
   0   4   3  154.72    3.67
   1   4   3  290.63    5.64
   2   4   3   58.36    3.50
   3   4   3   19.67    1.56
   4   4   3   67.77    2.90
   5   4   3    4.80    1.00
   6   4   3    3.54    0.91
   7   4   3   35.11    2.67
   8   4   3  119.46    4.83
   9   4   3   28.66    2.89
  10   4   3   51.75    5.30
 -14   5   3    0.46    0.74
 -13   5   3   22.63    2.64
 -12   5   3   20.18    2.27
 -11   5   3   22.64    2.32
 -10   5   3   22.56    2.20
  -9   5   3    5.39    1.04
  -8   5   3  229.14    6.04
  -7   5   3   16.21    2.43
  -6   5   3   26.69    1.44
  -5   5   3  150.42    3.85
  -4   5   3  281.36    5.89
  -3   5   3   50.28    2.05
  -2   5   3   87.05    2.76
  -1   5   3   22.61    1.31
   0   5   3  153.23    3.82
   1   5   3   59.27    2.15
   2   5   3   11.03    1.30
   3   5   3   14.86    1.59
   4   5   3  231.95    6.10
   5   5   3   21.24    2.11
   6   5   3   93.32    3.99
   7   5   3   -0.11    0.49
   8   5   3    0.53    0.64
   9   5   3   18.55    2.45
 -14   6   3    0.80    0.83
 -13   6   3   78.28    3.32
 -12   6   3   20.91    2.38
 -11   6   3   94.98    4.04
 -10   6   3    3.11    0.85
  -9   6   3    2.87    0.81
  -8   6   3   71.77    4.62
  -7   6   3   86.45    4.93
  -6   6   3   45.44    2.08
  -5   6   3   58.11    2.39
  -4   6   3   64.95    2.52
  -3   6   3  269.86    5.88
  -2   6   3   61.06    2.45
  -1   6   3   25.91    1.52
   0   6   3   49.85    2.09
   1   6   3  268.15    9.13
   2   6   3    5.92    1.47
   3   6   3   33.50    3.06
   4   6   3   22.41    2.34
   5   6   3   23.94    2.83
   6   6   3   22.17    3.30
   7   6   3    2.22    1.24
   8   6   3   13.98    2.74
 -14   7   3   23.15    2.24
 -13   7   3    2.94    1.01
 -12   7   3    0.23    0.51
 -11   7   3   38.14    2.56
 -10   7   3    6.02    1.15
  -9   7   3   21.42    3.27
  -8   7   3  207.95    8.61
  -7   7   3  111.00    3.67
  -6   7   3  263.20    6.26
  -5   7   3   11.92    1.40
  -4   7   3   19.05    1.75
  -3   7   3  103.20    3.48
  -2   7   3   16.46    1.58
  -1   7   3   86.84    3.12
   0   7   3  108.43    5.39
   1   7   3   24.34    3.20
   2   7   3  120.97    6.28
   3   7   3   12.27    2.34
   4   7   3    5.54    1.59
   5   7   3   16.66    2.97
   6   7   3   77.08    5.54
   7   7   3   19.12    3.38
 -14   8   3   11.55    1.94
 -13   8   3    0.17    0.60
 -12   8   3  110.21    4.75
 -11   8   3   31.98    2.89
 -10   8   3  138.50    7.53
  -9   8   3   43.09    3.87
  -8   8   3    5.46    1.62
  -7   8   3   31.23    2.09
  -6   8   3    3.57    0.85
  -5   8   3   13.10    1.50
  -4   8   3   72.60    2.99
  -3   8   3  229.62    5.90
  -2   8   3   72.45    3.01
  -1   8   3  205.86    5.40
   0   8   3    4.13    1.31
   1   8   3    3.15    1.31
   2   8   3   20.63    3.15
   3   8   3   13.58    2.62
   4   8   3   12.50    2.60
   5   8   3   28.43    4.05
   6   8   3    0.14    0.95
 -14   9   3   19.49    2.54
 -13   9   3   26.07    2.86
 -12   9   3    6.25    1.32
 -11   9   3   43.62    4.28
 -10   9   3   36.46    4.68
  -9   9   3    6.62    2.02
  -8   9   3    2.23    0.73
  -7   9   3  126.99    4.47
  -6   9   3   35.45    2.24
  -5   9   3  239.90    6.31
  -4   9   3    4.07    0.94
  -3   9   3    1.01    0.51
  -2   9   3   20.95    2.04
  -1   9   3   34.85    3.32
   0   9   3    3.74    1.42
   1   9   3    2.49    1.17
   2   9   3  101.68    6.33
   3   9   3   31.15    4.18
   4   9   3   68.83    5.34
   5   9   3    0.16    1.02
 -14  10   3   50.72    5.13
 -13  10   3   34.45    3.38
 -12  10   3   17.62    3.51
 -11  10   3    6.58    2.10
 -10  10   3  116.52    7.31
  -9  10   3    4.31    1.67
  -8  10   3   23.99    2.39
  -7  10   3   13.79    1.78
  -6  10   3   24.11    2.38
  -5  10   3   22.18    2.25
  -4  10   3    4.18    1.04
  -3  10   3    4.42    1.04
  -2  10   3  148.20    7.28
  -1  10   3   37.30    3.58
   0  10   3  136.83    7.24
   1  10   3   13.91    2.86
   2  10   3    2.63    1.30
   3  10   3    4.36    1.72
   4  10   3   10.36    2.87
 -13  11   3   10.54    1.84
 -12  11   3   22.56    3.93
 -11  11   3   39.15    5.21
 -10  11   3   14.49    3.05
  -9  11   3  107.97    4.86
  -8  11   3   15.94    2.04
  -7  11   3    3.43    1.01
  -6  11   3   20.52    2.27
  -5  11   3   86.78    3.96
  -4  11   3   27.59    2.63
  -3  11   3   32.22    2.96
  -2  11   3   37.51    4.40
  -1  11   3    8.74    2.23
   0  11   3   33.66    4.51
   1  11   3    8.71    2.34
   2  11   3    2.25    1.48
 -12  12   3   70.67    6.09
 -11  12   3   12.82    3.14
 -10  12   3    1.49    1.17
  -9  12   3   25.61    2.75
  -8  12   3   11.37    1.85
  -7  12   3   18.81    2.32
  -6  12   3   24.32    2.63
  -5  12   3    0.41    0.63
  -4  12   3  118.57    4.85
  -3  12   3    3.05    1.44
  -2  12   3   14.56    2.91
  -1  12   3   28.90    4.27
   0  12   3   77.52    5.91
 -11  13   3    1.22    1.30
 -10  13   3    1.93    1.44
  -9  13   3   67.06    3.86
  -8  13   3   30.03    3.05
  -7  13   3   76.52    4.08
  -6  13   3    1.69    0.89
  -5  13   3    0.66    0.71
  -4  13   3   25.52    4.01
  -3  13   3   30.08    4.38
  -2  13   3   10.51    2.60
  -9  14   3    0.26    0.75
  -8  14   3    1.75    0.88
  -7  14   3   21.89    2.69
  -6  14   3   13.93    2.13
  -5  14   3   14.29    3.10
   3 -13   4    1.17    1.04
   4 -13   4    3.15    1.18
   5 -13   4   53.54    5.53
   6 -13   4   80.13    6.74
   7 -13   4   15.65    3.67
   8 -13   4   25.42    4.70
   9 -13   4   10.13    2.89
  10 -13   4    0.98    1.46
   0 -12   4    4.27    2.09
   1 -12   4    3.24    1.25
   2 -12   4  127.24    5.56
   3 -12   4    1.77    0.89
   4 -12   4   26.60    2.84
   5 -12   4    2.22    1.49
   6 -12   4   20.60    3.94
   7 -12   4    1.25    1.24
   8 -12   4   22.55    4.19
   9 -12   4   33.17    5.03
  10 -12   4   89.79    6.83
  11 -12   4   81.00    6.55
  12 -12   4    4.01    2.08
  -1 -11   4   70.67    4.21
   0 -11   4    6.87    1.55
   1 -11   4    3.80    1.20
   2 -11   4    9.15    1.68
   3 -11   4   24.52    2.63
   4 -11   4    0.34    0.57
   5 -11   4   23.39    4.00
   6 -11   4   19.09    3.65
   7 -11   4  207.84   10.54
   8 -11   4   10.75    2.80
   9 -11   4   26.05    4.23
  10 -11   4    5.73    2.06
  11 -11   4    6.35    1.52
  12 -11   4    1.21    1.10
  -2 -10   4   94.91    4.78
  -1 -10   4    6.08    1.51
   0 -10   4   14.44    2.07
   1 -10   4   17.51    2.25
   2 -10   4   30.72    2.94
   3 -10   4   74.41    3.70
   4 -10   4   73.39    3.54
   5 -10   4   27.13    4.06
   6 -10   4   26.45    4.23
   7 -10   4   21.52    3.81
   8 -10   4    8.56    1.63
   9 -10   4    6.68    1.45
  10 -10   4   17.10    2.29
  11 -10   4    5.24    1.40
  12 -10   4  118.43    7.42
  -4  -9   4    8.46    2.36
  -3  -9   4   31.51    3.23
  -2  -9   4   32.71    3.24
  -1  -9   4    5.38    1.29
   0  -9   4   79.48    3.94
   1  -9   4    6.96    1.38
   2  -9   4   25.26    2.38
   3  -9   4   87.61    3.84
   4  -9   4    2.85    0.79
   5  -9   4   55.34    4.70
   6  -9   4   21.45    2.36
   7  -9   4   43.83    3.10
   8  -9   4   56.41    3.23
   9  -9   4   70.78    3.75
  10  -9   4   19.25    2.33
  11  -9   4   10.32    2.49
  12  -9   4    1.12    1.09
  13  -9   4    3.78    1.73
  -5  -8   4   25.18    4.16
  -4  -8   4   18.32    2.51
  -3  -8   4   10.70    1.85
  -2  -8   4    9.70    1.70
  -1  -8   4   51.23    3.09
   0  -8   4  142.89    5.26
   1  -8   4   30.45    2.35
   2  -8   4   15.68    1.84
   3  -8   4   35.81    2.44
   4  -8   4   26.78    1.98
   5  -8   4  139.47    4.95
   6  -8   4    1.44    0.68
   7  -8   4    1.82    0.74
   8  -8   4  161.74    5.48
   9  -8   4    6.30    1.30
  10  -8   4   29.66    3.89
  11  -8   4   26.11    3.94
  12  -8   4   28.71    4.29
  13  -8   4   54.48    5.04
  -6  -7   4    7.94    2.47
  -5  -7   4    0.77    0.75
  -4  -7   4  220.01    7.16
  -3  -7   4   23.74    2.50
  -2  -7   4   44.65    2.84
  -1  -7   4    2.34    0.78
   0  -7   4   25.07    2.37
   1  -7   4   22.82    2.24
   2  -7   4    2.58    0.76
   3  -7   4   33.39    1.70
   4  -7   4  157.05    3.77
   5  -7   4  107.31    4.11
   6  -7   4   64.13    3.12
   7  -7   4   23.02    2.35
   8  -7   4   32.78    2.51
   9  -7   4   30.33    2.44
  10  -7   4   71.99    5.16
  11  -7   4    0.41    0.71
  12  -7   4    1.59    1.16
  13  -7   4   78.42    5.98
  -7  -6   4   79.86    6.21
  -6  -6   4   16.43    3.13
  -5  -6   4   18.01    2.30
  -4  -6   4   30.93    2.92
  -3  -6   4   28.47    2.75
  -2  -6   4    2.04    0.75
  -1  -6   4   65.70    3.16
   0  -6   4    7.92    1.30
   1  -6   4  334.81    7.64
   2  -6   4    1.56    0.45
   3  -6   4   14.86    1.26
   4  -6   4    4.40    0.91
   5  -6   4   12.65    1.53
   6  -6   4    8.60    1.31
   7  -6   4   15.88    1.87
   8  -6   4   25.94    2.42
   9  -6   4   88.18    5.52
  10  -6   4   64.26    4.87
  11  -6   4   31.93    4.15
  12  -6   4   24.18    3.85
  13  -6   4   10.89    2.69
  -8  -5   4   52.81    3.84
  -7  -5   4    2.50    1.02
  -6  -5   4   36.48    2.63
  -5  -5   4   30.31    2.27
  -4  -5   4   57.19    2.46
  -3  -5   4  144.01    4.36
  -2  -5   4  109.65    4.13
  -1  -5   4   13.15    1.58
   0  -5   4    0.72    0.45
   1  -5   4    7.71    0.89
   2  -5   4   39.02    1.61
   3  -5   4   14.05    1.03
   4  -5   4   50.39    2.49
   5  -5   4    0.92    0.50
   6  -5   4  333.64    7.65
   7  -5   4    2.46    0.76
   8  -5   4   36.13    3.30
   9  -5   4    4.17    1.44
  10  -5   4   26.88    3.69
  11  -5   4   17.86    3.29
  12  -5   4    0.53    0.91
  13  -5   4   28.33    4.20
  -9  -4   4    5.16    1.41
  -8  -4   4   27.33    2.82
  -7  -4   4    0.19    0.45
  -6  -4   4   77.85    3.04
  -5  -4   4    3.59    0.76
  -4  -4   4   27.34    1.94
  -3  -4   4  164.91    3.95
  -2  -4   4    6.92    0.87
  -1  -4   4   55.95    1.91
   0  -4   4   39.42    1.57
   1  -4   4   64.13    2.00
   2  -4   4  181.04    3.64
   3  -4   4  369.58    5.91
   4  -4   4   37.22    2.06
   5  -4   4    7.37    1.10
   6  -4   4    2.23    0.66
   7  -4   4   32.91    2.01
   8  -4   4   22.96    3.12
   9  -4   4   52.04    4.16
  10  -4   4   26.72    3.77
  11  -4   4  219.36    9.82
  12  -4   4   17.51    3.21
  13  -4   4   16.86    3.24
 -10  -3   4    0.50    1.20
  -9  -3   4    2.07    0.94
  -8  -3   4   27.10    2.31
  -7  -3   4   74.52    3.01
  -6  -3   4   87.76    3.13
  -5  -3   4   36.98    1.88
  -4  -3   4   31.22    1.64
  -3  -3   4   14.81    1.26
  -2  -3   4   14.66    1.18
  -1  -3   4  378.91    5.06
   0  -3   4   37.24    1.42
   1  -3   4    2.80    0.49
   2  -3   4  171.52    3.28
   3  -3   4   34.54    1.85
   4  -3   4   64.17    2.61
   5  -3   4   38.38    2.03
   6  -3   4   15.72    1.56
   7  -3   4  158.98    6.93
   8  -3   4  146.09    6.87
   9  -3   4   23.84    3.30
  10  -3   4   23.59    3.51
  11  -3   4    9.70    2.39
  12  -3   4   32.23    4.45
  13  -3   4    5.44    1.96
 -10  -2   4  126.63    5.54
  -9  -2   4   11.15    1.86
  -8  -2   4   24.99    2.09
  -7  -2   4   26.75    2.03
  -6  -2   4   20.68    1.75
  -5  -2   4    2.29    0.59
  -4  -2   4    1.03    0.40
  -3  -2   4   40.04    2.14
  -2  -2   4  181.38    4.77
  -1  -2   4  172.70    3.31
   0  -2   4   42.39    1.44
   1  -2   4   81.15    2.01
   2  -2   4   43.29    1.31
   3  -2   4    2.85    0.67
   4  -2   4  180.46    4.64
   5  -2   4   13.23    1.37
   6  -2   4    5.08    1.38
   7  -2   4  105.61    5.56
   8  -2   4    1.04    0.73
   9  -2   4   41.04    3.65
  10  -2   4    9.82    2.31
  11  -2   4   27.47    3.93
  12  -2   4   87.46    6.09
 -11  -1   4    2.43    1.03
 -10  -1   4    3.14    1.02
  -9  -1   4   17.11    1.78
  -8  -1   4    7.51    1.09
  -7  -1   4   33.64    1.99
  -6  -1   4   18.26    1.56
  -5  -1   4  337.13    7.64
  -4  -1   4    7.83    1.09
  -3  -1   4   65.50    2.64
  -2  -1   4    3.11    0.45
  -1  -1   4   81.07    2.03
   0  -1   4   23.16    0.99
   1  -1   4   20.97    0.89
   2  -1   4   80.76    2.68
   3  -1   4  167.95    4.22
   4  -1   4  373.94    7.37
   5  -1   4   50.86    3.39
   6  -1   4   12.12    2.05
   7  -1   4   64.70    4.21
   8  -1   4    1.72    0.92
   9  -1   4   51.36    4.07
  10  -1   4    5.52    1.75
  11  -1   4    5.16    1.73
  12  -1   4   63.61    5.25
 -11   0   4    7.75    1.62
 -10   0   4   17.37    1.84
  -9   0   4   75.50    3.06
  -8   0   4  154.67    4.31
  -7   0   4   18.99    1.67
  -6   0   4   10.09    1.41
  -5   0   4    1.73    0.58
  -4   0   4   44.49    2.18
  -3   0   4   37.56    1.88
  -2   0   4   45.30    1.41
  -1   0   4   21.95    0.97
   0   0   4  942.73   11.83
   1   0   4   23.21    0.90
   2   0   4   42.67    1.86
   3   0   4   33.25    1.64
   4   0   4   42.62    3.02
   5   0   4    2.57    0.96
   6   0   4    6.55    1.59
   7   0   4   22.65    2.95
   8   0   4  159.71    7.38
   9   0   4   70.98    4.93
  10   0   4   15.70    2.81
  11   0   4    4.25    1.63
  12   0   4    4.60    1.81
 -12   1   4   71.03    4.16
 -11   1   4    5.15    1.33
 -10   1   4    5.55    1.03
  -9   1   4   54.42    2.51
  -8   1   4    3.37    0.92
  -7   1   4   60.88    2.93
  -6   1   4   10.50    1.37
  -5   1   4   51.76    2.43
  -4   1   4  369.04    7.63
  -3   1   4  175.03    3.17
  -2   1   4   82.94    2.00
  -1   1   4   22.15    0.96
   0   1   4   23.19    0.95
   1   1   4   82.65    1.83
   2   1   4    2.92    0.57
   3   1   4   60.48    2.21
   4   1   4    7.04    1.49
   5   1   4  321.65   10.45
   6   1   4   16.00    2.58
   7   1   4   27.11    3.43
   8   1   4    8.96    2.11
   9   1   4   14.78    2.67
  10   1   4    3.75    1.56
  11   1   4    2.37    1.33
 -12   2   4   88.31    4.58
 -11   2   4   28.40    2.37
 -10   2   4    8.85    1.27
  -9   2   4   42.41    2.64
  -8   2   4    1.88    0.70
  -7   2   4  105.73    3.88
  -6   2   4    5.73    0.98
  -5   2   4   12.53    1.42
  -4   2   4  178.34    4.65
  -3   2   4    3.11    0.45
  -2   2   4   42.62    1.42
  -1   2   4   79.25    2.00
   0   2   4   42.00    1.81
   1   2   4  175.12    4.12
   2   2   4  175.00    4.20
   3   2   4   36.15    2.80
   4   2   4    0.81    0.58
   5   2   4    2.37    0.93
   6   2   4   25.59    3.29
   7   2   4   30.32    3.64
   8   2   4   28.46    2.86
   9   2   4   11.55    1.87
  10   2   4  123.86    5.41
 -12   3   4   32.09    2.57
 -11   3   4   10.97    1.46
 -10   3   4   22.99    2.37
  -9   3   4   22.01    2.22
  -8   3   4  147.21    4.82
  -7   3   4  153.78    4.76
  -6   3   4   16.77    1.69
  -5   3   4   39.16    2.03
  -4   3   4   63.54    1.82
  -3   3   4   37.60    1.67
  -2   3   4  166.53    4.08
  -1   3   4    2.20    0.53
   0   3   4   36.24    1.72
   1   3   4  379.67    7.19
   2   3   4   13.06    2.04
   3   3   4   16.63    2.41
   4   3   4   30.43    2.74
   5   3   4   37.41    3.24
   6   3   4   93.23    5.36
   7   3   4   72.23    3.62
   8   3   4   24.29    2.63
   9   3   4    2.75    1.07
  10   3   4    1.63    0.93
 -13   4   4   14.80    2.28
 -12   4   4   18.28    1.97
 -11   4   4  215.40    6.85
 -10   4   4   27.79    2.65
  -9   4   4   54.49    2.93
  -8   4   4   24.97    2.23
  -7   4   4   28.07    1.90
  -6   4   4    0.81    0.44
  -5   4   4    7.04    0.99
  -4   4   4   45.26    1.92
  -3   4   4  376.29    7.31
  -2   4   4  182.53    4.47
  -1   4   4   63.52    2.41
   0   4   4   41.47    1.88
   1   4   4   56.22    2.18
   2   4   4    7.74    1.68
   3   4   4  145.70    6.53
   4   4   4   29.60    2.84
   5   4   4    6.47    1.71
   6   4   4   75.44    5.01
   7   4   4    0.55    0.57
   8   4   4   27.65    2.87
   9   4   4    3.71    1.25
 -13   5   4   22.00    2.17
 -12   5   4    1.05    0.71
 -11   5   4   14.88    1.97
 -10   5   4   25.95    2.50
  -9   5   4    6.43    1.29
  -8   5   4   35.45    2.27
  -7   5   4    1.26    0.53
  -6   5   4  327.08   10.99
  -5   5   4    1.07    0.43
  -4   5   4   54.79    2.27
  -3   5   4   11.51    1.24
  -2   5   4   39.41    1.95
  -1   5   4    8.47    1.09
   0   5   4    1.22    0.46
   1   5   4   10.24    1.80
   2   5   4  111.25    5.54
   3   5   4  141.33    6.63
   4   5   4   55.45    4.17
   5   5   4   27.31    3.65
   6   5   4   25.03    3.57
   7   5   4    1.17    0.74
   8   5   4   57.34    4.83
 -13   6   4   10.19    1.74
 -12   6   4   21.22    2.49
 -11   6   4   32.67    2.97
 -10   6   4   72.82    3.59
  -9   6   4   91.34    3.93
  -8   6   4   17.59    1.92
  -7   6   4   16.53    2.83
  -6   6   4    8.45    1.91
  -5   6   4   13.52    1.44
  -4   6   4    4.87    0.84
  -3   6   4   15.68    1.57
  -2   6   4    1.93    0.57
  -1   6   4  336.53    7.12
   0   6   4    8.99    1.87
   1   6   4   53.11    3.87
   2   6   4    1.12    0.80
   3   6   4   30.78    3.77
   4   6   4   24.34    3.37
   5   6   4   17.59    3.04
   6   6   4   18.37    3.19
   7   6   4   79.00    5.75
 -13   7   4   75.54    4.16
 -12   7   4    1.87    0.85
 -11   7   4    0.30    0.49
 -10   7   4   75.35    3.74
  -9   7   4   31.54    2.82
  -8   7   4   34.97    3.50
  -7   7   4   19.41    3.10
  -6   7   4   67.50    2.86
  -5   7   4  110.43    3.76
  -4   7   4  159.02    4.65
  -3   7   4   33.66    1.99
  -2   7   4    2.47    0.70
  -1   7   4   20.60    1.66
   0   7   4   27.07    3.43
   1   7   4    1.80    0.92
   2   7   4   48.38    3.96
   3   7   4   21.16    3.25
   4   7   4  220.29    9.69
   5   7   4    1.07    1.06
   6   7   4   17.07    3.27
 -13   8   4   56.58    3.65
 -12   8   4   28.21    2.93
 -11   8   4   26.52    2.83
 -10   8   4   29.42    2.89
  -9   8   4    9.58    2.48
  -8   8   4  159.91    8.00
  -7   8   4    1.75    1.04
  -6   8   4    2.01    0.69
  -5   8   4  158.00    4.81
  -4   8   4   25.18    1.99
  -3   8   4   33.50    2.09
  -2   8   4   23.48    2.15
  -1   8   4   33.29    3.86
   0   8   4  149.72    7.25
   1   8   4   46.85    4.04
   2   8   4    9.76    2.33
   3   8   4    7.13    2.03
   4   8   4   19.89    3.43
   5   8   4   27.04    4.17
 -13   9   4    5.12    1.39
 -12   9   4    1.74    0.89
 -11   9   4    8.27    1.55
 -10   9   4   18.57    3.49
  -9   9   4   81.63    5.90
  -8   9   4   47.82    4.37
  -7   9   4   43.15    4.02
  -6   9   4   25.02    2.36
  -5   9   4   54.50    2.89
  -4   9   4    4.28    0.99
  -3   9   4   89.95    3.70
  -2   9   4   27.91    3.62
  -1   9   4    7.76    2.04
   0   9   4   89.38    5.68
   1   9   4    8.38    2.27
   2   9   4   27.98    4.00
   3   9   4   23.58    3.74
   4   9   4   11.11    2.77
 -13  10   4   -0.04    1.68
 -12  10   4  125.90    5.53
 -11  10   4    4.45    1.84
 -10  10   4   11.84    2.82
  -9  10   4    4.01    1.57
  -8  10   4    9.26    2.43
  -7  10   4   25.82    2.57
  -6  10   4   31.18    2.79
  -5  10   4   27.32    2.51
  -4  10   4   75.92    3.57
  -3  10   4   70.62    4.91
  -2  10   4   26.56    3.71
  -1  10   4   16.69    3.11
   0  10   4   14.42    2.88
   1  10   4    6.27    1.90
   2  10   4   87.81    6.36
 -12  11   4    5.29    2.29
 -11  11   4    8.88    2.69
 -10  11   4    4.95    1.93
  -9  11   4   24.83    4.17
  -8  11   4    7.86    2.35
  -7  11   4  206.74    6.66
  -6  11   4   17.55    2.25
  -5  11   4   39.00    2.93
  -4  11   4    0.39    0.54
  -3  11   4   26.26    3.73
  -2  11   4   12.29    2.74
  -1  11   4    5.79    2.05
   0  11   4    8.01    2.42
   1  11   4   79.37    6.13
 -11  12   4   72.25    6.31
 -10  12   4   84.06    6.70
  -9  12   4   32.06    4.85
  -8  12   4   17.87    3.47
  -7  12   4    0.58    0.69
  -6  12   4   19.78    2.49
  -5  12   4    2.35    0.92
  -4  12   4   32.41    4.38
  -3  12   4    1.61    1.09
  -2  12   4  127.17    7.65
  -1  12   4    2.38    1.41
  -9  13   4   10.71    2.82
  -8  13   4   24.79    2.87
  -7  13   4   13.39    2.10
  -6  13   4   77.67    4.23
  -5  13   4   55.20    4.98
  -4  13   4    5.08    1.97
   4 -12   5   98.74    7.64
   5 -12   5    4.14    2.01
   6 -12   5   20.99    4.13
   7 -12   5   40.99    5.72
   8 -12   5   30.38    4.99
   9 -12   5   13.56    3.26
  10 -12   5    4.78    2.29
   0 -11   5    1.88    1.65
   1 -11   5   21.76    2.74
   2 -11   5    4.71    2.03
   3 -11   5   11.27    3.03
   4 -11   5   18.82    3.92
   5 -11   5   44.07    5.62
   6 -11   5   39.30    5.45
   7 -11   5    2.27    1.60
   8 -11   5   29.96    4.57
   9 -11   5   26.84    4.35
  10 -11   5    4.32    1.28
  -2 -10   5    4.10    2.35
  -1 -10   5    6.58    1.63
   0 -10   5  141.11    5.91
   1 -10   5   50.76    3.61
   2 -10   5  104.62    5.67
   3 -10   5    4.23    1.76
   4 -10   5    4.99    2.03
   5 -10   5   20.20    3.66
   6 -10   5   45.83    4.68
   7 -10   5   28.07    4.37
   8 -10   5   18.87    2.45
   9 -10   5    9.33    1.71
  10 -10   5  153.90    6.03
  11 -10   5   20.38    3.57
  -3  -9   5   15.06    2.42
  -2  -9   5   30.95    3.31
  -1  -9   5    8.35    1.66
   0  -9   5    3.60    1.07
   1  -9   5    0.05    0.58
   2  -9   5    0.54    0.70
   3  -9   5   -0.24    0.70
   4  -9   5   14.72    3.07
   5  -9   5   23.80    3.87
   6  -9   5   11.30    1.76
   7  -9   5   73.94    3.84
   8  -9   5   13.91    2.08
   9  -9   5    3.23    1.12
  10  -9   5   55.43    4.94
  11  -9   5    7.26    2.19
  -4  -8   5   20.39    2.66
  -3  -8   5   29.27    3.21
  -2  -8   5   17.89    2.41
  -1  -8   5    7.01    1.24
   0  -8   5    7.63    1.46
   1  -8   5   85.80    3.94
   2  -8   5  119.74    7.21
   3  -8   5  235.42   10.65
   4  -8   5   30.28    2.45
   5  -8   5   11.10    1.69
   6  -8   5   20.38    2.26
   7  -8   5   14.54    2.02
   8  -8   5    5.84    1.26
   9  -8   5   -0.01    0.66
  10  -8   5   99.93    6.62
  11  -8   5    8.36    2.28
  12  -8   5  108.54    7.34
  -5  -7   5   42.22    3.89
  -4  -7   5    1.96    0.96
  -3  -7   5   31.93    3.19
  -2  -7   5   76.73    3.97
  -1  -7   5   17.03    2.16
   0  -7   5   10.03    1.57
   1  -7   5    7.18    1.34
   2  -7   5   17.70    3.14
   3  -7   5   30.62    2.34
   4  -7   5   15.33    1.95
   5  -7   5    4.23    1.03
   6  -7   5  289.98    7.72
   7  -7   5    8.80    1.50
   8  -7   5   92.52    4.10
   9  -7   5   -0.11    0.52
  10  -7   5    9.35    2.28
  11  -7   5   20.36    3.57
  12  -7   5    4.42    1.95
  -6  -6   5   19.89    2.68
  -5  -6   5   42.90    3.40
  -4  -6   5   45.61    3.42
  -3  -6   5   15.23    2.11
  -2  -6   5   22.31    2.44
  -1  -6   5  287.47    7.71
   0  -6   5   11.13    1.58
   1  -6   5   38.83    2.35
   2  -6   5   25.61    2.00
   3  -6   5  157.13    5.07
   4  -6   5    1.21    0.55
   5  -6   5   85.68    3.67
   6  -6   5   12.18    1.66
   7  -6   5    6.55    1.29
   8  -6   5  100.88    6.16
   9  -6   5    0.41    0.74
  10  -6   5    5.06    1.81
  11  -6   5   49.89    4.69
  12  -6   5   17.63    3.41
  -7  -5   5    3.16    1.18
  -6  -5   5   41.66    3.34
  -5  -5   5   28.02    2.92
  -4  -5   5   31.24    2.93
  -3  -5   5    9.01    1.54
  -2  -5   5    4.60    1.09
  -1  -5   5   81.18    3.58
   0  -5   5    8.23    1.31
   1  -5   5   14.18    1.27
   2  -5   5   91.81    3.59
   3  -5   5    4.69    0.98
   4  -5   5  203.71    5.79
   5  -5   5    8.57    1.32
   6  -5   5   34.23    2.27
   7  -5   5   17.35    2.84
   8  -5   5  239.99    9.95
   9  -5   5   13.91    2.71
  10  -5   5   19.18    3.30
  11  -5   5   38.56    4.85
  12  -5   5   39.29    5.03
  -8  -4   5  115.87    7.43
  -7  -4   5   21.29    2.58
  -6  -4   5    4.23    1.21
  -5  -4   5   13.73    1.93
  -4  -4   5   26.36    2.66
  -3  -4   5   14.75    1.85
  -2  -4   5    1.23    0.64
  -1  -4   5  200.89    5.61
   0  -4   5    5.35    0.96
   1  -4   5  351.69    6.10
   2  -4   5    3.29    0.73
   3  -4   5   16.44    1.76
   4  -4   5    5.39    1.03
   5  -4   5   13.77    1.67
   6  -4   5   30.73    2.27
   7  -4   5   35.29    3.38
   8  -4   5   23.05    3.46
   9  -4   5   29.48    4.14
  10  -4   5   39.66    4.78
  11  -4   5    2.97    1.42
  12  -4   5   24.44    3.98
  -9  -3   5    3.44    1.64
  -8  -3   5   10.25    1.52
  -7  -3   5    4.86    0.99
  -6  -3   5    1.05    0.55
  -5  -3   5  251.10    5.66
  -4  -3   5   30.01    2.15
  -3  -3   5  156.41    5.03
  -2  -3   5    2.90    0.74
  -1  -3   5   14.55    1.59
   0  -3   5   67.32    2.15
   1  -3   5   39.73    2.11
   2  -3   5   38.39    2.11
   3  -3   5   67.92    2.91
   4  -3   5  351.92    7.83
   5  -3   5   90.28    3.49
   6  -3   5  152.10    6.99
   7  -3   5   14.59    2.58
   8  -3   5   12.19    2.44
   9  -3   5   11.01    2.42
  10  -3   5   24.85    3.77
  11  -3   5   30.05    4.33
  12  -3   5   14.52    3.26
 -10  -2   5   11.95    3.12
  -9  -2   5    6.32    1.23
  -8  -2   5  101.58    3.78
  -7  -2   5    0.69    0.45
  -6  -2   5  107.19    3.53
  -5  -2   5   21.60    1.78
  -4  -2   5   27.92    1.68
  -3  -2   5   94.02    3.63
  -2  -2   5    2.84    0.69
  -1  -2   5   41.48    2.08
   0  -2   5   89.48    2.39
   1  -2   5   53.25    2.41
   2  -2   5   86.05    3.15
   3  -2   5   38.74    2.10
   4  -2   5    3.70    0.84
   5  -2   5    4.34    1.35
   6  -2   5    0.03    0.44
   7  -2   5    0.32    0.68
   8  -2   5   16.70    2.82
   9  -2   5   85.28    5.64
  10  -2   5   14.94    2.89
  11  -2   5   27.05    4.07
 -10  -1   5   22.47    2.72
  -9  -1   5   54.78    2.79
  -8  -1   5   -0.02    0.43
  -7  -1   5   81.20    3.14
  -6  -1   5    6.09    0.97
  -5  -1   5   38.09    2.39
  -4  -1   5   15.11    1.73
  -3  -1   5  354.84    7.83
  -2  -1   5   38.37    2.04
  -1  -1   5   56.70    1.82
   0  -1   5   83.95    2.24
   1  -1   5   84.83    3.03
   2  -1   5   59.74    2.51
   3  -1   5   41.67    2.09
   4  -1   5   17.47    1.67
   5  -1   5  180.59    7.61
   6  -1   5   82.34    4.93
   7  -1   5  279.57   10.40
   8  -1   5   19.45    3.18
   9  -1   5   11.44    2.51
  10  -1   5   11.10    2.66
  11  -1   5    5.77    2.07
 -11   0   5    1.73    1.59
 -10   0   5  151.24    4.89
  -9   0   5    2.44    0.76
  -8   0   5    5.44    0.99
  -7   0   5   10.71    1.35
  -6   0   5   10.40    1.53
  -5   0   5   10.89    1.54
  -4   0   5    4.85    0.94
  -3   0   5   74.67    2.95
  -2   0   5   91.47    3.14
  -1   0   5   83.01    2.23
   0   0   5    0.12    0.26
   1   0   5   84.68    2.99
   2   0   5   85.34    3.03
   3   0   5   71.46    2.76
   4   0   5    6.10    1.60
   5   0   5    6.80    1.70
   6   0   5   10.72    2.11
   7   0   5    8.91    2.02
   8   0   5    7.28    1.98
   9   0   5    2.45    1.29
  10   0   5  139.76    7.91
 -11   1   5    4.68    1.04
 -10   1   5    9.74    1.30
  -9   1   5    9.77    1.37
  -8   1   5   14.57    1.96
  -7   1   5  278.76    7.46
  -6   1   5   81.07    3.52
  -5   1   5  194.56    5.56
  -4   1   5   11.01    1.39
  -3   1   5   40.47    2.09
  -2   1   5   59.74    2.04
  -1   1   5   84.25    2.25
   0   1   5   82.75    2.95
   1   1   5   55.92    2.37
   2   1   5   39.91    1.98
   3   1   5  334.12   10.70
   4   1   5   15.93    2.44
   5   1   5   32.94    3.09
   6   1   5    6.09    1.76
   7   1   5   74.49    5.18
   8   1   5    0.42    0.73
   9   1   5   50.37    4.47
  10   1   5   21.54    3.61
 -11   2   5   28.38    2.47
 -10   2   5   19.97    2.03
  -9   2   5   80.06    3.84
  -8   2   5   15.94    1.90
  -7   2   5    2.96    0.86
  -6   2   5    1.72    0.67
  -5   2   5    3.83    0.86
  -4   2   5    3.10    0.73
  -3   2   5   38.18    1.98
  -2   2   5   91.42    2.37
  -1   2   5   53.97    1.75
   0   2   5   89.13    3.05
   1   2   5   38.85    1.95
   2   2   5    2.84    1.02
   3   2   5   92.57    4.96
   4   2   5   31.58    2.90
   5   2   5   22.93    3.23
   6   2   5  100.55    5.86
   7   2   5   -0.11    0.61
   8   2   5   91.78    6.15
   9   2   5    6.87    2.15
 -12   3   5   15.44    2.55
 -11   3   5   28.07    2.46
 -10   3   5   25.29    2.63
  -9   3   5   14.32    1.97
  -8   3   5   11.00    1.67
  -7   3   5   14.91    1.82
  -6   3   5  154.53    4.93
  -5   3   5   93.00    3.54
  -4   3   5  341.65    7.59
  -3   3   5   69.80    2.75
  -2   3   5   39.15    1.52
  -1   3   5   41.51    1.55
   0   3   5   71.88    2.73
   1   3   5   17.77    1.62
   2   3   5    4.01    1.27
   3   3   5  147.01    6.73
   4   3   5   25.96    3.31
   5   3   5  240.21    9.56
   6   3   5    1.14    0.88
   7   3   5    4.66    1.65
   8   3   5    9.49    2.43
   9   3   5    4.21    1.81
 -12   4   5   20.97    2.21
 -11   4   5    2.49    1.01
 -10   4   5   44.95    2.98
  -9   4   5   27.81    2.72
  -8   4   5   26.44    2.53
  -7   4   5   31.32    2.16
  -6   4   5   27.13    2.08
  -5   4   5   15.52    1.66
  -4   4   5    5.87    1.00
  -3   4   5   16.29    1.54
  -2   4   5    4.60    0.84
  -1   4   5  351.26    7.46
   0   4   5    7.26    1.07
   1   4   5  198.07    7.64
   2   4   5    0.21    0.46
   3   4   5   11.99    2.22
   4   4   5   20.68    3.18
   5   4   5   18.35    2.91
   6   4   5    3.15    1.37
   7   4   5   20.47    3.51
   8   4   5  102.72    6.85
 -12   5   5   35.11    3.36
 -11   5   5   41.63    3.22
 -10   5   5   21.86    2.44
  -9   5   5   15.98    2.01
  -8   5   5  230.25    6.76
  -7   5   5   20.20    2.10
  -6   5   5   37.29    2.30
  -5   5   5    7.03    1.16
  -4   5   5  210.16    8.25
  -3   5   5    6.35    0.97
  -2   5   5   92.15    3.33
  -1   5   5   13.85    1.52
   0   5   5    6.05    1.54
   1   5   5   80.04    4.76
   2   5   5    3.38    1.31
   3   5   5   15.44    2.74
   4   5   5   28.36    3.69
   5   5   5   22.21    3.54
   6   5   5   42.92    4.14
   7   5   5    4.06    1.70
 -12   6   5   19.43    2.52
 -11   6   5   45.70    3.12
 -10   6   5    3.45    1.04
  -9   6   5    0.77    0.56
  -8   6   5  108.22    4.40
  -7   6   5    4.41    1.04
  -6   6   5   10.12    2.33
  -5   6   5   82.08    5.13
  -4   6   5    0.54    0.44
  -3   6   5  164.70    4.78
  -2   6   5   29.87    1.92
  -1   6   5   38.12    2.13
   0   6   5   14.53    2.49
   1   6   5  282.76   10.37
   2   6   5   21.91    3.30
   3   6   5   11.89    2.49
   4   6   5   41.32    4.00
   5   6   5   34.31    4.63
   6   6   5   19.95    3.49
 -12   7   5    3.54    1.18
 -11   7   5   21.93    2.56
 -10   7   5    5.76    1.30
  -9   7   5    0.06    0.53
  -8   7   5   87.33    4.02
  -7   7   5    5.80    1.85
  -6   7   5  291.04   10.99
  -5   7   5    3.78    1.42
  -4   7   5   14.93    1.74
  -3   7   5   29.15    1.99
  -2   7   5   23.96    2.19
  -1   7   5    7.10    1.78
   0   7   5   11.58    2.31
   1   7   5   16.30    2.84
   2   7   5   79.88    5.43
   3   7   5   26.90    3.81
   4   7   5    1.98    1.27
   5   7   5   38.40    4.98
 -12   8   5  105.47    5.06
 -11   8   5   11.41    1.92
 -10   8   5   97.66    4.63
  -9   8   5    0.17    0.54
  -8   8   5    7.30    2.07
  -7   8   5   16.66    3.08
  -6   8   5   21.26    3.54
  -5   8   5   11.42    1.58
  -4   8   5   30.82    2.35
  -3   8   5  240.96    6.59
  -2   8   5  104.29    5.88
  -1   8   5   87.80    5.49
   0   8   5    4.56    1.60
   1   8   5   13.48    2.67
   2   8   5   23.54    3.76
   3   8   5   36.08    4.76
   4   8   5   18.20    3.39
 -11   9   5    5.40    1.41
 -10   9   5   55.66    3.49
  -9   9   5    4.24    1.81
  -8   9   5    9.42    2.49
  -7   9   5   77.28    5.68
  -6   9   5   11.39    2.60
  -5   9   5   29.66    2.66
  -4   9   5   16.75    1.99
  -3   9   5    0.76    0.74
  -2   9   5    0.55    0.74
  -1   9   5    0.15    0.63
   0   9   5    2.44    1.29
   1   9   5    9.63    2.48
   2   9   5   32.18    4.53
 -11  10   5   18.92    2.50
 -10  10   5  140.78    8.83
  -9  10   5    6.65    2.39
  -8  10   5   18.89    3.56
  -7  10   5   28.01    4.46
  -6  10   5   43.10    4.35
  -5  10   5   29.15    2.79
  -4  10   5    3.75    1.50
  -3  10   5    5.78    1.84
  -2  10   5   93.42    6.19
  -1  10   5   41.63    4.97
   0  10   5  146.24    8.28
   1  10   5    7.97    2.47
 -10  11   5    7.18    2.46
  -9  11   5   33.19    4.96
  -8  11   5   34.86    5.00
  -7  11   5    4.67    1.91
  -6  11   5   35.72    3.21
  -5  11   5   49.48    3.17
  -4  11   5   23.38    3.76
  -3  11   5   10.04    2.62
  -2  11   5    9.42    2.48
  -1  11   5   21.23    3.71
  -9  12   5   17.87    3.74
  -8  12   5   21.47    4.10
  -7  12   5   41.78    5.54
  -6  12   5   20.02    2.53
  -5  12   5    5.59    1.94
  -4  12   5   96.14    6.70
  -3  12   5    3.55    1.71
   5 -11   6   20.82    5.20
   6 -11   6    0.63    1.26
   7 -11   6  108.77    7.99
   8 -11   6    4.06    2.21
   1 -10   6    8.14    4.10
   2 -10   6   33.76    5.27
   3 -10   6   62.21    5.98
   4 -10   6   57.95    5.73
   5 -10   6   31.29    4.98
   6 -10   6    6.95    2.37
   7 -10   6   10.22    1.88
   8 -10   6   60.95    3.86
   9 -10   6    1.04    0.93
  -1  -9   6    0.70    1.39
   0  -9   6   18.85    3.97
   1  -9   6    4.51    2.11
   2  -9   6    1.12    1.29
   3  -9   6   35.14    5.18
   4  -9   6    6.05    2.15
   5  -9   6   14.07    3.06
   6  -9   6   48.53    3.48
   7  -9   6   16.66    2.30
   8  -9   6   47.65    3.50
   9  -9   6   12.28    2.88
  10  -9   6    5.84    2.33
  -3  -8   6    9.69    2.71
  -2  -8   6   63.32    3.97
  -1  -8   6   46.97    6.18
   0  -8   6   73.17    6.26
   1  -8   6   27.09    4.57
   2  -8   6    8.07    2.53
   3  -8   6   22.55    4.02
   4  -8   6   18.92    2.14
   5  -8   6   39.95    3.00
   6  -8   6    1.87    0.85
   7  -8   6   37.05    3.31
   8  -8   6   70.91    5.45
   9  -8   6    1.36    1.24
  10  -8   6   25.90    4.11
  -4  -7   6  110.37    5.41
  -3  -7   6    8.08    1.75
  -2  -7   6   17.64    2.39
  -1  -7   6   39.37    5.59
   0  -7   6   14.06    3.20
   1  -7   6    0.80    1.00
   2  -7   6   12.64    2.99
   3  -7   6   16.13    3.29
   4  -7   6   80.19    3.89
   5  -7   6   47.29    2.98
   6  -7   6   27.75    2.81
   7  -7   6   15.41    2.09
   8  -7   6   23.80    3.66
   9  -7   6    2.16    1.22
  10  -7   6   53.99    5.07
  -5  -6   6   -0.19    0.78
  -4  -6   6    3.27    1.15
  -3  -6   6   45.43    3.41
  -2  -6   6    1.56    0.78
  -1  -6   6   22.38    3.93
   0  -6   6    7.94    2.34
   1  -6   6  184.03    9.54
   2  -6   6    7.58    2.25
   3  -6   6   95.58    4.10
   4  -6   6    9.22    1.55
   5  -6   6   41.98    2.74
   6  -6   6    6.28    1.26
   7  -6   6   -0.05    0.66
   8  -6   6    6.72    2.12
   9  -6   6   36.09    4.78
  10  -6   6   57.24    5.20
  -6  -5   6   15.55    2.42
  -5  -5   6   32.55    3.25
  -4  -5   6   22.45    2.75
  -3  -5   6   43.27    3.22
  -2  -5   6   47.14    2.99
  -1  -5   6   42.97    4.39
   0  -5   6    2.29    1.24
   1  -5   6   33.45    4.41
   2  -5   6   17.45    2.30
   3  -5   6    7.49    1.38
   4  -5   6   50.49    2.90
   5  -5   6    2.98    0.89
   6  -5   6  197.44    6.22
   7  -5   6    9.92    2.31
   8  -5   6   23.44    3.60
   9  -5   6    6.27    1.98
  10  -5   6   26.85    4.09
  -7  -4   6   34.94    3.53
  -6  -4   6   65.46    3.93
  -5  -4   6    8.30    1.61
  -4  -4   6   15.94    2.12
  -3  -4   6   78.64    3.83
  -2  -4   6    8.14    1.41
  -1  -4   6   55.98    4.77
   0  -4   6   24.25    3.81
   1  -4   6   47.80    4.27
   2  -4   6   45.81    2.59
   3  -4   6   84.79    3.65
   4  -4   6   23.01    2.27
   5  -4   6   32.44    2.80
   6  -4   6    5.68    1.77
   7  -4   6   26.22    3.80
   8  -4   6   22.34    3.64
   9  -4   6   20.63    3.55
  10  -4   6    2.76    1.43
  -8  -3   6    5.33    2.17
  -7  -3   6   54.51    3.84
  -6  -3   6   36.48    3.42
  -5  -3   6   29.04    2.87
  -4  -3   6   23.15    2.54
  -3  -3   6  100.47    4.21
  -2  -3   6    4.91    1.08
  -1  -3   6   83.54    5.68
   0  -3   6   17.38    3.11
   1  -3   6    4.72    1.66
   2  -3   6  129.20    4.45
   3  -3   6   20.13    2.07
   4  -3   6   55.06    2.87
   5  -3   6   10.00    2.25
   6  -3   6   95.29    5.79
   7  -3   6   83.95    5.57
   8  -3   6   42.94    4.12
   9  -3   6   41.37    4.97
  10  -3   6    7.95    2.35
  -8  -2   6   40.30    3.68
  -7  -2   6    0.34    0.64
  -6  -2   6    8.31    1.57
  -5  -2   6   10.71    1.72
  -4  -2   6    7.95    1.42
  -3  -2   6   13.48    1.73
  -2  -2   6   47.01    2.56
  -1  -2   6  123.76    6.73
   0  -2   6   78.12    5.13
   1  -2   6   88.31    3.51
   2  -2   6   74.80    3.22
   3  -2   6    5.52    1.05
   4  -2   6   42.77    2.98
   5  -2   6    4.29    1.49
   6  -2   6    8.48    2.04
   7  -2   6   42.66    3.99
   8  -2   6    2.28    1.25
   9  -2   6   15.66    2.96
  10  -2   6   61.69    5.34
  -9  -1   6    6.63    1.30
  -8  -1   6    3.01    0.86
  -7  -1   6   26.77    2.25
  -6  -1   6    0.30    0.48
  -5  -1   6  193.36    6.19
  -4  -1   6   29.32    2.33
  -3  -1   6   52.39    2.72
  -2  -1   6    6.18    1.12
  -1  -1   6   90.73    5.53
   0  -1   6   19.34    2.94
   1  -1   6   19.19    1.90
   2  -1   6   93.75    3.58
   3  -1   6  126.08    4.31
   4  -1   6   79.68    4.94
   5  -1   6   50.93    4.03
   6  -1   6   47.32    4.05
   7  -1   6   23.81    3.58
   8  -1   6   33.99    4.44
   9  -1   6   62.59    5.19
  10  -1   6   -0.18    1.27
  -9   0   6   20.57    2.13
  -8   0   6   64.24    3.05
  -7   0   6   19.07    1.89
  -6   0   6    7.51    1.42
  -5   0   6    4.22    1.02
  -4   0   6   18.52    2.07
  -3   0   6   21.10    2.06
  -2   0   6   88.15    5.35
  -1   0   6   19.07    2.85
   0   0   6  173.81    4.94
   1   0   6   20.26    1.87
   2   0   6   76.89    3.17
   3   0   6   23.07    3.07
   4   0   6   17.86    2.78
   5   0   6    1.52    0.95
   6   0   6    5.89    1.64
   7   0   6   15.37    2.80
   8   0   6   72.25    5.40
   9   0   6   20.50    3.74
 -10   1   6    1.30    0.70
  -9   1   6   53.29    2.82
  -8   1   6   31.21    2.96
  -7   1   6   22.58    2.44
  -6   1   6   39.66    2.63
  -5   1   6   52.43    2.86
  -4   1   6   87.93    3.58
  -3   1   6  124.63    4.23
  -2   1   6   92.00    5.47
  -1   1   6   16.01    2.55
   0   1   6   18.85    1.80
   1   1   6   96.65    3.54
   2   1   6    5.94    1.61
   3   1   6   43.35    3.60
   4   1   6   33.95    3.95
   5   1   6  192.36    8.53
   6   1   6    1.71    1.12
   7   1   6   26.53    3.87
   8   1   6    3.06    1.56
   9   1   6    8.59    3.42
 -10   2   6   63.35    3.19
  -9   2   6   17.27    2.36
  -8   2   6    1.96    0.86
  -7   2   6   46.01    2.89
  -6   2   6    6.26    1.25
  -5   2   6    6.66    1.21
  -4   2   6   42.38    2.43
  -3   2   6    7.02    1.09
  -2   2   6   76.05    4.83
  -1   2   6   95.00    3.47
   0   2   6   75.36    3.08
   1   2   6  130.48    4.21
   2   2   6   45.30    3.50
   3   2   6   16.03    2.66
   4   2   6    8.67    2.12
   5   2   6   11.45    2.36
   6   2   6    9.25    2.34
   7   2   6    0.45    0.99
   8   2   6   34.40    4.64
 -10   3   6   10.32    1.88
  -9   3   6   45.91    3.11
  -8   3   6   39.85    3.02
  -7   3   6   78.07    3.77
  -6   3   6   94.74    4.00
  -5   3   6   14.53    1.76
  -4   3   6   51.98    2.67
  -3   3   6   23.47    1.83
  -2   3   6  131.12    6.39
  -1   3   6    5.15    0.97
   0   3   6   23.76    2.13
   1   3   6   87.62    4.94
   2   3   6    3.80    1.29
   3   3   6   89.35    5.40
   4   3   6   23.94    3.37
   5   3   6   24.30    3.65
   6   3   6   28.15    4.08
   7   3   6   60.05    5.16
 -11   4   6   92.02    7.97
 -10   4   6    1.30    0.79
  -9   4   6   18.56    2.34
  -8   4   6   15.26    2.00
  -7   4   6   21.81    2.38
  -6   4   6    8.76    1.39
  -5   4   6   31.78    2.36
  -4   4   6   19.56    1.95
  -3   4   6   82.60    5.16
  -2   4   6   42.80    2.35
  -1   4   6   52.39    2.60
   0   4   6   26.21    3.31
   1   4   6   54.80    4.01
   2   4   6    9.66    2.13
   3   4   6   85.99    5.41
   4   4   6   15.94    2.94
   5   4   6    5.53    1.91
   6   4   6   57.92    4.99
 -11   5   6    0.08    0.77
 -10   5   6   38.19    3.50
  -9   5   6    6.83    1.43
  -8   5   6   23.81    2.57
  -7   5   6   10.78    1.63
  -6   5   6  193.05    6.02
  -5   5   6    3.94    1.00
  -4   5   6   52.18    2.76
  -3   5   6    9.81    2.16
  -2   5   6   15.33    1.72
  -1   5   6   29.66    2.85
   0   5   6    1.97    1.01
   1   5   6   30.14    3.69
   2   5   6   50.05    4.12
   3   5   6   43.23    3.99
   4   5   6   18.37    3.20
   5   5   6   38.60    4.88
 -11   6   6   17.26    2.70
 -10   6   6   56.66    3.62
  -9   6   6   30.82    3.02
  -8   6   6   10.20    1.75
  -7   6   6    0.09    0.49
  -6   6   6    5.96    1.26
  -5   6   6   41.71    2.59
  -4   6   6    5.12    1.67
  -3   6   6   94.88    5.61
  -2   6   6    7.29    1.26
  -1   6   6  199.32    8.35
   0   6   6    6.11    1.71
   1   6   6   25.51    3.58
   2   6   6    1.71    1.01
   3   6   6   42.20    4.93
   4   6   6    2.15    1.31
 -10   7   6   55.26    3.57
  -9   7   6    0.37    0.64
  -8   7   6   26.21    2.74
  -7   7   6   17.17    2.17
  -6   7   6   22.63    2.40
  -5   7   6   55.28    4.53
  -4   7   6   84.96    5.48
  -3   7   6   20.48    2.13
  -2   7   6   15.32    2.72
  -1   7   6    0.29    0.69
   0   7   6   18.33    3.04
   1   7   6   36.01    4.50
   2   7   6   18.03    3.35
   3   7   6   12.88    2.80
 -10   8   6   30.80    3.15
  -9   8   6    3.54    1.14
  -8   8   6   67.52    3.78
  -7   8   6   33.34    3.10
  -6   8   6    1.91    1.15
  -5   8   6   42.13    4.07
  -4   8   6   24.40    3.66
  -3   8   6   24.14    3.40
  -2   8   6    9.42    2.24
  -1   8   6   30.42    3.96
   0   8   6   71.65    5.35
   1   8   6   49.44    4.66
   2   8   6   56.90    5.10
 -10   9   6    9.72    2.51
  -9   9   6   21.60    2.58
  -8   9   6   49.65    3.64
  -7   9   6   15.62    3.27
  -6   9   6   44.47    4.52
  -5   9   6   14.88    3.01
  -3   9   6   34.94    4.32
  -2   9   6    0.75    0.93
  -1   9   6    2.50    1.41
   0   9   6   21.48    3.61
   1   9   6    1.27    1.30
  -9  10   6    1.01    0.94
  -8  10   6   69.60    6.02
  -7  10   6    9.48    2.58
  -6  10   6    3.93    1.72
  -4  10   6   64.60    5.10
  -3  10   6   54.19    4.71
  -2  10   6   38.52    4.79
  -1  10   6    8.73    2.51
  -8  11   6    9.00    3.50
  -7  11   6  112.73    7.76
  -6  11   6    0.54    1.78
  -4  11   6   44.69    5.26
  -3  11   6   11.00    2.78
   4  -9   7    5.03    2.12
   5  -9   7   72.59    6.44
   6  -9   7   13.19    2.15
   7  -9   7   28.68    3.10
   1  -8   7   86.84    7.25
   2  -8   7   14.86    3.58
   3  -8   7   81.55    6.79
   4  -8   7   29.15    4.77
   5  -8   7    2.51    1.58
   6  -8   7   13.58    2.14
   7  -8   7    7.56    2.28
   8  -8   7    1.97    1.37
  -1  -7   7    7.53    2.59
   0  -7   7   15.70    3.59
   1  -7   7    6.76    2.36
   2  -7   7    4.19    1.85
   3  -7   7   13.37    3.09
   4  -7   7    0.48    1.16
   5  -7   7    1.49    0.88
   6  -7   7   89.50    4.46
   7  -7   7   27.30    4.24
   8  -7   7   96.44    6.65
  -2  -6   7   13.14    3.31
  -1  -6   7   92.62    7.23
   0  -6   7   22.89    4.24
   1  -6   7    5.08    2.00
   2  -6   7   17.81    3.68
   3  -6   7   89.48    6.57
   4  -6   7    6.58    2.26
   5  -6   7   28.68    2.91
   6  -6   7   25.69    3.85
   7  -6   7   12.67    2.78
   8  -6   7   19.44    3.62
   9  -6   7   -0.07    1.63
  -4  -5   7   67.05    9.31
  -3  -5   7    1.73    1.46
  -2  -5   7    3.87    1.84
  -1  -5   7   27.88    4.72
   0  -5   7   21.10    3.86
   1  -5   7    6.57    2.17
   2  -5   7   67.09    5.58
   3  -5   7    5.74    1.97
   4  -5   7   82.18    4.01
   5  -5   7   20.25    2.37
   6  -5   7    6.35    1.97
   7  -5   7    3.88    1.72
   8  -5   7   70.88    5.83
   9  -5   7    8.61    2.77
  -5  -4   7    8.26    1.89
  -4  -4   7   22.30    4.13
  -3  -4   7    1.81    1.33
  -2  -4   7    4.84    1.99
  -1  -4   7   88.65    6.59
   0  -4   7   22.15    3.91
   1  -4   7  163.28    8.79
   2  -4   7    6.97    2.20
   3  -4   7    1.85    1.17
   4  -4   7   19.88    2.32
   5  -4   7    7.82    2.03
   6  -4   7    9.03    2.33
   7  -4   7   10.81    2.57
   8  -4   7   23.36    3.86
   9  -4   7   68.89    7.84
  -6  -3   7    0.15    1.07
  -5  -3   7   92.11    4.65
  -4  -3   7   16.08    3.56
  -3  -3   7   86.24    6.62
  -2  -3   7    4.29    1.70
  -1  -3   7    1.31    0.94
   0  -3   7   15.10    3.18
   1  -3   7    5.95    2.00
   2  -3   7    0.81    0.86
   3  -3   7   13.10    1.84
   4  -3   7  157.81    7.64
   5  -3   7   65.03    4.95
   6  -3   7   92.04    6.15
   7  -3   7    1.53    1.20
   8  -3   7    1.32    1.33
  -7  -2   7    4.30    1.91
  -6  -2   7   14.44    2.23
  -5  -2   7    5.59    1.41
  -4  -2   7   13.65    3.07
  -3  -2   7   70.95    5.71
  -2  -2   7    5.16    1.91
  -1  -2   7   -0.07    0.63
   0  -2   7   75.62    5.51
   1  -2   7   18.91    3.22
   2  -2   7   67.48    5.08
   3  -2   7    7.16    1.37
   4  -2   7    3.82    1.37
   5  -2   7    4.34    1.61
   6  -2   7    3.58    1.52
   7  -2   7    3.41    1.56
   8  -2   7    9.91    2.51
  -7  -1   7   94.45    7.16
  -6  -1   7   11.85    1.89
  -5  -1   7    4.98    1.25
  -4  -1   7    8.13    2.31
  -3  -1   7  156.62    8.53
  -2  -1   7    7.17    2.14
  -1  -1   7   21.65    3.65
   0  -1   7   50.83    4.37
   1  -1   7   45.22    4.05
   2  -1   7   24.31    2.41
   3  -1   7    0.24    0.67
   4  -1   7    1.00    0.93
   5  -1   7   90.68    5.89
   6  -1   7   29.31    4.03
   7  -1   7   89.90    6.30
   8  -1   7   10.76    2.68
  -8   0   7    3.09    1.52
  -7   0   7   22.56    2.70
  -6   0   7   21.13    2.52
  -5   0   7   23.59    2.74
  -4   0   7   23.45    3.90
  -3   0   7   12.51    2.72
  -2   0   7   73.03    5.39
  -1   0   7   45.83    4.13
   0   0   7   -0.10    0.58
   1   0   7   47.27    4.02
   2   0   7   70.16    4.65
   3   0   7   12.06    2.52
   4   0   7   22.50    3.41
   5   0   7   25.24    3.60
   6   0   7   30.32    4.30
   7   0   7   20.31    3.66
  -8   1   7    7.26    1.59
  -7   1   7   83.42    4.29
  -6   1   7   27.33    2.74
  -5   1   7   89.66    6.38
  -4   1   7    1.19    1.06
  -3   1   7    0.04    0.74
  -2   1   7   19.88    3.26
  -1   1   7   47.63    4.14
   0   1   7   48.20    4.03
   1   1   7   23.01    3.09
   2   1   7    7.51    1.85
   3   1   7  151.33    7.44
   4   1   7    7.06    1.88
   5   1   7    5.65    1.86
   6   1   7   12.71    2.79
   7   1   7   75.55    5.81
  -9   2   7   34.03    5.18
  -8   2   7   14.11    2.18
  -7   2   7    2.56    0.98
  -6   2   7    3.96    1.12
  -5   2   7    5.03    1.87
  -4   2   7    0.65    0.88
  -3   2   7    6.00    1.87
  -2   2   7   77.75    5.29
  -1   2   7   21.52    3.29
   0   2   7   65.20    4.70
   1   2   7    0.86    0.78
   2   2   7    1.26    0.91
   3   2   7   58.13    4.54
   4   2   7   12.32    2.61
   5   2   7    3.05    1.48
   6   2   7   19.91    3.65
  -9   3   7   16.05    3.13
  -8   3   7    2.00    0.91
  -7   3   7    0.23    0.65
  -6   3   7   89.86    4.19
  -5   3   7   60.67    5.08
  -4   3   7  144.11    7.89
  -3   3   7   10.76    2.48
  -2   3   7    0.74    0.84
  -1   3   7    6.26    1.73
   0   3   7   11.49    2.26
   1   3   7   -0.02    0.63
   2   3   7    4.09    1.52
   3   3   7   89.50    5.86
   4   3   7   13.44    2.75
   5   3   7   86.94    6.22
  -9   4   7   70.92    5.58
  -8   4   7   23.91    2.78
  -7   4   7   16.32    2.15
  -6   4   7   11.85    1.71
  -5   4   7   12.40    2.77
  -4   4   7   15.19    3.03
  -3   4   7    0.42    0.79
  -2   4   7    4.12    1.58
   0   4   7   20.02    3.04
   1   4   7   84.51    5.44
   2   4   7    5.60    1.78
   3   4   7    1.59    1.33
   4   4   7   23.65    3.77
   5   4   7    8.88    2.84
  -9   5   7    8.85    2.35
  -8   5   7   83.34    4.29
  -7   5   7    5.83    1.34
  -6   5   7    4.35    1.71
  -5   5   7   23.92    3.80
  -4   5   7   91.74    6.03
  -3   5   7    5.38    1.73
   0   5   7   23.34    3.31
   1   5   7   28.70    3.85
   2   5   7    2.79    1.43
   3   5   7    3.21    1.49
   4   5   7   75.76    5.91
  -9   6   7    0.07    0.92
  -8   6   7   13.77    2.13
  -7   6   7   13.65    2.04
  -6   6   7   20.88    3.67
  -5   6   7   24.98    3.87
  -4   6   7    3.31    1.54
  -3   6   7   90.05    5.90
  -1   6   7    5.96    1.78
   0   6   7   17.62    3.06
   1   6   7   88.54    5.96
   2   6   7    9.85    2.31
   3   6   7   16.95    3.79
  -9   7   7    2.29    1.45
  -8   7   7   87.82    4.49
  -7   7   7   21.96    2.82
  -6   7   7  103.47    6.95
  -5   7   7    2.13    1.31
  -4   7   7    1.13    1.13
  -1   7   7   15.55    2.94
   0   7   7   18.96    3.37
   1   7   7    9.08    2.52
  -8   8   7    1.77    1.15
  -7   8   7   11.71    3.05
  -6   8   7   10.18    2.89
  -5   8   7    3.57    1.74
  -1   8   7   92.30    6.25
   0   8   7    0.88    1.09
  -6   9   7   20.00    3.68
  -2   9   7    1.71    1.38
   2  -6   8    2.46    1.75
   3  -6   8   35.80    5.51
   4  -6   8    0.49    1.24
   0  -5   8    3.87    2.11
   1  -5   8    9.45    2.87
   2  -5   8    7.71    2.59
   3  -5   8   -0.26    0.99
   6  -5   8  133.32    7.89
  -1  -4   8   44.92    6.05
   0  -4   8    4.49    2.17
   1  -4   8   10.55    2.97
   2  -4   8   40.92    5.41
   3  -4   8   81.82    6.39
   5  -4   8   10.10    2.58
   6  -4   8    2.90    1.46
  -2  -3   8    0.36    1.12
  -1  -3   8   94.66    7.16
   0  -3   8   13.58    3.26
   1  -3   8    0.92    1.25
   2  -3   8   58.44    5.33
   5  -3   8    9.27    2.48
   6  -3   8   36.76    4.89
  -3  -2   8    8.27    2.72
  -2  -2   8   41.34    5.50
  -1  -2   8   52.38    5.16
   0  -2   8    6.25    2.20
   1  -2   8   39.98    5.35
   4  -2   8   48.15    5.37
   5  -2   8   -0.28    0.92
   6  -2   8    1.33    1.24
  -4  -1   8    5.89    2.30
  -3  -1   8   16.62    3.52
  -2  -1   8    3.09    1.75
  -1  -1   8   37.67    4.99
   0  -1   8    4.40    1.87
   1  -1   8    4.44    1.87
   4  -1   8  101.27    6.44
   5  -1   8   42.21    5.17
   6  -1   8    1.25    1.55
  -5   0   8    4.28    2.04
  -4   0   8    9.39    2.62
  -3   0   8   10.98    2.90
  -2   0   8    9.39    2.54
  -1   0   8    2.58    1.50
   0   0   8  214.31   10.36
   3   0   8   15.40    2.97
   4   0   8   14.30    2.92
   5   0   8    2.91    1.55
  -5   1   8   30.62    4.77
  -4   1   8   90.15    6.80
  -3   1   8   55.18    5.18
  -2   1   8   42.82    5.39
  -1   1   8    3.96    1.86
   3   1   8   12.22    2.64
   4   1   8   12.09    2.74
   5   1   8  117.90    7.59
  -5   2   8    0.27    0.89
  -4   2   8   34.49    4.83
  -3   2   8    2.50    1.56
  -2   2   8   10.62    2.54
  -1   2   8   39.27    4.90
   3   2   8   10.37    2.54
   4   2   8    3.40    1.63
  -6   3   8   25.50    4.89
  -5   3   8    6.84    2.36
  -4   3   8    8.57    2.41
  -3   3   8    7.92    2.32
  -2   3   8   56.83    4.97
   2   3   8    0.40    0.98
   3   3   8   38.59    4.84
  -6   4   8    2.80    1.62
  -5   4   8    4.48    1.84
  -4   4   8    6.22    2.15
  -3   4   8   97.33    6.71
   2   4   8    0.57    1.21
  -5   5   8    4.88    2.08
  -4   5   8   39.98    5.16
   1   5   8    3.44    2.27
  -5   6   8    1.17    1.42
   0   0   0    0.00    0.00
;
_shelx_hkl_checksum              3665
loop_
_space_group_symop_operation_xyz
'x, y, z'
'-y, x-y, z'
'-x+y, -x, z'
'-x, -y, z+1/2'
'y, -x+y, z+1/2'
'x-y, x, z+1/2'
loop_
_atom_site_label
_atom_site_type_symbol
_atom_site_fract_x
_atom_site_fract_y
_atom_site_fract_z
_atom_site_U_iso_or_equiv
_atom_site_adp_type
_atom_site_occupancy
_atom_site_site_symmetry_order
_atom_site_calc_flag
_atom_site_refinement_flags_posn
_atom_site_refinement_flags_adp
_atom_site_refinement_flags_occupancy
_atom_site_disorder_assembly
_atom_site_disorder_group
Pr Pr 0.12804(3) 0.35566(3) 0.01598(11) 0.00962(8) Uani 1 1 d . . . . .
NiA Ni 0.0000 0.0000 0.2492(9) 0.0126(6) Uani 0.478(3) 3 d S T P . .
NiB Ni 0.0000 0.0000 -0.007(14) 0.0126(6) Uani 0.022(3) 3 d S T P . .
Ge Ge 0.3333 0.6667 0.59784(18) 0.0097(2) Uani 1 3 d S T P . .
S1 S 0.24272(15) 0.15521(14) 0.0000(4) 0.0143(3) Uani 1 1 d . . . . .
S2 S 0.52039(16) 0.10305(16) 0.2483(3) 0.0106(2) Uani 1 1 d . . . . .
S3 S 0.3333 0.6667 0.2217(4) 0.0114(4) Uani 1 3 d S T P . .
loop_
_atom_site_aniso_label
_atom_site_aniso_U_11
_atom_site_aniso_U_22
_atom_site_aniso_U_33
_atom_site_aniso_U_23
_atom_site_aniso_U_13
_atom_site_aniso_U_12
Pr 0.00998(12) 0.00888(12) 0.01009(13) 0.00085(17) 0.00089(17) 0.00478(9)
NiA 0.0101(6) 0.0101(6) 0.0174(14) 0.000 0.000 0.0051(3)
NiB 0.0101(6) 0.0101(6) 0.0174(14) 0.000 0.000 0.0051(3)
Ge 0.0110(3) 0.0110(3) 0.0070(4) 0.000 0.000 0.00552(14)
S1 0.0142(5) 0.0114(5) 0.0197(7) 0.0029(7) 0.0015(8) 0.0082(4)
S2 0.0100(6) 0.0105(6) 0.0099(6) 0.0004(5) -0.0014(5) 0.0041(5)
S3 0.0133(7) 0.0133(7) 0.0077(11) 0.000 0.000 0.0066(3)
loop_
_atom_type_symbol
_atom_type_description
_atom_type_scat_dispersion_real
_atom_type_scat_dispersion_imag
_atom_type_scat_source
S S 0.1246 0.1234 'International Tables Vol C Tables 4.2.6.8 and 6.1.1.4'
Ni Ni 0.3393 1.1124 'International Tables Vol C Tables 4.2.6.8 and 6.1.1.4'
Ge Ge 0.1547 1.8001 'International Tables Vol C Tables 4.2.6.8 and 6.1.1.4'
Pr Pr -0.2180 2.8214 'International Tables Vol C Tables 4.2.6.8 and 6.1.1.4'
loop_
_geom_angle_atom_site_label_1
_geom_angle_atom_site_label_2
_geom_angle_atom_site_label_3
_geom_angle
_geom_angle_site_symmetry_1
_geom_angle_site_symmetry_3
S1 Pr S1 83.73(5) 2 .
S1 Pr S2 107.46(5) 2 5_564
S1 Pr S2 142.55(6) . 5_564
S1 Pr S1 77.28(5) 2 6
S1 Pr S1 77.25(5) . 6
S2 Pr S1 139.55(4) 5_564 6
S1 Pr S2 140.44(5) 2 6_554
S1 Pr S2 74.96(4) . 6_554
S2 Pr S2 74.29(6) 5_564 6_554
S1 Pr S2 127.74(4) 6 6_554
S1 Pr S3 149.70(5) 2 .
S1 Pr S3 116.79(3) . .
S2 Pr S3 70.63(5) 5_564 .
S1 Pr S3 85.52(5) 6 .
S2 Pr S3 69.40(4) 6_554 .
S1 Pr S2 72.00(4) 2 2
S1 Pr S2 144.07(5) . 2
S2 Pr S2 71.78(3) 5_564 2
S1 Pr S2 71.92(4) 6 2
S2 Pr S2 139.59(4) 6_554 2
S3 Pr S2 79.05(3) . 2
S1 Pr S1 74.43(5) 2 6_554
S1 Pr S1 74.39(5) . 6_554
S2 Pr S1 74.61(4) 5_564 6_554
S1 Pr S1 141.63(5) 6 6_554
S2 Pr S1 67.97(4) 6_554 6_554
S3 Pr S1 130.49(5) . 6_554
S2 Pr S1 121.48(4) 2 6_554
S1 Pr NiB 41.87(3) 2 .
S1 Pr NiB 41.86(3) . .
S2 Pr NiB 137.4(12) 5_564 .
S1 Pr NiB 72.6(15) 6 .
S2 Pr NiB 110.2(8) 6_554 .
S3 Pr NiB 151.8(11) . .
S2 Pr NiB 109.6(7) 2 .
S1 Pr NiB 69.0(15) 6_554 .
S1 Pr NiA 47.82(5) 2 .
S1 Pr NiA 47.81(5) . .
S2 Pr NiA 155.27(5) 5_564 .
S1 Pr NiA 47.17(8) 6 .
S2 Pr NiA 122.74(4) 6_554 .
S3 Pr NiA 129.95(8) . .
S2 Pr NiA 96.75(5) 2 .
S1 Pr NiA 94.46(8) 6_554 .
NiB Pr NiA 25.5(15) . .
S1 Pr NiA 46.91(4) 2 4_554
S1 Pr NiA 46.90(4) . 4_554
S2 Pr NiA 116.58(7) 5_564 4_554
S1 Pr NiA 96.23(8) 6 4_554
S2 Pr NiA 95.86(5) 6_554 4_554
S3 Pr NiA 161.926(16) . 4_554
S2 Pr NiA 118.64(4) 2 4_554
S1 Pr NiA 45.39(8) 6_554 4_554
NiB Pr NiA 23.6(15) . 4_554
NiA Pr NiA 49.067(5) . 4_554
NiB NiA NiB 180.00(2) 4 .
NiB NiA S1 123.71(10) 4 3
NiB NiA S1 56.29(10) . 3
NiB NiA S1 123.71(10) 4 2
NiB NiA S1 56.29(10) . 2
S1 NiA S1 92.17(14) 3 2
NiB NiA S1 123.71(10) 4 .
NiB NiA S1 56.29(10) . .
S1 NiA S1 92.17(14) 3 .
S1 NiA S1 92.17(14) 2 .
NiB NiA S1 56.12(10) 4 6
NiB NiA S1 123.88(10) . 6
S1 NiA S1 179.8(2) 3 6
S1 NiA S1 87.95(2) 2 6
S1 NiA S1 87.95(2) . 6
NiB NiA S1 56.12(10) 4 5
NiB NiA S1 123.88(10) . 5
S1 NiA S1 87.95(2) 3 5
S1 NiA S1 179.8(2) 2 5
S1 NiA S1 87.95(2) . 5
S1 NiA S1 91.93(14) 6 5
NiB NiA S1 56.12(10) 4 4
NiB NiA S1 123.88(10) . 4
S1 NiA S1 87.95(2) 3 4
S1 NiA S1 87.95(2) 2 4
S1 NiA S1 179.8(2) . 4
S1 NiA S1 91.93(14) 6 4
S1 NiA S1 91.93(14) 5 4
NiB NiA NiA 0.000(11) 4 4
NiB NiA NiA 180.0 . 4
S1 NiA NiA 123.71(10) 3 4
S1 NiA NiA 123.71(10) 2 4
S1 NiA NiA 123.71(10) . 4
S1 NiA NiA 56.12(10) 6 4
S1 NiA NiA 56.12(10) 5 4
S1 NiA NiA 56.12(10) 4 4
NiB NiA NiA 180.000(12) 4 4_554
NiB NiA NiA 0.0 . 4_554
S1 NiA NiA 56.29(10) 3 4_554
S1 NiA NiA 56.29(10) 2 4_554
S1 NiA NiA 56.29(10) . 4_554
S1 NiA NiA 123.88(10) 6 4_554
S1 NiA NiA 123.88(10) 5 4_554
S1 NiA NiA 123.88(10) 4 4_554
NiA NiA NiA 180.0 4 4_554
NiB NiA Pr 113.08(8) 4 2
NiB NiA Pr 66.92(8) . 2
S1 NiA Pr 53.09(5) 3 2
S1 NiA Pr 53.14(5) 2 2
S1 NiA Pr 123.21(17) . 2
S1 NiA Pr 126.93(4) 6 2
S1 NiA Pr 126.87(4) 5 2
S1 NiA Pr 56.96(5) 4 2
NiA NiA Pr 113.08(8) 4 2
NiA NiA Pr 66.92(8) 4_554 2
NiB NiA Pr 113.08(8) 4 .
NiB NiA Pr 66.92(8) . .
S1 NiA Pr 123.21(17) 3 .
S1 NiA Pr 53.09(5) 2 .
S1 NiA Pr 53.14(5) . .
S1 NiA Pr 56.96(5) 6 .
S1 NiA Pr 126.93(4) 5 .
S1 NiA Pr 126.87(4) 4 .
NiA NiA Pr 113.08(8) 4 .
NiA NiA Pr 66.92(8) 4_554 .
Pr NiA Pr 105.64(9) 2 .
NiA NiB NiA 180.0 4_554 .
NiA NiB S1 91(2) 4_554 3
NiA NiB S1 89(2) . 3
NiA NiB S1 91(2) 4_554 2
NiA NiB S1 89(2) . 2
S1 NiB S1 119.97(14) 3 2
NiA NiB S1 91(2) 4_554 .
NiA NiB S1 89(2) . .
S1 NiB S1 119.97(14) 3 .
S1 NiB S1 119.97(14) 2 .
NiA NiB NiB 0.0 4_554 4_554
NiA NiB NiB 180.0 . 4_554
S1 NiB NiB 91(2) 3 4_554
S1 NiB NiB 91(2) 2 4_554
S1 NiB NiB 91(2) . 4_554
NiA NiB NiB 180.0 4_554 4
NiA NiB NiB 0.0 . 4
S1 NiB NiB 89(2) 3 4
S1 NiB NiB 89(2) 2 4
S1 NiB NiB 89(2) . 4
NiB NiB NiB 180.0 4_554 4
NiA NiB Pr 92.4(15) 4_554 2
NiA NiB Pr 87.6(15) . 2
S1 NiB Pr 59.95(8) 3 2
S1 NiB Pr 60.02(8) 2 2
S1 NiB Pr 177(4) . 2
NiB NiB Pr 92.4(15) 4_554 2
NiB NiB Pr 87.6(15) 4 2
NiA NiB Pr 92.4(15) 4_554 .
NiA NiB Pr 87.6(15) . .
S1 NiB Pr 177(4) 3 .
S1 NiB Pr 59.95(8) 2 .
S1 NiB Pr 60.02(8) . .
NiB NiB Pr 92.4(15) 4_554 .
NiB NiB Pr 87.6(15) 4 .
Pr NiB Pr 119.8(2) 2 .
NiA NiB Pr 92.4(15) 4_554 3
NiA NiB Pr 87.6(15) . 3
S1 NiB Pr 60.02(9) 3 3
S1 NiB Pr 177(4) 2 3
S1 NiB Pr 59.95(8) . 3
NiB NiB Pr 92.4(15) 4_554 3
NiB NiB Pr 87.6(15) 4 3
Pr NiB Pr 119.8(2) 2 3
Pr NiB Pr 119.8(2) . 3
S3 Ge S2 113.02(5) . 6
S3 Ge S2 113.02(5) . 4_665
S2 Ge S2 105.70(5) 6 4_665
S3 Ge S2 113.02(5) . 5_565
S2 Ge S2 105.70(5) 6 5_565
S2 Ge S2 105.70(5) 4_665 5_565
NiB S1 NiA 35(2) . .
NiB S1 NiA 33(2) . 4_554
NiA S1 NiA 67.60(3) . 4_554
NiB S1 Pr 78.18(9) . 3
NiA S1 Pr 79.09(4) . 3
NiA S1 Pr 81.25(4) 4_554 3
NiB S1 Pr 78.12(9) . .
NiA S1 Pr 79.05(4) . .
NiA S1 Pr 81.20(4) 4_554 .
Pr S1 Pr 155.92(5) 3 .
NiB S1 Pr 109(2) . 5_554
NiA S1 Pr 143.47(11) . 5_554
NiA S1 Pr 75.87(11) 4_554 5_554
Pr S1 Pr 95.80(6) 3 5_554
Pr S1 Pr 95.75(5) . 5_554
NiB S1 Pr 110(2) . 5
NiA S1 Pr 74.91(11) . 5
NiA S1 Pr 142.50(11) 4_554 5
Pr S1 Pr 92.00(5) 3 5
Pr S1 Pr 91.95(5) . 5
Pr S1 Pr 141.63(5) 5_554 5
Ge S2 Pr 91.21(5) 4_664 6_655
Ge S2 Pr 88.79(5) 4_664 5
Pr S2 Pr 110.07(5) 6_655 5
Ge S2 Pr 121.38(6) 4_664 3
Pr S2 Pr 142.03(5) 6_655 3
Pr S2 Pr 91.03(4) 5 3
Ge S3 Pr 113.19(5) . 3_565
Ge S3 Pr 113.18(5) . .
Pr S3 Pr 105.52(5) 3_565 .
Ge S3 Pr 113.18(5) . 2_665
Pr S3 Pr 105.52(5) 3_565 2_665
Pr S3 Pr 105.52(5) . 2_665
loop_
_geom_bond_atom_site_label_1
_geom_bond_atom_site_label_2
_geom_bond_distance
_geom_bond_site_symmetry_2
Pr S1 2.7976(13) 2
Pr S1 2.8001(13) .
Pr S2 2.8852(14) 5_564
Pr S1 2.970(2) 6
Pr S2 2.9788(15) 6_554
Pr S3 3.0185(11) .
Pr S2 3.0221(14) 2
Pr S1 3.144(2) 6_554
Pr NiB 3.164(3) .
Pr NiA 3.436(2) .
Pr NiA 3.516(2) 4_554
NiA NiB 1.41(8) 4
NiA NiB 1.48(8) .
NiA S1 2.593(3) 3
NiA S1 2.593(3) 2
NiA S1 2.593(3) .
NiA S1 2.598(3) 6
NiA S1 2.598(3) 5
NiA S1 2.598(3) 4
NiA NiA 2.88760(9) 4
NiA NiA 2.88760(10) 4_554
NiA Pr 3.436(2) 2
NiB NiA 1.41(8) 4_554
NiB S1 2.157(2) 3
NiB S1 2.157(2) 2
NiB S1 2.157(2) .
NiB NiB 2.88758(10) 4_554
NiB NiB 2.88762(10) 4
NiB Pr 3.164(3) 2
NiB Pr 3.164(3) 3
Ge S3 2.172(3) .
Ge S2 2.2216(15) 6
Ge S2 2.2217(15) 4_665
Ge S2 2.2217(15) 5_565
S1 NiA 2.598(3) 4_554
S1 Pr 2.7977(13) 3
S1 Pr 2.970(2) 5_554
S1 Pr 3.144(2) 5
S2 Ge 2.2217(15) 4_664
S2 Pr 2.8852(14) 6_655
S2 Pr 2.9788(15) 5
S2 Pr 3.0221(14) 3
S3 Pr 3.0184(11) 3_565
S3 Pr 3.0185(11) 2_665
