#------------------------------------------------------------------------------
#$Date: 2021-04-05 17:27:40 +0300 (Mon, 05 Apr 2021) $
#$Revision: 263704 $
#$URL: file:///home/coder/svn-repositories/cod/cif/1/56/01/1560198.cif $
#------------------------------------------------------------------------------
#
# This file is available in the Crystallography Open Database (COD),
# http://www.crystallography.net/
#
# All data on this site have been placed in the public domain by the
# contributors.
#
data_1560198
loop_
_publ_author_name
'Bai, Zhiyong'
'Liu, Lehui'
'Wang, Dongmei'
'Hu, Chun-Li'
'Lin, Zhoubin'
_publ_section_title
;
 To improve the key properties of nonlinear optical crystals assembled
 with tetrahedral functional building units
;
_journal_issue                   11
_journal_name_full               'Chemical Science'
_journal_page_first              4014
_journal_page_last               4020
_journal_paper_doi               10.1039/D1SC00080B
_journal_volume                  12
_journal_year                    2021
_chemical_formula_moiety         'As B F O4, H4 N'
_chemical_formula_sum            'As B F H4 N O4'
_chemical_formula_weight         186.77
_space_group_crystal_system      monoclinic
_space_group_IT_number           9
_space_group_name_Hall           'C -2yc'
_space_group_name_H-M_alt        'C 1 c 1'
_atom_sites_solution_hydrogens   difmap
_atom_sites_solution_primary     dual
_audit_creation_date             2020-10-26
_audit_creation_method
;
Olex2 1.2
(compiled 2018.05.29 svn.r3508 for OlexSys, GUI svn.r5506)
;
_audit_update_record
;
2020-12-11 deposited with the CCDC.	2021-01-25 downloaded from the CCDC.
;
_cell_angle_alpha                90
_cell_angle_beta                 90
_cell_angle_gamma                90
_cell_formula_units_Z            4
_cell_length_a                   4.4453(6)
_cell_length_b                   8.1098(10)
_cell_length_c                   12.7463(18)
_cell_measurement_reflns_used    3282
_cell_measurement_temperature    293(2)
_cell_measurement_theta_max      60.2000
_cell_measurement_theta_min      6.0140
_cell_volume                     459.51(11)
_computing_cell_refinement       'CrysAlisPro 1.171.40.82a (Rigaku OD, 2020)'
_computing_data_collection       'CrysAlisPro 1.171.40.82a (Rigaku OD, 2020)'
_computing_data_reduction        'CrysAlisPro 1.171.40.82a (Rigaku OD, 2020)'
_computing_molecular_graphics    'Olex2 (Dolomanov et al., 2009)'
_computing_publication_material  'Olex2 (Dolomanov et al., 2009)'
_computing_structure_refinement  'ShelXL (Sheldrick, 2015)'
_computing_structure_solution    'ShelXT (Sheldrick, 2015)'
_diffrn_ambient_temperature      293(2)
_diffrn_detector                 'Hybrid Pixel Array Detector'
_diffrn_detector_area_resol_mean 10.0000
_diffrn_detector_type            HyPix
_diffrn_measured_fraction_theta_full 0.995
_diffrn_measured_fraction_theta_max 0.947
_diffrn_measurement_details
;
List of Runs (angles in degrees, time in seconds):

  # Type    Start    End  Width  t~exp~   \w     \q     \k     \f   Frames
#--------------------------------------------------------------------------
  1  \w     50.00  89.00   0.50    0.08    --   70.78  77.00 120.00   78
  2  \w    115.00 142.00   0.50    0.08    --   70.78  77.00 120.00   54
  3  \w     47.00  96.00   0.50    0.08    --   70.78  77.00 -30.00   98
  4  \w     47.00 115.00   0.50    0.08    --   70.78  77.00 -90.00  136
  5  \w     47.00 119.00   0.50    0.08    --   70.78  77.00-120.00  144
  6  \w    104.00 130.00   0.50    0.08    --   70.78  77.00-150.00   52
  7  \w     96.00 140.00   0.50    0.08    --   70.78  77.00-180.00   88
  8  \w     47.00  88.00   0.50    0.08    --   70.78  77.00-180.00   82
  9  \w     49.00  82.00   0.50    0.08    --   70.78  77.00-150.00   66
 10  \w    109.00 134.00   0.50    0.08    --   70.78  77.00   0.00   50
 11  \w     92.00 134.00   0.50    0.08    --   70.78  77.00  30.00   84
 12  \w     99.00 142.00   0.50    0.08    --   70.78  77.00  60.00   86
 13  \w     47.00  84.00   0.50    0.08    --   70.78  77.00  30.00   74
 14  \w     47.00  81.00   0.50    0.08    --   70.78  77.00   0.00   68
 15  \w    107.00 143.00   0.50    0.08    --   70.78  77.00 -30.00   72
 16  \w     47.00  78.00   0.50    0.08    --   70.78  77.00  60.00   62
 17  \w     47.00  83.00   0.50    0.08    --   70.78  77.00  90.00   72
 18  \w     50.00  85.00   0.50    0.08    --   70.78  71.00 149.89   70
 19  \w     51.00 141.00   0.50    0.08    --   70.78  77.00 150.00  180
 20  \w     57.00  99.00   0.50    0.08    --   70.78  57.00 -30.00   84
 21  \w    107.00 134.00   0.50    0.08    --   70.78  57.00 -30.00   54
 22  \w    114.00 140.00   0.50    0.08    --   70.78  45.00 -94.00   52
 23  \w     60.00  86.00   0.50    0.08    --   70.78  45.00 -94.00   52
 24  \w      8.00  47.00   0.50    0.08    --   70.78 -45.00 115.00   78
 25  \w      0.00  52.00   0.50    0.08    --   70.78 -57.00  90.00  104
 26  \w     20.00 104.00   0.50    0.08    --   70.78-125.00 120.00  168
 27  \w     60.00 108.00   0.50    0.08    --   70.78-125.00 -90.00   96
 28  \w    -60.00  13.00   0.50    0.05    --   -2.81 -57.00-120.00  146
 29  \w    -75.00 -47.00   0.50    0.05    --   -2.81 -38.00  30.00   56
 30  \w    -42.00 -16.00   0.50    0.05    --   -2.81 -38.00  30.00   52
 31  \w    -65.00 -39.00   0.50    0.05    --   -2.81 -45.00 115.00   52
 32  \w   -126.00 -92.00   0.50    0.08    --  -76.40 -45.00 115.00   68
 33  \w    -54.00 -28.00   0.50    0.08    --  -76.40  77.00  60.00   52
 34  \w    -65.00 -14.00   0.50    0.08    --  -76.40  57.00  30.00  102
 35  \w    -98.00 -61.00   0.50    0.08    --  -76.40  77.00  60.00   74
 36  \w    -62.00  -5.00   0.50    0.08    --  -76.40  57.00 -30.00  114
 37  \w      1.00  68.00   0.50    0.05    --   -2.81  57.00-180.00  134
 38  \w    -13.00  20.00   0.50    0.05    --   -2.81  45.00 -94.00   66
 39  \w    -60.00  -4.00   0.50    0.08    --  -76.40  57.00-180.00  112
 40  \w    -51.00 -26.00   0.50    0.08    --  -76.40  45.00 -94.00   50
 41  \w    -65.00 -10.00   0.50    0.08    --  -76.40  77.00 -90.00  110
 42  \w   -100.00 -70.00   0.50    0.08    --  -76.40  77.00 -90.00   60
;
_diffrn_measurement_device       'four-circle diffractometer'
_diffrn_measurement_device_type  'ROD, Synergy Custom system, HyPix'
_diffrn_measurement_method       '\w scans'
_diffrn_orient_matrix_type
'CrysAlisPro convention (1999,Acta A55,543-557)'
_diffrn_orient_matrix_UB_11      0.2240153500
_diffrn_orient_matrix_UB_12      -0.0645733500
_diffrn_orient_matrix_UB_13      -0.0570273000
_diffrn_orient_matrix_UB_21      -0.1571599000
_diffrn_orient_matrix_UB_22      -0.1400144000
_diffrn_orient_matrix_UB_23      -0.0106531000
_diffrn_orient_matrix_UB_31      -0.1257433500
_diffrn_orient_matrix_UB_32      0.0592054500
_diffrn_orient_matrix_UB_33      -0.0875682000
_diffrn_radiation_monochromator  mirror
_diffrn_radiation_probe          x-ray
_diffrn_radiation_type           GaK\a
_diffrn_radiation_wavelength     1.3405
_diffrn_reflns_av_R_equivalents  0.1387
_diffrn_reflns_av_unetI/netI     0.0682
_diffrn_reflns_Laue_measured_fraction_full 0.995
_diffrn_reflns_Laue_measured_fraction_max 0.947
_diffrn_reflns_limit_h_max       5
_diffrn_reflns_limit_h_min       -5
_diffrn_reflns_limit_k_max       10
_diffrn_reflns_limit_k_min       -10
_diffrn_reflns_limit_l_max       16
_diffrn_reflns_limit_l_min       -16
_diffrn_reflns_number            3649
_diffrn_reflns_point_group_measured_fraction_full 0.973
_diffrn_reflns_point_group_measured_fraction_max 0.898
_diffrn_reflns_theta_full        53.543
_diffrn_reflns_theta_max         62.219
_diffrn_reflns_theta_min         6.037
_diffrn_source                   'micro-focus metaljet'
_exptl_absorpt_coefficient_mu    6.663
_exptl_absorpt_correction_T_max  1.00000
_exptl_absorpt_correction_T_min  0.45369
_exptl_absorpt_correction_type   multi-scan
_exptl_absorpt_process_details
;
CrysAlisPro 1.171.40.82a (Rigaku Oxford Diffraction, 2020)
Empirical absorption correction using spherical harmonics,
implemented in SCALE3 ABSPACK scaling algorithm.
;
_exptl_crystal_colour            'clear whiteish colourless'
_exptl_crystal_colour_lustre     clear
_exptl_crystal_colour_modifier   whiteish
_exptl_crystal_colour_primary    colourless
_exptl_crystal_density_diffrn    2.700
_exptl_crystal_description       block
_exptl_crystal_F_000             360
_exptl_crystal_size_max          0.13
_exptl_crystal_size_mid          0.12
_exptl_crystal_size_min          0.09
_refine_diff_density_max         1.757
_refine_diff_density_min         -1.328
_refine_diff_density_rms         0.352
_refine_ls_abs_structure_details
;
 Flack x determined using 410 quotients [(I+)-(I-)]/[(I+)+(I-)]
 (Parsons, Flack and Wagner, Acta Cryst. B69 (2013) 249-259).
;
_refine_ls_abs_structure_Flack   -0.05(13)
_refine_ls_extinction_method     none
_refine_ls_goodness_of_fit_ref   1.154
_refine_ls_hydrogen_treatment    constr
_refine_ls_matrix_type           full
_refine_ls_number_parameters     73
_refine_ls_number_reflns         981
_refine_ls_number_restraints     2
_refine_ls_restrained_S_all      1.153
_refine_ls_R_factor_all          0.0667
_refine_ls_R_factor_gt           0.0616
_refine_ls_shift/su_max          0.000
_refine_ls_shift/su_mean         0.000
_refine_ls_structure_factor_coef Fsqd
_refine_ls_weighting_details
'w=1/[\s^2^(Fo^2^)+(0.1099P)^2^+6.7729P] where P=(Fo^2^+2Fc^2^)/3'
_refine_ls_weighting_scheme      calc
_refine_ls_wR_factor_gt          0.1548
_refine_ls_wR_factor_ref         0.1764
_reflns_Friedel_coverage         0.887
_reflns_Friedel_fraction_full    0.950
_reflns_Friedel_fraction_max     0.847
_reflns_number_gt                950
_reflns_number_total             981
_reflns_threshold_expression     'I > 2\s(I)'
_iucr_refine_instructions_details
;
TITL abaf6-2_b.res in Cc
    abaf6-2.res
    created by SHELXL-2017/1 at 10:29:36 on 26-Oct-2020
REM Old TITL ABAF6-2 in Cc #9
REM SHELXT solution in Cc
REM R1 0.085, Rweak 0.057, Alpha 0.030, Orientation as input
REM Flack x = 0.394 ( 0.101 ) from Parsons' quotients
REM Formula found by SHELXT: N3 B1 F As
CELL 1.3405 4.445255 8.10983 12.746326 90 90 90
ZERR 4 0.000552 0.001015 0.001769 0 0 0
LATT -7
SYMM +X,-Y,0.5+Z
SFAC As B F H N O
DISP As -1.3047 0.817 6423.5234
DISP B 0.0073 0.003 27.1425
DISP F 0.0599 0.041 316.8464
DISP N 0.0253 0.0135 110.2408
DISP O 0.0412 0.025 193.4765
UNIT 4 4 4 16 4 16

L.S. 10
PLAN  10
SIZE 0.12 0.09 0.13
CONF
MORE -1
fmap 2
acta
OMIT -1 1 3
REM <olex2.extras>
REM <HklSrc "%.\\ABAF6-2.hkl">
REM </olex2.extras>

WGHT    0.109900    6.772900
FVAR       4.19226
AS1   1    0.590400    0.517061    0.640520    11.00000    0.00861    0.01345 =
         0.01446   -0.00107   -0.00095   -0.00123
F1    3    0.713561    0.825533    0.459758    11.00000    0.02254    0.03886 =
         0.01440   -0.00039    0.00648   -0.00331
O2    6    0.813006    0.872156    0.637701    11.00000    0.01410    0.02030 =
         0.01700    0.00258   -0.00071    0.00384
O3    6    0.424132    0.690001    0.590663    11.00000    0.01288    0.02951 =
         0.02644    0.00398   -0.00346    0.00166
N1    5    0.180639    0.651156    0.362169    11.00000    0.02000    0.03253 =
         0.01988   -0.00104   -0.00218    0.00739
AFIX   3
H1A   4    0.195069    0.655886    0.292579    11.00000   -1.20000
AFIX   3
H1B   4    0.014379    0.596656    0.379829    11.00000   -1.20000
H1C   4    0.340409    0.599116    0.388129    11.00000   -1.20000
H1D   4    0.172639    0.752926    0.388129    11.00000   -1.20000
AFIX   0

O0AA  6    0.360101    0.971673    0.548131    11.00000    0.01912    0.01216 =
         0.02444    0.00080    0.00248    0.00123
B1    2    0.579949    0.838284    0.558547    11.00000    0.00620    0.02757 =
         0.01972   -0.00669    0.00497    0.00901
O4    6    0.705065    0.531549    0.761676    11.00000    0.02307    0.03011 =
         0.02358    0.00072   -0.00888   -0.00465
HKLF 4




REM  abaf6-2_b.res in Cc
REM R1 =  0.0616 for     950 Fo > 4sig(Fo)  and  0.0667 for all     981 data
REM     73 parameters refined using      2 restraints

END  
     
WGHT      0.1099      6.7716 

REM Highest difference peak  1.757,  deepest hole -1.328,  1-sigma level  0.352
Q1    1   0.7158  0.3994  0.6302  11.00000  0.05    1.76
Q2    1   0.7114  0.6391  0.6344  11.00000  0.05    1.73
Q3    1   0.4744  0.6379  0.6485  11.00000  0.05    1.68
Q4    1   0.9622  0.9023  0.6462  11.00000  0.05    1.65
Q5    1   0.2960  0.7960  0.6308  11.00000  0.05    1.41
Q6    1   0.5008  0.5230  0.7753  11.00000  0.05    1.36
Q7    1   0.8825  0.7948  0.6517  11.00000  0.05    1.35
Q8    1   0.3531  0.7584  0.6478  11.00000  0.05    1.23
Q9    1   0.4949  0.6234  0.7318  11.00000  0.05    1.22
Q10   1   0.3956  1.0788  0.6197  11.00000  0.05    1.17

  REM The information below was added by Olex2.
  REM
  REM R1 = 0.0616 for 950 Fo > 4sig(Fo) and 0.0667 for all 3798 data
  REM n/a parameters refined using n/a restraints
  REM Highest difference peak 1.76, deepest hole -1.33
  REM Mean Shift 0, Max Shift 0.000.

  REM +++ Tabular Listing of Refinement Information +++
  REM R1_all = 0.0667
  REM R1_gt = 0.0616
  REM wR_ref = 0.1764
  REM GOOF = 1.154
  REM Shift_max = 0.000
  REM Shift_mean = 0
  REM Reflections_all = 3798
  REM Reflections_gt = 950
  REM Parameters = n/a
  REM Hole = -1.33
  REM Peak = 1.76
  REM Flack = -0.05(13)

  
;
_cod_data_source_file            d1sc00080b2.cif
_cod_data_source_block           abaf6-2
_cod_depositor_comments          'Adding full bibliography for 1560198.cif.'
_cod_original_cell_volume        459.51(10)
_cod_database_code               1560198
_shelx_shelxl_version_number     2017/1
_chemical_oxdiff_formula         'As B O F N'
_shelx_space_group_comment
;
The symmetry employed for this shelxl refinement is uniquely defined
by the following loop, which should always be used as a source of
symmetry information in preference to the above space-group names.
They are only intended as comments.
;
_shelx_estimated_absorpt_t_max   0.585
_shelx_estimated_absorpt_t_min   0.478
_diffrn_oxdiff_digest_frames
;
01472c31066842c4bd022521fb0bc9d60703552600d
;
_diffrn_oxdiff_digest_hkl
;
01e1f19722a719c64ddb075bd860959445f1d3
;
_reflns_odcompleteness_completeness 100.00
_reflns_odcompleteness_iscentric 1
_reflns_odcompleteness_theta     56.82
_olex2_refinement_description
;
1. Fixed Uiso
 At 1.2 times of:
  All N(H,H,H,H) groups
2.a Riding coordinates:
 N1(H1A), N1(H1B,H1C,H1D)
;
_olex2_submission_special_instructions 'No special instructions were received'
_oxdiff_exptl_absorpt_empirical_details
;
Empirical correction (ABSPACK) includes:
- Absorption correction using spherical harmonics
- Frame scaling
;
_oxdiff_exptl_absorpt_empirical_full_max 4.723
_oxdiff_exptl_absorpt_empirical_full_min 0.266
loop_
_space_group_symop_operation_xyz
'x, y, z'
'x, -y, z+1/2'
'x+1/2, y+1/2, z'
'x+1/2, -y+1/2, z+1/2'
loop_
_atom_site_label
_atom_site_type_symbol
_atom_site_fract_x
_atom_site_fract_y
_atom_site_fract_z
_atom_site_U_iso_or_equiv
_atom_site_adp_type
_atom_site_occupancy
_atom_site_site_symmetry_order
_atom_site_calc_flag
_atom_site_refinement_flags_posn
_atom_site_refinement_flags_adp
_atom_site_refinement_flags_occupancy
_atom_site_disorder_assembly
_atom_site_disorder_group
As1 As 0.5904(6) 0.51706(15) 0.6405(3) 0.0122(5) Uani 1 1 d . . . . .
F1 F 0.714(2) 0.8255(14) 0.4598(8) 0.025(2) Uani 1 1 d . . . . .
O2 O 0.813(2) 0.8722(15) 0.6377(9) 0.017(2) Uani 1 1 d . . . . .
O3 O 0.424(3) 0.6900(16) 0.5907(9) 0.023(2) Uani 1 1 d . . . . .
N1 N 0.181(3) 0.651(2) 0.3622(12) 0.024(3) Uani 1 1 d . . . . .
H1A H 0.195069 0.655886 0.292579 0.029 Uiso 1 1 d R . . . .
H1B H 0.014379 0.596656 0.379829 0.029 Uiso 1 1 d R . . . .
H1C H 0.340409 0.599116 0.388129 0.029 Uiso 1 1 d R . . . .
H1D H 0.172639 0.752926 0.388129 0.029 Uiso 1 1 d R . . . .
O0AA O 0.360(3) 0.9717(13) 0.5481(11) 0.019(2) Uani 1 1 d . . . . .
B1 B 0.580(3) 0.838(2) 0.5585(14) 0.018(3) Uani 1 1 d . . . . .
O4 O 0.705(3) 0.5315(16) 0.7617(12) 0.026(3) Uani 1 1 d . . . . .
loop_
_atom_site_aniso_label
_atom_site_aniso_U_11
_atom_site_aniso_U_22
_atom_site_aniso_U_33
_atom_site_aniso_U_23
_atom_site_aniso_U_13
_atom_site_aniso_U_12
As1 0.0086(7) 0.0135(7) 0.0145(7) -0.0011(15) -0.0009(5) -0.0012(14)
F1 0.023(4) 0.039(6) 0.014(4) 0.000(4) 0.006(3) -0.003(4)
O2 0.014(5) 0.020(5) 0.017(5) 0.003(4) -0.001(4) 0.004(4)
O3 0.013(5) 0.030(6) 0.026(6) 0.004(5) -0.003(4) 0.002(4)
N1 0.020(6) 0.033(8) 0.020(6) -0.001(6) -0.002(5) 0.007(6)
O0AA 0.019(6) 0.012(5) 0.024(6) 0.001(4) 0.002(5) 0.001(4)
B1 0.006(6) 0.028(9) 0.020(8) -0.007(7) 0.005(6) 0.009(6)
O4 0.023(6) 0.030(7) 0.024(7) 0.001(5) -0.009(5) -0.005(5)
loop_
_atom_type_symbol
_atom_type_description
_atom_type_scat_dispersion_real
_atom_type_scat_dispersion_imag
_atom_type_scat_source
As As -1.3047 0.8170 'International Tables Vol C Tables 4.2.6.8 and 6.1.1.4'
B B 0.0073 0.0030 'International Tables Vol C Tables 4.2.6.8 and 6.1.1.4'
F F 0.0599 0.0410 'International Tables Vol C Tables 4.2.6.8 and 6.1.1.4'
H H 0.0000 0.0000 'International Tables Vol C Tables 4.2.6.8 and 6.1.1.4'
N N 0.0253 0.0135 'International Tables Vol C Tables 4.2.6.8 and 6.1.1.4'
O O 0.0412 0.0250 'International Tables Vol C Tables 4.2.6.8 and 6.1.1.4'
loop_
_geom_angle_atom_site_label_1
_geom_angle_atom_site_label_2
_geom_angle_atom_site_label_3
_geom_angle
_geom_angle_site_symmetry_1
_geom_angle_site_symmetry_3
_geom_angle_publ_flag
O2 As1 O3 104.2(6) 3_445 . ?
O2 As1 O0AA 110.0(6) 3_445 3_545 ?
O3 As1 O0AA 102.9(6) . 3_545 ?
O4 As1 O2 107.2(6) . 3_445 ?
O4 As1 O3 115.4(7) . . ?
O4 As1 O0AA 116.5(7) . 3_545 ?
B1 O2 As1 130.7(11) . 3 ?
B1 O3 As1 125.5(10) . . ?
B1 O0AA As1 124.1(11) . 3_455 ?
F1 B1 O2 109.4(12) . . ?
F1 B1 O3 113.4(13) . . ?
F1 B1 O0AA 104.9(14) . . ?
O3 B1 O2 107.3(13) . . ?
O3 B1 O0AA 108.7(12) . . ?
O0AA B1 O2 113.2(13) . . ?
loop_
_geom_bond_atom_site_label_1
_geom_bond_atom_site_label_2
_geom_bond_distance
_geom_bond_site_symmetry_2
_geom_bond_publ_flag
As1 O2 1.704(12) 3_445 ?
As1 O3 1.708(12) . ?
As1 O0AA 1.720(13) 3_545 ?
As1 O4 1.630(14) . ?
F1 B1 1.396(18) . ?
O2 B1 1.472(19) . ?
O3 B1 1.45(2) . ?
O0AA B1 1.464(19) . ?
loop_
_geom_torsion_atom_site_label_1
_geom_torsion_atom_site_label_2
_geom_torsion_atom_site_label_3
_geom_torsion_atom_site_label_4
_geom_torsion
_geom_torsion_site_symmetry_1
_geom_torsion_site_symmetry_2
_geom_torsion_site_symmetry_3
_geom_torsion_site_symmetry_4
_geom_torsion_publ_flag
As1 O2 B1 F1 50.5(19) 3 . . . ?
As1 O2 B1 O3 173.9(9) 3 . . . ?
As1 O2 B1 O0AA -66.1(17) 3 . . . ?
As1 O3 B1 F1 79.2(15) . . . . ?
As1 O3 B1 O2 -41.8(16) . . . . ?
As1 O3 B1 O0AA -164.6(11) . . . . ?
As1 O0AA B1 F1 169.1(10) 3_455 . . . ?
As1 O0AA B1 O2 -71.6(16) 3_455 . . . ?
As1 O0AA B1 O3 47.5(17) 3_455 . . . ?
O2 As1 O3 B1 -167.7(12) 3_445 . . . ?
O0AA As1 O3 B1 -52.9(13) 3_545 . . . ?
O4 As1 O3 B1 75.0(13) . . . . ?
loop_
_refln_index_h
_refln_index_k
_refln_index_l
_refln_F_squared_meas
_refln_F_squared_sigma
_refln_scale_group_code
0 0 -16 28748.4 2125.89 35
0 0 -15 -45.5041 335.924 35
0 0 -15 40.2359 325.384 34
0 0 -14 40643.2 2849.94 35
0 0 -14 51727.8 3113.79 34
0 0 -13 37.681 190.031 26
0 0 -13 47.9368 428.576 34
0 0 -13 198.894 341.729 35
0 0 -12 78203 2705.74 26
0 0 -12 88442.6 3995.3 34
0 0 -11 105.663 220.124 26
0 0 -11 119.045 354.774 34
0 0 -10 198757 5997.86 34
0 0 -10 186926 4800.32 26
0 0 -9 50.2408 469.145 33
0 0 -9 27.2092 288.764 34
0 0 -9 -44.3349 203.129 26
0 0 -8 110310 3635.16 34
0 0 -8 113910 2985.05 26
0 0 -7 571.9 441.541 33
0 0 -7 125.577 225.675 27
0 0 -7 82.4576 163.464 7
0 0 -7 -46.5451 170.369 26
0 0 -6 161508 3909.34 19
0 0 -6 159340 3833.51 7
0 0 -6 169663 4060.38 27
0 0 -5 -9.8231 158.879 27
0 0 -5 -45.7096 298.658 33
0 0 -5 24.6193 126.115 19
0 0 -5 70.7576 196.609 30
0 0 -5 205.704 155.849 26
0 0 -4 228889 5034.5 30
0 0 -3 -18.4379 134.975 30
0 0 -2 406904 7299.43 30
0 0 1 20.4722 34.1459 29
0 0 2 399450 7065.35 29
0 0 3 21.5274 105.062 29
0 0 4 229822 4734.46 29
0 0 5 -11.7758 109.962 29
0 0 6 170780 4115.55 29
0 0 7 -8.69432 129.433 20
0 0 9 -33.6994 233.817 3
0 0 10 109995 3343.26 3
0 0 11 -39.152 204.377 3
0 0 12 46601.8 2064.91 3
0 0 12 74410.5 3748.46 14
0 0 13 -44.3882 770.819 14
0 0 14 23655.5 2075.1 14
0 0 15 -74.2097 670.962 14
0 0 15 -121.736 1657.11 13
0 0 16 16769.5 3073.06 13
0 2 -16 16306.3 1584.27 35
0 -2 -16 16511.2 1512.49 35
0 -2 -15 1249.98 543.04 34
0 -2 -15 752.514 436.752 35
0 2 -15 1020.52 514.69 35
0 2 -14 38125.6 2588.75 34
0 2 -14 32187.5 2513.27 35
0 -2 -14 40172.4 2527.32 34
0 2 -13 4650.06 1013.33 35
0 -2 -13 5050.89 921.294 34
0 -2 -13 7528.79 1509.5 33
0 -2 -13 4391.32 599.838 26
0 2 -13 4220.96 582.429 26
0 2 -13 5367.49 1061.72 34
0 -2 -12 50331.7 2811.07 34
0 2 -12 49620.6 3137.62 34
0 2 -12 45704.8 1974.02 26
0 -2 -12 42842 1964.64 26
0 2 -11 2192.61 396.937 36
0 2 -11 2097.47 511.88 27
0 2 -11 2692.42 477.071 26
0 -2 -11 2217.38 482.46 26
0 2 -11 2102.82 674.375 35
0 2 -11 2969.13 811.416 34
0 -2 -10 69752.7 2833.24 7
0 2 -10 96011.7 2894.58 26
0 2 -10 79375.9 2669.01 36
0 -2 -10 100340 3266.7 26
0 2 -10 80303.6 2985.11 27
0 2 -10 91066.3 4002.49 34
0 2 -10 89591.8 3898.08 35
0 2 -9 3938.12 727.907 35
0 -2 -9 3280.82 556.685 26
0 2 -9 3235.95 775.164 34
0 -2 -9 3026 529.868 7
0 2 -9 3472.61 487.59 36
0 2 -9 3778.42 510.285 26
0 2 -9 3440.29 577.887 27
0 2 -8 166076 5223.74 34
0 -2 -8 149345 4202.42 7
0 -2 -8 161306 4262.52 26
0 2 -8 166749 4144.17 36
0 2 -8 169500 4392.18 27
0 2 -8 180560 4092.23 26
0 -2 -8 151054 4101.13 6
0 2 -8 155672 4869.39 35
0 2 -7 7662.05 897.036 34
0 2 -7 7270.05 823.275 35
0 2 -7 7811.6 682.972 27
0 -2 -7 6393.93 655.894 7
0 -2 -7 6259.68 636.822 19
0 2 -7 7975.13 666.965 36
0 -2 -7 6466.38 627.868 6
0 -2 -7 5555.3 1036.8 30
0 2 -7 7790.4 606.734 26
0 -2 -7 7088.75 673.727 26
0 2 -6 67979.5 2542.6 34
0 2 -6 67661.2 1882.42 26
0 2 -6 67882.1 2044.4 36
0 2 -6 59441.9 2275.35 35
0 -2 -6 62939.2 2065.65 7
0 -2 -6 56340 2011.91 26
0 2 -6 64199.3 1974.05 27
0 -2 -6 58110 3091.94 30
0 -2 -6 57702.4 1950.44 19
0 -2 -6 56287.8 1914.21 6
0 2 -5 21183.4 1133.7 35
0 -2 -5 24164.4 1041.31 19
0 -2 -5 22404.1 1670.43 30
0 2 -5 21770.4 882.653 38
0 2 -5 26368.4 1091.05 36
0 2 -5 25191.6 932.741 26
0 2 -5 23289.4 972.455 27
0 2 -4 41868.9 1525.15 35
0 2 -4 50316.2 1483.7 36
0 -2 -4 49036 1466.96 7
0 -2 -4 48516 1408.25 19
0 2 -4 21916.6 1297.2 34
0 2 -4 46998.3 1249.29 26
0 2 -4 48878.3 1455.37 38
0 2 -4 21349.5 1749.16 41
0 2 -3 34348.6 1232.24 38
0 -2 -3 30130.6 1681.08 30
0 -2 -3 32341.7 1098.3 7
0 -2 -2 215123 4887.87 30
0 2 -2 184998 3153.41 37
0 2 -1 3839.65 315.083 29
0 -2 -1 3303.27 489.352 30
0 2 -1 3593.62 174.381 37
0 -2 0 157435 3488.3 28
0 -2 0 159524 3887.95 30
0 2 0 180267 3749.52 29
0 2 0 185890 3529.46 28
0 -2 1 3709.77 347.999 28
0 -2 1 3880.27 401.889 30
0 2 1 4233.71 390.566 28
0 2 2 209180 4567.07 28
0 -2 2 233576 4481.95 28
0 2 3 35015.9 1271.15 38
0 -2 3 34800.7 1212.17 28
0 2 3 33449.3 1567.56 29
0 -2 4 55447.5 1871.63 28
0 2 4 49421.1 2174 29
0 2 4 50666.1 1677.29 38
0 2 5 64002.1 2356.02 14
0 2 5 22936.4 1465.15 29
0 2 5 23531.4 932.308 38
0 2 5 84196.4 4976.73 13
0 -2 5 28832.6 1301.62 28
0 -2 6 59417.1 1204.82 37
0 -2 6 59374 1183.11 37
0 2 6 59736.1 1778.57 3
0 2 7 7716.29 934.336 29
0 2 7 6605.6 560.894 3
0 -2 7 7817.96 785.82 28
0 2 8 139373 3544.74 3
0 2 8 195900 5536.38 14
0 2 9 7942.86 1305.73 14
0 2 10 75788.6 3601.72 14
0 2 10 63209.5 6905.16 13
0 2 11 3669.81 2252.31 13
0 2 11 5184.45 1310.78 14
0 2 12 37432.5 4883.83 13
0 2 12 45227.1 2961.06 14
0 2 13 2314.81 2420.13 13
0 -2 13 2001.98 490.181 3
0 2 13 5029.84 1448.96 14
0 2 14 54395.7 5463.7 13
0 2 14 39660.6 2784.92 14
0 2 15 2276.07 1866.03 13
0 -2 15 36.7331 703.673 14
0 2 16 12180.8 803.783 16
0 2 16 25670.9 3336.42 13
0 -4 -14 12402.6 1268.39 34
0 4 -14 12827.9 1555.93 35
0 4 -13 7586.45 1273.75 35
0 -4 -13 7429.09 1050.32 34
0 4 -12 17539.4 1207.31 36
0 4 -12 18931.3 1949.76 35
0 4 -12 16294.6 1263.29 27
0 4 -11 13401.8 1089.64 36
0 4 -11 12491.8 1110.11 27
0 -4 -11 10706.9 1108.63 7
0 -4 -11 13908.2 1212.5 26
0 4 -11 14261.2 1655.31 35
0 -4 -10 27795.7 1747.2 7
0 -4 -10 28342.5 1700.13 6
0 4 -10 34440.3 2469.15 35
0 4 -10 33334.6 1745.41 36
0 4 -10 31750.9 1766.48 27
0 -4 -10 30977 1785.95 26
0 4 -9 17941 1276.33 27
0 4 -9 18562 1262.68 36
0 4 -9 16731.5 1603.02 35
0 -4 -9 14501.5 1171.87 6
0 -4 -9 15443.1 1196.31 26
0 4 -8 59681.3 2158.39 27
0 4 -8 58602.4 2226.04 36
0 -4 -8 46097.4 2079.32 26
0 4 -8 57498.4 2800.93 35
0 -4 -8 48358.6 2066.82 6
0 4 -7 24904.6 1381.72 36
0 4 -7 24943.8 1700.16 35
0 -4 -7 23897.9 1403.03 7
0 4 -7 24115.2 1239.37 27
0 -4 -7 21505.3 1304.94 6
0 4 -6 35161.2 1904.6 35
0 -4 -6 28825.7 1442.64 23
0 4 -6 40875.3 1717.1 36
0 4 -6 34129.5 1412.29 27
0 4 -6 34720.6 1610.89 38
0 -4 -6 39558.5 1733.03 7
0 -4 -6 29944.8 1360.54 5
0 -4 -6 34888.9 1572.02 19
0 4 -5 35392.8 1754.59 35
0 4 -5 39108.2 1739.98 38
0 4 -5 34070.8 1187.03 12
0 -4 -5 30657.9 1476.93 23
0 4 -5 38692.4 1578.01 36
0 -4 -5 31357.5 1409.31 5
0 -4 -5 40668.7 1628.62 7
0 -4 -5 36747.7 1454.33 19
0 4 -4 20536.1 1314.91 38
0 -4 -4 15497.9 995.424 5
0 -4 -4 19488.5 986.851 19
0 -4 -4 15305.5 1064.04 23
0 -4 -4 18344.7 1891.2 30
0 -4 -4 20509.2 1118.83 7
0 4 -4 18042.8 798.732 12
0 -4 -3 6790.47 629.915 4
0 4 -3 9265.74 685.433 36
0 4 -3 9098.68 506.642 12
0 -4 -3 10240.8 1330.57 30
0 -4 -3 10440.9 722.657 7
0 -4 -3 9564.33 610.956 19
0 -4 -3 7481.68 701.094 5
0 4 -3 10623.4 940.527 38
0 4 -2 116079 3436.18 38
0 -4 -2 111355 2629.64 7
0 4 -2 85614.6 2053.51 12
0 -4 -2 73096 2611.42 5
0 4 -2 98979 2558.1 36
0 4 -2 94183 1870.73 37
0 -4 -2 110495 4300.04 30
0 -4 -2 111257 3036.95 9
0 4 -1 16139.6 583.338 12
0 4 -1 16184.4 786.407 36
0 4 -1 20714.5 1062.42 29
0 4 -1 18172.1 580.723 37
0 -4 -1 20905.2 1675.83 30
0 -4 -1 14823.9 1001.12 5
0 -4 -1 20137.8 1089.94 9
0 4 0 61209.7 1431.88 36
0 -4 0 69352.7 1999.28 9
0 4 0 75190.9 2473.76 38
0 4 0 68353.9 1293.31 37
0 -4 0 58366 2025.87 28
0 4 0 71630.6 1955.01 28
0 -4 0 66728.3 2741.52 30
0 4 0 73385.4 2252.64 29
0 4 1 19396.5 1296.19 38
0 -4 1 16877.5 1114.57 28
0 4 1 21287.9 1169.02 28
0 4 1 21034 1340.43 29
0 -4 1 19953.3 1085.8 9
0 4 1 16544.2 791.344 36
0 -4 1 16204.5 1100.98 5
0 -4 2 118614 3048.28 9
0 4 2 101034 2431.72 16
0 4 2 114850 3522.03 38
0 4 2 106005 3156.47 28
0 4 2 105862 2182.66 17
0 -4 2 100728 3173.05 28
0 4 2 107722 3654.89 29
0 -4 3 11017.1 923.482 28
0 4 3 10971.4 604.044 16
0 4 3 11705 1136.16 29
0 4 3 13064.3 1033.57 38
0 -4 3 14466.4 906.316 9
0 4 3 11557.9 932.382 28
0 -4 4 15779.8 1116.08 23
0 -4 4 20978.8 1332.3 28
0 -4 4 23310.3 1149.02 9
0 4 4 18812.2 1260.75 28
0 4 4 20775.3 1305.31 38
0 4 4 17959.4 841.94 16
0 4 5 40481.3 1787.78 38
0 4 5 37769.6 1364.47 16
0 -4 6 30648.5 1507.42 23
0 4 6 38411.8 1479.38 16
0 4 6 33293.5 4398.41 13
0 4 7 23615.5 1186.38 16
0 -4 7 22083.6 1428 5
0 4 8 11742.1 3576.27 13
0 4 8 54115.8 1957.89 16
0 4 9 16703.6 1095.41 16
0 4 9 269.376 2189.54 13
0 -4 10 22131.1 1728.27 4
0 4 10 28785.3 1480.46 16
0 4 11 3890.36 2400.84 13
0 4 11 11924.4 963.216 16
0 4 12 16927.7 1131.88 16
0 4 12 4787.36 2500.84 13
0 4 13 1034.77 1958.36 13
0 4 13 4937.69 571.206 16
0 4 14 7737.19 660.246 16
0 -4 14 5816.03 750.054 3
0 4 15 2959.86 1764.5 13
0 4 15 2776.76 363.814 16
0 -6 -13 11515 1534.54 33
0 -6 -12 41685.4 3164.65 33
0 6 -11 3859.77 625.419 27
0 -6 -11 3595.43 624.708 26
0 6 -11 5073.03 723.517 36
0 -6 -10 24762.4 1671.38 6
0 -6 -10 26282.7 1629.12 26
0 -6 -10 24011.4 1671.15 7
0 6 -10 33130.3 1845.28 36
0 6 -10 30425.5 1726.55 27
0 6 -9 27483 1698.72 36
0 6 -9 25729.7 1554.12 27
0 -6 -9 20067.4 1523.84 6
0 -6 -9 19130.8 1422.8 26
0 -6 -9 21785.2 1569.87 7
0 -6 -8 13753.7 1262.41 6
0 6 -8 18652.7 1399.96 36
0 -6 -8 12072.4 1173.28 26
0 -6 -8 15386.6 1331.53 7
0 6 -8 16690.7 1206.18 27
0 -6 -7 26347 1701.66 6
0 6 -7 30264.5 1561.71 27
0 -6 -7 31147.5 1835.34 7
0 6 -7 36306.7 1931.53 36
0 -6 -7 23908.5 1401.32 5
0 -6 -6 22901 1438.8 5
0 -6 -6 22061.3 1570.35 23
0 -6 -6 30701.6 1757.11 7
0 6 -6 27462.1 1411.28 27
0 -6 -5 29164.4 1778.86 5
0 6 -5 34916.3 1468.3 12
0 6 -5 37724.3 1883.75 36
0 -6 -5 30380.4 1947.93 23
0 -6 -5 39943.5 1973.99 7
0 -6 -4 28889.7 1813.49 5
0 6 -4 36813.2 1823.92 36
0 6 -4 36253.2 1433.62 12
0 -6 -4 31307 2018 23
0 -6 -4 37763.2 1839.8 7
0 6 -4 36406.8 3656 41
0 -6 -3 35886.5 2182.29 23
0 -6 -3 35297.2 2028.63 5
0 6 -3 39543.1 1426.82 12
0 6 -3 44092.2 1887.17 36
0 -6 -3 34566.2 1881.31 4
0 -6 -3 45372.6 1937.08 7
0 -6 -2 44405.4 2500.45 23
0 -6 -2 44391.4 2304.17 5
0 -6 -2 40905.9 2266.68 4
0 -6 -2 58725.9 2140.54 7
0 6 -2 56124.9 2122.71 36
0 6 -2 50039.5 1617.14 12
0 6 -1 63834.3 2136.25 36
0 -6 -1 66660.4 2113.03 7
0 6 -1 57454.3 1606.67 12
0 -6 -1 44219.6 2251.73 5
0 -6 -1 49636.4 2503.63 4
0 -6 0 166887 3894.05 7
0 6 0 112622 6054.45 41
0 -6 0 139094 4889.6 23
0 -6 0 178484 4986.36 9
0 6 0 146303 3398.02 12
0 -6 1 58265.4 2859.66 23
0 -6 1 56343.2 2695.45 5
0 -6 2 45748.8 2620.8 23
0 -6 2 45369 2507.15 5
0 -6 3 39533.5 2262.21 23
0 -6 3 40397.8 2335.96 5
0 -6 4 34721.2 2113.57 23
0 6 4 38950.9 1637.24 11
0 -6 4 34073 2173.61 5
0 -6 4 41735.6 1958.83 9
0 -6 5 33718.5 2022.6 23
0 -6 5 35824.2 2259.04 5
0 -6 6 24254 1642.61 23
0 -6 6 25966.3 1868.47 5
0 -6 7 26555.7 1883.64 5
0 6 7 30976.8 1370.31 16
0 -6 8 12315.6 1574.77 4
0 -6 8 13087.6 1305.37 5
0 6 8 14674.7 942.158 16
0 6 9 22395.9 1166.92 16
0 -6 9 19790.7 1923.34 4
0 6 10 29437.3 1321.02 16
0 -6 10 26559.3 2132.86 4
0 -6 11 3036.99 732.085 4
0 6 11 4318.27 516.22 16
0 6 12 18194 1023.06 16
0 6 13 6500.31 560.205 16
0 -8 -9 12683.3 1086.52 26
0 -8 -9 14031.4 1247.69 6
0 -8 -8 24239.6 1603.75 7
0 -8 -8 21759 1533.02 26
0 -8 -8 23783.5 1666.92 6
0 -8 -7 30277.8 1979.75 6
0 -8 -7 31551.6 1896.03 7
0 -8 -6 13927 1190.13 5
0 -8 -6 16130.8 1338.06 7
0 -8 -5 14706.7 1480.41 23
0 8 -5 18995.1 1233.56 27
0 -8 -5 19125.7 1453.72 7
0 -8 -5 15076.3 1338.53 5
0 -8 -5 19258.5 1565.65 6
0 -8 -4 18924.3 1796.1 23
0 -8 -4 18753.5 1607.32 5
0 8 -3 31247.8 1422.46 12
0 -8 -3 29021.3 2261.59 23
0 8 -2 26866.1 3665.02 41
0 -8 -2 23542.1 1982.46 5
0 -8 -2 18757.9 1917.96 23
0 8 -2 23767 1219.98 12
0 -8 -2 20570.9 1912.25 4
0 -8 -1 18802.7 2105.3 4
0 8 -1 16240.8 972.885 12
0 -8 -1 17912.7 1813.33 5
0 -8 0 15904.5 1782.59 23
0 8 0 19796.6 2986.81 41
0 8 0 15309.6 924.813 12
0 -8 0 18098.2 2171.79 4
0 -8 1 16531.4 1811.02 23
0 -8 1 18369.2 2222.53 4
0 8 1 17163.9 955.206 12
0 -8 1 20751 1984.71 5
0 -8 2 22543.3 2453.95 4
0 8 2 24950 1209.13 12
0 -8 2 25607.6 2233.82 5
0 -8 2 24746.3 2212.8 23
0 -8 3 28793.5 2692.66 4
0 -8 3 31200.4 2441.39 23
0 -8 3 32085.1 2421.16 5
0 8 3 34942.1 1451.71 12
0 -8 4 22187.6 2022.54 23
0 8 4 26037.8 1233.99 12
0 -8 4 19455 2340.54 4
0 -8 4 23895.9 2077.49 5
0 -8 5 16365.8 1626.23 23
0 -8 5 18113.5 1816.19 5
0 -8 6 18286.2 2169.78 4
0 -8 6 19681.6 1826.82 5
0 8 7 37708.3 1858.54 11
0 -8 7 33556.9 2316.89 5
0 -8 7 32285.9 2844.5 4
0 -8 8 24471.3 2300.81 4
0 8 8 26728.5 1499.83 11
0 -8 8 23843.9 1779.39 5
0 8 9 15717.4 1088.99 11
0 -8 9 15626.2 1799.36 4
0 -8 10 18366.4 1714.74 4
0 8 10 16632.4 1055.02 11
0 -10 -4 5767 857.218 6
0 10 -4 5704.8 472.211 40
0 -10 -3 6923.69 916.304 5
0 -10 -3 7059.23 947.54 6
0 -10 -2 7919.25 1006.76 6
0 -10 -2 6238.3 974.43 5
0 -10 -1 10836.8 1297.66 5
0 -10 -1 12848.7 1246.68 6
0 -10 0 2380.94 709.22 5
0 -10 0 2764.23 623.092 6
0 -10 2 11572.1 1463.61 4
0 -10 2 7385.35 1219.76 5
0 -10 3 8135.27 1258.87 5
0 -10 3 8972.53 1665.1 4
0 -10 4 4629.36 1616.49 4
0 10 4 5258.73 419.118 40
0 -10 4 4859.56 1047.5 5
1 1 -16 19636.9 1719.57 35
-1 1 -16 27659.9 1907.46 35
1 -1 -16 16473.6 1510.94 35
-1 -1 -16 32725.9 2109.87 35
1 -1 -16 11504.7 1342.48 34
-1 -1 -15 1351.25 368.635 26
1 1 -15 1003.73 492.324 35
-1 -1 -15 1111.75 514.862 35
1 -1 -15 587.466 479.797 34
-1 1 -15 870.575 487.315 35
-1 1 -15 1014.69 326.422 26
1 -1 -15 372.317 361.629 35
1 1 -15 593.431 468.784 34
1 -1 -14 11539.1 1517.7 35
1 1 -14 19742.4 2088.18 34
1 1 -14 14606.1 1716.81 35
1 -1 -14 17670.6 1943.74 34
-1 -1 -14 57903.2 2231.56 26
-1 1 -14 51000.5 2161.1 26
-1 1 -14 44122.6 2828.66 35
1 -1 -13 1986.98 673.844 35
1 1 -13 3373.31 950.833 34
1 -1 -13 3001.53 851.725 34
1 1 -13 2677.07 781.864 35
-1 -1 -13 6460.12 807.213 26
-1 1 -13 3752.86 864.683 35
-1 1 -13 5450.91 761.737 26
-1 -1 -13 8917.64 1614.49 33
-1 -1 -12 38126.4 2259.34 34
1 -1 -12 35263.7 2503.29 34
-1 1 -12 31079.2 2418 35
-1 -1 -12 39456.5 2042.05 26
1 1 -12 32203.3 1722.67 36
-1 1 -12 32105.1 2174.13 34
1 1 -12 33788.6 2505.77 35
1 -1 -12 30018.4 2336.83 35
-1 1 -12 34483.1 1905.9 26
-1 -1 -11 10490.6 1099.3 34
-1 1 -11 8382.64 929.14 27
-1 1 -11 9793.45 922.899 26
1 1 -11 2399.14 679.536 35
-1 1 -11 8868.33 1119.73 34
-1 -1 -11 11076.3 1064.34 26
1 1 -11 2273.04 501.553 36
1 1 -11 3842.89 968.11 34
-1 -1 -10 56715.8 2556.14 34
-1 1 -10 46097.5 2489.22 34
-1 1 -10 40785.6 2105.84 27
1 -1 -10 51944.6 2282.94 19
1 -1 -10 52060.6 2117.88 7
1 1 -10 72305.1 3353.19 35
-1 -1 -10 61330.7 2614.49 26
-1 1 -10 52542.4 2238.67 26
1 1 -10 77113.3 2730.04 36
-1 1 -9 7030.15 878.816 34
-1 -1 -9 10479.1 986.319 34
1 1 -9 1785.08 408.969 19
1 -1 -9 1214.53 362.798 7
1 1 -9 1919.72 528.651 35
-1 1 -9 9954.61 864.749 26
-1 -1 -9 13298.3 1152.57 26
1 -1 -9 1296.92 378.181 19
-1 1 -9 9011.34 900.768 27
-1 1 -9 5484.97 1043.81 33
1 -1 -9 2940.8 808.979 33
1 1 -9 1971.26 398.634 2
1 -1 -8 154660 3588.57 2
1 1 -8 194103 3867.38 19
-1 -1 -8 85186.5 3477.68 25
-1 1 -8 70424.9 3284.51 34
1 -1 -8 168141 3738.32 7
1 -1 -8 130409 4773.03 30
1 1 -8 188175 3771.46 2
-1 -1 -8 121778 3854.12 26
-1 1 -8 97833.1 3338.48 26
1 1 -8 206703 5015.26 35
1 -1 -8 314031 7073.3 33
1 -1 -8 165266 3780.52 19
-1 1 -8 66130.1 3953.68 33
-1 1 -7 1379.91 599.407 33
1 1 -7 29983.5 1619.34 34
1 -1 -7 20756.9 968.045 2
1 -1 -7 19731.8 994.534 19
1 1 -7 23829.4 757.698 26
1 1 -7 23342.3 981.55 2
1 -1 -7 35298.9 2140.12 33
-1 -1 -7 2186.9 501.64 26
1 1 -7 21390 1325.66 35
-1 1 -7 1119.65 393.757 34
1 -1 -7 19639.1 975.994 7
-1 -1 -7 1283.39 462.732 25
1 1 -7 22266.3 978.229 19
-1 1 -7 1445.03 350.013 25
-1 1 -7 113.754 817.155 41
1 1 -6 130170 2840.34 19
1 -1 -6 82862.6 3047.75 31
1 1 -6 117979 3386.85 35
-1 1 -6 38351 3563.48 41
-1 1 -6 138066 2492.16 39
1 -1 -6 177287 4673.2 33
1 1 -6 114529 2833.04 27
1 1 -6 107662 3058.43 29
-1 1 -6 80301.8 3607.4 33
-1 1 -6 71882 2780.67 34
1 -1 -6 103293 2779.63 7
1 1 -6 138114 2873.3 2
-1 1 -6 172161 3392.53 25
-1 -1 -6 184351 3600.73 27
1 -1 -6 94849.9 3536.21 29
1 1 -6 165915 3938.25 34
1 -1 -6 111397 2742.64 2
1 -1 -5 57719.6 1482.34 38
-1 -1 -5 23162.7 1154.14 27
-1 1 -5 11542.8 1724.71 41
-1 1 -5 21367.5 1118.63 25
1 -1 -5 95013.8 2846.8 33
-1 -1 -5 25675.1 1304.73 26
1 1 -5 82974.9 1602.37 19
-1 1 -5 23473.9 1128.08 26
1 -1 -5 56722 2161.21 29
-1 1 -5 6343.1 1012.21 33
1 1 -5 65841.3 1950.39 35
1 1 -5 67812.2 1808.22 29
1 1 -5 91068.3 2366.1 34
-1 1 -5 17830.9 763.887 39
1 -1 -5 66875.4 1486.07 2
1 1 -5 84018.9 1588.42 2
1 1 -5 70109 1536.01 27
-1 1 -4 153896 3016.4 27
1 -1 -4 97003.3 2782.12 38
1 1 -4 142150 3305.39 34
1 -1 -4 115050 2659.11 2
-1 1 -4 174985 3160.29 26
1 -1 -4 96025.7 3289.65 29
-1 -1 -4 188485 3315.26 27
-1 -1 -4 181681 3523.61 26
1 1 -4 122849 3142.15 35
1 -1 -4 108912 2820.72 8
1 -1 -3 3708.55 305.697 19
1 1 -3 4811.03 272.545 37
-1 -1 -3 42816.6 1279.33 26
-1 1 -3 41671.6 1008.87 26
1 -1 -3 3318.04 373.033 38
1 1 -2 329090 6296.75 37
-1 1 -2 440497 6634.76 28
-1 1 -1 33222.2 982.318 28
-1 -1 -1 43437.9 1083.96 28
1 -1 -1 57946.8 1255.53 37
1 1 -1 73309.1 1254.74 37
1 -1 0 158703 3355.83 37
-1 -1 0 180325 4951.15 31
-1 -1 0 197750 3346.18 28
1 1 0 158587 4744.81 31
1 1 0 185932 3461.77 37
1 1 1 49042.1 1163.33 28
-1 1 1 60338.9 1346.44 37
1 -1 2 206816 4768.16 28
1 -1 2 229840 4935.94 37
1 1 3 47119.9 971.547 28
1 -1 3 39182.5 1210.83 38
-1 1 3 45966.8 1813.71 14
1 -1 3 44533.7 1045.04 37
1 -1 3 39764 817.598 28
-1 1 4 120382 2823.76 37
1 -1 4 161843 3061.35 37
-1 1 4 107554 3070.47 3
1 1 4 154267 4259.62 30
1 -1 4 150290 3198.11 38
1 -1 4 152686 2833.07 28
-1 1 4 82780.1 2896.81 20
-1 -1 4 151379 2658.99 37
-1 1 5 69463.5 1558.78 37
1 -1 5 22711.9 1012.08 28
-1 -1 5 76309.8 1276.19 37
1 -1 5 20462.3 1021.88 38
1 -1 5 19467.3 983.378 37
-1 1 5 56209.3 1775.31 3
1 -1 5 17269.6 1135.23 30
-1 -1 5 66111.1 1836.06 4
1 1 5 22235.3 1554.23 30
-1 1 5 38617.1 1487.22 20
1 -1 6 176199 3284.02 28
-1 1 6 135320 4386.64 14
-1 1 6 103065 3172.49 3
1 -1 6 140513 3078.83 37
1 1 6 160425 4391.03 30
-1 1 6 72308.6 2786.2 20
1 -1 6 137280 3391.97 30
1 -1 6 95132.1 2971.42 31
-1 -1 6 105491 2912.53 4
-1 -1 6 131264 2541.82 37
-1 1 6 122424 2861.08 37
-1 1 7 21995.3 956.912 37
-1 -1 7 15379.8 969.087 20
1 -1 7 352.63 170.757 37
1 -1 7 810.647 282.38 28
1 -1 7 782.668 253.834 29
-1 1 7 14188.9 920.955 20
1 1 7 565.992 338.427 29
1 1 7 788.337 641.664 14
-1 1 7 17075.4 1085.69 3
-1 1 7 12093.7 1416.34 14
-1 -1 7 23144.4 732.545 37
-1 1 8 190618 3726.37 37
-1 1 8 249630 6390.47 14
1 1 8 79762.5 3689.02 29
1 1 8 86438.5 3645.53 14
-1 1 8 153908 3992.88 3
-1 1 8 131030 3580.19 20
-1 -1 8 143671 3766.17 20
-1 -1 9 933.898 356.752 20
-1 1 9 1449.06 440.975 3
-1 1 9 4271.79 1249.73 14
1 1 9 5704.72 996.236 14
-1 1 9 1386.93 382.957 20
-1 -1 9 1199.36 443.935 3
-1 1 10 43347.6 1827.76 20
-1 -1 10 52667.6 2433.69 3
-1 -1 10 47805.2 2031.59 20
-1 1 10 48863.9 2185.42 3
1 1 11 2856.86 926.766 14
-1 -1 11 1627.15 429.515 20
-1 -1 11 2015.96 563.018 3
-1 1 11 1929.01 488.441 3
-1 -1 12 26504 1760.25 3
-1 1 12 24108.6 1549.37 3
1 -1 13 37.0551 685.301 14
1 1 13 3200.3 2302.08 13
-1 -1 13 2210.97 1212.71 14
-1 -1 13 1706.59 485.925 3
-1 1 13 4675.72 1364.38 14
-1 1 13 1612.54 442.394 3
-1 -1 14 10737.4 1036.73 3
1 1 14 51601.1 5056.05 13
-1 -1 14 13726.7 1761.18 14
-1 1 14 40954.5 2898.24 14
1 -1 15 -301.216 1444.93 13
-1 1 15 1738.64 1049.83 14
-1 -1 15 342.705 743.954 14
1 1 15 -597.054 1456.94 13
-1 1 15 2288.01 2014.18 13
-1 -1 15 539.983 297.077 3
1 1 16 24440.6 1105.8 16
-1 1 16 28112 2390.91 14
-1 1 16 15344.4 2872.53 13
-1 -1 16 2203.97 1810.01 13
-1 -1 16 8765.21 1389.98 14
1 -3 -15 4254.23 814.442 34
1 3 -15 3497.79 867.628 35
-1 3 -15 2058.49 595.872 35
1 -3 -15 3744.38 733.528 35
1 -3 -14 20465.4 1801.99 35
-1 -3 -14 28733 1551.09 26
1 -3 -14 22372.5 1878.84 34
1 3 -14 24905 2237.49 35
-1 3 -14 32934.2 2365.31 35
1 -3 -13 5398.29 985.305 34
-1 3 -13 2473.52 717.007 35
1 3 -13 6915.69 1190.92 35
-1 3 -13 3607.97 668.946 27
-1 -3 -13 2684.57 573.798 26
1 3 -13 4608.5 638.772 36
-1 -3 -13 4255.64 1228.76 33
-1 3 -13 2964.51 556.606 26
1 3 -13 7278.44 1273.11 34
-1 3 -12 57730.1 2373.06 26
-1 3 -12 40387.2 2131.86 27
1 3 -12 29173.6 1773.59 36
-1 -3 -12 53106.4 2541.61 34
-1 -3 -12 58878.8 2648.01 26
1 -3 -12 35819.6 2541.57 34
1 3 -12 29189.6 2482.83 35
1 -3 -12 22607.7 1607.14 7
1 3 -12 39399.1 2939.77 34
-1 3 -12 50131.1 2959.48 35
-1 3 -11 2930.89 569.775 26
-1 -3 -11 6398.22 1461.7 33
-1 -3 -11 3649.23 684.549 26
1 3 -11 7410.32 1199.96 35
-1 3 -11 2754.36 611.412 27
1 3 -11 7732.39 1295.63 34
1 -3 -11 10926.9 1642.89 33
-1 3 -11 2908.99 744.174 35
1 3 -11 6075.37 808.915 36
1 -3 -11 5276.56 749.856 7
-1 -3 -10 58834.8 2664.08 26
1 -3 -10 215644 6979.9 33
1 3 -10 102771 4111.78 35
-1 3 -10 48358.8 2331.33 27
1 3 -10 120865 3576.06 36
-1 3 -10 57901 2366.05 26
1 -3 -10 85606.6 2966.07 19
1 -3 -10 93808 3030.39 7
1 3 -10 141170 5186.79 34
-1 3 -10 92.8171 1576.91 41
-1 3 -10 50900 2844.25 35
1 -3 -9 7822.88 848.326 7
1 3 -9 214.351 709.573 41
-1 3 -9 -660.435 1133.52 41
-1 3 -9 21579 1666.45 35
1 3 -9 11273.1 1066.45 36
1 -3 -9 7945.69 851.825 19
-1 -3 -9 17636.3 1333.28 26
-1 3 -9 22752.5 1343.42 26
-1 3 -9 18729 1281.99 27
1 3 -9 9417.57 813.057 27
-1 3 -9 20228.8 1073.31 36
1 -3 -9 22071.1 2153.89 33
1 3 -9 9169.83 1151.07 35
-1 3 -8 81403.4 2285 36
1 -3 -8 52191 1932.55 26
1 -3 -8 48505.1 2131.32 7
1 -3 -8 119802 4713.4 33
-1 3 -8 78265.6 3024.73 35
1 3 -8 914.535 2680.99 41
1 3 -8 48344.6 2563.31 35
1 3 -8 60580.6 2528.86 36
-1 3 -8 72428.2 2453.36 27
-1 3 -8 97095.2 2769.95 26
-1 -3 -8 81313.2 2875.33 26
1 3 -8 53827.6 1911.24 2
1 -3 -8 50567.6 2121.43 19
1 -3 -8 44649.1 1850.87 6
1 3 -8 52002.3 1989.81 27
-1 3 -7 22314 1421.02 35
1 3 -7 6545.51 763.174 36
1 3 -7 4240.28 702.778 35
1 -3 -7 12787.4 1429.33 33
-1 -3 -7 22232.4 1380.11 6
1 3 -7 5562.22 896.532 34
-1 3 -7 24023.9 1109.31 36
1 -3 -7 4638.44 618.59 7
-1 3 -7 21367.9 1155.8 27
1 -3 -7 4252.51 506.089 26
-1 -3 -7 19306 1260.01 26
1 3 -7 5046.14 562.006 27
-1 -3 -7 21461.9 1309.9 7
1 -3 -7 4736.7 583.249 19
1 3 -7 6400.21 557.991 2
-1 3 -7 -240.842 1022.02 41
-1 3 -6 110343 1844.46 40
1 -3 -6 58880.6 2212.61 19
-1 -3 -6 132353 3082.43 5
1 3 -6 61352.3 2844.11 34
1 3 -6 68082.4 2022.76 2
-1 -3 -6 98180 4037.45 31
-1 -3 -6 149847 3608.34 6
-1 3 -6 136531 2870.12 36
-1 -3 -6 138728 3377.58 7
-1 3 -6 8160.62 2272.11 41
1 3 -6 51986 2535.71 35
-1 3 -6 115548 2730.57 27
-1 3 -6 124492 3268.98 35
1 3 -6 66415 2167.97 27
1 3 -6 64151.8 1967.3 32
1 -3 -6 55626.4 2214.93 7
1 3 -5 7586.97 542.187 12
-1 3 -5 15680.8 842.778 36
1 -3 -5 7715.06 623.119 19
1 3 -5 8697.62 598.411 32
1 -3 -5 7847.9 558.576 2
-1 3 -5 13958.4 914.072 35
-1 3 -5 13139.9 485.069 40
-1 -3 -5 16603.9 1012.87 7
1 3 -5 8715.7 900.777 34
-1 3 -5 128.902 817.766 41
1 3 -5 6296.52 721.395 35
-1 -3 -5 11089.7 1322.19 31
1 3 -5 6469.29 338.566 29
1 3 -5 9464.42 545.319 2
1 3 -5 8488.48 569.597 27
-1 3 -5 15149 814.62 26
-1 -3 -5 15122.3 951.757 5
1 -3 -5 8406.61 738.355 9
1 3 -5 6157.82 393.41 30
1 -3 -4 58092.7 1727.19 2
1 -3 -4 41698 1710.24 5
1 3 -4 63790 2240.37 36
-1 3 -4 130839 2553.76 36
1 3 -4 47292.4 2124.98 35
-1 -3 -4 146712 2940.58 7
1 3 -4 57637.5 2350.88 34
1 3 -4 54720.7 1700.67 12
1 3 -4 57752.2 1906.4 32
1 3 -4 56990 2078.56 30
1 -3 -4 56236.5 2825.53 29
-1 3 -4 119596 2364.02 26
1 -3 -4 54404.2 2052.72 9
-1 -3 -4 146323 3115.05 6
-1 -3 -4 111854 2259.82 4
-1 -3 -4 138336 3056.68 5
-1 3 -4 74431 4326.33 41
1 3 -4 57230.9 1678 27
-1 -3 -4 95238.6 3911.71 31
-1 3 -4 103588 2424.46 35
1 -3 -4 61695.4 1899.7 19
-1 3 -3 11196.8 705.255 36
-1 -3 -3 18728.6 1018.58 6
-1 -3 -3 16176.8 884.075 7
1 3 -3 18585.6 1153.57 30
1 -3 -3 16291.2 1324.63 29
1 3 -3 16495.9 1041.24 34
1 -3 -3 16902.3 952.909 9
-1 -3 -3 11976.7 1399.48 31
1 3 -3 17191.8 866.123 32
-1 3 -3 9314.95 586.199 26
-1 -3 -3 15754.9 1006.31 5
1 3 -3 15539.3 661.197 12
1 -3 -3 18006.9 918.077 8
1 3 -3 19529.8 1008.78 36
1 -3 -3 19895 831.974 19
-1 3 -3 14537.3 866.573 28
-1 -3 -3 12137.8 767.38 4
1 3 -2 27096.3 1063.85 32
-1 -3 -2 120367 2402.38 4
-1 3 -2 121645 1686.64 37
-1 -3 -2 139927 2242.95 7
1 3 -2 29891.8 846.022 12
1 3 -2 30872.1 1566.48 30
1 3 -2 28514.8 623.882 37
-1 3 -2 77732 3646.72 41
1 -3 -2 29768.7 1663.58 29
1 -3 -2 27138.7 1177.73 9
1 -3 -2 30074.9 1059.21 8
-1 3 -2 115847 1969.21 28
1 3 -2 30276.7 1131.96 36
1 3 -2 32397.2 980.076 11
-1 3 -2 108296 1558.35 11
1 -3 -2 31710.1 906.821 19
-1 -3 -2 129978 2739.62 23
-1 -3 -2 136047 2484.25 6
1 3 -1 38970.8 1167.57 36
-1 3 -1 20954.8 896.827 28
1 3 -1 39788.2 1862.11 30
-1 3 -1 20370.8 687.117 11
1 3 -1 42733 1075.67 11
1 -3 -1 38602.8 857.886 19
-1 -3 -1 29880.3 1288.16 5
1 3 -1 63766.6 1873.83 28
-1 -3 -1 29036.4 1268.25 4
-1 -3 -1 23350.1 1049.99 28
1 -3 -1 35978.5 1731.1 29
-1 3 -1 296.396 693.835 41
1 -3 -1 37336.4 1066.91 8
-1 3 -1 20974.7 713.301 37
1 3 0 452671 7948.24 32
-1 3 0 382041 7301.29 37
-1 -3 0 358384 8060.37 23
1 3 0 377474 7443.02 36
1 3 0 542949 8107.36 28
1 3 0 438066 7179.36 17
1 -3 0 391122 7387.03 8
-1 -3 0 390360 8213.93 4
1 3 0 420952 9101.22 30
1 -3 0 422306 8574.16 29
1 3 0 450202 7404.39 11
-1 3 0 347665 7166.12 11
-1 3 0 370568 7738.68 28
-1 -3 0 432077 8202.98 5
-1 3 0 531953 8281.34 10
-1 3 0 215313 8807.42 41
-1 -3 0 404944 7874.29 28
1 -3 1 22779.5 866.401 8
1 3 1 33137.1 998.428 11
-1 3 1 40502.8 1158.46 37
1 3 1 31692 875.002 17
-1 3 1 36849.2 1409.1 28
1 3 1 28851.3 1750.75 30
-1 -3 1 41674 1483.65 28
1 3 1 30292.2 1137.43 28
1 3 1 37643.9 1297.45 32
-1 -3 1 36498.7 1528.27 23
-1 -3 1 38117.3 1479.94 5
1 -3 1 23836.5 1279 29
1 -3 2 128817 2035.05 37
1 3 2 130878 1896.51 17
1 3 2 129520 2430.73 32
-1 3 2 28482.2 1369.16 37
1 -3 2 105206 2524.59 28
-1 3 2 164751 3183.19 21
1 -3 2 135587 2852.36 29
1 3 2 130821 2049.15 16
1 3 2 148174 4107.11 30
-1 -3 2 33790.5 1651.82 28
1 3 2 139394 2533.05 28
-1 3 2 185519 5783.55 13
-1 -3 2 25752.1 1720.45 4
-1 3 2 23776.7 1541.34 28
-1 -3 2 22398.6 1502.8 23
-1 -3 2 25330.2 1509.8 5
-1 3 2 128690 4357.98 41
1 -3 3 11755.5 562.841 37
1 3 3 14330.8 839.065 28
1 3 3 16374.9 820.593 32
-1 -3 3 12185.2 1367.59 31
1 -3 3 11143.5 729.623 29
-1 -3 3 20747.2 1101.97 28
1 -3 3 10149.8 762.813 28
1 3 3 222.268 1100.79 13
-1 -3 3 15080.5 1121.68 4
-1 3 3 31466.5 2761.2 13
-1 -3 3 14676.3 900.839 5
-1 3 3 16293.1 1101.72 21
1 3 3 13037.4 655.103 16
-1 3 3 14856.2 1052.76 28
1 3 4 19815.4 3150.97 13
-1 3 4 64850.6 2279.44 37
1 -3 4 134234 2344.66 37
1 3 4 135838 3045.4 28
1 -3 4 118981 2967.28 28
-1 -3 4 52078.8 2271.17 5
1 3 4 142576 2792.33 32
-1 -3 4 44422.2 2934.63 31
1 -3 4 118377 2457.18 29
-1 -3 4 52484.3 2651.96 4
1 3 4 132594 2630.49 16
-1 3 4 161931 3452.46 21
1 3 4 138039 4379.23 30
-1 -3 5 5363.21 922.275 31
1 -3 5 16212.9 627.738 37
-1 3 5 7520.67 629.537 37
1 3 5 17607.3 803.805 32
1 -3 5 15861.8 983.647 28
-1 -3 5 6395.99 817.958 4
-1 3 5 6751.75 376.445 40
1 3 5 15710.4 964.846 28
1 3 5 1568.4 1574.4 13
1 3 5 16390.8 885.112 16
-1 -3 5 6393.36 614.989 5
-1 3 5 19684.2 1188.9 21
1 3 6 90857.7 6002.13 13
1 3 6 133904 3014.16 16
-1 -3 6 42709.7 2762.7 31
1 -3 6 132397 3336.79 28
1 3 6 124206 3196.95 28
-1 -3 6 53969.3 2764.46 4
-1 3 6 65006 2539.87 3
-1 3 6 156464 3520.72 21
-1 3 6 138922 5475.21 14
-1 3 7 28476.3 2474.66 14
-1 3 7 52695.7 4916.91 13
1 3 7 25916.1 3467.54 13
1 -3 7 23596.8 1347.91 28
-1 -3 7 4728.73 733.229 4
-1 3 7 5690.46 687.274 3
-1 3 7 26428 1403.73 21
-1 3 8 105476 4828.78 14
1 3 8 88407.4 6402.84 13
-1 -3 8 45891.5 2409.83 4
-1 3 8 58530.2 2361.15 3
-1 3 8 87840.5 2717.26 21
-1 3 9 24055.7 2556.04 14
1 3 9 19060.8 3513.89 13
-1 -3 9 7166.54 865.13 4
-1 3 9 9235.8 879.557 3
-1 -3 10 66067.6 2798.5 20
1 3 10 80711.7 6440.03 13
-1 3 10 107520 8152.16 13
-1 3 10 79170.3 4566.96 14
-1 3 10 109365 3225.07 3
-1 3 11 4349.83 1693.08 14
-1 3 11 3910.71 2499.99 13
1 3 11 3962.59 2224.24 13
1 3 11 2499.28 480.878 16
-1 -3 11 4835.48 707.051 20
-1 -3 12 20246 1634.29 3
-1 3 12 60939.3 4106.11 14
1 3 12 37284.9 1713.18 16
-1 3 12 64635.3 6179.89 13
1 3 12 49363.6 5015.18 13
-1 -3 12 18976.8 1374.3 20
-1 -3 13 3154.44 684.344 3
1 3 13 2301.35 453.218 16
1 3 13 2146.61 1915.84 13
-1 3 13 4385.42 2442.12 13
-1 3 14 17638.5 1062.96 16
1 3 14 20324.8 1113.74 16
1 3 14 19875.7 3212.42 13
-1 -3 14 14757.1 1260.35 3
1 3 15 1534.76 305.81 16
-1 3 15 2819.44 391.805 16
-1 -3 15 37.9943 695.325 14
-1 -3 15 2217.83 482.729 3
-1 3 15 3302.32 1839.72 13
1 3 15 1573.37 1420.92 13
-1 -5 -14 38769.4 2749.62 33
1 -5 -14 8499.84 1034.84 34
1 5 -13 8655.48 842.69 36
-1 -5 -13 1620.85 806.502 33
-1 5 -13 936.489 369.125 27
-1 -5 -13 939.728 346.067 26
1 -5 -13 9872.96 1204.76 34
-1 -5 -12 16682.6 1336.21 26
-1 5 -12 14249.1 1176.37 27
1 -5 -12 9512.77 1018.32 7
1 5 -12 12054.6 1100.68 36
1 5 -11 1242.73 1177.47 41
1 -5 -11 7312.7 917.017 7
-1 -5 -11 18425 2332.23 33
1 -5 -11 17587.5 2037.29 33
-1 5 -11 7066.21 881.82 27
-1 5 -11 113.93 1214.18 41
-1 -5 -11 7736.93 979.288 26
1 5 -11 10226.3 1060.45 36
1 -5 -10 26493 1745 7
1 -5 -10 23596.6 1486.98 6
-1 5 -10 24205.5 1634.51 27
-1 -5 -10 20221.2 1558.53 26
1 -5 -9 8680.01 972.345 19
1 -5 -9 21426 2241.83 33
-1 -5 -9 18481.1 1426.31 26
1 -5 -9 7144.48 843.801 6
-1 5 -9 21909.9 1467.45 27
1 5 -9 10682.8 1113.37 36
-1 5 -8 51403.3 5237.14 41
1 5 -8 81886.2 3034.14 36
-1 -5 -8 33747.1 2138.32 6
-1 5 -8 35950.9 1924.05 27
1 -5 -8 55594.7 2315.4 6
-1 -5 -8 31307.8 2036.11 26
1 -5 -8 59890.9 2340.84 26
-1 5 -8 42610.6 2079.81 36
1 -5 -8 67855.2 2619.11 19
1 -5 -7 23896 1554.03 7
1 -5 -7 17175.5 1302.16 23
-1 5 -7 42512.9 1929.05 36
-1 -5 -7 34648.4 1977.41 6
1 -5 -7 26292.1 1534.56 19
-1 -5 -7 31872.9 1813.3 7
-1 -5 -7 29231.1 1604.84 5
-1 5 -7 32013.6 1602.54 27
-1 5 -7 30460.4 979.178 40
-1 5 -6 30245.2 1096.89 40
1 -5 -6 56194.6 2074 19
1 -5 -6 53983.1 2238.96 7
1 5 -6 61762.7 2457.8 36
-1 5 -6 38729.5 1851.24 36
-1 -5 -6 25365.4 1618.97 5
-1 -5 -6 31364.1 1763.98 7
-1 5 -6 81413.7 5881.32 41
1 5 -5 2942.74 530.71 36
-1 -5 -5 22410.1 1344.53 7
-1 5 -5 27672 1440.36 36
1 -5 -5 2887.01 475.342 19
1 -5 -5 2897.95 550.528 7
-1 -5 -5 23294.4 1466.48 6
-1 -5 -5 21132.5 1387.49 5
1 -5 -5 6155.15 804.479 5
1 5 -4 59734.3 2292.42 36
-1 -5 -4 58443.2 2491.42 5
-1 -5 -4 69795.5 2386.34 7
-1 -5 -4 63317.3 2463.73 6
-1 -5 -4 49979.9 1904.06 4
1 -5 -4 58533.6 1996.21 19
1 -5 -4 56531.8 2523.77 9
1 -5 -3 37930 1833.49 5
1 -5 -3 53413.9 1618.26 19
-1 -5 -3 12194.9 1157.27 23
-1 -5 -3 10713.5 946.879 4
-1 -5 -3 12064 1129.75 5
-1 5 -3 15983.5 2351.75 41
-1 -5 -3 14880.3 1140.99 6
-1 5 -3 13868 707.069 12
-1 -5 -3 16274.3 1076.17 7
1 5 -3 65316.3 2092.53 32
1 5 -3 45053.7 1722.98 36
1 -5 -3 49223.8 2132.51 9
1 -5 -2 86412.6 3039.47 5
1 -5 -2 121391 2562.63 19
-1 5 -2 69677.6 2025.46 37
-1 5 -2 121954 6041.41 41
1 5 -2 97082.3 2666.01 36
-1 -5 -2 71981 2366.52 7
1 5 -2 137916 3273.22 32
-1 -5 -2 55362.7 2468.7 4
1 5 -2 111770 3356.79 29
-1 5 -2 67028.4 1837.57 12
1 5 -2 109852 2712.36 11
-1 5 -2 67388.6 2152.45 11
-1 -5 -2 57797.5 2653.4 5
-1 -5 -2 62665.8 2874.75 23
1 -5 -2 127711 3244.91 8
-1 -5 -1 7932.38 631.607 7
-1 5 -1 7752.07 559.656 37
1 -5 -1 35176.7 1765.41 9
-1 5 -1 7459.22 440.106 12
1 5 -1 36438.5 1349.05 11
1 5 -1 35366.9 1926.22 29
-1 -5 -1 7250.96 914.453 4
-1 5 -1 3814.47 1344.2 41
-1 5 -1 7798.33 613.189 11
1 5 -1 30365.5 1226.19 36
1 -5 -1 39055.8 1560.47 8
1 -5 0 85606.8 2990.38 9
1 5 0 94965.1 2743.28 32
1 5 0 64251.6 2029.27 36
1 -5 0 86728.8 2480.85 8
1 -5 0 71516.4 3560.4 30
1 5 0 76491.9 3263.99 29
-1 -5 0 64950.9 2824.39 4
-1 5 0 65679.5 1636.3 12
-1 -5 0 66127.5 2871.69 23
1 5 0 79744 2288.24 11
-1 5 0 74630.7 2156.67 11
-1 -5 0 64568.4 2679.91 5
-1 5 0 62387.2 2598.78 10
-1 5 0 77971.1 2112.36 37
1 -5 1 9326.97 946.749 9
-1 -5 1 33452.9 1888.63 23
1 5 1 8424.16 527.903 17
-1 5 1 3606.03 2097.71 15
-1 5 1 4153.58 1380.54 41
1 5 1 8581.97 781.612 32
1 5 1 7828.08 1076.18 29
1 5 1 8276.26 666.747 11
-1 -5 1 28966.8 1807.75 4
1 -5 1 8774.1 721.339 8
-1 5 1 62665.6 2370.56 10
-1 5 1 33463.9 850.584 12
-1 5 1 41355.9 1397.04 37
-1 5 1 35658.4 1272.7 11
-1 -5 1 31787 1764.79 5
1 5 1 6165.19 515.96 36
1 -5 2 84745.6 3004.33 9
-1 -5 2 99019.7 3482.38 23
1 5 2 59921.9 1912.84 36
1 5 2 89022.3 2692.59 32
-1 5 2 150024 6138.15 41
1 5 2 80941.2 2411.01 11
-1 5 2 109923 2627.98 11
1 5 2 115267 2963 10
-1 -5 2 98701.2 3305.67 5
1 -5 2 80575.7 2320.46 8
-1 5 2 47102.5 2547.82 10
1 5 2 81350.6 2032.03 17
1 -5 3 18291.5 925.449 8
-1 -5 3 44797.8 2449.58 4
1 5 3 20127.3 1129.13 32
-1 -5 3 43532.7 2102.93 23
1 5 3 16398.8 969.241 11
1 5 3 2978.2 566.961 10
-1 -5 3 46837 2130.59 5
1 -5 3 18711.9 1321.79 9
1 5 3 18042.4 788.301 17
-1 -5 4 48956.7 2805.36 4
-1 5 4 56048.1 1635.96 16
1 5 4 59301.1 2214.97 10
-1 -5 4 50627.2 2410.2 5
-1 5 5 3327.2 369.517 16
-1 -5 5 3341.94 807.812 4
-1 -5 5 3032.81 609.126 5
-1 -5 6 52106.3 2977.28 4
-1 5 6 50638.2 1383.09 40
-1 -5 6 50294.3 2315.73 5
-1 5 6 56939.2 1668.99 16
-1 5 7 24126 1126.77 16
-1 -5 7 22402.1 1931.94 4
-1 -5 8 64221.5 3338.75 4
-1 5 8 67023.3 2109.01 16
1 5 9 6402.32 2456.97 13
-1 5 9 9024.18 706.028 16
-1 -5 9 8629.81 1167.88 4
-1 5 9 7098.11 2585.21 13
-1 5 10 25263.5 1226.32 16
-1 -5 10 22494.2 1799.17 4
-1 -5 11 4908.36 773.671 20
1 5 11 6118.89 655.316 16
-1 5 11 8584.28 686.121 16
-1 5 11 6947.83 2556.58 13
-1 -5 12 8269.09 1075.69 3
1 5 12 13509.7 807.115 17
1 5 12 13956.9 930.68 16
-1 5 12 10570.8 739.064 16
-1 -5 12 7445.79 889.939 20
-1 -5 13 7360.16 937.316 3
1 5 13 546.066 189.999 17
1 5 13 608.681 238.187 16
-1 -5 13 5644.58 720.897 20
-1 -5 14 6361.92 834.107 3
1 5 14 18871.2 916.06 16
1 7 -11 14571.6 1138.41 36
-1 -7 -11 21655.8 2235.43 33
-1 7 -11 10023.9 934.858 27
-1 -7 -11 8675.41 917.288 26
-1 7 -11 105.763 1114.09 41
1 7 -10 13047.3 1157.35 36
1 -7 -10 10010.9 1058.84 7
-1 -7 -10 13643.5 1184.51 26
1 -7 -9 11566.7 1159.77 7
1 -7 -9 10166.7 1043.85 6
-1 7 -9 12732 1124.14 27
-1 -7 -9 9869.07 1071.27 26
1 -7 -8 25159 1737.51 7
-1 -7 -8 18650 1583.33 6
1 -7 -8 22289.4 1564.11 6
-1 7 -8 19445.8 1389.78 27
-1 -7 -8 15101.2 1391.29 26
1 7 -7 10694.4 1134.35 36
1 7 -7 1514.02 1150.23 41
-1 7 -7 23217.3 1465.15 27
-1 -7 -7 16582.4 1266.44 5
1 -7 -7 6898.12 941.087 23
-1 7 -7 20406.1 851.149 40
1 -7 -7 9438.89 1087.61 7
-1 7 -6 35215.2 1254.12 40
1 7 -6 25152.3 1711.16 36
1 -7 -6 17255 1586.28 23
-1 -7 -6 32438.9 2075.59 6
-1 7 -6 34804.4 1780.83 27
-1 -7 -6 28360.5 1761.3 5
1 -7 -6 22733.3 1655.17 7
-1 7 -5 29075.2 4271.23 41
1 -7 -5 22476.9 1575.96 5
1 7 -5 30715.4 1786.82 36
-1 -7 -5 10155.7 1181.78 6
1 7 -5 28206.6 1436.34 12
-1 -7 -5 8372.44 1048.95 5
1 -7 -5 22425.8 1813.44 23
1 -7 -5 28840.3 1790.06 7
1 7 -5 5303.23 1859.31 41
-1 -7 -4 21278.7 1641.07 5
1 -7 -4 22049.5 1556.66 7
1 7 -4 20139.5 1431.06 36
-1 -7 -4 24365.1 1749.13 6
1 7 -4 19167.8 1170.75 12
1 -7 -4 21733.2 1716.32 5
-1 -7 -3 7415.93 922.924 4
1 7 -3 37138.1 1769.13 36
-1 -7 -3 8109.22 1139.59 5
1 7 -3 11460.6 2306.76 41
1 -7 -3 42028.7 2049.47 7
-1 -7 -3 10367.9 1151.08 6
1 7 -3 38576.8 1577.23 12
1 -7 -3 37298.2 2242.65 5
-1 7 -3 5732.21 2123.92 41
1 -7 -2 28736.3 1698.61 7
-1 -7 -2 30293.8 1897.82 4
-1 -7 -2 32667.6 1939.82 6
1 7 -2 15986.6 2650.29 41
1 7 -2 25170.8 1293.17 12
-1 -7 -2 26731.4 1975.06 5
1 -7 -2 23717.8 1941.66 5
1 -7 -2 28305.7 2092.03 9
1 7 -2 22832.9 1385.73 36
-1 7 -1 1734.57 1740.15 41
1 7 -1 19952 2858.66 41
1 -7 -1 64005.3 2448.55 7
1 7 -1 50972.1 2001.89 36
-1 -7 -1 38596.6 2339.95 4
-1 -7 -1 43962.1 2240.4 6
1 7 -1 51418.8 1827.37 12
1 7 -1 59367.4 2256.7 11
-1 7 -1 46336.7 1935.54 11
1 -7 -1 62019.1 3074.8 9
1 -7 -1 47735.3 2693.64 5
-1 7 0 46021.6 4599.53 41
1 7 0 16467.1 1172.23 11
-1 -7 0 17250.3 1784.48 4
1 7 0 15362.1 984.471 12
-1 7 0 16153.2 1105.19 11
-1 -7 0 13138.3 1466.56 5
1 7 0 38251.2 3635.88 41
1 -7 0 17678.4 1617.04 9
1 -7 0 13457.1 1538.4 5
-1 -7 1 53110.1 2941.83 4
1 7 1 41956.9 1619.77 12
-1 7 1 103.29 1106.07 41
1 7 1 45807.4 1941.41 11
-1 7 1 60812.7 2126.21 11
-1 -7 1 51527.7 2786.8 5
-1 7 1 102117 3699.06 10
1 7 1 12382.6 2112.92 41
1 -7 1 47580.4 2663.33 9
1 -7 2 41478.8 2465.17 9
-1 -7 2 28993.4 2487.27 4
1 7 2 42352 3519.86 41
1 7 2 39149.3 1826.86 11
-1 7 2 29018.7 1550.15 11
-1 -7 2 23376.9 1970.03 5
-1 7 2 16762.3 1668.64 10
1 -7 3 9087.03 1329.28 5
1 -7 3 10229.8 1257.99 9
-1 -7 3 41468.7 2856.03 4
-1 7 3 41864 1773.13 11
1 7 3 8549.33 847.402 11
-1 -7 3 38549 2409.9 5
-1 7 3 151.646 361.438 10
1 -7 4 23658.4 2096.95 5
1 7 4 24742.2 967.61 17
1 7 4 27211 1485.91 11
-1 7 4 22863.9 1334.15 11
-1 -7 4 22422 1841.31 5
1 -7 4 23399.9 1989.46 23
1 -7 5 9129.87 1337.65 5
1 -7 5 12493.7 1316.67 9
-1 -7 5 30197.9 2525.73 4
-1 7 5 783.158 444.715 10
1 7 5 10339.8 942.864 11
-1 -7 5 27624.5 1997.98 5
-1 7 5 31844 1640.88 11
1 -7 5 8374.79 1193.86 23
1 7 5 10749.1 660.461 17
1 -7 6 35022.9 2537.34 5
-1 -7 6 22203 1791.05 5
1 -7 6 41906.9 2312.2 9
1 7 6 38196 1261.68 17
-1 -7 6 24746.6 2333.04 4
-1 7 6 21530 899.907 40
1 7 6 39621.8 1835.63 11
-1 7 6 27494.7 1558.83 11
1 -7 6 31315.9 2126.03 23
1 -7 7 21657.7 1975.37 5
-1 -7 7 12345.4 1675.04 4
-1 -7 7 7395.06 1019.61 5
1 7 7 23879 1419.38 11
-1 7 7 10107.9 943.271 11
-1 7 7 340.287 445.974 10
-1 -7 8 29931.2 2349 4
1 7 8 19998.9 1283.94 11
-1 7 8 28743.9 1550.48 11
1 -7 8 15894.8 1654.18 5
-1 -7 9 14520 1590.8 4
1 7 9 12239.3 984.799 11
-1 7 9 14553 1086.17 11
-1 -7 10 11345.9 1330.57 4
1 -7 10 10326.6 1425.63 4
1 7 10 13102.9 960.213 11
-1 7 10 12018.8 952.248 11
-1 -7 11 6705.41 850.547 20
1 -7 11 5462.81 989.953 4
1 7 11 8791.64 764.845 11
1 9 -8 24002.8 3407.38 41
1 -9 -7 7050.21 845.31 7
-1 9 -7 523.179 1565.93 41
1 -9 -7 6544.46 864.145 6
-1 9 -7 27935.5 1442.1 27
-1 -9 -7 21857.4 1495.51 26
-1 9 -6 564.035 1425.26 41
1 9 -6 4201.17 1864.1 41
-1 -9 -6 8110.21 1031.29 6
1 -9 -6 5049.28 793.533 6
-1 9 -6 8345.79 832.419 27
-1 -9 -6 5881.19 852.77 26
1 -9 -6 4429.28 720.425 7
1 9 -5 -235.872 1118.64 41
1 -9 -5 11247.8 1099 7
-1 9 -5 20608.9 913.633 40
-1 9 -5 -146.711 1594.05 41
-1 -9 -5 20754.5 1619.37 6
-1 9 -5 21038.8 1315.04 27
1 -9 -5 9489.32 1100.61 6
-1 -9 -5 17533.7 1345.53 5
1 -9 -5 8562.23 1136.32 23
-1 9 -4 7957.47 611.867 40
-1 -9 -4 8954.71 1099.85 6
-1 -9 -4 7259.65 971.723 5
1 -9 -4 7404.26 1108.81 23
1 -9 -4 9499.96 1005.19 7
1 9 -3 19948.7 1185.8 12
-1 -9 -3 15262.4 1425.46 6
-1 -9 -3 13577.1 1335.98 5
1 -9 -3 16187 1490.97 5
-1 9 -3 16759.6 916.829 40
1 -9 -3 15860 1694.47 23
1 9 -2 -112.207 1097.3 41
-1 -9 -2 12335 1282.39 6
1 9 -2 5554.62 643.046 12
-1 -9 -2 9993.67 1212.25 5
1 -9 -2 8180.53 1186.66 5
1 -9 -2 4821.75 1036.73 23
-1 9 -2 12771.8 813.013 40
1 9 -1 209.684 974.83 41
-1 9 -1 255.208 1276.34 41
-1 -9 -1 18063.8 1499.28 6
1 9 -1 35302 1526.38 12
1 -9 -1 41771.4 2619.1 5
1 9 0 570.434 1024.43 41
-1 -9 0 18596.7 1473.48 6
1 -9 0 19179.5 2343.3 4
-1 9 0 -453.781 1177.89 41
-1 -9 0 13966.9 1589.87 5
-1 -9 0 13490.8 1416.02 4
1 9 0 19100.3 1121.01 12
1 -9 0 16468 1856.2 23
1 -9 0 33607.3 2443.11 5
-1 -9 1 29297.3 2140.02 4
-1 9 1 34495.4 1381.38 40
1 -9 1 16883.6 2441.86 4
1 9 1 19618.5 1177.14 12
1 9 1 22288.9 1481.23 11
-1 9 1 38340.1 1826.23 11
-1 -9 1 27595.6 2200.14 5
1 -9 1 20807.6 2094.16 23
1 -9 1 33391.7 2560.76 5
-1 -9 2 3365.87 927.742 5
1 9 2 10899.8 811.516 12
1 -9 2 9931.14 2078.55 4
1 9 2 13292.3 1083.6 11
-1 9 2 5981 730.687 11
1 -9 2 11179.2 1534.46 23
-1 -9 2 6932.72 1319.97 4
-1 9 2 5475.76 529.089 40
-1 9 3 18200.7 942.402 40
-1 -9 3 22944 2096.89 4
1 9 3 15664.9 993.128 12
1 -9 3 12432.2 2262.42 4
1 9 3 17845.9 1254.59 11
-1 9 3 22701.9 1369.54 11
1 -9 3 16211.1 1798.04 23
-1 -9 3 16986 1730.53 5
1 -9 3 22188.6 2103.16 5
-1 -9 4 15574 1792.04 4
1 9 4 7894.45 694.276 12
1 -9 4 5247.79 1729.64 4
1 9 4 8719.35 859.427 11
-1 9 4 9778.57 897.391 11
-1 -9 4 7640.86 1169.49 5
1 -9 4 7145.6 1181.2 23
1 -9 4 13883.7 1703.81 5
-1 9 4 8739.45 607.515 40
-1 -9 5 13845.1 1716.11 4
1 -9 5 18071.2 2343.86 4
1 9 5 22295.3 1118.91 12
-1 -9 5 8697.25 1211.13 5
1 9 5 22559.7 1343 11
-1 9 5 11610.6 979.848 11
1 -9 5 17358.8 1653.28 23
1 -9 5 25512.9 2136.37 5
-1 9 5 9395.53 600.564 40
-1 -9 6 8207.7 1346.59 4
1 9 6 7590.15 643.86 12
-1 -9 6 4376.45 848.491 5
1 9 6 8288.16 794.732 11
-1 9 6 5846.65 679.091 11
1 -9 6 10458.2 1430.42 5
-1 -9 7 8122.06 1314.09 4
1 -9 7 23856.6 2375.08 4
1 9 7 24624.2 1077.87 12
1 9 7 27160.9 1339.28 11
-1 9 7 7899.45 779.892 11
1 -9 7 24865.7 1916.01 5
2 0 -15 214.238 408.359 34
-2 0 -15 -61.1878 225.853 35
2 0 -15 -35.0445 291.167 35
-2 0 -15 39.0178 216.829 26
2 0 -14 18325.7 1762.91 35
-2 0 -14 33344.7 2223.41 35
2 0 -14 25764.6 2272.84 34
-2 0 -14 40208.7 1959.03 26
2 0 -13 41.7245 327.916 35
2 0 -13 -111.113 485.28 34
2 0 -13 140.763 189.725 36
-2 0 -13 25.1406 262.473 26
2 0 -12 11163.1 1087.45 19
2 0 -12 10714.2 1361.47 35
2 0 -11 -48.1802 400.305 34
-2 0 -11 -61.8501 471.569 33
2 0 -11 79.111 310.869 35
2 0 -11 -46.3609 229.588 19
2 0 -10 70372.2 2567.3 19
2 0 -10 71729.1 3246.51 35
2 0 -10 68396.1 2488.65 2
2 0 -9 -17.5011 200.153 2
-2 0 -9 -56.3887 504.138 33
-2 0 -9 106.099 297.225 27
-2 0 -9 120.852 276.427 26
2 0 -9 56.4379 205.994 19
-2 0 -9 51.3244 285.22 25
2 0 -9 36.3282 353.083 34
2 0 -9 31.2321 222.747 35
2 0 -8 40516.3 1824.86 19
-2 0 -8 49778.6 3266.15 33
2 0 -8 34765.3 2046.42 35
2 0 -8 47859.8 2542.23 34
-2 0 -8 84418.6 2680.83 27
-2 0 -8 105610 3148.63 26
-2 0 -8 88346.7 3133.91 25
2 0 -8 42193.4 1780.48 2
2 0 -7 14.3711 183.756 19
2 0 -7 -12.8156 169.241 2
2 0 -7 27.0515 277.675 34
-2 0 -7 -34.6486 272.305 27
2 0 -7 11.2689 150.358 7
2 0 -7 -21.884 220.726 35
-2 0 -7 -20.5085 250.306 26
-2 0 -7 17.5576 115.932 39
-2 0 -7 42.8395 432.085 33
-2 0 -7 87.2159 341.595 25
2 0 -6 85695.3 2460.69 19
2 0 -6 59498.6 2446.67 35
2 0 -6 90466.4 3050.95 34
2 0 -6 68539.8 3007.96 29
-2 0 -6 103636 2851.79 27
-2 0 -6 127126 3408.35 26
-2 0 -6 95733 3475.03 25
-2 0 -6 83108.8 2141.87 39
-2 0 -5 68.3947 182.515 27
2 0 -5 89.9349 137.353 19
2 0 -5 -14.2692 127.574 35
2 0 -5 35.3424 218.292 34
2 0 -5 -85.9789 484.776 31
-2 0 -5 85.7475 221.706 26
-2 0 -5 -146.012 338.584 25
-2 0 -5 14.315 86.2879 39
2 0 -5 -9.51466 136.924 8
2 0 -4 168863 2414.43 8
2 0 -4 124717 2527.74 35
-2 0 -4 171577 4610.95 42
2 0 -4 146956 5033.68 31
-2 0 -4 39675.3 1709.57 27
-2 0 -4 45685 1971.31 26
-2 0 -4 34430.4 2205.95 25
2 0 -4 167160 2447.78 19
2 0 -4 179723 3257.2 34
2 0 -3 76.1808 92.6888 37
2 0 -3 -6.54027 89.9013 8
2 0 -3 46.2471 79.4641 18
2 0 -3 -11.372 135.37 34
2 0 -3 -42.5145 458.415 31
-2 0 -3 52.2872 122.067 27
2 0 -3 118.41 90.9876 19
-2 0 -3 12.0018 153.463 26
2 0 -2 133614 2227.3 37
2 0 -2 119861 4509.05 31
-2 0 -2 32986.2 1412.05 26
2 0 -2 113438 1644.41 1
-2 0 -2 26842.6 1781.03 25
2 0 -2 110287 1715.83 18
-2 0 -2 165569 4304.37 42
2 0 -2 115931 1752.89 19
-2 0 -2 22767.4 1077.23 39
2 0 -1 -8.81838 87.3412 37
2 0 -1 10.548 76.5602 19
-2 0 -1 20.5206 247.381 25
-2 0 -1 35.0971 63.1351 39
2 0 -1 42.3936 81.3045 1
2 0 0 96248.8 2185.79 17
2 0 0 77905.5 3859.52 31
-2 0 0 85135.5 3017.91 25
-2 0 0 94432.1 2560.93 3
2 0 0 107461 2332.66 1
-2 0 0 101531 2759.23 20
2 0 1 74.5527 426.315 31
-2 0 1 66.8801 214.834 20
-2 0 1 29.1718 104.851 37
2 0 1 102.67 83.371 17
-2 0 1 21.593 152.621 3
-2 0 1 -11.9457 176.375 4
-2 0 1 -87.5283 198.578 25
-2 0 2 150489 2455.69 37
-2 0 2 147033 2658.21 4
2 0 2 18026.9 1740.5 31
-2 0 2 121248 2418.7 25
-2 0 2 149567 2729.88 3
-2 0 2 158559 3122.84 20
2 0 3 51.2767 117.19 37
-2 0 3 10.1183 103.867 37
-2 0 3 -44.0803 218.745 3
2 0 3 101.415 352.93 31
-2 0 3 47.1572 160.483 4
-2 0 3 29.3986 130.757 25
-2 0 4 177123 2993.67 4
-2 0 4 211078 3108.08 37
2 0 4 34028.4 1741.77 37
2 0 4 31943.1 1446.94 16
2 0 4 27205.7 2340.85 31
-2 0 4 127987 3642.17 14
-2 0 4 137374 2264.07 25
-2 0 4 177559 3655.08 20
-2 0 4 188065 3657.8 3
-2 0 5 182.593 135.839 37
2 0 5 184.518 157.866 37
-2 0 5 257.412 282.457 20
2 0 5 -31.3725 358.809 31
-2 0 5 78.2018 157.954 4
-2 0 6 75405.1 2791.66 3
2 0 6 73738.5 3274.54 30
-2 0 6 80909.9 2260.18 37
-2 0 6 69708.9 2686.55 20
-2 0 7 146.105 362.566 20
-2 0 7 72.8579 346.467 3
-2 0 8 37265.7 2074.9 3
-2 0 8 34063.1 1967.55 20
-2 0 9 -26.8373 319.491 20
-2 0 9 28.668 386.417 3
-2 0 10 69788.9 2946.46 20
-2 0 10 72152 3174.29 3
-2 0 11 -52.1184 298.034 20
-2 0 11 30.6168 319.649 3
2 0 11 103.847 1427.39 13
-2 0 12 11046 1150.48 3
-2 0 12 10912.3 1047.5 20
-2 0 13 -28.0521 287.945 3
2 0 14 24437.3 1188.57 16
-2 0 14 20479.6 3862.03 13
-2 0 14 17615.6 1324.06 3
-2 0 15 18.468 222.636 3
-2 0 15 591.197 1571.36 13
2 -2 -15 233.25 386.252 34
-2 2 -15 8284.49 764.213 26
2 2 -14 21142.5 1954.89 35
2 2 -14 24271.3 2151.07 34
-2 2 -14 28152.4 1599.87 26
-2 -2 -14 30812.7 1653.26 26
2 -2 -14 21861.6 2050.96 34
2 2 -13 4533.3 999.583 35
2 2 -13 5002.47 1086.01 34
2 -2 -13 4492.32 990.566 34
-2 2 -13 2003.43 515.834 26
-2 -2 -13 1622.19 465.86 26
2 2 -13 3836.66 651.342 36
-2 -2 -13 3072.73 990.141 33
2 -2 -12 27428.3 1735.75 19
2 -2 -12 42216.9 2733.73 34
-2 2 -12 16299.6 1584.29 35
2 -2 -12 31437.5 2139.96 35
2 2 -12 39073.2 2693.85 35
2 2 -12 52352.8 3365.78 34
-2 -2 -12 38226.3 3228.8 33
-2 2 -12 13172.5 1197.85 27
-2 2 -12 21444.5 1576.02 26
-2 -2 -12 20573.4 1548.35 26
2 2 -12 41071.3 2168.38 36
2 -2 -11 4392.73 711.884 19
2 2 -11 6670.62 933.535 36
2 2 -11 9211.53 1437.93 34
2 -2 -11 4408.92 831.651 35
2 2 -11 6096.02 1084.87 35
2 -2 -11 4226.1 638.202 7
-2 2 -11 7461.99 1069.18 35
2 -2 -11 7245.11 1152.39 34
-2 2 -11 6943.15 872.867 27
2 -2 -10 24706.9 1588.63 19
2 2 -10 38232.9 2243.08 36
-2 2 -10 40701.9 2341.57 35
2 -2 -10 28083 1935.68 35
2 -2 -10 25489.8 1533.5 7
2 2 -10 45793.4 3037.05 34
2 2 -10 31379.6 2329.97 35
-2 2 -10 34616.5 1926.87 27
2 2 -10 31343 1646.69 2
-2 2 -10 43023.8 2163.17 26
-2 -2 -10 44272 2576.48 25
2 -2 -10 38499.6 2536.75 34
2 2 -9 9172.47 795.407 19
-2 2 -9 10998.9 1148.2 35
2 -2 -9 8842.06 992.867 35
2 2 -9 10303.7 1254.44 35
2 2 -9 13591.7 1557.63 34
2 -2 -9 7842.23 817.342 7
-2 2 -9 19317.4 1889.06 42
2 -2 -9 7065.36 755.478 2
-2 2 -9 10205.6 1005.19 27
-2 2 -9 12842.1 1124.06 26
-2 -2 -9 14770.2 1363.79 26
2 2 -9 10932.5 883.625 2
-2 -2 -9 12068.4 1405.92 25
2 2 -8 83386.9 2467.79 19
2 2 -8 78032.3 3324.69 35
-2 2 -8 61636.2 1833.31 39
-2 2 -8 78701.8 3023.28 35
2 -2 -8 63791.5 2677.77 35
2 2 -8 115961 4349.55 34
-2 2 -8 66725.1 3607.48 42
-2 2 -8 76454.1 2810.24 27
-2 2 -8 92016.3 3020.33 26
-2 -2 -8 103150 3557.75 26
2 -2 -8 69335.9 2432.42 2
-2 -2 -8 82319.9 3738.3 25
2 -2 -8 64704.7 2462.85 7
2 2 -8 94965.2 2711.44 2
2 2 -7 51862.1 1593.62 19
2 2 -7 59062.1 1746.22 2
-2 2 -7 6229.76 482.056 39
-2 2 -7 7513.04 840.587 35
2 2 -7 44596.6 2200.22 35
2 2 -7 69620.8 2979.56 34
2 -2 -7 35398.2 1502.67 7
-2 2 -7 7521.45 789.638 27
-2 2 -7 9455.14 855.511 26
-2 -2 -7 11357.9 1128.18 26
2 -2 -7 39672.6 1487.61 2
-2 -2 -7 9598.98 1299.48 25
-2 2 -7 26531 2165.99 42
-2 2 -6 165135 2799.81 39
2 2 -6 111795 2863.27 19
2 -2 -6 75179.9 2816.13 19
2 -2 -6 65905.6 3007.64 38
-2 2 -6 180145 3870.13 35
2 2 -6 89300.7 3471.51 35
2 2 -6 126814 4130.27 34
2 2 -6 71445.4 2794.08 32
-2 2 -6 160104 3567.14 27
-2 2 -6 189046 3824.06 26
-2 -2 -6 220226 4717.29 26
-2 -2 -6 168152 5178.16 25
-2 -2 -6 192334 3871.39 22
2 -2 -6 76609.5 2673.45 2
2 2 -5 33794.2 1800.82 34
2 -2 -5 21868.8 1017.82 2
2 2 -5 33258.7 1165.11 19
2 -2 -5 19856.4 1147.89 8
-2 2 -5 26602.2 883.817 39
2 -2 -5 17427.8 1315.79 38
-2 2 -5 54870.3 4340.96 41
2 2 -5 24180.3 1462.77 35
2 -2 -5 18209 1035.55 9
2 -2 -5 22036 1135.53 19
-2 2 -5 26523 1218.22 27
2 2 -5 29736.2 1163.16 12
-2 2 -5 32364.9 1339.35 26
-2 -2 -5 36650.7 1714.4 26
-2 2 -5 30629.6 1584 25
-2 -2 -5 34057.6 1510.79 22
-2 -2 -5 33950.1 1176.51 39
2 -2 -4 96593.9 2898.26 19
2 2 -4 139285 2893.32 19
2 -2 -4 91074.2 3488.33 38
-2 -2 -4 189669 3246.32 39
2 2 -4 114903 2696.65 37
2 -2 -4 87300.5 2940.2 9
-2 2 -4 134980 2632.53 39
-2 2 -4 175976 3479.15 26
2 2 -4 142949 3034.75 12
-2 -2 -4 188116 4080.48 26
-2 2 -4 159178 3978.8 25
2 -2 -4 92902 2979.22 8
-2 -2 -4 180959 3918.15 22
2 2 -4 137446 3824.5 34
2 -2 -3 30168.2 981.824 19
2 2 -3 41836.6 946.773 19
2 -2 -3 31537.5 1142.53 8
2 2 -3 42519.5 1069.74 37
-2 -2 -3 8573.92 568.265 39
2 2 -3 35492.1 847.64 1
2 -2 -3 36920.8 2034.05 29
-2 2 -3 7452.78 591.766 26
2 2 -3 50428.2 1201.9 12
-2 -2 -3 8070.5 764.697 26
-2 2 -3 6347.54 723.943 25
2 2 -3 40637.1 923.184 18
-2 -2 -3 7935.17 725.986 4
-2 -2 -3 7105.95 730.053 22
2 2 -3 43225.4 1615.66 34
2 -2 -3 36098.3 1754.89 38
-2 2 -3 6386.59 428.893 39
2 -2 -2 170369 4406.8 38
2 2 -2 169809 2791.74 19
2 -2 -2 157058 3380.02 37
2 2 -2 197085 3218.25 37
2 -2 -2 154350 3251.95 8
2 -2 -2 141244 2887.27 18
-2 2 -2 82824.9 2568.33 40
2 2 -2 177504 2840.06 18
-2 -2 -2 106415 3331.18 4
2 2 -2 158597 3523.32 34
-2 2 -2 113142 2705.99 28
-2 -2 -2 115730 3495.41 5
-2 2 -2 89896.6 2746.89 26
2 2 -2 211899 3111.49 12
-2 -2 -2 94889.5 3131.83 26
2 2 -2 182271 2898.64 1
-2 -2 -2 115723 2821.2 39
-2 -2 -2 99140.1 3317.95 22
2 -2 -2 145884 2927.61 19
-2 2 -2 196869 8182.79 41
2 2 -1 33759.4 895.896 18
2 -2 -1 30198 1154.82 37
-2 -2 -1 17559.4 1087.26 4
2 2 -1 40032.4 1005 1
2 -2 -1 30459.4 1665.65 38
2 2 -1 34768.3 1100.72 37
2 -2 -1 21959.6 647.004 1
-2 2 -1 12593 628.646 28
-2 -2 -1 15060.5 730.782 28
-2 2 -1 12886 633.007 26
-2 -2 -1 18774.1 1127.87 5
2 2 -1 36815.5 968.729 12
2 -2 -1 25695.8 829.215 18
-2 2 -1 13265.6 940.038 25
-2 2 -1 13194.1 809.84 37
-2 -2 -1 18881.1 753.757 39
-2 2 -1 15918 882.067 10
-2 2 -1 28168.2 1363.03 21
-2 -2 -1 15663.8 849.37 20
2 -2 -1 25842.5 864.424 19
-2 -2 0 123427 2221.29 39
-2 2 0 80727.4 1977.13 40
2 -2 0 83734.9 2370.1 37
2 -2 0 78508.1 2014.63 19
2 -2 0 93268.7 3195.05 38
2 -2 0 81333.8 2020.35 18
2 2 0 110489 2218.24 17
-2 -2 0 104047 2330.8 28
-2 2 0 69544.8 2125.54 28
2 2 0 108655 2529.24 37
-2 -2 0 109909 2903.57 5
-2 -2 0 90064.1 2753.21 22
-2 2 0 101905 2886.88 21
2 -2 0 81403.6 1874.43 1
-2 -2 0 92952.8 2526.83 20
-2 2 0 64279.1 3123.94 42
2 2 0 115636 2245.83 1
-2 2 1 29160 860.789 40
-2 -2 1 35649.1 1257.48 3
2 -2 1 13892.8 1168.17 38
2 -2 1 14023.9 845.342 37
2 2 1 15277.2 886.97 37
2 -2 1 12807.1 661.811 18
-2 -2 1 36122.6 1567.65 4
2 2 1 17321.7 760.045 17
-2 -2 1 42539.5 955.388 39
-2 -2 1 42037.8 1283.32 28
-2 2 1 26988.6 1186.58 28
2 -2 1 14170.5 609.203 1
-2 -2 1 37118.8 1447.38 5
-2 2 1 17960.2 1504.53 42
-2 -2 1 32727.2 1419.89 22
-2 2 1 26753.7 1428.88 21
-2 -2 1 32770.9 1355.8 20
-2 -2 2 216141 4151.7 3
2 -2 2 96795.9 3781.97 38
2 -2 2 103187 3220.37 37
-2 -2 2 196795 4173.97 20
-2 -2 2 216313 4538.83 4
-2 2 2 172941 3623.38 37
2 2 2 113125 2985.08 17
2 2 2 113606 2992.44 16
-2 2 2 159462 3058.29 40
-2 -2 2 226275 3068.8 39
-2 -2 2 256808 4045.81 28
2 2 2 109395 3362.97 37
-2 -2 2 215010 4079.04 5
-2 -2 2 177214 4367.87 25
2 -2 2 110547 2881.04 1
-2 -2 2 195444 4095.46 22
-2 2 2 105488 4098.61 42
-2 -2 3 49703.2 902.026 39
2 -2 3 7953.65 908.746 38
2 -2 3 8214.77 692.692 37
-2 -2 3 49474.2 1778.25 3
-2 -2 3 49084.7 1897.28 4
2 2 3 8685.81 595.238 17
2 2 3 8761.19 599.929 16
-2 -2 3 62042.6 1778.93 28
-2 2 3 4804.4 1393.45 13
-2 -2 3 50907.1 1547.96 5
-2 -2 3 43720.9 1728.98 20
-2 2 3 38670.5 1343.26 37
-2 2 3 40829.8 1672.92 3
-2 -2 3 43452.3 1660.78 25
-2 -2 3 46130.9 1610.02 22
-2 2 3 14394.5 1269.7 21
-2 2 3 11290.5 1085.93 42
-2 -2 4 129238 3657.93 20
2 -2 4 166331 3398.14 37
-2 2 4 104227 2968.76 37
2 -2 4 157088 4202.35 38
-2 -2 4 144526 3803.23 3
-2 -2 4 143449 3845.14 4
2 2 4 182978 3138.99 16
-2 2 4 19792.2 2819.22 14
2 2 4 158377 5223.29 30
-2 -2 4 188494 3998.74 28
2 2 4 126988 5210.55 13
-2 2 4 32118.3 3885.68 13
-2 -2 4 136964 3070.29 5
-2 2 4 112513 3475.93 3
-2 -2 4 136297 3313.7 22
2 -2 5 30389.6 1288.25 37
-2 -2 5 31628.1 1704.91 3
-2 -2 5 32370.6 1641.75 4
2 2 5 32740.8 1188.19 16
-2 2 5 4168.53 1338.71 14
2 2 5 24005.3 2428.16 13
-2 2 5 3811.07 1844.38 13
2 -2 5 28870 1677.24 38
-2 2 5 22747.1 1420.82 3
-2 -2 5 28538.6 1268.72 22
-2 -2 6 103764 3206.74 4
-2 -2 6 108507 3534.6 3
2 2 6 183628 3191.87 16
-2 2 6 27459.2 2940.2 14
2 2 6 157967 6459.68 13
-2 2 6 26049.2 3813.24 13
-2 2 6 82935.9 3086.67 3
-2 -2 6 94624.8 2591.36 22
-2 -2 6 98027.5 3346.05 20
-2 -2 7 53476.3 2416.93 3
-2 -2 7 48385.7 1909.55 4
2 2 7 8767.35 771.277 16
-2 2 7 10362.4 2009.96 14
2 2 7 9753.7 2431.47 13
-2 2 7 25095.5 3490.14 13
-2 2 7 44316.3 2078.65 3
-2 -2 7 51811 2257.01 20
-2 -2 8 80371.5 2704.42 4
2 2 8 77660.6 2474.07 16
2 2 8 86796.8 5583.56 13
-2 2 8 73601.5 3005.6 3
-2 -2 8 83340.3 3181.89 20
-2 -2 9 10750.6 1255.56 3
2 2 9 9867.21 825.433 16
2 2 9 9034.62 2383.97 13
-2 2 9 9265.79 1035.27 3
-2 -2 9 9578.19 1088.07 20
-2 -2 10 30466.6 2091.58 3
2 2 10 35000.3 1624.11 16
-2 2 10 29277.4 1866.73 3
-2 2 10 32785.6 2043.7 21
-2 -2 10 32644.6 1971.44 20
-2 -2 11 5442.63 922.052 3
2 2 11 7702.05 746.834 16
2 2 11 6234.6 2189.96 13
-2 2 11 5559.68 848.119 3
-2 -2 11 6083.28 852.778 20
-2 -2 12 33925.2 2101.69 3
2 2 12 11960.2 950.143 16
2 2 12 14689 2950.02 13
-2 2 12 39122.3 4952.9 13
-2 2 12 35064.1 1928.41 3
-2 -2 12 37603.2 2042.93 20
2 2 13 1073.3 298.257 16
-2 2 13 9613.52 2060.57 14
-2 -2 13 6963.23 1466.13 14
-2 2 13 9013.06 2744.12 13
-2 -2 13 2365.96 618.326 3
-2 -2 13 3183.38 600.902 20
2 2 14 20049.3 1043.62 16
-2 -2 14 18005.1 1362.98 3
-2 -2 15 596.262 768.405 14
2 -4 -14 12787.8 1369.96 34
-2 -4 -14 32528.6 2393.65 33
2 4 -13 2243.95 489.745 36
2 -4 -13 3524.62 780.457 34
-2 4 -13 8310.29 844.391 27
-2 -4 -13 11031.6 1007.19 26
2 -4 -12 34144 2378.97 34
2 4 -12 30287.3 1848.81 36
2 -4 -12 21470 1458.88 7
-2 -4 -12 35721.6 3020.75 33
-2 -4 -12 20144.9 1567.06 26
-2 4 -11 7639.17 1343.59 42
2 4 -11 14366.6 1357.34 36
2 -4 -11 11278.5 1078.69 7
-2 -4 -11 6610.08 1443.45 33
2 -4 -11 10258 1066.34 19
2 -4 -10 25183.7 1614.33 19
-2 4 -10 25619.9 2403.09 42
-2 -4 -10 29492.4 2198.84 25
2 -4 -10 24611.7 1575.86 7
2 -4 -9 13100.1 1146.67 19
2 4 -9 209.688 760.063 41
2 -4 -9 12812.4 1134.62 7
2 4 -9 15336.2 1034.44 2
-2 4 -9 5160.07 723.97 26
-2 -4 -9 3939.66 743.292 26
-2 -4 -9 3306.06 867.613 25
2 -4 -8 60863.2 2645.33 7
-2 4 -8 69590 2669.93 26
-2 -4 -8 56412 2759.72 26
2 4 -8 77297.7 2442.87 2
2 -4 -8 64864.2 2642.82 19
2 -4 -7 1907.58 461.632 19
2 4 -7 2016.77 550.418 36
2 4 -7 2062.33 386.926 32
2 -4 -7 1420.23 417.29 7
-2 4 -7 21689.2 1296.1 26
-2 4 -7 7064.43 2424.19 41
-2 -4 -7 17545.5 1394.15 26
2 4 -7 2436.21 403.724 2
-2 -4 -7 14750.9 1038.08 22
2 -4 -6 80676.4 2940.06 19
2 4 -6 94438.5 2661.22 2
-2 4 -6 108402 2327.13 40
2 4 -6 87092.8 2885.81 32
-2 4 -6 106697 3111.02 27
2 4 -6 75920.4 2658.67 12
-2 -4 -6 110655 3754.55 26
2 4 -6 93697.2 3507.5 36
-2 -4 -6 95637.3 3150.32 22
2 -4 -5 8209.74 764.067 19
-2 -4 -5 7088.05 664.987 4
2 4 -5 8280.49 907.841 36
2 4 -5 7532.01 766.931 32
-2 4 -5 8769.77 757.458 26
-2 -4 -5 7334.58 898.147 5
2 4 -5 7252.25 640.351 12
-2 -4 -5 6898.2 866.793 26
-2 4 -5 8528.63 449.464 39
-2 4 -5 7343.38 479.877 40
2 -4 -5 7897.57 905.81 9
-2 4 -4 86050 2215.07 40
2 4 -4 118426 3523.03 36
-2 -4 -4 78429.8 2762.66 4
2 4 -4 106817 3202.44 32
2 -4 -4 104741 3358.81 9
-2 -4 -4 103774 3515.11 6
-2 -4 -4 83809.5 3202.71 5
2 4 -4 112133 2747.56 12
2 -4 -4 122899 3097.01 19
-2 4 -4 87203.9 2042.96 39
2 -4 -3 9767.96 991.354 9
-2 4 -3 15962.8 2887.19 41
2 -4 -3 11120.8 832.876 19
2 -4 -3 10922.2 925.953 8
-2 -4 -3 32330.4 1527.24 4
2 4 -3 11369.8 938.743 36
-2 4 -3 36634.5 904.972 39
-2 4 -3 37415.2 1089.95 40
2 4 -3 10137.4 925.937 32
2 4 -3 11190.8 1378.34 30
-2 -4 -3 40238.2 1902.74 6
2 4 -3 11520 757.486 12
-2 4 -2 103951 6712.79 41
2 -4 -2 125344 3520.07 9
2 4 -2 124952 3108.17 36
-2 -4 -2 57849.5 2581.6 4
2 4 -2 111852 3286.82 32
2 4 -2 107856 2107.92 1
2 4 -2 121446 4682.06 30
-2 -4 -2 74789.8 2865.51 6
-2 4 -2 66892.8 2341.37 28
-2 -4 -2 65387.3 2885.08 5
2 4 -2 120769 2595.23 12
2 -4 -2 115695 3022.45 8
-2 4 -2 63713 2035.28 40
2 -4 -2 138739 2891.74 19
2 -4 -1 48163.3 1511.28 19
2 -4 -1 47533.7 1796.16 8
2 4 -1 53223.6 1588.68 37
2 4 -1 47111.5 1714.15 36
-2 -4 -1 49175.5 2177.05 4
2 4 -1 47473.6 2935.45 30
-2 -4 -1 63705.7 2265.68 6
-2 4 -1 52801.6 1780.16 28
-2 -4 -1 52414.1 2290.36 5
2 4 -1 50047.8 1575.28 12
2 4 -1 54724 1682.91 11
-2 4 -1 53957.7 1445.36 11
2 4 -1 46255.1 1253.44 1
-2 4 -1 34251.9 1856.09 10
-2 4 0 30758.1 3735.73 41
2 4 0 55167.3 1883.25 36
2 -4 0 69192.7 1852.67 19
2 -4 0 71412.1 2262.36 8
2 -4 0 67252.7 1789.73 18
2 4 0 71359.6 2111.56 37
2 4 0 79051.8 1825.64 1
2 4 0 76811.2 1971.46 17
-2 4 0 68422.1 1822.94 40
-2 -4 0 64967.5 2638.84 4
2 4 0 57702.7 2349.82 32
-2 -4 0 80175 2538.67 6
-2 4 0 69945.4 2380.69 28
-2 -4 0 59658.4 2304.97 28
-2 -4 0 72271.8 2798.87 5
2 4 0 72376.6 2017.35 11
-2 4 0 66962.4 1778.53 11
-2 4 0 106518 3172.68 10
-2 4 1 46785.4 1397.1 40
2 -4 1 54816.8 1453.64 19
2 4 1 59017.4 1923.53 37
2 -4 1 54183 1393.76 18
2 -4 1 58868.1 1918.58 8
2 4 1 63954.3 1676.16 17
2 4 1 47568.3 1995.77 32
-2 -4 1 51431.8 1833.78 6
2 -4 1 59095.6 2876.93 29
-2 4 1 43525.8 1909.48 28
-2 -4 1 49148.2 2027.33 28
-2 -4 1 46068.2 2142.63 5
2 4 1 60703.5 1687.73 11
-2 4 1 43138.5 1345.88 11
-2 4 1 45001.2 2369.05 10
2 4 1 68301.4 1586 1
2 -4 2 68866.9 1878.13 18
2 -4 2 70849.9 2384.09 8
2 4 2 76916.4 2161.73 17
-2 -4 2 119504 3764.3 4
-2 4 2 121461 2341.82 40
2 4 2 59541.7 2434.15 32
-2 -4 2 123066 3493.77 5
2 4 2 74576.9 2170.02 11
-2 4 2 120793 2439.24 11
2 -4 2 68641.6 1929.66 19
2 4 2 89059.3 2197.92 1
-2 4 3 9524.28 623.612 40
2 -4 3 35549.2 1030.35 19
2 4 3 39485.7 1271.84 17
-2 -4 3 9614.67 1121.49 4
2 4 3 28537.7 1400.64 32
-2 -4 3 10330.7 1006.95 5
2 4 3 38883.4 1299.42 11
-2 4 3 15374.3 1476.15 42
2 -4 4 94656.5 2299.45 19
2 4 4 101116 2566.41 17
2 4 4 90833.1 2629.5 16
-2 -4 4 114020 4014.83 4
-2 4 4 106338 2365.63 40
2 4 4 75240.4 2669.01 32
-2 -4 4 112239 3343.17 5
2 4 4 93856.5 2554.93 11
-2 4 4 93836.4 3561.07 21
-2 4 5 6038.52 439.538 40
2 4 5 8579.29 644.695 17
2 4 5 8528.51 702.167 16
-2 -4 5 6441.96 1002.88 4
2 4 5 7284.64 687.839 32
-2 -4 5 6003.51 718.343 5
2 4 5 8485.78 656.792 11
-2 4 6 72290.2 1885.01 40
2 4 6 119985 2704.43 17
-2 -4 6 73818.8 3249.82 4
2 4 6 115246 2791.91 16
2 4 6 112399 2810.7 32
-2 4 6 34150.2 4050.18 13
-2 -4 6 58731.5 2383.4 22
-2 4 6 43434.8 2609.46 21
2 4 7 17315.6 965.574 17
2 4 7 17536.4 1041.11 16
-2 4 7 58721.9 5041.64 13
-2 -4 7 2253.93 694.913 4
-2 4 7 42606.9 2257.65 21
-2 -4 8 50379.2 2608.6 20
2 4 8 51904.8 1866.8 17
2 4 8 49818.2 1935.92 16
-2 4 8 69799.5 5849.56 13
-2 4 8 44071.2 2403.15 21
-2 -4 8 64048.1 2910.87 4
-2 -4 9 14103 1254.74 4
-2 -4 9 14169.9 1447.48 3
2 4 9 3700.11 483.101 17
2 4 9 3911.76 535.802 16
-2 -4 9 12702.2 1265.38 20
-2 -4 10 25060.5 1962.18 3
2 4 10 31992.1 1409.57 17
2 4 10 30434 1471.77 16
-2 -4 10 23933.3 1767.53 20
2 4 11 2940.78 418.232 17
2 4 11 2603.18 432.292 16
-2 4 11 13292.7 3072.51 13
-2 -4 11 9915.77 1101.6 20
-2 -4 12 25848.4 1854.68 3
2 4 12 13222 907.041 16
-2 4 12 23104.1 3783.5 13
2 4 12 13848.4 868.516 17
-2 -4 12 24134.1 1635.19 20
2 4 13 7453.42 578.942 17
2 4 13 6997.02 602.139 16
-2 -4 13 2318.22 540.006 20
-2 -4 13 2528.78 637.466 3
-2 -4 13 -136.665 848.895 14
-2 4 13 -100.331 1531.34 13
2 4 14 18049.8 837.417 17
2 4 14 17171.4 888.759 16
2 6 -12 6928.16 790.378 36
2 -6 -12 8338.09 1067.46 34
-2 6 -12 19146.3 1206.54 27
-2 -6 -12 23928.7 1444.82 26
2 -6 -11 9255.98 972.296 7
-2 -6 -11 7711.26 935.349 26
-2 6 -10 12864 1160.53 27
-2 -6 -10 9892.32 1378.66 25
2 6 -9 17133.1 1427.08 36
2 -6 -9 14458.9 1280.66 7
-2 6 -9 16145.1 1280.55 27
-2 -6 -9 16337.1 1410.04 26
-2 -6 -9 11942 1549.85 25
2 -6 -9 12926.8 1175.94 19
2 -6 -8 14770.5 1243.37 19
2 6 -8 -99.1935 1004.89 41
-2 6 -8 9168.91 3318.54 41
2 6 -8 16794.6 1412.16 36
-2 6 -8 29049.7 1669.67 27
-2 -6 -8 30407.4 1919.89 26
2 -6 -7 6340.31 797.433 19
-2 6 -7 7025.7 484.472 40
2 6 -7 7379.11 934.841 36
2 -6 -7 5559.75 854.898 7
-2 6 -7 6956.44 831.8 27
-2 -6 -7 7103.82 962.918 26
-2 -6 -7 6548.39 807.376 22
2 -6 -6 26553.3 1592.51 19
2 6 -6 27711.7 1765.25 36
-2 6 -6 24088.1 1028.9 40
2 -6 -6 26922.9 1772.88 7
-2 -6 -6 29996.5 1893.79 5
2 6 -6 26599.7 1491.43 12
-2 -6 -6 29406.3 1945.97 26
-2 -6 -6 23928.3 1598.3 22
2 -6 -5 6030.2 730.142 19
-2 6 -5 4662.13 437.437 40
2 6 -5 6142.08 800.12 36
2 -6 -5 5170.2 790.513 7
-2 -6 -5 7192.08 1028.28 6
2 6 -5 6831.21 713.983 12
-2 -6 -5 5422.94 840.747 5
-2 6 -4 47306.6 5516.81 41
2 6 -4 48078.6 2131.41 36
2 6 -4 70466 2641.6 32
-2 -6 -4 36317.2 2275.62 6
-2 6 -4 18980.7 1047.4 40
2 6 -4 51211.2 1917.77 12
-2 -6 -4 31060.1 2031.23 5
-2 -6 -4 25131 1508.4 4
2 -6 -4 36168.2 2093.17 5
2 -6 -4 51172.7 2689.3 9
2 -6 -4 56958.5 2113.31 19
2 -6 -3 14060.8 1005.06 19
-2 6 -3 590.723 1550.43 41
-2 -6 -3 7813.82 890.127 4
2 6 -3 11547.4 974.811 36
2 -6 -3 8740.3 1156.48 5
-2 6 -3 7264.11 584.06 40
2 6 -3 16037.9 1269.84 32
-2 -6 -3 12615.3 1248.55 6
2 6 -3 13111.1 938.994 12
2 -6 -3 13430.7 1400.02 9
-2 6 -2 11875.4 3027.76 41
2 -6 -2 29002.3 2039.39 5
-2 6 -2 29707.3 1257.25 40
2 -6 -2 43288 2233.79 8
2 6 -2 30878.7 1575.35 36
-2 -6 -2 29094.2 1811.93 4
2 6 -2 46842.1 2204.39 32
-2 -6 -2 42633.3 2233.64 6
2 6 -2 36878.5 1576.01 12
-2 -6 -2 33935.3 2141.81 5
2 -6 -2 40791.8 2395.55 9
2 -6 -1 40418.7 2013.28 8
2 6 -1 27721.1 1310.14 36
-2 -6 -1 9056.38 1151.16 4
-2 -6 -1 11611.3 1161.44 6
2 6 -1 33212.8 1388.52 12
-2 -6 -1 9295.6 1165.44 5
-2 6 -1 -130.897 1558.59 41
2 -6 0 48604.6 2655.44 9
-2 6 0 40243.3 1471.29 40
2 -6 0 49609.5 2222.79 8
2 6 0 31191.5 1423.63 36
-2 -6 0 36800.9 2299.07 4
2 6 0 50221 2297.64 32
-2 -6 0 44631 2152.54 6
2 6 0 40403.8 1649.75 12
-2 -6 0 38943 2340.98 5
2 6 0 44694.4 1827.13 11
-2 6 0 38609.4 1521.26 11
-2 6 0 60369.4 2757.28 10
2 -6 1 9545.89 1204.33 9
-2 6 1 -323.943 1462.65 41
-2 6 1 33273.3 1238.68 40
-2 6 1 6017.24 2885.72 15
2 6 1 17636.6 1392.34 32
-2 -6 1 36302.9 1753.19 6
-2 -6 1 30517 2099.06 4
2 6 1 8759.08 793.689 12
-2 -6 1 32794.6 2079.71 5
2 6 1 9648.92 854.771 11
-2 6 1 33939.6 1367.2 11
-2 6 1 55162.5 2644.52 10
2 -6 1 10357.3 1023.55 8
-2 6 2 -191.487 1161.68 41
-2 6 2 38558.2 1340.52 40
-2 -6 2 35254.6 2327.98 4
-2 6 2 29155.3 4677.96 15
2 6 2 50430.6 2162.56 32
-2 -6 2 34357.9 2110.73 5
2 -6 2 34944.9 2236.65 9
2 6 2 35806.9 1587.15 11
-2 6 2 39454.2 1524.42 11
2 -6 2 33653.7 1683.11 8
-2 6 2 9311.54 1257.43 10
2 -6 3 7731.92 1092.29 9
2 -6 3 8444.46 841.834 8
2 6 3 8193.41 679.024 17
2 6 3 12988.4 1090.26 32
-2 6 3 11600.4 724.288 40
-2 -6 3 10297.5 1200.07 5
2 6 3 10047.9 845.405 11
-2 6 3 12496.1 863.154 11
2 -6 4 23884.6 1943.83 9
2 -6 4 22645.1 1449.34 8
-2 6 4 49703.5 1543.24 40
2 6 4 30324.9 1409.61 17
-2 -6 4 49532.7 2972.86 4
2 6 4 44320.2 2005.57 32
-2 -6 4 52262.4 2549.12 5
2 6 4 33347 1599.49 11
-2 6 4 56315 1981.75 11
2 -6 5 5787.52 934.832 9
-2 6 5 6310.16 502.898 40
2 -6 5 4816.28 638.915 8
2 6 5 6413.88 608.309 17
-2 -6 5 8126.52 1239.8 4
-2 -6 5 5348.72 847.19 5
2 6 5 6577.18 676.11 11
-2 6 5 6750.39 700.438 11
2 -6 6 32236.4 2164.29 9
-2 6 6 23914.9 903.191 40
2 6 6 34690.9 1381.58 17
-2 -6 6 22726.8 1968.11 4
2 6 6 34479.1 1507.73 11
-2 6 6 28620 1423.74 11
2 -6 7 10810.8 1259.65 9
2 6 7 10506.6 785.63 17
-2 -6 7 6666.75 1129.86 4
2 6 7 10112.7 858.332 11
-2 6 7 6946.26 756.557 11
2 -6 8 36009.2 2186.76 9
2 6 8 33509.6 1389.68 17
-2 -6 8 15246.9 1635.29 4
2 6 8 33132.2 1537.96 11
-2 6 8 16766 1196.5 11
2 6 9 16449.9 947.819 17
-2 -6 9 13445.8 1435.53 3
-2 -6 9 13066.7 1372.9 4
2 6 9 16827.7 1067.07 11
2 -6 10 9448.71 1187.76 5
-2 -6 10 25886.7 1865.84 3
-2 -6 10 22930.1 1615.75 4
2 6 10 12564.3 815.641 17
2 6 10 12835.9 909.346 11
-2 6 10 28026.9 1405.83 11
-2 -6 10 21661 1642.14 20
-2 -6 11 10264.3 1169.39 3
-2 6 11 11492.2 842.022 11
-2 -6 11 9434.04 1022.34 20
-2 -6 12 6980.49 926.353 3
-2 -6 12 5526.91 752.575 20
2 8 -9 457.416 1038.73 41
2 8 -9 15115.8 1089.42 36
2 8 -8 5053.76 676.03 36
2 -8 -8 4395.7 719.779 7
-2 -8 -8 6486.27 811.051 26
2 8 -7 20400.8 1354.82 36
2 -8 -7 19147.4 1438.03 7
-2 8 -7 18061.6 1267.78 27
2 -8 -7 14172 1197.32 6
-2 -8 -7 14338.6 1242.82 26
-2 8 -6 10282 606.783 40
2 8 -6 6104.26 769.004 36
2 -8 -6 7519.79 956.421 7
-2 8 -6 10649.7 986.186 27
-2 -8 -6 9366.37 1078.81 26
-2 8 -5 -157.388 1422.88 41
-2 8 -5 26777.2 1059.7 40
2 8 -5 9210.71 925.143 36
2 -8 -5 9413.44 1085.34 7
2 8 -5 811.048 1145.74 41
-2 8 -5 25354.5 1502.62 27
-2 -8 -5 22707.6 1617.51 5
-2 -8 -5 21871.1 1626.32 26
2 -8 -5 7113.67 1098.31 23
-2 -8 -5 19354.3 1459.56 22
2 8 -4 10592.6 2307.08 41
-2 8 -4 -157.853 1479.79 41
-2 8 -4 22052 996.876 40
2 8 -4 4352.9 635.706 36
2 -8 -4 6269.97 919.611 7
-2 -8 -4 17091.3 1468.68 5
2 -8 -4 4617.81 946.279 23
-2 8 -3 14710.4 880.35 40
2 8 -3 22689.8 1351.33 36
2 -8 -3 27848.5 1809.7 7
-2 -8 -3 14507.3 1403.78 5
-2 8 -3 926.476 1789.29 41
2 -8 -3 31842.2 2195.56 5
-2 8 -2 589.898 1525.04 41
-2 8 -2 11487.9 783.181 40
-2 -8 -2 7605.18 924.385 4
2 8 -2 12452.2 947.777 36
2 -8 -2 15200.4 1330.46 7
-2 -8 -2 12635.2 1274.18 6
2 -8 -2 20834.5 1965.73 5
-2 -8 -1 16644.7 1465.98 4
2 -8 -1 30073.4 1830.45 7
-2 -8 -1 22941.8 1656.78 6
-2 -8 -1 20961.6 1796.35 5
2 -8 -1 28252.9 2336.1 5
2 -8 -1 35106.7 2543.83 9
-2 8 0 12883.7 833.341 40
-2 -8 0 10667.4 1270.36 4
2 -8 0 15257.2 1276.68 7
-2 -8 0 11979.1 1381.12 5
2 -8 0 11188.8 1599.12 5
2 -8 0 16632.8 1815.42 9
-2 -8 1 24224.8 1951.11 4
-2 -8 1 27258.5 2072.44 5
-2 8 1 28608.5 1444.97 11
-2 8 1 28218 1272.4 40
2 -8 1 28431.8 2272.17 9
-2 8 2 13168.2 832.73 40
-2 -8 2 10450.9 1323.73 4
-2 -8 2 13380.7 1455.95 5
2 8 2 12933.6 1040.81 11
-2 8 2 13735 991.557 11
2 -8 2 15539.3 1711.83 9
2 -8 2 10447.9 1564.62 5
-2 8 3 23580.2 1081.48 40
-2 -8 3 20270.3 1832.95 4
-2 -8 3 24170.8 1895.04 5
2 8 3 15737.2 1144.43 11
-2 8 3 26428.3 1357.91 11
2 -8 3 20061.9 1913.21 9
2 -8 4 19042.3 2001.42 5
-2 8 4 4362.91 440.179 40
-2 -8 4 4004.91 838.208 5
2 8 4 22128.8 1259.56 11
-2 8 4 4915.79 609.988 11
2 -8 4 19525.9 1904.32 23
-2 8 4 150.284 378.043 10
2 -8 4 28214.6 2167.53 9
-2 8 5 8889.3 568.712 40
-2 -8 5 10194.5 1337 4
-2 -8 5 9582.34 1117.69 5
2 8 5 25896.4 1317.99 11
-2 8 5 10826.8 855.72 11
2 -8 5 20804.8 1856.38 23
2 -8 5 24780.9 2253.49 5
-2 8 5 35.973 333.135 10
2 -8 5 30493 2196.77 9
-2 -8 6 5820.48 1051.32 4
2 -8 6 7959.25 1320.31 5
2 8 6 9860.4 812.013 11
2 -8 6 7482.93 1059.01 23
-2 -8 6 4892.7 730.148 22
2 -8 6 11199 1289.94 9
2 -8 7 15237.7 1699.55 5
-2 -8 7 16345.3 1549.69 4
2 8 7 17084.1 998.497 11
-2 -8 8 3529.78 799.98 4
-2 8 8 80.4819 271.02 10
2 -8 8 4957.63 936.526 5
-2 -8 8 1943.83 564.391 20
-3 1 -14 25862.2 1403.42 26
3 1 -13 383.41 250.667 36
3 -1 -13 298.497 372.804 34
3 1 -13 385.675 432.501 34
-3 1 -13 5118.04 694.986 26
-3 -1 -13 4233.09 621.277 26
3 -1 -12 36566.6 1932.82 19
3 1 -12 49436.9 2473.23 36
3 -1 -12 56874.1 3281.2 34
3 1 -12 53966.1 3197.62 34
-3 1 -12 40617.5 2146.44 26
-3 -1 -12 37188.4 1997.17 26
3 1 -11 780.7 320.903 19
3 -1 -11 866.676 378.709 19
3 1 -11 1124.24 393.099 2
3 -1 -11 2453.18 793.69 34
3 1 -11 1742.21 697.395 34
-3 -1 -11 205.755 490.472 33
-3 1 -11 1198.09 431.396 26
-3 -1 -11 695.641 375.07 26
3 1 -10 34781 1808.2 19
3 -1 -10 33897 1919.27 19
3 -1 -10 49164.2 3092.8 34
3 1 -10 49567.7 3100.93 34
-3 -1 -10 32531.5 2800.41 33
-3 1 -10 45862.6 2087.22 27
3 -1 -10 33583.2 1842.04 2
-3 1 -10 66041 2728.89 26
-3 -1 -10 63876.1 2690.12 26
-3 -1 -10 57122.4 2801.1 25
3 1 -9 4640.19 624.359 19
3 -1 -9 4397.5 656.405 19
3 -1 -9 6125.1 1031.99 34
3 1 -9 5694.87 1056.88 34
-3 -1 -9 339.85 529.769 33
-3 1 -9 551.824 322.505 27
-3 1 -9 1211.45 447.137 26
-3 -1 -9 1090.29 447.943 26
3 -1 -9 4568.44 625.632 2
-3 -1 -9 1059.59 535.048 25
3 1 -8 47098.2 2038.36 19
3 -1 -8 46586.8 2150.28 19
-3 1 -8 48846.8 1680.19 39
3 -1 -8 53985.1 2865.44 34
3 1 -8 49645.3 2856.3 34
-3 -1 -8 18740.6 2196.56 33
-3 1 -8 59172.2 2312.09 27
-3 1 -8 71139.1 2651.3 26
-3 -1 -8 75400.5 2960.68 26
-3 1 -8 71125.3 3154.7 25
-3 -1 -8 66964.6 3484.78 25
3 -1 -8 45829.9 2025.18 2
-3 1 -8 54922.3 3254.57 42
3 1 -7 12157.5 930.348 19
3 -1 -7 11477.1 887.47 2
3 -1 -7 11073.3 943.228 19
-3 1 -7 2676.81 358.194 39
-3 -1 -7 2651.45 391.881 39
3 -1 -7 12361.6 1250.96 34
3 1 -7 13029 1325.67 34
-3 1 -7 2945.64 533.63 27
-3 1 -7 3730.01 599.589 26
-3 -1 -7 4340.48 706.735 26
-3 1 -7 3688.83 790.176 25
-3 -1 -7 3357.82 889.982 25
3 -1 -6 59975.5 2436.28 8
3 1 -6 65244.6 2395.85 19
3 -1 -6 59403 2428.2 19
-3 1 -6 106210 2437.34 39
3 -1 -6 55420.2 2623.69 34
3 1 -6 60164.9 2925.17 34
-3 1 -6 114126 3065.24 27
-3 1 -6 134122 3382.29 26
-3 -1 -6 139914 3751.98 26
-3 1 -6 125738 4264.92 25
-3 -1 -6 136893 5209.2 25
-3 1 -6 45183.1 3276.48 42
-3 1 -5 3294.31 369.265 39
3 1 -5 69.6598 159.707 19
3 -1 -5 159.813 222.034 19
3 -1 -5 127.618 252.811 8
3 -1 -5 81.8255 227.621 34
3 1 -5 74.179 235.906 34
-3 1 -5 3941.03 530.003 27
-3 1 -5 4157.96 541.456 26
-3 -1 -5 4657.39 692.959 26
-3 1 -5 3404.25 753.119 25
-3 -1 -5 3914.53 916.84 25
3 1 -4 103973 2567.89 19
3 -1 -4 96075.8 2626.16 19
-3 -1 -4 83915.1 2349.88 39
3 -1 -4 99664.3 2711.8 8
3 1 -4 91154.6 2371.25 18
3 1 -4 89645.3 2981.59 34
-3 1 -4 86286.1 2575.23 27
-3 1 -4 90254.7 2627.12 26
-3 -1 -4 108204 3214.5 26
-3 1 -4 84232.4 3543.2 25
-3 1 -4 76554.3 2168.51 39
-3 1 -4 92123.6 4393.68 42
-3 -1 -3 8276.3 589.636 39
3 -1 -3 8368.7 667.058 8
3 1 -3 7866.44 545.451 8
3 1 -3 8218.65 562.245 18
3 1 -3 8941 584.067 19
3 1 -3 7919.5 499.384 1
-3 1 -3 7921.81 605.723 27
-3 1 -3 7559.88 592.671 26
-3 -1 -3 10678.7 852.426 26
-3 -1 -3 9819.46 1309.49 25
-3 1 -3 6978.4 466.634 39
-3 -1 -2 42767.6 1767.45 39
3 -1 -2 120410 2448.42 18
3 -1 -2 127532 2786.75 8
3 1 -2 123911 2377.07 18
3 -1 -2 104545 2055.21 1
3 1 -2 112127 2162.91 1
-3 1 -2 41238.7 1725.54 26
-3 -1 -2 49764.3 2038.99 26
-3 1 -2 39552.9 2414.71 25
-3 -1 -2 45797 2917.98 25
-3 1 -2 107876 2855.26 21
3 1 -2 124311 2398.82 19
-3 1 -1 1876.37 246.844 39
-3 -1 -1 1824.14 266.798 39
3 1 -1 2270.82 287.98 19
3 -1 -1 1966.08 281.032 18
3 1 -1 2415.61 315.702 18
3 -1 -1 2304.74 275.8 1
-3 1 -1 1833.57 488.054 25
-3 -1 -1 2099.86 662.954 25
-3 1 -1 16992.3 1176.54 21
3 1 -1 2502.82 310.082 1
-3 1 -1 14025.5 1647.75 42
-3 1 0 89155.6 2115.55 39
-3 -1 0 86375.1 2090.86 39
3 -1 0 82362.1 2132.94 1
3 -1 0 77517.6 2235.34 19
3 -1 0 82987.1 2282.96 18
3 1 0 86406.9 2297.41 18
3 1 0 93812.7 2319.27 1
-3 1 0 83520.8 3060.35 25
-3 -1 0 96961.5 3750.18 25
-3 1 0 109667 3236.97 21
-3 -1 0 100563 2947.82 20
-3 1 0 97546.9 4141.91 42
-3 -1 1 2837.77 287.212 39
3 -1 1 1782.24 299.951 18
3 1 1 2177.83 289.798 17
3 -1 1 2290.23 300.273 1
3 1 1 2116.48 317.702 1
-3 1 1 2335.47 487.281 25
-3 -1 1 2735.03 614.627 25
-3 -1 1 2476.02 410.484 3
-3 -1 1 2647.6 525.237 20
-3 -1 2 142498 3573.07 4
-3 -1 2 147448 2320.23 39
3 1 2 48788.5 1905.01 1
3 1 2 41786 1696.45 17
-3 1 2 121312 3121.16 25
-3 -1 2 125756 3558.33 25
3 -1 2 44147.5 1757.6 1
-3 -1 2 148365 3326.09 3
-3 -1 2 160334 3896.31 20
-3 -1 3 10426.4 960.926 4
3 -1 3 6768.98 457.056 17
3 1 3 7723.74 561.907 17
-3 -1 3 10368.1 547.147 39
3 -1 3 8563.96 633.481 1
-3 1 3 11446.9 1029.2 3
-3 -1 3 9354.84 852.862 25
-3 -1 3 10657.1 938.568 3
-3 -1 3 11783.3 1144.25 20
-3 -1 4 106793 3357.44 4
-3 -1 4 121816 2453.99 39
3 -1 4 78025.2 2227.44 17
3 1 4 83360.6 2441.98 17
-3 -1 4 137320 4020.8 14
-3 1 4 125105 3787.92 3
-3 -1 4 112937 3541.06 3
-3 -1 4 125685 4051.4 20
-3 -1 5 115.099 102.882 39
-3 -1 5 93.1588 410.148 20
3 -1 5 3372.97 343.307 17
3 1 5 3586.15 405.948 17
-3 1 5 -137.613 348.065 3
-3 -1 5 178.885 334.024 3
-3 -1 5 8848.41 1295.25 14
-3 1 5 7846.19 1586.56 14
-3 -1 5 -20.8836 273 4
3 -1 6 103692 2476.31 17
3 1 6 108568 2707.44 17
-3 1 6 100847 4659.06 14
3 1 7 2665.62 387.232 17
3 -1 7 2630.19 347.058 17
-3 -1 7 5048.62 1267.14 14
-3 -1 7 11343.1 1187.36 3
-3 -1 7 13180.8 1359.82 20
3 1 8 54963.4 1874 17
3 -1 8 50993 1699.81 17
3 1 8 52616.5 1740.93 16
-3 1 8 46366.9 2566.47 3
-3 -1 8 43177.2 2478.64 3
-3 -1 8 48540 2707.51 20
3 1 9 577.21 222.736 17
3 -1 9 453.831 192.62 17
-3 1 9 9286.95 1921.8 14
-3 1 9 5268.19 870.823 3
-3 -1 9 5125.33 880.227 20
3 1 10 43232.8 1657.65 17
3 -1 10 40572.5 1514.65 17
-3 1 10 44409.9 3549.81 14
-3 -1 10 46066.8 3224.4 14
-3 1 10 43913.6 2490.33 3
-3 -1 10 41207.9 2411.02 20
-3 1 11 1244.33 518.635 3
3 1 11 583.409 226.436 17
3 -1 11 396.051 182.218 17
-3 -1 11 1363.22 551.367 3
-3 -1 11 1392.41 522.551 20
-3 1 11 10938.7 2078.43 14
-3 -1 11 17520.2 2064.07 14
-3 1 11 10909.6 1410.91 21
3 1 12 22640.8 1117.69 17
-3 1 12 27381.8 3009.15 14
-3 -1 12 47013.8 3370.65 14
-3 1 12 49126.6 2379.81 3
-3 -1 12 46186.5 2358.34 3
-3 1 12 15822 1623.23 21
3 1 13 2686.84 352.527 17
-3 -1 13 3051.09 1171.14 14
3 3 -13 857.633 317.189 36
3 -3 -13 475.803 441.672 34
3 -3 -12 15421.4 1272.08 19
3 3 -12 25250.1 1700.38 36
3 -3 -12 22571.2 1878.38 34
-3 3 -12 23174.9 1388.03 27
-3 3 -12 33203.9 1732.3 26
-3 -3 -12 36069.2 1838.32 26
3 3 -11 3271.81 703.239 36
3 -3 -11 2887.64 789.631 34
-3 -3 -11 2710.91 899.265 33
-3 3 -11 1233.7 409.204 27
-3 3 -11 2028.14 489.618 26
-3 -3 -11 2041.97 525.821 26
3 -3 -10 38212.2 2443.33 34
3 -3 -10 28392.3 1588.29 7
-3 -3 -10 30506.8 2731.56 33
-3 3 -10 13671.3 1195.53 27
-3 3 -10 18483.9 1414.86 26
3 3 -10 45697.6 1941.51 2
-3 -3 -10 18683.3 1502.92 26
-3 -3 -10 13928 1570.15 25
-3 3 -10 33836.5 2571.43 42
3 -3 -9 2260.49 541.688 19
3 -3 -9 1925.87 458.665 2
3 3 -9 3680.66 767.533 36
3 -3 -9 3367.04 770.235 34
3 3 -9 3587.46 917.549 34
3 -3 -9 2576.27 537.412 7
-3 3 -9 265.528 309.389 27
-3 3 -9 178.313 283.923 26
-3 -3 -9 558.111 415.64 26
3 3 -9 3987.68 586.804 2
-3 -3 -9 256.328 535.644 25
3 -3 -8 12269.4 1171.05 19
-3 3 -8 18257.8 2152.84 42
-3 3 -8 38100.4 1224.41 39
3 3 -8 20861.5 1800.45 36
3 -3 -8 16538.8 1552.6 34
3 3 -8 19849.9 1857.16 34
3 -3 -8 11150.9 1089.67 7
-3 3 -8 44876 2067.1 27
-3 3 -8 56732.1 2301.04 26
3 -3 -8 12383.9 1050.15 2
-3 -3 -8 65230.9 2830.72 26
-3 -3 -8 55881.5 3430.47 25
3 3 -8 20660 1292.21 2
3 -3 -7 3125.9 576.871 19
3 3 -7 4418.94 577.226 2
-3 3 -7 3237.87 369.334 39
3 -3 -7 3719.21 744.75 34
3 3 -7 3152.82 543.488 32
-3 3 -7 3670.24 590.085 27
-3 3 -7 4123.18 632.45 26
-3 -3 -7 5357.81 823.372 26
3 -3 -7 3195.61 520.941 2
-3 -3 -7 3359.42 968.301 25
3 -3 -6 16292 1349.52 8
3 -3 -6 16852.8 1266.49 19
-3 3 -6 29207.8 1109.69 39
3 3 -6 18412.2 1357.23 32
-3 3 -6 30455.5 1559.6 27
-3 3 -6 37121.9 1722.03 26
-3 -3 -6 45333.9 2275.87 26
-3 -3 -6 34204.6 2746.81 25
-3 3 -6 35332.2 3011.19 42
3 -3 -6 18474.7 1162.68 2
3 -3 -5 6737.36 782.002 19
3 -3 -5 6761.4 840.183 8
-3 3 -5 11970.8 664.034 39
3 -3 -5 7329.13 906.428 9
3 3 -5 7241.26 895.124 32
-3 3 -5 12026.3 915.965 27
-3 3 -5 14186.3 990.19 26
-3 -3 -5 18517.5 1402.86 26
-3 -3 -5 15905.9 1287.79 22
3 -3 -5 7405.03 682.561 2
3 -3 -4 83147.4 2852.77 9
3 -3 -4 97082.4 2767.98 19
-3 3 -4 47693.5 1586.89 39
-3 -3 -4 64020.8 2066.24 39
3 -3 -4 90712.2 2914.03 8
-3 3 -4 47442.9 1973.71 27
-3 3 -4 58480.6 2085.76 26
3 3 -4 112385 2624.06 12
-3 -3 -4 70348.7 2729.82 26
-3 -3 -4 64300 3707.09 25
-3 -3 -4 63727.2 2803.01 22
3 -3 -3 3840.35 685.743 9
3 -3 -3 4828.67 559.731 19
3 3 -3 5877.14 458.686 19
-3 -3 -3 15376.7 857.774 39
3 -3 -3 4893.47 619.595 8
3 3 -3 5307.28 438.564 18
-3 3 -3 11360.1 599.709 39
3 3 -3 6663.37 588.827 12
-3 -3 -3 15547.4 1144.14 26
-3 -3 -3 14069.9 1669.46 25
-3 -3 -3 14347.5 1243.75 22
-3 3 -2 94470.9 2373.46 39
-3 -3 -2 114700 3614.92 4
3 -3 -2 123444 2954.81 19
3 3 -2 142507 2651.73 19
-3 -3 -2 118085 2836.5 39
3 -3 -2 123296 3332.38 8
3 -3 -2 112263 2811.82 18
3 3 -2 136244 2638.77 18
3 3 -2 126345 2605.69 1
3 3 -2 152752 2996.92 12
-3 -3 -2 115997 3335.24 26
-3 -3 -2 108537 4760.51 25
-3 -3 -2 117045 3910.01 22
-3 3 -2 60872.2 3996.42 42
-3 -3 -1 6170.63 823.168 4
-3 -3 -1 6830.86 567.252 39
3 3 -1 9891.33 561.588 19
3 -3 -1 7677.94 598.557 18
3 3 -1 10127.3 605.537 18
3 -3 -1 7901.97 619.616 19
3 3 -1 10911.6 666.694 12
-3 -3 -1 6725.36 1178.61 25
3 3 -1 10094.4 612.543 1
-3 3 -1 6730.5 660.975 10
3 3 0 90029.6 2317.6 1
3 -3 0 70843.2 2235.32 19
-3 -3 0 105421 2472.36 39
3 3 0 81988.8 2139.49 19
3 -3 0 68854.3 2193.72 18
3 3 0 88714.7 2302.91 18
3 3 0 85126.3 2282.93 12
-3 -3 0 82245.5 3871.38 25
-3 -3 0 91012.3 3405.62 22
-3 3 0 91978.9 2869.93 10
-3 -3 0 94617.3 2964.22 20
-3 -3 1 12438.8 686.475 39
3 -3 1 4915.61 472.967 19
-3 -3 1 11102.7 1128.17 4
3 -3 1 4509.05 451.579 18
3 3 1 5307.9 521.189 17
3 3 1 6820.36 559.577 1
3 -3 1 3855.47 319.419 1
3 3 1 5238.7 479.287 12
-3 -3 1 9306.38 1223.37 25
-3 -3 1 10275.8 1067.1 22
-3 3 1 1789.8 441.625 10
-3 -3 1 12524.1 1053.94 20
-3 -3 2 188919 3116.91 39
3 -3 2 85531.1 2628.89 19
-3 -3 2 171974 4687.96 4
3 -3 2 87527.3 2596.97 18
3 3 2 115960 2925.55 17
-3 -3 2 160623 4939.58 25
-3 3 2 58377.7 3528.19 42
-3 -3 2 158369 4340.23 22
3 -3 2 84395.5 2309.03 1
-3 3 2 78590.3 3602.73 21
-3 -3 2 166363 3646.26 3
-3 -3 2 175635 4387.85 20
3 3 2 121739 2973.38 1
3 -3 3 11522.6 756.192 19
-3 -3 3 8071.25 1054.01 4
3 -3 3 11722.1 745.049 18
3 3 3 14657.2 876.514 17
3 3 3 17388.5 977.915 1
-3 -3 3 7157.82 995.676 25
-3 -3 3 6773.2 887.511 22
-3 -3 3 7551.74 964.984 20
-3 -3 3 7546.9 826.231 3
-3 -3 4 121776 3864.19 4
3 -3 4 53409 2010.32 18
3 3 4 63319.7 2186.75 17
-3 -3 4 119655 3593.69 22
-3 3 4 50710.2 2934.41 21
-3 -3 4 129813 4048.94 20
-3 -3 4 124439 3585.09 3
-3 -3 5 11205.5 1130.43 3
-3 -3 5 9450.4 1106.29 4
3 -3 5 12139.1 799.884 18
3 3 5 14826.5 907.081 17
3 3 5 9686.41 896.486 32
-3 -3 5 10181.4 981.226 22
-3 -3 5 12747.7 1292.91 20
-3 -3 6 24528.9 1771.89 3
-3 -3 6 26057 1771.25 4
3 -3 6 32915.5 1375.44 18
3 3 6 37974.9 1535.21 17
3 3 6 23422.6 1339.61 32
-3 3 6 39818 2486.32 21
-3 -3 6 27134.8 1948.97 20
-3 -3 7 4004.21 828.548 3
-3 -3 7 3939.37 718.14 4
3 3 7 3580.84 471.346 17
3 3 7 3492.83 472.827 16
-3 -3 8 20827.8 1806.42 3
-3 -3 8 18974.5 1484.54 4
3 3 8 49811 1758.4 17
3 3 8 48357.7 1737.24 16
-3 3 8 19186.7 1826.06 21
3 3 9 281.532 205.769 17
3 3 9 89.8095 171.369 16
-3 -3 9 2899.47 785.083 3
-3 -3 9 4015.63 863.544 20
3 3 10 13023 907.865 17
3 3 10 12701.5 908.618 16
-3 3 10 31679.7 2061.33 21
-3 -3 10 57054.8 2902.83 20
-3 -3 10 46890.2 2545.34 3
3 3 11 1182.44 283.374 17
3 3 11 1306.92 302.06 16
-3 3 11 3095.81 878.88 21
-3 -3 11 3760.13 795.219 20
-3 -3 11 3696.77 775.552 3
3 3 12 24964 1148 17
3 3 12 24858.5 1143.93 16
-3 -3 12 25801.4 1772.52 3
-3 -3 12 28328.2 1805.44 20
3 3 13 2492.17 333.488 17
-3 -3 13 988.493 378.019 20
3 -5 -11 5695.73 703.047 7
3 -5 -11 6925.88 960.542 34
-3 5 -11 4196.71 603.961 27
-3 -5 -11 5326.71 709.696 26
3 -5 -11 5301.01 717.691 19
3 -5 -10 17995.7 1349.03 19
3 5 -10 21438.9 1573.17 36
3 -5 -10 24087.9 1816.2 34
3 -5 -10 16867.9 1290.5 7
-3 5 -10 24331 1478.61 27
-3 -5 -10 31481.6 1859.3 26
-3 -5 -10 24657.7 2003.83 25
-3 5 -10 12508.2 1740.03 42
3 -5 -9 8360.88 935.092 19
3 5 -9 10231.9 1117.65 36
3 -5 -9 10740.8 1272.05 34
3 -5 -9 8198.38 928.948 7
-3 5 -9 2975.49 601.313 27
-3 -5 -9 4159.78 745.453 26
-3 -5 -9 2787.44 844.048 25
-3 5 -9 12139.1 1897.1 42
3 -5 -8 17346.7 1369.33 19
3 5 -8 21315.3 1655.18 36
3 -5 -8 16446.9 1384.27 7
-3 5 -8 24834.9 1565.1 27
-3 -5 -8 29877.8 1911.48 26
-3 -5 -8 24662.2 2287.62 25
-3 5 -8 29571.3 2902.96 42
3 -5 -7 21943.9 1479.89 19
3 5 -7 24876.9 1745.76 36
3 -5 -7 18978.3 1473.13 7
3 5 -7 26158.3 1425.96 32
-3 5 -7 8370.08 902.052 27
-3 -5 -7 8939.44 1087.25 26
-3 -5 -7 7599.64 1393.68 25
3 5 -7 25427.4 1280.23 2
-3 -5 -7 6612.11 831.823 22
-3 5 -7 9337.42 1861.29 42
3 -5 -6 31806.2 1845.1 19
3 5 -6 34527.2 2081.19 36
3 5 -6 35478.2 1886.89 32
-3 5 -6 35210.6 1804.68 27
-3 -5 -6 38825.2 2186.75 26
-3 -5 -6 30433.9 2658.85 25
-3 -5 -6 32119.7 1908.17 22
3 5 -6 39102.1 1631.65 2
-3 5 -6 26114.4 2880.73 42
3 -5 -5 21901.3 1499.8 19
3 5 -5 19052 1508.32 36
3 5 -5 22284.6 1568.51 32
-3 5 -5 39048.3 1807.08 27
3 5 -5 18481.5 1244.21 12
-3 5 -5 45045.6 1315.67 39
-3 -5 -5 40605.5 2173.26 26
-3 -5 -5 37445.2 2097.61 22
3 -5 -5 20353.9 1792.45 9
3 -5 -4 35239.2 1818.58 19
-3 5 -4 27791.2 1029.13 39
3 5 -4 30761.4 1789.46 36
3 5 -4 35276 2016.51 32
3 5 -4 33807.8 1580.1 12
-3 -5 -4 28936.1 1817.83 26
-3 -5 -4 25003 2447.32 25
-3 -5 -4 24246.9 1757.42 22
-3 5 -4 18986.8 2468.68 42
3 -5 -4 32283.7 2144.42 9
3 -5 -3 20595.3 1335.88 19
-3 5 -3 14860.9 738.933 39
3 -5 -3 18937.2 1479.78 8
-3 -5 -3 13934.8 1188.33 4
3 5 -3 14625.2 1147.21 36
3 5 -3 17941 1456.72 32
3 5 -3 16830.1 1079.64 12
-3 -5 -3 13799.8 1213.86 26
-3 -5 -3 14128 1360.52 22
3 -5 -3 18637.2 1617.21 9
3 -5 -2 41992.8 2404.22 9
3 -5 -2 46492.1 1925.26 19
-3 5 -2 11762.2 704.614 39
3 -5 -2 41328.3 2118.56 8
-3 -5 -2 11054.4 1173.18 4
3 5 -2 30654.2 1494.14 36
3 5 -2 38080.4 2045.52 32
3 5 -2 37801.2 1520.48 12
-3 -5 -2 11436.3 1146.32 26
-3 -5 -2 9444.85 1157.31 22
-3 5 -2 26547.9 2706.64 42
3 -5 -1 16868.1 1548.66 9
3 -5 -1 19786.9 1207.67 19
3 -5 -1 17214.8 1313.68 8
-3 -5 -1 16080 1389.91 4
3 5 -1 14031.5 718.017 1
-3 -5 -1 17627.9 1556.04 5
3 5 -1 17009.9 1010.1 12
-3 -5 -1 16128.6 1256.74 26
3 -5 0 31494.1 2134.79 9
-3 5 0 30073.7 1259.96 40
3 -5 0 32082.6 1454.45 19
3 -5 0 30486.2 1748.94 8
-3 -5 0 28664.9 1926.18 4
3 5 0 25093.7 1687.5 32
3 5 0 26197.5 1037.27 1
-3 -5 0 32573.6 2080.53 5
3 5 0 28259.6 1333.83 12
-3 -5 0 27216.6 2366.79 25
-3 -5 0 27125.4 1963.18 22
3 -5 1 19249.8 1079.28 19
3 -5 1 19336.3 1369.58 8
3 5 1 16022.6 1316.77 32
-3 -5 1 16185.5 1451.88 5
3 5 1 17603 1045.49 12
-3 -5 1 14348.7 1655.47 25
-3 5 1 19356.8 1527.19 10
-3 -5 1 13091 1342.77 22
3 5 1 17448.9 835.508 1
-3 -5 1 13368.1 1176.58 20
3 -5 2 11792.8 801.795 19
3 5 2 11955.3 732.74 1
3 -5 2 12584.5 1113.88 8
3 5 2 10172.2 1037.67 32
-3 -5 2 40817.9 2178.71 5
3 5 2 11001.3 821.843 12
-3 -5 2 33299.8 2323.73 25
-3 -5 2 35199.5 2105.23 22
-3 5 2 3464.72 763.801 10
-3 -5 2 35777 1951.81 20
-3 5 2 35346.5 2603.79 42
3 -5 3 16118.9 885.456 19
3 -5 3 17006.4 1267.97 8
-3 -5 3 16957.2 1619.63 4
3 5 3 13745.1 1133.91 32
3 5 3 20051.1 966.975 1
-3 -5 3 16391.8 1353.97 5
-3 -5 3 14806.3 1375.93 22
-3 -5 3 16647.6 1409.17 20
3 -5 4 35045.6 1821.33 8
-3 -5 4 34009.7 2262.22 4
3 5 4 27626.4 1589.12 32
3 5 4 39078.3 1439.12 1
-3 -5 4 31904.7 1930.58 22
-3 -5 4 33153.4 2064.79 20
-3 -5 5 20670.3 1533.14 3
3 5 5 51475.7 1671.65 1
3 -5 5 45185.4 2070.2 8
-3 -5 5 20744 1847.95 4
3 5 5 37346.7 1771.06 32
-3 -5 5 18491 1476.2 22
-3 5 5 7239.1 1133.52 10
-3 -5 5 20090.6 1707.51 20
-3 -5 6 35353 2118.52 3
-3 -5 6 30411.1 2126.87 4
3 5 6 34781 1672.97 32
-3 -5 6 28804.5 1778.84 22
-3 -5 6 33647 2234.58 20
-3 -5 7 19785.7 1597.15 3
3 -5 7 8701.55 903.008 8
-3 -5 7 19749.2 1632.77 4
3 5 7 11751.7 852.652 1
-3 -5 7 20915.2 1763.08 20
-3 -5 8 19730.2 1650.49 3
3 5 8 33993.5 1432.72 1
-3 -5 8 17591.7 1501.59 4
3 -5 8 27439.9 1525.86 8
3 5 8 27720 1319.62 17
-3 -5 8 18873.3 1677.76 20
-3 -5 9 8410.04 1090.36 3
-3 -5 9 7638.37 899.288 4
3 5 10 25429 1177.12 17
-3 -5 10 22207.2 1693.58 20
-3 -5 10 22079.6 1630.74 3
3 5 11 5518.19 503.624 1
3 5 11 4289.95 445.521 17
-3 -5 11 6552.24 907.365 20
-3 -5 11 5230.69 793.884 3
3 7 -9 162.536 789.868 41
-3 7 -8 3794.7 1203.21 42
3 7 -8 -91.3617 828.039 41
3 7 -8 13401.4 1054.12 36
3 -7 -8 13847.9 1155.9 7
-3 7 -8 11620.4 988.368 27
-3 -7 -8 11621.5 1060.79 26
-3 -7 -8 8996.56 1270.92 25
-3 7 -7 19699.8 1281.06 27
-3 -7 -7 20549.7 1444.54 26
-3 7 -6 5265.53 1458.14 42
3 7 -6 14421.6 1136.56 36
3 -7 -6 13737.8 1282.79 7
-3 7 -6 23935.5 1434.85 27
-3 -7 -6 23486.3 1573.59 26
3 7 -5 11551.4 994.192 36
3 -7 -5 13990.5 1310.92 7
-3 7 -5 14798 1138.38 27
-3 -7 -5 15576.4 1317.67 26
-3 -7 -5 11349.1 1628.71 25
-3 -7 -5 12136.6 1167.75 22
-3 7 -5 8007.95 1805.49 42
3 7 -4 22016.1 1304.95 36
3 -7 -4 27067.8 1806.95 7
-3 7 -4 17309.2 1234.02 27
3 7 -4 25774.6 1425.19 12
-3 -7 -4 18090.7 1424.36 26
-3 -7 -4 16450.3 1968.5 25
-3 -7 -4 14623.6 1354.47 22
-3 -7 -3 20814.6 1387.71 4
3 7 -3 19879.5 1264.91 12
-3 -7 -3 21712.8 1557.74 26
-3 -7 -3 18967.1 1604.03 22
3 -7 -3 24292.8 2174 9
-3 7 -3 22387.3 2666.41 42
-3 -7 -2 17083.2 1350.21 4
-3 -7 -2 18257.2 1460.47 26
-3 -7 -2 16289.4 1521.66 22
-3 7 -2 13821.3 2109.96 42
3 -7 -2 17293.1 1887.84 5
3 -7 -1 14153.3 1422.79 8
-3 7 -1 17263.3 790.934 39
-3 -7 -1 14986.2 1346.44 4
-3 -7 -1 16819.7 1555.65 5
3 7 -1 11746.1 957.422 12
-3 -7 -1 15604.2 1321.24 26
3 -7 -1 14623.6 1672.67 9
3 -7 0 17450.3 1927.69 5
3 -7 0 30156.4 2017.27 8
-3 7 0 23622.6 1138.15 40
-3 -7 0 20979.9 1658.14 4
3 7 0 30176.7 1835.28 32
-3 -7 0 24577.9 1885.28 5
3 7 0 24899 1335.24 12
-3 -7 0 20592 2125.58 25
-3 -7 0 19887.5 1719.42 22
-3 7 0 10868.1 1824.15 42
3 -7 1 21901.1 1662.45 8
-3 -7 1 10746.1 1252.69 4
3 7 1 20496.1 1472.38 32
-3 -7 1 9660.91 1209.8 5
3 7 1 16832.5 1063.58 12
-3 -7 1 8280.58 1343.39 25
-3 -7 1 8816.59 1169.58 22
-3 7 1 18185.1 2099.52 42
3 -7 2 24151.9 2074.7 9
3 -7 2 26322.7 1816.72 8
-3 -7 2 22437.1 1818.79 4
3 7 2 26607.1 1652.4 32
-3 -7 2 22570.7 1752.86 5
3 7 2 19864.1 1181.24 12
-3 -7 2 19921.6 1705.18 22
3 -7 3 28508.1 2260.11 9
3 -7 3 30291.3 1852.48 8
-3 -7 3 19783 1561.19 5
3 7 3 23617.3 1237.2 12
-3 -7 3 17937.3 1543.24 22
-3 -7 3 14746.9 1283.65 20
3 -7 4 23292.4 2034.44 9
3 -7 4 22357.3 1531.65 8
-3 -7 4 24488 1887.03 4
3 7 4 18469.2 1075.1 12
-3 -7 4 21528.9 1620.72 22
-3 -7 4 16763.5 1405.86 20
-3 -7 5 12123.5 1373.15 4
-3 -7 5 10987.4 1114.21 22
-3 -7 5 9739.42 1111.54 20
3 -7 6 29650.9 2137.24 9
-3 -7 6 13714.7 1367.74 4
3 7 6 23735.5 1155.06 12
-3 7 6 137.568 346.101 10
-3 -7 6 11310.5 1212.63 20
3 -7 7 21750.6 1754.26 9
-3 -7 7 11667.1 1200.49 4
3 7 7 17527.3 955.737 12
-3 -7 7 10610.9 1159.14 20
-3 -7 8 12312.9 1135.82 4
-3 -7 8 13446.3 1226.46 20
3 9 -3 -327.059 779.276 41
3 9 -2 -159.181 773.565 41
3 9 -1 -74.8958 755.41 41
4 0 -11 -57.6379 210.373 2
-4 0 -11 39.9267 228.313 26
4 0 -10 39823 1876.09 19
-4 0 -10 42496.7 1988.9 26
4 0 -10 41965.8 1956.4 2
4 0 -9 -21.549 205.375 19
4 0 -9 106.739 237.269 2
-4 0 -9 135.39 250.797 26
4 0 -8 44488.8 2114.68 19
-4 0 -8 61110.7 2430.59 26
-4 0 -8 58073.6 3064.04 25
4 0 -8 42625.9 2051.1 2
-4 0 -7 13.5009 145.574 39
4 0 -7 -22.9667 227.471 19
4 0 -7 124.495 220.204 2
-4 0 -7 -21.6586 233.534 26
-4 0 -7 -42.9028 392.188 25
4 0 -6 33568 1800.81 19
-4 0 -6 34247.1 1473.31 39
-4 0 -6 49683.8 2036.27 26
-4 0 -6 45141.1 2814.29 25
4 0 -5 61.5342 183.381 19
-4 0 -5 -45.9645 420.177 25
4 0 -4 40005 1889.29 19
-4 0 -4 82282.1 2251.59 39
-4 0 -3 40.1291 141.96 39
4 0 -3 -31.1325 162.513 19
4 0 -3 127.856 217.551 8
4 0 -3 -29.9726 139.941 18
-4 0 -3 -86.5363 368.832 25
-4 0 -2 115859 2805.09 39
4 0 -2 78666.7 2542.58 19
4 0 -2 80795.9 2665.99 8
4 0 -2 79314.2 2546.52 18
-4 0 -2 113316 4405.48 25
-4 0 -1 23.5603 122.986 39
4 0 -1 28.6008 138.989 19
4 0 -1 32.1133 117.21 1
4 0 -1 -68.4126 230.519 8
4 0 -1 -28.0014 141.213 18
-4 0 -1 -38.3866 350.904 25
-4 0 0 48783.2 1605.04 39
4 0 0 45177.1 1755.46 19
4 0 0 45711 1639.93 1
-4 0 1 -10.3404 104.296 39
4 0 1 127.116 149.894 19
4 0 1 -57.6072 140.62 1
-4 0 1 31.2344 266.253 25
-4 0 2 85276 2291.71 39
-4 0 2 80256.4 3153.43 25
4 0 3 14.2555 148.831 1
-4 0 3 42.2198 124.022 39
4 0 3 66.4716 158.378 18
4 0 4 82750.1 2548.3 18
4 0 4 80493.8 2112.95 17
-4 0 5 -10.179 104.484 39
4 0 5 -11.2311 142.002 17
4 0 5 15.8708 178.969 1
-4 0 6 36042.9 1308.76 39
4 0 6 41295.9 1712.37 1
-4 0 7 -67.4377 357.848 3
4 0 7 52.1875 193.344 1
4 0 8 53910.4 2065.26 1
-4 0 8 54139.5 2765.83 3
-4 0 9 -163.994 380.28 3
4 0 9 63.8913 172.227 1
4 0 10 34834.3 1507.94 1
-4 0 10 38949.1 2509.61 21
4 0 11 37.4634 138.818 1
-4 0 11 13970.8 1483.04 21
4 2 -11 458.846 260.614 2
4 -2 -11 793.236 325.205 19
-4 2 -11 223.827 207.623 26
-4 -2 -11 103.221 215.09 26
4 -2 -10 24732.5 1516.49 19
4 2 -10 28244.3 1864.09 36
-4 2 -10 29914.9 1538.77 26
-4 -2 -10 25754.6 1475.04 26
4 2 -10 27036.7 1483.47 2
-4 -2 -10 23347.7 1692.73 25
4 -2 -9 236.563 292.311 19
4 -2 -9 122.964 221.092 2
4 2 -9 265.346 233.543 2
4 2 -9 299.608 329.792 36
-4 2 -9 1275.86 376.312 26
-4 -2 -9 1013.34 360.689 26
-4 -2 -9 1156.51 522.602 25
4 -2 -8 24200.4 1536.61 19
-4 2 -8 10155.2 715.54 39
-4 2 -8 16817.6 1194.38 26
-4 -2 -8 16897.5 1245.55 26
4 -2 -8 24270.8 1409.8 2
-4 -2 -8 14231.7 1588.95 25
4 2 -8 28089.9 1513.15 2
4 -2 -7 2738.73 569.593 19
4 2 -7 3031.97 523.419 2
-4 2 -7 1615.22 298.618 39
-4 2 -7 1567.36 408.56 26
-4 -2 -7 1882.67 476.852 26
-4 -2 -7 1292.73 619.796 25
4 -2 -7 2475.64 491.248 2
4 2 -6 45771.4 1901.01 19
-4 2 -6 40011.2 1767.23 26
-4 -2 -6 44752.6 2004.32 26
-4 -2 -6 38343.6 2757.26 25
4 -2 -6 42882.1 1903 2
4 2 -5 6949.19 735.241 19
4 -2 -5 4654.17 747.787 8
-4 2 -5 14821.7 862.883 39
-4 -2 -5 13952.3 914.6 39
-4 2 -5 16137.5 2104.64 42
4 2 -4 61815.1 2175.41 19
4 -2 -4 55036.9 2411.48 8
-4 2 -4 51880.7 1816.79 39
-4 -2 -4 48909.1 1866.7 39
-4 -2 -4 57325 3538.81 25
-4 2 -3 3531.78 409.486 39
-4 -2 -3 4443.81 498.978 39
4 -2 -3 208.824 208.136 19
4 2 -3 218.706 190.822 19
4 -2 -3 517.54 339.111 8
4 2 -3 254.65 177.308 18
-4 -2 -3 3561.19 936.485 25
4 -2 -2 51031.8 2001.5 19
4 2 -2 51191.9 1799.97 19
-4 -2 -2 56129.9 1931.1 39
4 -2 -2 51670 2223.02 8
4 -2 -2 48662.4 1933.03 18
4 2 -2 50884.5 1804.39 18
-4 -2 -2 57650.5 3414.35 25
-4 2 -2 48953.6 3592.66 42
4 -2 -1 2594.37 426.919 19
-4 -2 -1 1459.21 320.126 39
4 2 -1 2241 351.632 19
4 -2 -1 2282.59 484.392 8
4 -2 -1 2369.62 404.47 18
4 2 -1 2058.74 342.372 18
-4 -2 -1 1406.97 632.999 25
-4 2 0 64750.2 1894.31 39
-4 -2 0 77460.8 2183.38 39
4 -2 0 60612.8 2124.24 19
4 2 0 60857.4 1942.07 19
4 -2 0 61568.2 2098.64 18
4 -2 0 66131.3 2546.74 8
4 2 0 61059.1 1969.86 18
4 -2 0 50695.4 1657.95 1
-4 -2 0 69362.2 3368.96 25
-4 2 1 2248.65 326.84 39
-4 -2 1 2224.89 357.06 39
4 -2 1 1445.29 333.48 19
4 2 1 1707.17 323.985 19
4 -2 1 1739.38 344.315 18
4 2 1 1701.24 336.224 18
4 -2 1 1517.72 410.744 8
4 -2 1 1578.82 277.367 1
-4 -2 1 1562.83 555.045 25
-4 2 2 54394.5 1738.25 39
4 -2 2 46491.1 1841.24 19
4 2 2 45860.9 1764.55 19
4 -2 2 46586.2 1827.5 18
4 2 2 52944.7 1944.54 18
4 -2 2 45933.6 1586.18 1
-4 -2 2 48125.3 2492.63 25
-4 2 2 39856.8 2521.26 21
-4 2 3 169.448 148.266 39
-4 -2 3 153.462 159.708 39
4 -2 3 4339.08 523.155 19
4 -2 3 3875.22 484.833 18
4 2 3 4260.94 528.569 18
4 2 3 4545.99 539.26 1
-4 -2 3 -26.4295 266.931 25
4 -2 3 3828.08 402.762 1
-4 -2 3 219.391 382.775 20
4 -2 4 48952.5 1701.18 1
4 -2 4 48658.5 1944.36 19
4 -2 4 49940.8 1954.42 18
4 2 4 51522.1 1855.91 17
4 2 4 58367.1 2081.41 1
-4 -2 4 59042.5 2474.34 3
-4 -2 4 66273.8 3018.83 20
4 -2 5 15021 1008.13 19
4 -2 5 16945.5 940.596 1
4 -2 5 15256.1 1007.47 18
4 2 5 16674.1 985.73 17
-4 -2 5 6181.32 879.685 3
4 2 5 18579 1118.98 1
-4 -2 5 7487.2 1078.94 20
4 2 6 40579.2 1723.14 1
4 -2 6 35516.1 1643.81 18
4 2 6 35255.5 1521.13 17
4 -2 6 36146.3 1462.2 1
-4 -2 6 44802.2 2319.72 3
-4 -2 6 48586.3 2685.94 20
4 2 7 2115.04 418.663 1
4 -2 7 1316.43 331.702 18
4 2 7 1774.09 340.691 17
-4 -2 7 2697.78 635.41 3
4 -2 7 1303.99 284.527 1
-4 -2 7 2706.59 752.055 20
4 -2 8 13436.6 940.763 18
4 2 8 12510.8 855.03 17
4 2 8 16807.3 1089.2 1
-4 -2 8 28018.7 1848.47 3
-4 2 8 35103.7 2402.11 21
-4 -2 8 30159.9 2076.58 20
4 2 9 622.303 270.416 1
-4 2 9 229.308 123.72 39
4 -2 9 620.918 221.914 18
4 2 9 531.485 206.197 17
-4 -2 9 90.1698 324.156 3
4 -2 10 20863.5 1046.26 18
4 2 10 20722.1 1005.6 17
-4 -2 11 541.154 341.399 3
4 2 11 208.833 164.037 1
4 4 -10 19784.1 1373.22 36
4 -4 -9 4050.63 635.38 19
4 4 -9 5346.51 776.401 36
4 4 -9 5159.67 601.324 2
-4 -4 -9 2261.68 453.292 26
-4 -4 -9 1427.85 533.42 25
4 -4 -8 16546.8 1275.24 19
4 4 -8 23236.5 1602.43 36
4 -4 -8 14779.2 1185.51 7
-4 -4 -8 14520 1135.9 26
-4 -4 -8 12598.8 1558.39 25
4 4 -8 26905.1 1372.63 2
-4 4 -8 33770.2 2741.39 42
4 -4 -7 4025.3 689.915 19
4 4 -7 5392.82 809.728 36
4 -4 -7 3215.25 627.149 7
-4 -4 -7 5629.05 752.472 26
-4 -4 -7 4508.12 1026.51 25
4 4 -7 6289.95 701.961 2
4 -4 -6 18158.1 1419.23 19
4 4 -6 26084.6 1406.47 2
-4 4 -6 25030.6 1071.21 39
4 4 -6 19807.8 1523.78 36
4 4 -6 21128.3 1472.26 32
-4 4 -6 22465.9 2578.28 42
4 -4 -5 12367.5 1142.07 19
-4 4 -5 2286.74 343.528 39
4 4 -5 13169.7 1177.37 36
4 4 -5 12136 1155.07 32
-4 -4 -5 3680.65 1080.32 25
4 -4 -4 33754.2 1891.49 19
4 -4 -4 29787.8 1938.34 8
-4 4 -4 33052.4 1328.61 39
4 4 -4 29396.7 1736.68 36
4 4 -4 29440.7 1908.15 32
-4 4 -4 31166.6 3037.54 42
4 -4 -3 25423.9 1844.03 9
4 -4 -3 32490.5 1807.11 19
4 -4 -3 27180.8 1825.5 8
-4 4 -3 15738.2 901.352 39
4 4 -3 25752.2 1488.31 36
4 4 -3 27036.8 1864.88 32
-4 -4 -3 21286.8 2297.81 25
-4 4 -3 40059.2 3329.56 42
4 -4 -2 24703.5 1870.41 9
4 -4 -2 28389.4 1639.07 19
-4 4 -2 25677.9 1097.61 39
4 -4 -2 26181.8 1769.5 8
4 4 -2 20853.8 1669.6 32
-4 4 -2 28705.3 2849.79 42
4 -4 -1 10794.4 1299.77 9
-4 4 -1 3732.86 421.573 39
4 -4 -1 11642.6 961.474 19
4 -4 -1 12991.7 1178.06 8
4 4 -1 10159.7 664.899 1
-4 -4 -1 4772.61 1186.91 25
-4 4 -1 19367.1 2328.14 42
-4 4 0 31114.4 1261.99 39
4 -4 0 31294.1 1541.97 19
4 4 0 33295 1258.63 18
4 4 0 28707.9 1885.04 32
4 4 0 30183.5 1236.65 1
-4 -4 0 43308.2 3001.69 25
-4 4 0 18919.5 2228.07 42
-4 4 1 13147 772.171 39
4 -4 1 3645.09 533.96 19
4 -4 1 4176.62 694.335 8
4 -4 1 3604.73 500.774 18
4 4 1 3665.71 422.387 18
4 4 1 3048.42 676.863 32
4 4 1 3568 435.013 1
-4 -4 1 13819.7 1552.91 25
-4 4 1 19900.1 2155 42
-4 -4 2 28327.4 1967.65 4
4 -4 2 27347 1376.35 19
4 4 2 27769.1 1151.41 19
4 -4 2 28302.1 1765.65 8
4 -4 2 26621.3 1335.94 18
4 4 2 28658.9 1260.85 18
4 4 2 22675.2 1636.22 32
-4 -4 2 27169.9 2047.67 25
-4 -4 2 31210.6 1821.72 20
4 4 2 26767.2 1204.86 1
4 4 3 16540.6 979.347 1
4 -4 3 14946.9 1002.85 19
4 4 3 15293.9 876.72 19
4 -4 3 14359.6 950.989 18
4 -4 3 14517.6 1268.29 8
4 4 3 17310.1 1002.3 18
4 4 3 12051.5 1152.49 32
-4 -4 4 39841.8 2255.02 4
4 -4 4 30049.6 1358.46 19
4 -4 4 29439 1286.87 18
4 -4 4 31136.6 1813.83 8
4 4 4 39566 1511.18 1
4 4 4 35746.5 1418.49 18
4 4 4 25018.5 1525.45 32
-4 -4 4 49412.1 2488.67 20
4 -4 5 1828.83 355.506 19
4 -4 5 2096.04 527.187 8
4 4 5 2424.66 421.504 17
4 4 5 2678.95 413.634 1
4 4 5 1538.81 396.344 32
4 -4 6 24382.2 1153.03 19
4 -4 6 27967 1648.02 8
4 4 6 31558.8 1352.93 17
4 4 6 23761 1294.76 32
4 4 6 31893.1 1308.02 1
-4 -4 6 32424.6 2092.19 20
4 4 7 5514.64 561.173 17
4 4 7 5625.27 573.51 1
4 -4 8 10971.6 960.896 8
4 4 8 12361.2 794.212 17
4 4 8 13720.6 838.216 1
4 -4 9 1635.98 384.403 8
4 4 9 1700.35 303.85 17
4 4 9 2043.71 331.236 1
-4 -6 -7 18564.4 1753.18 25
-4 6 -7 9334.63 1600.97 42
4 -6 -6 7736.59 829.08 19
4 6 -6 5795.39 642.605 36
4 -6 -6 6835.76 840.375 7
4 -6 -5 15781.8 1188.98 19
4 6 -5 20326.1 1297.74 32
4 -6 -5 15073.4 1271.41 7
-4 -6 -5 23461.2 2183.12 25
-4 6 -5 11075.6 1852.77 42
4 -6 -4 12845.4 1092.81 19
4 6 -4 13889.5 1151.92 32
-4 6 -4 10424.1 1867.08 42
4 -6 -3 17603.8 1268.34 19
4 6 -3 16609.7 1316.06 32
-4 -6 -3 19614.9 2095.15 25
4 -6 -3 16636.4 1717.91 9
-4 6 -3 22119.6 2520.16 42
4 -6 -2 32249.4 1688.65 19
4 -6 -2 35138.7 2176.91 8
-4 6 -2 30007 1082.26 39
4 6 -2 28880.7 1779.35 32
4 6 -2 27030.4 1350.32 12
-4 -6 -2 32652.7 2641.49 25
-4 -6 -2 31634.6 2060.05 22
4 -6 -2 31878.7 2215.05 9
4 -6 -1 14369.2 1379.1 8
-4 6 -1 6356.61 498.223 39
4 6 -1 11387.5 845.313 12
-4 -6 -1 8135.21 1354.87 25
4 -6 -1 14588.4 1618.05 9
4 -6 0 18264.3 1767.96 9
-4 6 0 16874.5 853.276 39
4 -6 0 22488.7 1705.74 8
4 6 0 17988.3 1393.21 32
4 6 0 17920.9 1054.53 12
-4 -6 0 17934.2 1885.86 25
-4 -6 0 17189.9 1568.49 22
-4 6 0 19228 2198.03 42
-4 -6 1 11850 1187.01 4
4 -6 1 5391.18 1116.39 9
-4 6 1 12543.1 726.551 39
4 -6 1 9023.03 1067.65 8
4 6 1 6441.21 831.262 32
4 6 1 6499.92 634.883 12
-4 -6 1 11382.1 1268.77 22
4 -6 2 36821.1 2502.19 9
-4 6 2 28330.6 1180.7 39
4 -6 2 36868.8 2099.8 8
4 6 2 30033.7 1733.43 32
4 6 2 29430.7 1321.96 12
-4 -6 2 28622.9 1980.8 22
-4 6 3 15906 845.312 39
-4 -6 3 15908.3 1424.48 4
4 -6 3 20096 1517.12 8
4 6 3 16715.8 1217.21 32
4 6 3 16326.4 940.477 12
4 -6 4 23093.3 1926.07 9
4 -6 4 23895.8 1537.33 8
4 6 4 19544.8 1221.81 32
4 6 4 18942.9 970.368 12
4 -6 5 25684.6 1980.06 9
-4 -6 5 17568.9 1437.14 4
4 -6 5 25531.5 1530.02 8
4 6 5 21716.9 1198.05 32
4 6 5 20143.7 976.757 12
4 -6 6 10725.4 1274.41 9
-4 -6 6 8201.13 929.976 4
4 -6 6 10548 939.062 8
-4 6 7 -684.183 1649.63 15
5 -1 -7 370.736 278.408 19
5 -1 -7 516.203 262.472 2
5 1 -7 373.956 247.202 2
5 1 -6 34723.8 1629.38 2
5 -1 -6 32885.6 1704.06 19
-5 -1 -6 33369 2151.47 25
5 -1 -6 30954.8 1554.19 2
5 -1 -5 2659.85 469.484 2
5 -1 -5 2877.32 556.276 19
-5 1 -5 968.59 243.868 39
-5 -1 -5 708.306 223.081 39
-5 -1 -5 1040.25 525.513 25
5 1 -4 38628.9 1831.67 19
5 -1 -4 37164.2 1937.06 19
-5 -1 -4 42935.7 1631.39 39
5 1 -3 6346.35 717.022 19
5 -1 -3 5414.16 716.444 19
-5 1 -3 7186.24 625.863 39
-5 -1 -3 6695.91 610.364 39
5 -1 -2 11219.6 978.517 19
5 1 -2 11793.8 944.014 19
-5 1 -2 35545.8 1392.55 39
-5 -1 -2 35926.1 1425.3 39
-5 -1 -2 39256.1 2454.78 25
5 -1 -1 4320.25 574.547 19
5 1 -1 4724.44 557.861 19
-5 1 -1 1483.79 314.913 39
-5 -1 -1 1372.86 305.967 39
5 -1 -1 4635.8 657.745 8
5 1 -1 4195.06 526.884 18
-5 -1 -1 1788.98 588.069 25
-5 1 0 24580.3 1200.67 39
5 1 0 22018.7 1193.26 19
-5 -1 0 24487.2 1194.91 39
5 -1 0 21321.4 1354.79 8
5 -1 0 19818 1209.18 18
5 1 0 22219.2 1205.9 18
-5 -1 0 26273.8 1864.31 25
-5 1 1 5082 511.842 39
-5 -1 1 5734.96 553.904 39
5 1 1 1376.55 327.092 19
5 -1 1 1078.31 388.766 8
5 -1 1 998.465 316.786 18
5 1 1 1168.56 300.468 18
5 1 1 1160.92 267.856 1
-5 1 2 12398.3 852.02 39
-5 -1 2 13374.5 887.415 39
5 1 2 31643.6 1393.79 19
5 -1 2 31669.9 1444.18 18
5 -1 2 31454.6 1665.65 8
5 1 2 32629.8 1410.97 18
5 1 2 31094.9 1496.2 8
5 -1 2 25351.2 1075.75 1
5 1 2 26624.1 1157.02 1
-5 1 2 16756.5 1641.24 21
-5 1 3 5436.21 516.091 39
-5 -1 3 5960.85 543.779 39
5 -1 3 5678.39 621.391 19
5 1 3 6307.47 618.2 19
5 -1 3 6026.23 617.453 18
5 1 3 5876.11 592.441 18
5 -1 3 5960.94 738.433 8
5 -1 3 4982.04 475.504 1
5 1 3 6088.49 563.385 1
-5 1 4 37928.1 1396.45 39
5 -1 4 40567.9 1654.33 19
5 1 4 40918.1 1590.45 19
5 -1 4 37742.8 1583.07 18
5 1 4 40681.5 1592.62 18
5 -1 4 34630.7 1282.87 1
5 1 4 39166.9 1459.41 1
-5 1 5 2524.01 337.484 39
5 -1 5 778.628 252.465 19
5 1 5 613.215 231.347 19
5 -1 5 692.239 242.812 18
5 -1 5 610.84 183.282 1
5 1 5 695.609 225.334 1
-5 1 5 13237.5 1625.17 21
-5 -1 5 16968.4 1633.14 21
-5 1 6 33923 1161.59 39
5 -1 6 24403.6 1204.46 19
5 1 6 24907.9 1175.59 19
5 -1 6 24883.5 1181.86 18
5 -1 6 22919.9 990.604 1
-5 1 6 10364.9 1499.74 21
-5 -1 6 17591.3 1776.72 21
5 1 6 25881.8 1155.35 1
5 -1 7 969.361 244.516 19
5 1 7 878.261 242.24 19
5 -1 7 928.888 234.644 18
5 1 7 898.32 231.288 1
-5 -1 8 12739.8 1396.32 21
-5 1 8 4803.21 1118.13 21
5 3 -6 35849 1582.75 2
-5 3 -5 2628.1 348.007 39
-5 -3 -5 3671.3 795.198 25
-5 3 -4 32528.7 1258.82 39
-5 -3 -4 36441.3 2359.03 25
5 -3 -3 5419.26 821.932 8
-5 3 -3 3091.4 393.343 39
5 3 -3 4484.53 718.795 32
-5 -3 -3 3232.51 812.003 25
5 -3 -2 41245.2 1973.29 19
5 -3 -2 40309.3 2054.41 8
-5 3 -2 38944.8 1485.71 39
-5 -3 -2 38500.5 2455.6 25
5 -3 -1 5084.62 698.433 19
5 -3 -1 5358.82 831.213 8
-5 -3 -1 4412.31 865.061 25
5 -3 0 17636.4 1176.24 19
5 -3 0 15760.5 1239.47 8
5 3 0 14684.3 862.618 18
-5 -3 0 16556.4 1462.5 25
5 -3 1 3780.01 545.408 19
-5 3 1 4611.19 450.671 39
5 -3 1 4308.12 687.321 8
5 3 1 3132.29 409.694 18
5 3 1 3081.08 376.452 1
5 3 1 2554.46 578.018 32
-5 3 2 37891.7 1339.05 39
5 -3 2 35265.6 1588.44 19
5 -3 2 36177.9 1875.34 8
5 -3 2 33309.9 1506.68 18
5 3 2 31906.1 1309.37 18
5 3 2 28297.6 1199.08 1
5 -3 3 2560.89 435.667 19
5 -3 3 3369.42 604.31 8
5 -3 3 2926.65 439.552 18
5 3 3 2736.65 380.254 18
5 3 3 1545.78 445.616 32
5 3 3 2424.05 338.963 1
-5 3 4 24994.6 1060.44 39
5 -3 4 29288.1 1352.04 19
5 -3 4 27479.3 1266.7 18
5 3 4 27871.3 1187.72 18
5 3 4 27146.8 1153.97 1
5 -3 5 3102.01 429.862 19
5 -3 5 2631.79 375.042 18
5 3 5 2752.46 363.539 18
5 3 5 1924.57 374.504 32
5 3 5 2980.35 363.415 1
5 -3 6 13483.3 1061.81 8
5 3 6 13324.4 811.545 18
5 -5 -1 2970.29 645.077 8
5 5 -1 2474.21 506.699 32
5 -5 0 24289.7 1589.46 8
-5 5 0 22353.1 956.605 39
5 5 0 21795.1 1365.51 32
-5 5 1 3505.21 369.579 39
5 5 1 4230.59 594.93 32
-5 5 2 11915.1 662.057 39
5 5 2 27646.7 1399.4 32
