#------------------------------------------------------------------------------
#$Date: 2021-03-06 08:34:38 +0200 (Sat, 06 Mar 2021) $
#$Revision: 262797 $
#$URL: file:///home/coder/svn-repositories/cod/cif/1/56/08/1560862.cif $
#------------------------------------------------------------------------------
#
# This file is available in the Crystallography Open Database (COD),
# http://www.crystallography.net/. The original data for this entry
# were provided by IUCr Journals, http://journals.iucr.org/.
#
# The file may be used within the scientific community so long as
# proper attribution is given to the journal article from which the
# data were obtained.
#
data_1560862
loop_
_publ_author_name
'Shiryaev, Alexey A.'
'Burkhanova, Tatyana M.'
'Mitoraj, Mariusz P.'
'Kukulka, Mercedes'
'Sagan, Filip'
'Mahmoudi, Ghodrat'
'Babashkina, Maria G.'
'Bolte, Michael'
'Safin, Damir A.'
_publ_section_title
;
 Supramolecular structures of NiII and CuII with the sterically demanding
 Schiff base dyes driven by cooperative action of preagostic and other
 non-covalent interactions
;
_journal_issue                   3
_journal_name_full               IUCrJ
_journal_paper_doi               10.1107/S2052252521000610
_journal_volume                  8
_journal_year                    2021
_chemical_formula_moiety         'C26 H32 Cu N2 O2'
_chemical_formula_sum            'C26 H32 Cu N2 O2'
_chemical_formula_weight         468.07
_space_group_crystal_system      triclinic
_space_group_IT_number           2
_space_group_name_Hall           '-P 1'
_space_group_name_H-M_alt        'P -1'
_atom_sites_solution_hydrogens   geom
_audit_creation_method           SHELXL-2016/6
_cell_angle_alpha                97.647(5)
_cell_angle_beta                 101.861(5)
_cell_angle_gamma                105.261(5)
_cell_formula_units_Z            1
_cell_length_a                   6.4641(4)
_cell_length_b                   7.7224(5)
_cell_length_c                   11.9925(7)
_cell_measurement_reflns_used    12420
_cell_measurement_temperature    173(2)
_cell_measurement_theta_max      29.98
_cell_measurement_theta_min      3.38
_cell_volume                     553.99(6)
_computing_cell_refinement       'X-Area (Stoe & Cie, 2001)'
_computing_data_collection       'X-Area (Stoe & Cie, 2001)'
_computing_data_reduction        'X-Area (Stoe & Cie, 2001)'
_computing_molecular_graphics    'XP in SHELXTL-Plus (Sheldrick, 2008)'
_computing_publication_material  SHELXL
_computing_structure_refinement  'SHELXL (Sheldrick, 2008)'
_computing_structure_solution    'SHELXS (Sheldrick, 2008)'
_diffrn_ambient_temperature      173(2)
_diffrn_measured_fraction_theta_full 0.990
_diffrn_measured_fraction_theta_max 0.992
_diffrn_measurement_device_type  'STOE IPDS II two-circle-diffractometer'
_diffrn_measurement_method       \w
_diffrn_radiation_type           MoK\a
_diffrn_radiation_wavelength     0.71073
_diffrn_reflns_av_R_equivalents  0.0206
_diffrn_reflns_av_unetI/netI     0.0126
_diffrn_reflns_Laue_measured_fraction_full 0.990
_diffrn_reflns_Laue_measured_fraction_max 0.992
_diffrn_reflns_limit_h_max       8
_diffrn_reflns_limit_h_min       -8
_diffrn_reflns_limit_k_max       10
_diffrn_reflns_limit_k_min       -10
_diffrn_reflns_limit_l_max       16
_diffrn_reflns_limit_l_min       -16
_diffrn_reflns_number            12420
_diffrn_reflns_point_group_measured_fraction_full 0.990
_diffrn_reflns_point_group_measured_fraction_max 0.992
_diffrn_reflns_theta_full        25.000
_diffrn_reflns_theta_max         29.579
_diffrn_reflns_theta_min         3.375
_diffrn_source                   'Genix 3D I\mS microfocus X-ray source'
_exptl_absorpt_coefficient_mu    1.011
_exptl_absorpt_correction_T_max  1.000
_exptl_absorpt_correction_T_min  0.613
_exptl_absorpt_correction_type   multi-scan
_exptl_absorpt_process_details   'X-Area (Stoe & Cie, 2001)'
_exptl_crystal_colour            'dark red'
_exptl_crystal_density_diffrn    1.403
_exptl_crystal_description       block
_exptl_crystal_F_000             247
_exptl_crystal_size_max          0.280
_exptl_crystal_size_mid          0.260
_exptl_crystal_size_min          0.140
_refine_diff_density_max         0.400
_refine_diff_density_min         -0.448
_refine_diff_density_rms         0.056
_refine_ls_extinction_method     none
_refine_ls_goodness_of_fit_ref   1.103
_refine_ls_hydrogen_treatment    constr
_refine_ls_matrix_type           full
_refine_ls_number_parameters     142
_refine_ls_number_reflns         3073
_refine_ls_number_restraints     0
_refine_ls_restrained_S_all      1.103
_refine_ls_R_factor_all          0.0252
_refine_ls_R_factor_gt           0.0251
_refine_ls_shift/su_max          0.000
_refine_ls_shift/su_mean         0.000
_refine_ls_structure_factor_coef Fsqd
_refine_ls_weighting_details
'w=1/[\s^2^(Fo^2^)+(0.0362P)^2^+0.2633P] where P=(Fo^2^+2Fc^2^)/3'
_refine_ls_weighting_scheme      calc
_refine_ls_wR_factor_gt          0.0692
_refine_ls_wR_factor_ref         0.0693
_reflns_Friedel_coverage         0.000
_reflns_number_gt                3052
_reflns_number_total             3073
_reflns_threshold_expression     'I > 2\s(I)'
_cod_data_source_file            ed5022.cif
_cod_data_source_block           ba36
_cod_database_code               1560862
_shelx_shelxl_version_number     2016/6
_shelx_space_group_comment
; 
The symmetry employed for this shelxl refinement is uniquely defined 
by the following loop, which should always be used as a source of 
symmetry information in preference to the above space-group names. 
They are only intended as comments. 
;
_shelx_estimated_absorpt_t_min   0.765
_shelx_estimated_absorpt_t_max   0.871
_shelx_res_file
; 
TITL ba36 in P-1 
    ba36.res 
    created by SHELXL-2016/6 at 10:44:43 on 01-Nov-2018 
CELL .71073    6.4641   7.7224  11.9925  97.647 101.861 105.261 
ZERR 1         0.0004   0.0005   0.0007   0.005   0.005   0.005 
LATT 1 
SFAC C  H  Cu N O 
UNIT 26 32 1  2 2 
REM dark red block 
SIZE .28 .26 .14 
TEMP-100 
OMIT -2 1 5 
OMIT 0 3 0 
ACTA50 
CONF 
BOND$H 
L.S.8 
FMAP 2 
PLAN 10 
WGHT    0.036200    0.263300 
FVAR       1.89105 
CU1   3    0.500000    0.000000    0.500000    10.50000    0.01390    0.01745 = 
         0.01309    0.00152    0.00287    0.00766 
O1    5    0.628613    0.108241    0.659364    11.00000    0.01985    0.03265 = 
         0.01608   -0.00307    0.00115    0.01482 
N1    4    0.286449    0.150030    0.491958    11.00000    0.01448    0.01742 = 
         0.01520    0.00390    0.00330    0.00667 
C1    1    0.523160    0.158183    0.734054    11.00000    0.01823    0.01684 = 
         0.01552    0.00017    0.00255    0.00644 
C2    1    0.324252    0.204771    0.701426    11.00000    0.01800    0.01695 = 
         0.01544    0.00291    0.00459    0.00659 
C3    1    0.220518    0.258473    0.786881    11.00000    0.02163    0.02473 = 
         0.01923    0.00317    0.00776    0.01013 
AFIX  43 
H3    2    0.087226    0.289211    0.763784    11.00000   -1.20000 
AFIX   0 
C4    1    0.308012    0.267379    0.903042    11.00000    0.02992    0.03337 = 
         0.01828    0.00319    0.01007    0.01176 
AFIX  43 
H4    2    0.235524    0.302308    0.959692    11.00000   -1.20000 
AFIX   0 
C5    1    0.506810    0.223731    0.936121    11.00000    0.03110    0.03318 = 
         0.01556    0.00352    0.00354    0.01111 
AFIX  43 
H5    2    0.569738    0.230612    1.016079    11.00000   -1.20000 
AFIX   0 
C6    1    0.611914    0.171096    0.854371    11.00000    0.02404    0.02697 = 
         0.01729    0.00178    0.00050    0.01085 
AFIX  43 
H6    2    0.746454    0.142915    0.879114    11.00000   -1.20000 
AFIX   0 
C7    1    0.228915    0.210705    0.582703    11.00000    0.01620    0.01816 = 
         0.01734    0.00402    0.00495    0.00781 
AFIX  43 
H7    2    0.112088    0.264683    0.570066    11.00000   -1.20000 
AFIX   0 
C11   1    0.185799    0.183725    0.377111    11.00000    0.01424    0.01906 = 
         0.01504    0.00471    0.00383    0.00695 
AFIX  13 
H11   2    0.126641    0.062772    0.321933    11.00000   -1.20000 
AFIX   0 
C12   1    0.369672    0.303610    0.333735    11.00000    0.01516    0.02642 = 
         0.01977    0.00828    0.00567    0.00669 
AFIX  23 
H12A  2    0.427589    0.427010    0.384201    11.00000   -1.20000 
H12B  2    0.493098    0.249291    0.338095    11.00000   -1.20000 
AFIX   0 
C13   1    0.281729    0.319911    0.208253    11.00000    0.02153    0.02752 = 
         0.01951    0.00920    0.00802    0.01005 
AFIX  23 
H13A  2    0.400704    0.402576    0.182950    11.00000   -1.20000 
H13B  2    0.236701    0.197982    0.156725    11.00000   -1.20000 
AFIX   0 
C14   1    0.084027    0.394603    0.197612    11.00000    0.02236    0.02784 = 
         0.02472    0.01375    0.00752    0.01117 
AFIX  23 
H14A  2    0.022288    0.394243    0.114856    11.00000   -1.20000 
H14B  2    0.133805    0.522831    0.240863    11.00000   -1.20000 
AFIX   0 
C15   1   -0.096235    0.280562    0.245293    11.00000    0.01666    0.03064 = 
         0.02359    0.01215    0.00436    0.00994 
AFIX  23 
H15A  2   -0.157909    0.155905    0.196509    11.00000   -1.20000 
H15B  2   -0.217828    0.336929    0.241562    11.00000   -1.20000 
AFIX   0 
C16   1   -0.004492    0.267619    0.371458    11.00000    0.01683    0.02481 = 
         0.02086    0.00868    0.00684    0.01087 
AFIX  23 
H16A  2    0.049283    0.391204    0.421615    11.00000   -1.20000 
H16B  2   -0.123098    0.190565    0.399938    11.00000   -1.20000 
AFIX   0 
HKLF 4 
  
  
  
  
REM  ba36 in P-1 
REM R1 =  0.0251 for    3052 Fo > 4sig(Fo)  and  0.0252 for all    3073 data 
REM    142 parameters refined using      0 restraints 
  
END 
  
WGHT      0.0363      0.2633 
  
REM Highest difference peak  0.400,  deepest hole -0.448,  1-sigma level  0.056 
Q1    1   0.0992  0.2251  0.3759  11.00000  0.05    0.40 
Q2    1   0.2802  0.2435  0.3598  11.00000  0.05    0.40 
Q3    1   0.2817  0.2013  0.6425  11.00000  0.05    0.39 
Q4    1   0.5641  0.1671  0.7927  11.00000  0.05    0.37 
Q5    1   0.2733  0.2283  0.7448  11.00000  0.05    0.34 
Q6    1  -0.0065  0.3331  0.2245  11.00000  0.05    0.33 
Q7    1   0.2706  0.2668  0.8477  11.00000  0.05    0.33 
Q8    1   0.4257  0.1777  0.7161  11.00000  0.05    0.32 
Q9    1  -0.0542  0.2740  0.3099  11.00000  0.05    0.31 
Q10   1   0.5656  0.1971  0.8945  11.00000  0.05    0.29 
;
_shelx_res_checksum              56105
_shelx_hkl_file
; 
  -5   3   6   12.01    4.36   0 
  -5   9   6   80.89    4.32   0 
  -2   4   0  166.91    5.25   0 
   2  -6   7   26.87    4.82   0 
   3  -7   9  367.73    6.34   0 
   3  -6   6   16.43    3.80   0 
   5  -7   8  763.26    7.33   0 
   7  -6   6  163.33    4.85   0 
   7  -5   4   77.29    4.21   0 
   7  -2   0   23.19    3.58   0 
  -6   3   9  374.87    5.79   0 
  -5  -2  15   16.97    5.92   0 
  -5   1   8 1011.30    8.67   0 
  -5   8   5  367.09    5.51   0 
  -4  -3  13   37.08    7.28   0 
  -4  -2  10  162.13    7.07   0 
  -3   5   1 1475.04    9.40   0 
   1  -7  13  253.31    6.85   0 
   1  -5   6  460.84    7.46   0 
   1  -1   0   59.06    5.35   0 
   2  -4   3  434.88    6.68   0 
   3  -5   4   84.12    4.03   0 
   6  -6   6   59.52    3.78   0 
   8  -2   1  270.24    5.59   0 
  -6   6   7  121.18    4.30   0 
  -6   7   7  298.42    5.25   0 
  -6   8   7  377.82    5.80   0 
  -5   4   5 1432.75    8.69   0 
   2  -7  11  339.86    6.87   0 
   2  -5   5  291.96    5.79   0 
   3  -7  10  150.72    5.79   0 
   3  -3   1 3471.01   14.90   0 
   4  -7   9  434.63    6.21   0 
   4  -6   6  251.65    5.22   0 
   5  -7   9   77.02    3.96   0 
   5  -6   6  682.35    6.59   0 
   5   0  -2   65.53    4.46   0 
   5   5  -3   70.21    7.00   0 
   6  -5   4 1425.52    8.71   0 
   6  -3   1  250.67    4.99   0 
   8  -4   4  186.58    4.97   0 
  -6   5   7  845.34    7.05   0 
  -5  -1  11  832.69    9.47   0 
  -5   0   9  401.27    6.91   0 
  -5   7   4 1191.63    8.09   0 
  -4   1   5  740.50    7.66   0 
  -4   2   4 3795.87   15.10   0 
  -4   6   2   53.30    4.81   0 
  -4   7   2  158.89    5.36   0 
  -3   1   3 3156.23   16.18   0 
   0  -6  11  228.97    7.70   0 
   0   8  -2   49.49    5.12   0 
   1  -6   9   26.65    4.58   0 
   3  -2   0 9999.99   25.32   0 
   3  -1  -1 1796.33   12.01   0 
   4  -7  10  472.30    7.08   0 
   4  -5   4  414.42    5.79   0 
   4  -3   1 1392.02    9.45   0 
   5  -7  10  129.18    5.39   0 
   5  -5   4  935.75    7.50   0 
   5  -3   1   94.51    4.96   0 
   5   3  -3  162.89    6.46   0 
   6  -6   7  755.03    7.35   0 
   6  -2   0   63.67    4.10   0 
   7  -3   2  724.49    7.21   0 
   8   1   0  145.79    5.70   0 
  -7   3  12  559.84    6.67   0 
  -7   4  11  191.01    5.11   0 
  -7   5  10  454.94    6.21   0 
  -6   0  13    7.38    4.75   0 
  -6   3   8  469.67    6.24   0 
  -6   6   6  427.16    6.27   0 
  -5  -2  14  275.37    7.80   0 
  -5   2   6  818.77    7.72   0 
  -5   8   4   84.76    4.12   0 
  -4   0   6  362.40    6.76   0 
  -4   3   3 3434.19   14.04   0 
  -4  10   3    7.03    4.03   0 
  -3   0   4 3061.87   17.27   0 
   2  -6   8  949.52    9.01   0 
   3  -7  11   10.95    4.67   0 
   3  -6   7   77.42    4.27   0 
   5  -1  -1  737.74    7.03   0 
   6  -4   3  644.95    6.40   0 
   7  -2   1  746.90    6.63   0 
   7  -1   0  169.43    4.63   0 
  -7   4  10  210.07    5.68   0 
  -7   6   9  332.71    5.23   0 
  -6   8   6   76.73    4.16   0 
  -5   3   5  566.20    6.23   0 
  -5   9   4    9.50    3.95   0 
  -4   5   2 3410.74   13.26   0 
  -3  -3   9  252.27   10.11   0 
  -3   2   2 3395.90   15.37   0 
  -2   6  -1  104.20    5.01   0 
  -1  -5  10  664.33   12.80   0 
   0  -5   8  937.58   11.21   0 
   2  -3   2 1049.12    9.85   0 
   3  -5   5  233.00    5.46   0 
   3  -4   3  989.02    8.06   0 
   4  -7  11  155.72    5.27   0 
   5  -6   7  819.15    7.20   0 
   6  -6   8  102.84    4.54   0 
   6  -5   5  537.44    6.02   0 
   7  -4   4  325.16    5.15   0 
   8  -3   4   12.27    3.72   0 
  -7   3  11  383.63    5.84   0 
  -7   5   9  781.72    7.07   0 
  -6   1  10  202.27    5.09   0 
  -3   6   0  462.16    6.38   0 
  -2   8  -1  339.14    6.57   0 
  -2  10   0   39.22    5.08   0 
  -1   7  -2   45.03    5.01   0 
   2   1  -2   21.89    4.68   0 
   3  -7  12   13.78    4.59   0 
   4  -5   5 2055.84   10.84   0 
   4  -4   3   70.40    3.86   0 
   4   6  -3  717.08   15.31   0 
   5  -5   5  883.58    7.18   0 
   6  -3   2 2453.20   10.67   0 
   6   0  -1  361.45    5.76   0 
   7  -5   7  211.07    4.95   0 
   7  -3   3  696.82    6.49   0 
   8  -1   2   75.10    4.30   0 
  -7   2  12  201.46    5.88   0 
  -7   6   8  825.11    7.11   0 
  -6   2   8  427.34    6.62   0 
  -6   7   5  260.42    4.82   0 
  -6   8   5   16.87    3.78   0 
  -5  -2  13   77.42    6.33   0 
  -5  -1  10 1953.91   13.57   0 
  -5   6   3  311.00    4.97   0 
  -5   7   3 1095.54    7.74   0 
  -5   8   3  141.03    4.36   0 
  -4  -3  12    6.46    6.64   0 
  -4   4   2 1353.45    8.72   0 
  -3   3   1 2709.86   12.73   0 
  -1   5  -2 5101.91   20.40   0 
   0  -6  12  705.58   10.00   0 
   0   9  -2  240.29    6.61   0 
   1  -6  10  327.31    6.83   0 
   2  -5   6  687.97    8.02   0 
   3  -6   8 1599.58    9.98   0 
   5  -6   8  343.96    5.57   0 
   6  -5   6  358.87    5.15   0 
   6  -2   1  106.10    4.35   0 
   6  -1   0  858.45    7.14   0 
   7  -4   5  176.90    4.60   0 
   7  -2   2  922.51    7.36   0 
   7  -1   1  627.23    6.93   0 
   7   0   0  790.35    7.41   0 
  -7   5   8  360.42    6.18   0 
  -6   4   6 1037.84    7.70   0 
  -5   0   8  112.55    4.41   0 
  -5   9   3  121.97    4.42   0 
  -4   7   1  706.35    6.43   0 
  -4   8   1   35.84    4.46   0 
  -3  -1   5 2182.82   15.86   0 
  -3   5   0 2731.35   12.29   0 
  -3   9   0  303.48    6.02   0 
  -1   1   0   62.19    5.91   0 
  -1  10  -1   20.42    4.82   0 
   1  -5   7 1594.40   11.72   0 
   2  -6   9  498.41    6.74   0 
   2  -4   4 1376.77   10.45   0 
   5  -3   2  268.64    4.97   0 
   8   0   2  102.89    5.04   0 
  -7   2  11  200.32    5.71   0 
  -6  -1  14  438.93    8.27   0 
  -6   0  11  235.14    6.00   0 
  -6   1   9  632.89    7.51   0 
  -6   5   5  442.83    5.53   0 
  -5   2   5  402.67    6.08   0 
  -4  -2   9    7.00    4.93   0 
  -4  -1   7  412.90    7.28   0 
  -4   6   1  852.23    6.99   0 
  -4   9   1   51.44    5.02   0 
  -2   9  -1   60.36    4.21   0 
   1  -3   3  244.99    5.84   0 
   2   8  -3   17.92    8.42   0 
   3  -6   9   93.59    4.93   0 
   3  -3   2 1527.59    9.90   0 
   4  -3   2  311.39    5.02   0 
   4   1  -2  865.84    9.03   0 
   4   4  -3  254.35    8.15   0 
   5  -5   6 1306.02    8.21   0 
   5  -4   4  799.63    6.66   0 
   5   0  -1   73.41    3.99   0 
   6  -3   3 1079.83    8.00   0 
   7  -4   6  263.19    5.08   0 
   7   1   0  461.52    6.14   0 
   8  -1   3  427.33    5.88   0 
  -7   4   8   94.59    5.00   0 
  -6   7   4    6.81    3.63   0 
  -6   8   4   66.26    3.83   0 
  -5   1   6  644.81    7.32   0 
  -5   3   4  108.00    4.15   0 
  -4   1   4 4278.73   16.70   0 
  -4   2   3 1072.05    8.41   0 
  -4   5   1 1009.88    7.56   0 
  -2   0   2 3153.30   20.17   0 
  -2   1   1 3181.48   17.91   0 
   0  -6  13  210.66    6.98   0 
   0  -4   6  254.53    7.20   0 
   0  -3   4  614.34   10.55   0 
   0   6  -3 1267.04   12.35   0 
   1  -6  11  165.11    5.70   0 
   1  -4   5 1577.84   12.00   0 
   1   8  -3  134.80    7.43   0 
   3  -5   6    8.77    3.47   0 
   3  -4   4 2256.78   11.43   0 
   3   1  -2 2267.02   15.09   0 
   4   5  -3  208.44    8.36   0 
   5  -2   1  998.15    7.52   0 
   5  -1   0  276.34    4.81   0 
   7  -2   3  394.59    5.43   0 
   7   0   1  261.38    5.67   0 
  -7   3   9  136.47    4.49   0 
  -7   5   7  187.05    4.70   0 
  -6   2   7   26.11    4.52   0 
  -6   3   6  479.65    5.74   0 
  -6   4   5  826.04    6.87   0 
  -6   6   4  485.70    5.75   0 
  -5  -2  12  241.65    7.15   0 
  -5   4   3  190.63    4.48   0 
  -5   6   2  345.10    5.85   0 
  -5   7   2   17.47    3.69   0 
  -5   8   2  153.85    4.45   0 
  -5   9   2  270.83    5.60   0 
  -4  10   1  164.96    5.35   0 
  -3   4   0 1117.46    8.42   0 
  -3  10   0   45.49    3.93   0 
  -2  10  -1  201.00    5.76   0 
  -1  -1   2 1021.05   24.11   0 
  -1   4  -2 5398.87   22.04   0 
  -1   9  -2  198.12    5.81   0 
   2  -6  10  441.60    6.22   0 
   2  -1   0  750.55    9.43   0 
   2   0  -1 4635.04   23.17   0 
   4  -6  10  297.42    5.82   0 
   4  -2   1 1433.85    9.01   0 
   6  -1   1 1065.50    7.95   0 
   6   0   0  582.18    6.33   0 
   7  -3   5  477.17    5.61   0 
   7  -1   2  336.80    5.14   0 
   7   3   0   37.98    4.78   0 
  -7   1  12   55.52    5.00   0 
  -7   2  10  340.11    5.47   0 
  -6  -1  13  462.67    7.87   0 
  -4   0   5  256.27    6.02   0 
  -3   7  -1  410.94    5.63   0 
  -3   8  -1  142.61    5.37   0 
  -2  -5  14   58.06    7.38   0 
   0  -6  14  233.56    6.84   0 
   2  -5   7 3860.34   15.77   0 
   3  -6  10   48.65    3.74   0 
   3  -2   1 1632.25   10.16   0 
   4  -1   0 2646.92   12.36   0 
   4   0  -1 1888.12   11.24   0 
   5  -4   5  894.76    7.31   0 
   5   6  -2  130.30    7.55   0 
   6  -4   6 1369.30    8.08   0 
   6  -3   4  324.20    5.45   0 
   6   2  -1  370.98    6.04   0 
  -7   4   7  408.37    5.96   0 
  -6   0  10  273.43    6.05   0 
  -6   1   8   77.06    4.88   0 
  -6   5   4  999.77    7.17   0 
  -5  -1   9  547.67    7.74   0 
  -5   0   7  704.46    8.00   0 
  -5   5   2 1650.69    8.87   0 
  -4   4   1 1932.33    9.86   0 
  -4   7   0  440.95    5.52   0 
  -4   8   0  807.43    6.98   0 
  -3   1   2 1457.30   11.05   0 
  -3   6  -1 1190.13    8.24   0 
  -3   9  -1  455.56    6.60   0 
  -2   6  -2  738.14    7.93   0 
  -2   8  -2  142.54    5.44   0 
  -1  -5  11  465.55    9.82   0 
  -1   2  -1 2466.78   17.40   0 
   1  -5   8 2307.13   13.47   0 
   3  -6  11   10.95    4.04   0 
   3  -5   7 2320.08   11.66   0 
   3   0  -1 3583.93   16.80   0 
   4  -6  11  110.84    4.23   0 
   4  -5   7  418.80    5.40   0 
   5  -5   8    8.32    3.41   0 
   6   3  -1  689.96    8.12   0 
   6   5  -1   82.52    5.20   0 
   7  -3   6  376.89    5.42   0 
   7   1   1   32.12    3.86   0 
  -7   3   8  275.67    4.86   0 
  -7   5   6  274.22    4.79   0 
  -7   7   5  277.55    4.99   0 
  -7   8   5  153.92    4.43   0 
  -6   7   3   12.87    3.71   0 
  -4   9   0  298.67    5.16   0 
  -1  10  -2  239.83    6.17   0 
   1  -6  13  212.68    5.72   0 
   2  -4   5 1276.13    9.50   0 
   2  -3   3 1088.92    9.12   0 
   4  -6  12  166.61    4.61   0 
   4  -4   5  120.66    4.59   0 
   4  -3   3  974.35    7.36   0 
   5  -2   2   98.67    3.87   0 
   5   4  -2  105.71    5.90   0 
   5   5  -2   53.95    5.35   0 
   6  -4   7   65.99    3.67   0 
   6  -2   3  751.93    6.47   0 
   6   1   0  621.13    7.26   0 
   6   4  -1  143.77    5.25   0 
   7  -1   3  211.32    4.60   0 
  -7   1  11  129.11    4.55   0 
  -7   2   9  168.85    4.51   0 
  -6  -1  12   60.97    5.53   0 
  -6   2   6    6.85    4.03   0 
  -6   3   5  693.66    6.35   0 
  -6   4   4  123.43    4.98   0 
  -6   6   3  345.02    5.05   0 
  -5   2   4  543.65    6.06   0 
  -5   3   3 5111.96   15.43   0 
  -5   7   1  426.24    5.25   0 
  -5   8   1  349.29    5.16   0 
  -5   9   1   51.95    3.79   0 
  -4  10   0   19.43    4.35   0 
  -3   0   3 3189.37   16.70   0 
  -2  -5  15    0.48    6.96   0 
  -2   9  -2  299.25    6.11   0 
   2  -6  12  653.94    7.12   0 
   3  -6  12   71.75    3.98   0 
   3  -6  13  123.23    4.97   0 
   3  -4   5   72.13    3.51   0 
   3  -3   3  151.22    4.36   0 
   4   2  -2  224.65    5.81   0 
   5  -4   6  398.61    5.02   0 
   5  -1   1  903.80    7.16   0 
   5   0   0 1092.43    8.26   0 
   6  -1   2   16.17    3.19   0 
   7   3   1  365.98    6.69   0 
  -5  -2  11  752.40   10.78   0 
  -5   4   2 1776.37    9.22   0 
  -5   6   1 1115.98    7.43   0 
  -5  10   1   -3.09    4.57   0 
  -4   5   0  806.07    6.80   0 
  -3   3   0  194.71    4.56   0 
  -2  -1   3  276.36    8.13   0 
  -2   5  -2 2714.79   13.17   0 
  -1   7  -3 1051.30    9.78   0 
   1  -6  14  350.43    6.85   0 
   2  -6  14   56.51    4.94   0 
   2  -5   8  241.02    4.97   0 
   3  -5   8  527.75    6.02   0 
   3   4  -3 1300.40   15.73   0 
   5  -3   4  373.49    5.11   0 
   7  -2   6   17.18    4.23   0 
   7  -1   4  274.33    4.98   0 
   7   0   3   65.31    4.61   0 
   7   1   2   36.12    3.68   0 
  -8   4   9  466.96    5.92   0 
  -8   5   8  268.54    5.24   0 
  -7   1  10  120.24    5.19   0 
  -7   3   7  527.90    5.84   0 
  -7   7   4  112.96    4.14   0 
  -7   8   4  390.20    5.43   0 
  -6   0   9  409.89    6.50   0 
  -6   5   3  773.84    6.34   0 
  -6   7   2  346.94    5.49   0 
  -6   9   2   38.93    3.60   0 
  -4  -1   6   11.11    4.14   0 
  -4   1   3 3065.64   14.15   0 
  -4   2   2 1616.07    9.68   0 
  -1   6  -3 2372.96   13.65   0 
   0  -5  10  764.80    9.27   0 
   4  -5   9   20.19    3.40   0 
   4  -4   6 1075.57    7.90   0 
   5  -4   7  144.46    3.95   0 
   5   2  -1 2181.20   12.13   0 
   6   2   0  275.06    5.09   0 
   7   2   2  159.95    5.20   0 
  -8   3  10  349.57    5.56   0 
  -7   2   8  564.58    5.99   0 
  -5   5   1 1473.84    8.39   0 
  -4  -2   8  143.03    6.02   0 
  -4   3   1  619.99    6.32   0 
  -4   7  -1  592.49    6.49   0 
  -4   8  -1 1159.85    8.03   0 
  -3  -2   6  857.51   12.53   0 
  -3   8  -2  809.44    7.78   0 
  -1  -5  12  263.71    8.00   0 
  -1  -4   8   79.62    5.93   0 
   1  -5   9  881.30    8.16   0 
   4   1  -1 3287.39   14.79   0 
   5  -3   5  163.58    4.72   0 
   6  -1   3    7.17    3.94   0 
   6   3   0  278.15    6.25   0 
   7  -2   7  114.59    4.03   0 
   7  -1   5   74.96    3.82   0 
   7   1   3   26.77    4.05   0 
  -8   4   8   84.01    4.15   0 
  -8   5   7   23.76    3.50   0 
  -7   0  12  312.71    6.50   0 
  -7   6   4   39.75    3.58   0 
  -6  -1  11   75.17    4.65   0 
  -6   3   4   23.15    4.28   0 
  -6   6   2  468.57    5.40   0 
  -5  -1   8  174.52    5.38   0 
  -5   8   0  507.18    5.59   0 
  -5   9   0   98.66    4.08   0 
  -4   9  -1  287.65    5.14   0 
  -3   4  -1 2124.25   10.88   0 
  -3   7  -2  114.13    4.22   0 
  -3   9  -2  428.11    6.83   0 
  -1   3  -2 1886.74   13.58   0 
  -1   5  -3 2097.86   13.14   0 
  -1   9  -3   34.23    4.42   0 
   0   4  -3 1441.39   14.31   0 
   2  -5   9   60.96    3.74   0 
   2  -2   2   63.51    4.68   0 
   3  -4   6  355.60    5.10   0 
   3  -2   2   40.96    3.28   0 
   3   2  -2  146.50    5.75   0 
   4  -5  11   12.43    4.25   0 
   4  -1   1  351.97    5.27   0 
   4   0   0 1442.88    9.73   0 
   4   3  -2  337.52    7.21   0 
   6  -2   5  100.24    4.43   0 
   6   4   0  308.11    6.16   0 
   6   5   0   57.63    4.75   0 
   7   0   4   42.45    3.55   0 
  -8   3   9  127.81    4.21   0 
  -8   6   6  454.45    5.52   0 
  -7   3   6  297.01    4.83   0 
  -7   4   5  584.32    5.85   0 
  -7   8   3   86.62    3.92   0 
  -6   4   3  536.30    5.89   0 
  -5   3   2  798.83    7.17   0 
  -5   7   0 1046.02    7.27   0 
  -5  10   0   42.72    3.91   0 
  -4   0   4  302.08    6.05   0 
  -4   4   0 2005.63   10.05   0 
  -4   6  -1  486.02    5.47   0 
  -3   6  -2  411.80    5.45   0 
  -2   4  -2 5886.59   19.23   0 
   3   5  -3  373.26   10.37   0 
   4   7  -2  587.43   11.68   0 
   5  -1   2 1780.91    9.17   0 
   5   0   1  303.10    5.28   0 
   5   1   0  461.95    6.13   0 
   5   3  -1   70.99    4.71   0 
   7   0   5    3.69    4.38   0 
   7   2   3   99.18    4.18   0 
  -7   1   9  121.10    4.35   0 
  -7   2   7  287.44    5.47   0 
  -7   5   4   12.77    3.45   0 
  -7   7   3    3.67    3.46   0 
  -6   0   8  357.05    6.07   0 
  -6   5   2 1176.95    7.46   0 
  -6   7   1  862.98    7.20   0 
  -6   9   1   17.08    3.65   0 
  -5   2   3 2628.85   11.30   0 
  -3  -1   4  535.90    8.32   0 
  -3  10  -2  244.51    5.13   0 
  -2   7  -3  485.92    6.19   0 
  -2   8  -3  199.90    4.77   0 
   0  -5  11  875.63    8.98   0 
   0  10  -3   66.37    5.92   0 
   1  -5  10   28.51    4.28   0 
   2  -5  10  376.69    6.12   0 
   3   6  -3  459.29   12.65   0 
   5  -4  10    6.40    3.83   0 
   5   6  -1  459.06    8.31   0 
   7   1   4   -0.13    3.54   0 
  -8   2  10  192.53    5.30   0 
  -8   4   7  152.49    4.27   0 
  -8   5   6   42.67    3.66   0 
  -7   0  11  180.36    5.46   0 
  -6   1   6   24.46    3.44   0 
  -5  -2  10   87.24    6.31   0 
  -5   1   4 3789.09   14.24   0 
  -5   4   1  534.06    5.78   0 
  -4   5  -1 1017.80    7.70   0 
  -2  -4  10  186.31    8.91   0 
  -2   6  -3 1920.85   11.31   0 
  -2   9  -3   40.93    3.50   0 
  -1  10  -3   28.42    4.41   0 
   3  -1   1 1252.43    8.91   0 
   4  -2   3 1142.49    7.61   0 
   5   4  -1   17.15    4.31   0 
   5   5  -1  372.47    7.08   0 
   6   0   3   47.38    3.32   0 
   6   1   2  746.20    6.70   0 
  -8   3   8   25.30    3.43   0 
  -8   6   5  495.50    5.56   0 
  -7   8   2   15.65    3.36   0 
  -6  -1  10  755.48    8.51   0 
  -5   5   0  784.79    7.05   0 
  -4   8  -2  919.81    7.64   0 
  -3   2   0 9328.42   22.99   0 
  -3   5  -2 2040.98   10.27   0 
   1  -5  11  318.84    5.79   0 
   1  -4   7  332.69    5.92   0 
   3  -5  13   67.77    3.72   0 
   3   0   0  248.52    5.82   0 
   3   1  -1  966.23    9.57   0 
   4   4  -2   67.71    4.55   0 
   5   2   0  444.30    6.25   0 
   6   4   1   97.96    4.87   0 
  -7   1   8   63.77    4.63   0 
  -7   3   5 1138.50    7.48   0 
  -7   4   4  480.71    5.46   0 
  -7   5   3 1160.95    7.54   0 
  -7   7   2  197.72    4.32   0 
  -6   3   3  991.94    7.13   0 
  -6   4   2 1239.59    7.81   0 
  -6   9   0  128.85    4.91   0 
  -5   7  -1 1361.70    8.28   0 
  -5   8  -1  462.67    5.37   0 
  -5   9  -1  105.47    4.05   0 
  -5  10  -1    6.80    4.08   0 
  -4   2   1 1035.61    7.75   0 
  -4   7  -2 1410.42    8.35   0 
  -4   9  -2  353.97    5.46   0 
  -3   1   1 1807.21   11.20   0 
  -1  -5  15   19.51    4.75   0 
   0   7  -4 1140.52   11.89   0 
   1  -1   1 7233.73   30.63   0 
   2  -5  12  173.41    5.00   0 
   2  -1   1  187.91    5.03   0 
   2   2  -2 2688.63   21.46   0 
   4   2  -1   15.31    4.02   0 
   4   5  -2  165.50    6.64   0 
   4   6  -2  648.53   10.26   0 
   6   0   4   42.44    4.24   0 
   6   2   2  175.55    4.86   0 
  -8   4   6   43.55    3.65   0 
  -8   5   5  222.89    4.32   0 
  -7   0  10   93.04    4.81   0 
  -7   2   6  279.69    5.28   0 
  -6   2   4 1496.50    8.60   0 
  -6   5   1  726.80    6.57   0 
  -5  -1   7  226.37    5.58   0 
  -5   0   5 3583.56   14.95   0 
  -4   1   2 1667.45   10.35   0 
  -4   3   0 1116.23    7.70   0 
  -4  10  -2  171.79    4.55   0 
  -3   3  -1 3274.78   13.38   0 
  -3   7  -3  791.90    7.38   0 
  -3   8  -3  631.79    6.56   0 
  -2   1   0  747.00    8.58   0 
  -2   2  -1 9539.92   25.99   0 
  -2   5  -3 1708.54   10.51   0 
  -1   4  -3 1497.21   11.47   0 
   0  -3   5  499.06    8.10   0 
   0   8  -4  510.86    8.85   0 
   1   7  -4  321.68   10.85   0 
   3  -4   8   81.82    3.57   0 
   3  -3   5 5894.66   16.29   0 
   3  -2   3 1638.81    9.31   0 
   4  -4  10   52.39    3.44   0 
   5   0   2 1261.25    7.96   0 
   6  -1   6   48.88    3.58   0 
  -8   3   7  356.49    5.03   0 
  -8   6   4   46.36    3.59   0 
  -7   6   2  832.14    6.49   0 
  -6  -2  13  598.14   10.22   0 
  -6   0   7  368.12    5.65   0 
  -6   7   0  296.68    4.68   0 
  -5   3   1  610.46    5.85   0 
  -5   6  -1  982.27    6.88   0 
  -4  -1   5  893.02    9.23   0 
  -4   4  -1  350.70    4.87   0 
  -4   6  -2  110.30    3.93   0 
  -3  10  -3  345.68    6.27   0 
  -1   7  -4  693.62    8.07   0 
  -1   8  -4  861.16    8.88   0 
   0   6  -4  868.74   10.48   0 
   1  -5  13   42.94    4.47   0 
   4  -4  11   31.93    3.31   0 
   4  -4  12  156.90    4.11   0 
   4   0   1  464.73    5.59   0 
   4   1   0  198.59    4.43   0 
   5   3   0  743.61    7.76   0 
   6   0   5   81.65    4.15   0 
   6   4   2  108.87    4.94   0 
  -8   7   3   75.41    3.82   0 
  -7   8   1  219.27    4.52   0 
  -6  -1   9  121.16    5.46   0 
  -6   1   5    7.95    3.21   0 
  -6   6   0  806.39    6.72   0 
  -5   4   0  679.50    6.10   0 
  -3   6  -3  119.84    4.54   0 
  -2   3  -2 1038.24    8.64   0 
  -1   9  -4   39.29    4.91   0 
   0   9  -4  159.32    6.85   0 
   1  -5  15  477.14    6.39   0 
   1   6  -4  880.43   15.63   0 
   2  -4   8  739.52    6.71   0 
   5   6   0  159.88    5.99   0 
   6  -1   8  184.76    4.22   0 
   6   1   4  546.05    6.17   0 
  -8   1  10   14.47    4.43   0 
  -8   2   8  247.22    4.85   0 
  -8   4   5  103.21    3.85   0 
  -8   5   4  225.53    4.34   0 
  -7   0   9  212.50    5.19   0 
  -7   1   7  159.04    4.45   0 
  -7   3   4 1755.12    8.78   0 
  -7   4   3  729.68    6.08   0 
  -7   5   2 1003.40    6.84   0 
  -6   9  -1   14.14    4.24   0 
  -5   8  -2  913.30    7.23   0 
  -5   9  -2  243.78    4.62   0 
  -4  -3  10  703.62   16.40   0 
  -4  -2   7   99.90    5.49   0 
  -2   0   1 4204.08   21.09   0 
  -2   8  -4  297.26    5.93   0 
  -1  -4   9  265.27    6.91   0 
  -1   6  -4  801.58    8.33   0 
   1  -4   8  905.45    8.40   0 
   1  -3   5   28.31    3.53   0 
   1   8  -4  386.55   11.08   0 
   2   1  -1  704.38    9.68   0 
   2   4  -3  194.27   10.14   0 
   3  -3   6 6364.50   16.41   0 
   3   3  -2  263.56    6.49   0 
   5   2   1  724.08    7.17   0 
   5   4   0  161.41    5.07   0 
   6  -1   9   69.72    3.65   0 
   6   3   3  116.44    4.68   0 
  -8   3   6  641.52    6.10   0 
  -8   6   3   17.30    3.39   0 
  -7  -1  12   72.78    5.29   0 
  -7   2   5  191.75    4.39   0 
  -7   6   1  409.43    5.62   0 
  -6   3   2  662.01    5.99   0 
  -6   8  -1  123.17    4.15   0 
  -5  -2   9   43.80    5.07   0 
  -5   7  -2  486.40    5.76   0 
  -5  10  -2    5.93    3.54   0 
  -4   0   3 2952.32   13.78   0 
  -4   5  -2  219.07    4.24   0 
  -4   8  -3   24.80    3.31   0 
  -4   9  -3  373.23    5.26   0 
  -2   7  -4  577.15    6.97   0 
  -2   9  -4  221.47    5.52   0 
   3  -1   2  374.52    5.28   0 
   4  -2   5 5083.73   14.31   0 
   6   4   3    4.38    4.23   0 
  -8   7   2   50.50    3.61   0 
  -7   8   0  181.80    4.30   0 
  -6   5   0  889.97    6.32   0 
  -4   7  -3  815.96    6.54   0 
  -3   5  -3  775.05    7.07   0 
  -2   4  -3  456.21    6.47   0 
  -1  -3   6 1638.06   17.25   0 
  -1  10  -4    3.94    4.65   0 
   3  -4  13   64.72    3.61   0 
   3  -4  14   47.68    3.52   0 
   4  -3   9  183.29    3.89   0 
  -8   1   9  165.24    5.20   0 
  -8   2   7  324.68    5.08   0 
  -8   4   4  121.05    3.80   0 
  -7   7   0   49.45    4.14   0 
  -6   0   6  187.17    4.45   0 
  -5   6  -2  218.15    4.84   0 
  -3   8  -4  631.37    7.05   0 
  -3   9  -4  276.96    5.75   0 
  -2   6  -4  239.13    5.47   0 
  -2  10  -4  525.05    7.22   0 
   0  -4   9  476.53    6.82   0 
   0   5  -4 1168.88   12.11   0 
   3  -3   7    4.92    2.87   0 
   3   0   1   99.41    4.63   0 
   4  -3  12   11.06    3.08   0 
   4  -2   6 1418.64    7.87   0 
   4   0   2 1641.26    8.90   0 
   4   2   0  104.45    4.83   0 
   4   7  -1  184.90    6.28   0 
   5   3   1  434.55    5.69   0 
  -8   3   5  296.40    4.65   0 
  -8   6   2  297.72    4.67   0 
  -7  -1  11  234.18    6.23   0 
  -7   0   8   14.97    4.24   0 
  -7   1   6  291.28    4.78   0 
  -7   3   3  545.40    5.55   0 
  -6  -1   8  270.01    5.90   0 
  -6   1   4 1455.17    8.81   0 
  -6   6  -1  719.90    5.92   0 
  -5   0   4 4104.17   15.32   0 
  -5   2   1  758.13    6.60   0 
  -4   2   0   73.08    3.59   0 
  -4   3  -1 1345.81    8.05   0 
  -4   6  -3 1430.20    8.07   0 
  -3  -4  14  122.08    7.14   0 
  -3   7  -4 1191.37    8.59   0 
  -3  10  -4   84.64    4.72   0 
  -2  -4  11  637.59   10.79   0 
  -1   5  -4 1511.00   10.90   0 
   0  10  -4    5.14    6.25   0 
   3   2  -1    5.29    3.57   0 
   4   4  -1  414.75    6.51   0 
   5  -1   7   71.06    3.53   0 
   5   4   1  193.02    4.97   0 
   5   6   1  116.27    4.91   0 
   6   2   6  160.78    4.25   0 
   6   3   5  359.51    5.22   0 
  -7   2   4  461.77    6.00   0 
  -7   6   0   90.74    4.20   0 
  -6   9  -2   51.95    3.83   0 
  -5   4  -1  191.90    4.25   0 
  -5   8  -3  143.75    4.60   0 
  -5  10  -3  190.99    5.18   0 
  -3   2  -1 1565.53    9.38   0 
  -3   3  -2 1505.59    9.05   0 
  -1   1  -1 7731.74   30.88   0 
   0   3  -3  812.59   11.65   0 
   1  -4  10  809.54    7.51   0 
   2  -4  14  327.60    5.13   0 
   3   8  -2  115.97    7.66   0 
   4   5  -1 1105.97   10.12   0 
   4   6  -1  597.68    8.40   0 
   5   5   1   66.36    3.54   0 
  -8   1   8  591.52    6.90   0 
  -8   7   1  341.39    5.05   0 
  -7   8  -1   43.87    3.19   0 
  -6  -2  11  503.05    9.36   0 
  -6   3   1  209.10    4.24   0 
  -6   4   0  620.03    5.59   0 
  -6   7  -2  586.13    6.09   0 
  -4   9  -4  158.87    4.78   0 
  -3  -1   3  259.14    5.97   0 
   3  -3   9  385.78    4.85   0 
   3   4  -2 2487.06   16.05   0 
   5  -1   9  492.24    5.10   0 
   5  -1  11   57.61    3.45   0 
   5   3   2  242.58    5.19   0 
  -8   4   3 1372.49    7.90   0 
  -8   5   2  379.91    5.01   0 
  -6   5  -1  245.07    4.19   0 
  -5   7  -3   49.05    3.33   0 
  -4  -1   4 1070.77    9.41   0 
  -4   5  -3    8.48    2.98   0 
  -4  10  -4  140.56    4.56   0 
  -3   4  -3  978.91    7.20   0 
  -3   6  -4   52.38    3.52   0 
  -2   5  -4  864.24    7.58   0 
   0  -3   6  360.97    6.62   0 
   3  -3  14   48.92    3.56   0 
   4  -1   5 4682.33   13.43   0 
   4   3   0  138.31    4.93   0 
   5   2   3  386.38    5.20   0 
   5   4   2  128.73    5.12   0 
  -8   3   4  325.82    4.95   0 
  -8   6   1    6.58    3.17   0 
  -7   0   7   15.39    4.12   0 
  -7   1   5   56.39    3.61   0 
  -7   3   2   55.48    3.24   0 
  -7   4   1  560.34    5.42   0 
  -7   5   0  573.30    5.58   0 
  -6   0   5 3232.83   13.20   0 
  -5  -2   8  458.84    8.12   0 
  -4   7  -4  321.52    4.83   0 
  -2   8  -5   71.33    4.37   0 
  -1  -4  11  190.98    5.87   0 
  -1   8  -5  158.92    5.18   0 
   4   2   1 1310.20    8.91   0 
   5   5   2   57.44    3.71   0 
  -8   1   7  255.22    5.39   0 
  -8   7   0  472.13    5.40   0 
  -7   2   3  621.55    6.53   0 
  -6  -1   7  717.54    7.74   0 
  -6   1   3  646.05    6.05   0 
  -6   6  -2  283.52    4.42   0 
  -6   9  -3  376.02    5.10   0 
  -5   6  -3  289.20    4.63   0 
  -4   0   2 3654.16   14.76   0 
  -2  -4  13   34.34    5.15   0 
  -2   2  -2   64.60    3.85   0 
  -2   7  -5  117.86    4.65   0 
  -2   9  -5 1132.94    9.26   0 
  -1   7  -5  834.91    8.52   0 
   0  -4  15  265.71    5.53   0 
   1   5  -4  716.97   18.09   0 
   4   7   0   70.26    5.06   0 
   5   0  10  158.81    3.88   0 
   5   2   4   69.70    3.69   0 
   5   3   3  277.64    4.71   0 
  -8   4   2  195.13    4.97   0 
  -8   5   1   91.45    4.25   0 
  -7   6  -1   65.96    3.50   0 
  -7   8  -2   41.35    3.31   0 
  -6   8  -3   -1.74    3.08   0 
  -5  -1   5  462.64    6.62   0 
  -5   2   0  406.87    5.44   0 
  -5   3  -1   90.90    3.58   0 
  -5   4  -2  568.58    5.52   0 
  -5   8  -4   10.36    4.02   0 
  -5   9  -4   51.92    3.45   0 
  -4  -2   6  303.88    6.99   0 
  -4   6  -4 1933.43    9.09   0 
  -3   5  -4   86.56    3.46   0 
  -3   8  -5  546.05    6.36   0 
  -3   9  -5  275.36    5.03   0 
  -2  -4  15  102.73    5.26   0 
  -2  -1   2   17.10    3.86   0 
  -2   1  -1  177.32    4.75   0 
  -2   3  -3 1059.05    8.41   0 
  -2  10  -5  385.16    6.62   0 
  -1  -4  12  103.42    4.66   0 
  -1  -4  15  113.51    5.17   0 
   0  -4  13   32.95    4.05   0 
   0  -4  14   58.98    4.25   0 
   1  -2   4  197.73    5.17   0 
   3   5  -2  611.63    9.20   0 
   3   7  -2    4.67    5.50   0 
   4   4   0 1035.05    8.59   0 
   5   2   5    2.25    3.71   0 
   5   5   3    6.38    3.95   0 
  -8   0   9   90.07    4.59   0 
  -8   3   3  260.43    4.43   0 
  -8   6   0    4.98    3.14   0 
  -7   7  -2   64.86    4.18   0 
  -6   3   0    4.34    3.13   0 
  -6   4  -1  149.75    3.81   0 
  -6   7  -3    6.03    3.08   0 
  -4   2  -1 1402.90    8.27   0 
  -4   3  -2  295.44    4.46   0 
  -3   7  -5  704.93    6.90   0 
  -3  10  -5   77.88    3.87   0 
  -1  -4  13  403.44    6.24   0 
  -1  -4  14   36.31    4.17   0 
  -1   4  -4 2129.49   12.84   0 
  -1   6  -5  697.51    8.23   0 
  -1  10  -5  473.62    8.66   0 
   0   7  -5  792.66   10.68   0 
   0   8  -5  287.04    7.91   0 
   1  -1   2   85.06    4.89   0 
   2  -3  14   87.97    3.55   0 
   2   0   1  437.21    6.30   0 
   3   3  -1   13.05    3.85   0 
   4   5   0  894.35    8.50   0 
   4   6   0  191.94    5.26   0 
   5   3   4  210.62    4.20   0 
  -7  -1   9  130.45    4.96   0 
  -7   0   6   31.71    4.07   0 
  -7   1   4  205.58    4.42   0 
  -7   4   0  469.68    5.06   0 
  -6   5  -2    5.95    3.04   0 
  -5   5  -3 1264.03    7.40   0 
  -4   1   0 2532.61   11.50   0 
  -4   4  -3   68.36    3.53   0 
  -4   8  -5  424.18    5.64   0 
  -4   9  -5  209.19    4.61   0 
  -4  10  -5    0.67    4.24   0 
  -2   4  -4 1394.08    9.39   0 
  -2   6  -5  375.22    6.00   0 
   2  -3  13  444.81    5.39   0 
   3  -2   8  251.83    4.21   0 
   3  -2   9  145.04    4.24   0 
   3  -2  13  481.57    5.24   0 
   3  -2  14  446.07    5.44   0 
   3   6  -2    4.00    4.70   0 
   4  -1  11    5.97    3.02   0 
   4   0   5  344.61    4.65   0 
   4   2   2  370.96    5.49   0 
   5   2   6 1458.17    7.93   0 
   5   3   5   12.58    3.24   0 
   5   4   4  175.63    4.12   0 
   5   5   4  437.74    5.88   0 
  -8   1   6  250.72    4.89   0 
  -8   2   4 1251.34    7.73   0 
  -6   0   4  713.72    6.75   0 
  -6   6  -3  548.84    5.31   0 
  -6   9  -4  304.95    5.38   0 
  -4   5  -4  407.78    5.28   0 
  -3   2  -2   44.63    3.11   0 
   0  -3   7 2062.35   12.43   0 
   0   9  -5  180.02    8.09   0 
   3   2   0    9.06    2.93   0 
   4   0   6   67.18    3.32   0 
   5   3   7  370.89    5.61   0 
   5   4   5  746.69    6.46   0 
  -8   0   8   90.32    4.62   0 
  -8   4   1  177.33    3.95   0 
  -8   5   0   32.38    3.36   0 
  -7   2   2  258.54    4.42   0 
  -7   8  -3  210.65    4.23   0 
  -6  -1   6 1749.87   10.90   0 
  -6   1   2  411.83    5.28   0 
  -6   8  -4  445.84    5.20   0 
  -5   6  -4  707.28    5.88   0 
  -4   7  -5  216.58    4.38   0 
  -3   6  -5  833.45    6.82   0 
  -1  -3   7 3745.17   20.65   0 
   0   6  -5 1844.60   14.79   0 
   3   0   3  698.13    6.25   0 
   4   0   7 1474.36    7.55   0 
   4   0  12   35.31    3.17   0 
   4   4   1  194.19    4.99   0 
   4   7   1  147.12    5.01   0 
   5   4   6    9.10    3.11   0 
  -8   3   2  181.17    4.13   0 
  -8   6  -1   32.34    3.20   0 
  -7  -1   8  435.25    7.09   0 
  -6  -2   9  137.47    6.09   0 
  -6   4  -2  458.31    5.54   0 
  -5  -2   7  252.86    6.48   0 
  -5   3  -2  265.31    4.87   0 
  -5   9  -5   75.66    3.67   0 
  -4  -1   3  294.37    5.72   0 
  -3   1  -1 1213.62    8.31   0 
  -3   4  -4 2261.39   10.14   0 
  -2   0   0  225.99    5.92   0 
   2  -2  15   83.86    4.31   0 
   2   1   0  870.43    8.88   0 
   3  -1   6   78.50    3.32   0 
   4   0  11  150.86    3.90   0 
   4   3   2  662.86    6.52   0 
   4   5   1  325.51    5.60   0 
   4   6   1  208.27    5.39   0 
  -8   1   5  404.08    5.98   0 
  -7   0   5  671.04    7.09   0 
  -7   1   3  109.65    4.50   0 
  -7   4  -1  300.31    4.49   0 
  -7   7  -3  210.08    4.13   0 
  -6   2   0   61.45    4.04   0 
  -6   5  -3  600.02    5.47   0 
  -6   7  -4   23.66    3.12   0 
  -5  -1   4   12.89    4.15   0 
  -5   0   2   61.28    4.22   0 
  -5   2  -1  961.81    6.65   0 
  -5   4  -3  724.78    5.96   0 
  -4   0   1 1728.50   10.26   0 
  -4   6  -5  814.06    6.74   0 
  -2   5  -5  281.27    4.94   0 
   0  -3  16   21.37    4.11   0 
   1  -3  12  151.83    4.49   0 
   2   2  -1 1215.33   11.75   0 
   2   8  -3   15.04    6.97   0 
   3  -1   7  968.86    6.87   0 
   3  -1  13  103.42    3.55   0 
   3   4  -1 1424.71   11.08   0 
   3   8  -1  225.62    6.72   0 
   4   7   2   28.72    4.05   0 
  -8   0   7  253.13    5.36   0 
  -8   2   3   29.53    3.29   0 
  -7   3   0  265.44    4.25   0 
  -7   5  -2  328.33    4.54   0 
  -5  -3  14   64.72    8.97   0 
  -5   5  -4  925.84    6.44   0 
  -5   7  -5  161.49    3.84   0 
  -4   3  -3  988.25    6.78   0 
  -3   5  -5  221.26    4.77   0 
  -3   8  -6  983.63    7.97   0 
  -2   8  -6 1070.73    8.69   0 
  -2   9  -6 1370.77    9.88   0 
   2  -2  13  480.93    5.31   0 
   4   1  11  269.36    4.20   0 
   4   2   4   20.99    3.63   0 
   4   4   2  373.01    5.74   0 
  -8   3   1  241.36    4.96   0 
  -8   4   0  483.08    4.89   0 
  -8   5  -1  158.67    3.92   0 
  -7   2   1   44.93    3.18   0 
  -6   0   3  128.86    4.05   0 
  -6   6  -4  247.97    4.17   0 
  -5   1   0  271.83    4.30   0 
  -4   2  -2  700.36    6.06   0 
  -4   4  -4  158.26    3.83   0 
  -4   8  -6  351.58    5.36   0 
  -4   9  -6   29.73    3.38   0 
  -3  -1   2 2244.46   13.35   0 
  -3   7  -6  591.95    6.63   0 
  -2   7  -6  196.06    4.88   0 
   0  -3  15    8.55    3.26   0 
   2  -2  12  615.47    5.47   0 
   4   1   8  593.82    5.27   0 
   4   1  10  120.67    3.67   0 
   4   6   2  138.78    4.14   0 
  -8   6  -2  141.14    3.80   0 
  -7  -1   7   70.78    4.21   0 
  -6  -1   5 2245.17   11.76   0 
  -6   1   1  220.73    4.12   0 
  -6   8  -5  508.47    5.36   0 
  -4   1  -1  353.03    5.32   0 
  -3   0   0  256.98    5.45   0 
  -1  -3  16  139.78    4.75   0 
  -1   8  -6   69.55    4.50   0 
  -1   9  -6  267.73    6.86   0 
   0  -3   9  897.91    7.54   0 
   0  -3  14    9.69    3.15   0 
   0  10  -5   39.23    7.52   0 
   3   2   1 1496.66    9.20   0 
   3   3   0 1270.47    9.09   0 
   3   5  -1 1524.72   11.42   0 
   3   7  -1  140.77    5.44   0 
   4   2   5    6.05    2.87   0 
   4   4   3  274.01    5.20   0 
   4   6   3   74.95    4.26   0 
  -8   1   4  198.39    4.27   0 
  -7   0   4  452.25    5.91   0 
  -7   1   2  247.42    4.92   0 
  -7   4  -2  461.05    5.64   0 
  -7   7  -4  969.02    6.62   0 
  -6  -2   8  233.40    6.82   0 
  -6   3  -2 2436.40    9.66   0 
  -6   4  -3  666.47    5.72   0 
  -6   7  -5  229.03    4.81   0 
  -5   9  -6  111.38    3.84   0 
  -4  -2   5 1529.53   12.56   0 
  -4   7  -6  787.36    6.45   0 
  -2   2  -3  460.18    5.79   0 
  -1  -2   4  779.24   15.24   0 
  -1   2  -3 1739.54   11.87   0 
  -1   3  -4  105.03    4.40   0 
   0  -3  10  656.54    6.87   0 
   0  -3  11   14.55    3.63   0 
   0  -3  12  117.83    4.34   0 
   1  -2  15   49.05    3.30   0 
   2   7  -3   44.15    6.45   0 
   3   6  -1   39.89    4.42   0 
   4   2   6  831.67    5.95   0 
   4   2   8  317.79    4.38   0 
   4   2   9  129.25    3.73   0 
   4   3   4    7.56    3.04   0 
   4   5   3  134.59    4.69   0 
  -8   0   6  325.07    5.18   0 
  -7  -2  11   19.49    5.79   0 
  -7   3  -1  218.77    4.04   0 
  -7   5  -3  308.78    4.47   0 
  -6   2  -1  109.21    3.66   0 
  -6   5  -4 1416.24    7.35   0 
  -5  -2   6  549.80    7.88   0 
  -5   3  -3  318.52    4.49   0 
  -5   8  -6   54.85    3.27   0 
  -3   2  -3 1987.58    9.52   0 
  -3   3  -4 1853.95    9.20   0 
  -3   6  -6   11.12    3.22   0 
  -1  -3  15  530.51    6.64   0 
   2  -1  14  410.03    5.01   0 
   3   8   0   70.72    4.51   0 
   4   3   5  549.72    5.49   0 
   4   3   6  292.92    4.88   0 
   4   3   8  156.04    4.45   0 
   4   3   9   38.22    2.96   0 
   4   4   4  374.03    4.96   0 
   4   5   4  470.18    6.05   0 
   4   6   4  126.42    4.19   0 
  -8   3   0  379.51    4.74   0 
  -8   4  -1  235.57    4.30   0 
  -8   5  -2  692.15    6.00   0 
  -7   6  -4   28.15    3.21   0 
  -6   0   2  347.70    5.48   0 
  -5  -1   3 2669.88   12.70   0 
  -5   2  -2   99.50    3.50   0 
  -5   7  -6   59.48    3.30   0 
  -3  -2   4 1519.43   14.51   0 
  -2  -3   8 2231.18   18.31   0 
  -2   1  -2  617.62    6.77   0 
  -1   6  -6 1259.23   10.08   0 
   0  -1   2  378.77    9.52   0 
   1  -2  13  196.88    4.39   0 
   2  -1   6  925.72    6.65   0 
   2  -1  13  143.76    3.81   0 
   3   0   7   95.38    3.40   0 
   3   0   8  431.81    4.71   0 
   3   0   9 1473.33    7.41   0 
   3   0  10  387.03    4.57   0 
   3   4   0 1103.83    8.90   0 
   4   4   6  130.96    4.29   0 
   4   4   7   85.15    3.98   0 
   4   5   6  158.16    4.44   0 
  -8   1   3  131.41    3.73   0 
  -7  -1   6    1.31    3.81   0 
  -6   1   0  838.50    6.64   0 
  -6   6  -5   10.19    3.08   0 
  -6   8  -6  126.90    4.72   0 
  -5   5  -5  893.69    6.39   0 
  -4  -1   2  816.34    7.83   0 
  -4   0   0 1499.34    9.14   0 
  -4   3  -4  939.68    6.58   0 
  -4   9  -7    7.97    4.12   0 
  -3  -3  16  255.95    6.03   0 
  -3   1  -2  381.43    5.10   0 
  -3   9  -7  543.59    6.85   0 
  -2  -3  15  669.81    7.29   0 
  -1  -3  13  212.66    4.90   0 
  -1   1  -2   89.64    4.41   0 
   2   0   3  339.07    4.91   0 
   3   1   4  434.42    4.83   0 
   3   1  12   46.04    3.15   0 
   3   2   2 1303.62    8.11   0 
   3   3   1 1480.89    9.44   0 
  -8   0   5   49.87    4.22   0 
  -8   2   1  337.31    4.64   0 
  -7  -2  10  244.44    7.46   0 
  -7   0   3   42.65    3.94   0 
  -7   1   1  127.39    4.27   0 
  -7   7  -5  335.52    4.55   0 
  -4   4  -5  132.58    3.60   0 
  -4   8  -7  363.64    5.57   0 
  -3   8  -7  234.58    4.63   0 
  -3  10  -7   69.66    4.36   0 
  -2   9  -7  317.26    6.43   0 
  -1  -3  10   18.36    3.74   0 
  -1  -3  12   32.28    3.90   0 
   0  -2  15  227.24    4.84   0 
   1  -2   9  694.33    5.88   0 
   1  -2  10  446.89    4.89   0 
   1  -2  11   14.10    2.93   0 
   2  -1   7  489.58    5.04   0 
   2  -1   8  307.99    4.32   0 
   2  -1   9  947.04    6.38   0 
   2  -1  11  185.03    3.73   0 
   2   0  14   31.79    3.18   0 
   3   1   5  137.94    3.62   0 
   3   1  11  211.70    3.85   0 
   3   5   0 1346.54    9.68   0 
   3   7   0   17.95    3.76   0 
  -8  -1   8   11.03    3.82   0 
  -8   4  -2   97.67    3.60   0 
  -8   5  -3  786.20    6.57   0 
  -7   3  -2  719.42    5.62   0 
  -7   4  -3  346.72    4.54   0 
  -6  -2   7  243.08    6.32   0 
  -6   3  -3 1101.99    6.70   0 
  -6   4  -4  471.98    4.91   0 
  -6   7  -6  240.61    4.25   0 
  -5   6  -6  710.67    5.66   0 
  -4  -3  15  245.83    7.43   0 
  -3  -3  15  210.19    5.91   0 
  -3   7  -7    6.66    3.95   0 
  -2   8  -7  159.53    4.81   0 
   3   1   7  300.75    4.66   0 
   3   1   8  118.59    3.88   0 
   3   1  10  336.08    4.44   0 
   3   6   0  533.77    6.93   0 
  -8   3  -1 1571.89    7.96   0 
  -7   2  -1  709.68    5.76   0 
  -7   6  -5  336.31    4.68   0 
  -6   2  -2  404.52    4.73   0 
  -5   8  -7   24.95    3.12   0 
  -4   5  -6  198.74    3.95   0 
  -2  -3   9 1873.14   14.49   0 
  -2  -3  13  141.93    5.06   0 
  -2  -1   1  686.22    9.14   0 
  -2   7  -7  207.64    4.99   0 
   1  -1   4 1703.31   10.80   0 
   2   0   4  830.28    6.55   0 
   3   2  11   77.60    3.51   0 
   3   3   2  814.95    7.17   0 
   3   4   1  917.49    7.80   0 
   3   7   1  147.10    5.02   0 
  -8   1   2  236.13    4.28   0 
  -8   2   0  185.86    4.55   0 
  -7  -2   9   90.72    5.69   0 
  -7  -1   5  695.89    7.18   0 
  -6   0   1  364.31    5.39   0 
  -6   6  -6   55.60    3.33   0 
  -5  -2   5  276.83    6.12   0 
  -5   0   0 1089.18    7.41   0 
  -5   7  -7  697.62    6.45   0 
  -4  -3  14   91.24    5.99   0 
  -3  -3  14  116.09    5.38   0 
  -3  -1   1  951.63    8.76   0 
  -3   0  -1  106.44    4.50   0 
  -2  -3  12  171.55    5.27   0 
  -2   0  -1  455.35    6.30   0 
  -1  -2  16  727.83    6.59   0 
   0  -2  13  325.03    5.33   0 
   0   3  -4  640.77    9.40   0 
   2   1  14   63.37    3.46   0 
   2   2   0  867.18    9.03   0 
   3   2   9   11.34    3.60   0 
   3   3  11   59.48    3.27   0 
  -8  -1   7   10.99    3.80   0 
  -7   0   2  114.97    4.41   0 
  -6  -1   3  223.52    4.89   0 
  -6   1  -1 1080.49    6.70   0 
  -5  -1   2 1966.64   10.47   0 
  -4  -2   4 1214.73   10.47   0 
  -3   2  -4  388.14    5.33   0 
  -3   3  -5 6472.25   15.90   0 
  -2  -3  10  668.18    8.50   0 
  -2  -3  11 1503.66   11.17   0 
  -2   2  -4  725.21    7.09   0 
  -2   6  -7   25.42    3.97   0 
   0  -1  16  162.04    3.95   0 
   0   2  -3  953.63   12.24   0 
   1  -1  13   53.00    3.17   0 
   1   0  15    8.87    3.02   0 
   2   0   5 2040.38    9.36   0 
   2   0  11  799.58    5.83   0 
   2   1   2 1607.31    9.99   0 
   2   1  13  164.03    3.83   0 
   2   8  -2  803.21   10.80   0 
   3   2   5   83.89    3.12   0 
   3   2   6  344.70    4.48   0 
   3   2   7  598.25    5.78   0 
   3   3   3 2043.76    9.73   0 
   3   5   1  423.52    5.93   0 
   3   6   1  695.79    7.13   0 
   3   7   2   67.54    4.22   0 
  -8   4  -3    3.01    3.01   0 
  -7   3  -3  714.35    5.61   0 
  -7   5  -5   11.22    2.98   0 
  -6  -2   6 2050.22   12.99   0 
  -6   4  -5 1385.01    7.84   0 
  -5   1  -2 1839.36    8.59   0 
  -4  -3  13   38.08    5.75   0 
  -4   0  -1  472.41    5.73   0 
  -4   3  -5  131.41    3.67   0 
  -3  -3   9  248.78    8.68   0 
  -3  -3  13  570.71    7.97   0 
  -3   4  -6  420.12    4.92   0 
  -1  -2  15 2090.87   10.10   0 
   0  -2  12  240.19    4.37   0 
   1  -1  12  647.52    5.56   0 
   2   0   6  584.55    5.35   0 
   2   0   9  255.15    4.03   0 
   2   0  10  168.80    3.78   0 
   2   9  -1   40.64    4.67   0 
   3   3   9  239.19    3.93   0 
   3   4   2  790.81    6.65   0 
   3   4  10   91.37    3.51   0 
   3   7   3   81.06    4.45   0 
  -8   1   1  152.95    3.76   0 
  -8   3  -2  336.71    4.68   0 
  -7  -2   8  376.50    7.76   0 
  -7  -1   4  208.78    4.90   0 
  -7   6  -6  165.80    4.33   0 
  -6   2  -3  800.90    6.37   0 
  -6   5  -6  403.42    4.69   0 
  -6   7  -7  104.06    3.86   0 
  -4   2  -4 1444.46    7.67   0 
  -4   4  -6 1266.71    7.24   0 
  -4   8  -8  556.59    5.78   0 
  -3  -3  12  116.72    5.58   0 
  -3   8  -8  126.30    4.79   0 
  -2  -2  16  126.75    4.78   0 
  -1   7  -7   50.45    4.17   0 
   0  -2   7  588.39    6.36   0 
   0  -2  10   70.96    4.10   0 
   0  -2  11   29.25    3.04   0 
   0  -1  15  814.05    6.31   0 
   0   9  -6   18.73    7.59   0 
   1  -1  11  305.69    4.17   0 
   1   0  14   88.10    3.64   0 
   2   0   7  226.54    3.97   0 
   2   0   8  334.95    4.40   0 
   2   1  12  330.06    4.45   0 
   2   2  13  194.39    3.94   0 
   3   3   4 1286.52    7.51   0 
   3   3   5  265.48    4.35   0 
   3   3   6   69.82    3.54   0 
   3   3   8  153.89    3.70   0 
   3   4   3  394.26    5.52   0 
   3   4   8  134.02    4.25   0 
   3   4   9  497.10    5.21   0 
   3   5   2  782.00    7.10   0 
   3   6   2  212.29    4.30   0 
   3   7   4  427.42    6.08   0 
  -8  -1   6   94.29    4.27   0 
  -8   0   3   80.04    3.78   0 
  -8   2  -1  257.82    4.17   0 
  -5   4  -6  441.19    5.23   0 
  -4   7  -8  690.63    6.53   0 
  -3  -3  10 1806.00   15.98   0 
  -3  -3  11 1965.25   15.22   0 
  -2   1  -3  565.42    6.05   0 
  -1  -2  14  134.32    4.02   0 
  -1   3  -5   31.81    4.03   0 
   0  -2   8  752.00    6.72   0 
   0   4  -5  151.46    5.65   0 
   1  -1   6  786.08    6.62   0 
   1  -1  10   11.60    2.91   0 
   2   1  11  559.58    5.17   0 
   2   5  -2   73.80    4.88   0 
   3   4   4  191.13    4.40   0 
   3   4   6  777.13    6.52   0 
   3   4   7  143.60    3.54   0 
   3   5   7  575.16    5.97   0 
   3   6   3   31.78    3.24   0 
   3   6   4  313.48    5.36   0 
   3   6   5  112.02    4.11   0 
   3   6   6   21.84    3.70   0 
   3   6   7  356.00    4.77   0 
  -7   0   1  161.41    4.41   0 
  -7   1  -1  629.87    5.98   0 
  -5  -2   4  106.56    4.95   0 
  -5   0  -1  336.54    4.99   0 
  -5   2  -4  143.97    3.70   0 
  -4  -3  11  274.82    8.86   0 
  -4   1  -3 2381.36    9.74   0 
  -2   8  -8    4.75    3.74   0 
  -1   0  -1   58.17    4.16   0 
  -1   2  -4  220.41    4.83   0 
   0  -1  14  594.80    5.55   0 
   1  -1   8  945.12    6.56   0 
   1   0   2 1414.04   11.14   0 
   1   0  13  530.30    5.05   0 
   2   1   3 1199.96    8.03   0 
   2   1  10  148.30    3.54   0 
   2   2   1 2031.21   11.64   0 
   2   2  12  122.45    3.50   0 
   2   7  -2   38.01    4.85   0 
   3   4   5  878.65    6.38   0 
   3   5   5  223.09    4.08   0 
   3   5   6  899.99    6.63   0 
  -8   3  -3   24.56    3.08   0 
  -8   4  -4  179.97    3.95   0 
  -7  -2   7  940.13    9.77   0 
  -7   3  -4  329.30    4.29   0 
  -7   5  -6  106.03    3.51   0 
  -6  -1   2   45.60    3.35   0 
  -5  -1   1  613.82    6.62   0 
  -3  -2   3   88.95    4.99   0 
  -2  -2  15  356.21    5.68   0 
  -1  -2  13  158.32    3.87   0 
   0  -1  13  240.51    4.78   0 
   1   0  12  775.88    5.80   0 
   1   1  14  561.39    5.09   0 
   2   1   4 3859.53   13.18   0 
   2   1   9   33.09    2.97   0 
   2   2  11  136.66    3.63   0 
   2   6  -2   11.55    4.22   0 
  -8  -1   5  109.77    4.51   0 
  -8   0   2  137.49    4.50   0 
  -8   1   0  293.26    4.55   0 
  -7   2  -3  406.64    4.73   0 
  -6  -2   5  309.04    5.81   0 
  -4  -2   3  454.72    6.92   0 
  -4   6  -8  387.78    4.92   0 
  -3   0  -2 1262.15    8.50   0 
  -3   6  -8 1807.14    9.15   0 
  -1  -2  12  262.72    5.07   0 
   0   0  15   79.15    3.47   0 
   2   1   5 2719.39   10.51   0 
   2   1   6  268.80    4.54   0 
   2   1   7  189.27    3.81   0 
   2   2  10  894.16    6.51   0 
   2   3  11  137.37    4.20   0 
  -8   2  -2  493.39    5.26   0 
  -6   2  -4  862.92    5.94   0 
  -6   5  -7  393.24    4.59   0 
  -4   0  -2 1695.22    8.59   0 
  -4   4  -7 1831.84    8.56   0 
  -4   8  -9  378.95    5.77   0 
  -3  -1   0  315.35    5.23   0 
  -1  -2   5 1318.67   13.83   0 
  -1  -1  15  165.13    3.91   0 
   0  -1  12  852.75    6.56   0 
   1   0  11  711.86    5.68   0 
   1   1  13  678.25    5.54   0 
   2   3   0  175.04    4.79   0 
   2   4  -1  698.25    8.18   0 
   2   4  11  106.12    3.41   0 
  -7   0   0  789.60    6.15   0 
  -6   0  -1  873.25    6.32   0 
  -6   6  -8  112.30    3.69   0 
  -3   9  -9  180.54    5.00   0 
  -2   2  -5 1676.24    9.07   0 
  -1  -2  11  149.41    4.47   0 
   0  -1   3 2440.23   17.16   0 
   0   0  14  865.84    6.36   0 
   0   5  -6   43.50    4.97   0 
   1   0   3  226.32    5.29   0 
   1   0  10   49.03    3.29   0 
   1   1  12  114.19    4.02   0 
   2   2   2 1715.32    9.73   0 
   2   2   9  192.31    3.89   0 
   2   3  10  691.69    5.67   0 
  -8  -1   4   55.68    4.08   0 
  -8   1  -1  120.05    3.59   0 
  -8   3  -4   15.54    3.01   0 
  -7  -2   6 1535.26   11.12   0 
  -7   4  -6  282.66    4.36   0 
  -7   5  -7  210.27    4.67   0 
  -6  -2   4   23.72    4.38   0 
  -6  -1   1  293.11    4.71   0 
  -6   1  -3   10.19    3.05   0 
  -5  -2   3   79.97    4.29   0 
  -5   0  -2 1311.92    7.36   0 
  -5   2  -5  214.54    3.93   0 
  -5   5  -8   11.29    3.70   0 
  -4   1  -4 2079.57    9.06   0 
  -3  -2  15  335.54    5.63   0 
  -3   1  -4 3175.74   11.33   0 
  -2  -1  16    7.68    3.26   0 
  -1  -2  10  491.18    6.28   0 
  -1  -1  14  565.60    5.96   0 
  -1   0  16   58.04    3.44   0 
   0   1  -2  413.00    9.67   0 
   1   0   9   59.72    3.78   0 
   1   2  13   64.25    3.22   0 
   2   2   3 3136.63   12.36   0 
   2   2   8  184.53    3.80   0 
   2   3   9 1218.74    6.81   0 
   2   5  10   49.87    3.35   0 
   2   7  -1 2519.46   13.99   0 
  -8   2  -3  594.38    5.75   0 
  -7  -1   2  203.56    4.27   0 
  -7   2  -4  569.70    5.09   0 
  -6   3  -6  212.18    4.05   0 
  -5   1  -4   77.24    4.05   0 
  -2  -2  13  542.78    6.30   0 
  -1  -2   6  979.98   10.32   0 
  -1  -2   9 1705.82   10.10   0 
   0  -1  10   75.95    3.88   0 
   0   0  13  610.41    5.37   0 
   1   0   8   18.34    3.29   0 
   1   1  11  912.48    5.99   0 
   1   3  13   68.51    3.27   0 
   2   2   4 4899.56   14.14   0 
   2   2   5  504.25    5.43   0 
   2   2   6  271.25    4.10   0 
   2   2   7  731.40    5.70   0 
   2   3   1 1465.07    9.45   0 
   2   3   8  585.71    5.73   0 
   2   4   9 1230.10    6.98   0 
   2   5  -1 1713.72   11.51   0 
   2   5   9  172.87    3.88   0 
   2   6  -1  188.17    5.37   0 
   2   8   1  360.50    6.00   0 
  -7  -2   5   44.40    4.40   0 
  -6   2  -5  119.93    3.45   0 
  -6   5  -8  114.02    3.41   0 
  -5   6  -9  426.41    5.46   0 
  -1  -2   7  487.44    7.15   0 
  -1   0  15    7.90    3.05   0 
   0   1  14  213.38    4.20   0 
   1   0   4 1335.85    8.78   0 
   1   0   7   21.76    3.12   0 
   1   2  12  229.52    3.89   0 
   2   4   0 1850.41   11.05   0 
   2   4   8  948.60    6.56   0 
   2   5   8  610.63    5.91   0 
   2   6   8   25.67    3.25   0 
   2   7   0  610.87    7.49   0 
   2   8   2   12.28    3.61   0 
   2   8   3   44.73    4.04   0 
   2   8   4   63.84    3.55   0 
  -8  -1   3  143.83    4.15   0 
  -8   0   0  361.89    5.43   0 
  -8   1  -2   73.37    4.16   0 
  -4  -2   2  221.71    5.13   0 
  -4  -2  15  192.22    5.21   0 
  -4   0  -3 1247.03    7.15   0 
  -4   2  -6 1690.91    8.10   0 
  -3  -2   2  146.20    5.16   0 
  -3  -2  14  145.41    4.63   0 
  -3   0  -3  826.15    6.48   0 
  -2  -2  12    7.12    3.61   0 
  -2  -1  15  310.46    4.80   0 
  -2   7  -9  616.35    6.76   0 
  -1   3  -6 1673.92   10.06   0 
  -1   9  -8   21.95    5.33   0 
   0  -1   4   31.94    3.80   0 
   0  -1   9  292.47    4.36   0 
   0   0  12  512.10    5.07   0 
   1   0   6 4407.48   13.88   0 
   1   1  10  816.10    5.99   0 
   1   3  12  467.17    4.85   0 
   2   3   2 1547.94    9.16   0 
   2   3   7  697.81    5.61   0 
   2   4   7  672.79    5.78   0 
   2   6   7   10.87    3.00   0 
  -7  -1   1  471.41    5.57   0 
  -6  -2   3  879.90    7.63   0 
  -6  -1   0  632.09    5.98   0 
  -6   1  -4  212.80    3.96   0 
  -5  -2   2 1011.69    8.19   0 
  -5   0  -3 2331.81    9.86   0 
  -5   3  -7   54.85    3.27   0 
  -4  -1  -1  456.47    5.12   0 
  -3  -1  -1  329.40    5.08   0 
  -1   2  -5 2708.03   12.64   0 
  -1   6  -8  631.52    7.16   0 
   0  -1   8  618.86    5.90   0 
   0   1  13  497.99    4.85   0 
   0   2  14   38.17    3.16   0 
   1   1   9   10.94    3.60   0 
   1   2  11  648.84    5.43   0 
   2   3   3 2731.85   11.10   0 
   2   3   4  740.58    6.22   0 
   2   3   5  136.50    3.47   0 
   2   4   1 1217.06    8.69   0 
   2   4   6 1011.60    6.67   0 
   2   6   0   19.45    3.69   0 
   2   6   6  145.94    3.74   0 
   2   7   1   12.19    3.60   0 
   2   7   2   16.47    3.66   0 
   2   7   4  158.31    4.67   0 
  -8  -1   2   77.13    4.23   0 
  -7  -2   4   35.31    3.96   0 
  -6   3  -7   21.92    3.14   0 
  -6   4  -8  113.68    4.27   0 
  -5  -2  15   29.31    4.84   0 
  -5  -1  -1 1103.53    7.25   0 
  -5   7 -10  124.62    3.80   0 
  -4   5  -9   17.20    3.06   0 
  -3   1  -5 1506.65    7.82   0 
  -3   5  -9  309.72    5.23   0 
  -3   8 -10  132.22    4.68   0 
  -1  -1  12  313.94    4.58   0 
  -1   0  14 1165.21    7.09   0 
  -1   1  15   60.71    4.13   0 
   0  -1   7  741.55    6.73   0 
   0   0  11  807.71    5.92   0 
   0   3  14   21.56    3.67   0 
   0   7  -7  913.06   12.57   0 
   1   2  10 1197.12    7.02   0 
   1   3  11  231.96    4.12   0 
   2   5   6   54.39    3.32   0 
   2   6   1  136.75    4.49   0 
   2   6   5  673.92    5.86   0 
  -8  -2   6    8.95    4.24   0 
  -7   0  -2    4.51    3.16   0 
  -6   2  -6    8.13    3.07   0 
  -2  -2  11 1674.27   10.22   0 
  -1   0  -2 1515.35   11.51   0 
   0   2  13  567.74    5.66   0 
   1   1   1   21.93    3.31   0 
   1   1   8  371.15    4.63   0 
   1   4  11  296.06    4.37   0 
   1   5  11   59.40    3.20   0 
   2   4   2 1341.93    8.28   0 
   2   4   3 1348.63    8.00   0 
   2   4   4   41.61    3.01   0 
   2   5   1 1805.25    9.91   0 
   2   5   2 1190.39    8.24   0 
   2   5   4  309.94    5.01   0 
   2   5   5  391.33    4.88   0 
   2   6   2  597.29    6.51   0 
   2   6   3   57.79    3.47   0 
   2   6   4  515.51    5.44   0 
  -8   0  -1  371.45    4.93   0 
  -8   1  -3  421.60    5.04   0 
  -7  -1   0  469.77    5.82   0 
  -6  -2   2  538.17    6.36   0 
  -6   0  -3   47.19    3.14   0 
  -5  -3   7  161.42    8.49   0 
  -4  -2   1   14.78    3.59   0 
  -4  -2  14  105.71    4.67   0 
  -4   3  -8  156.23    4.32   0 
  -2  -1  -1  680.78    7.36   0 
  -1  -1  11  276.16    5.05   0 
  -1   0  13  452.56    5.60   0 
  -1   1  -4 1986.55   11.05   0 
   0   0  10  986.65    6.49   0 
   0   1  12  629.38    5.37   0 
   0   6  -7  151.32    6.12   0 
   0   8  -7  368.05   11.25   0 
   1   1   7 3956.04   12.04   0 
   1   2   9 1919.70    8.29   0 
   1   3  10 1458.58    7.35   0 
   1   6  10   57.35    3.39   0 
   2   5   3  194.13    4.00   0 
  -8  -1   1  102.73    4.60   0 
  -7  -2   3  260.01    5.47   0 
  -7   3  -7  100.92    3.51   0 
  -5  -2   1 2222.06   10.90   0 
  -5   3  -8  179.22    3.65   0 
  -5   4  -9   42.14    3.05   0 
  -4  -1  -2 1278.28    7.47   0 
  -4   4  -9  476.57    4.93   0 
  -2   0  15  175.11    3.96   0 
  -2   1  16  180.14    3.92   0 
  -1   1  14  186.47    4.06   0 
  -1   2  15   96.37    3.51   0 
   0   2  -4 2058.71   14.76   0 
   0   3  13   84.59    3.39   0 
   0   4  13    0.99    3.62   0 
   1   1   6 1204.80    7.52   0 
   1   5  10    9.09    2.78   0 
  -7   0  -3   65.06    4.06   0 
  -6   3  -8  295.51    4.30   0 
  -6   4  -9  449.42    5.49   0 
  -5  -1  -2  581.48    5.58   0 
  -5   5 -10  442.39    5.46   0 
  -4   5 -10   72.14    3.99   0 
  -3  -2   1    6.52    3.39   0 
  -3  -2  12   39.07    3.79   0 
  -3  -1  -2  926.18    7.07   0 
  -3   2  -7  449.68    4.90   0 
  -2  -1  13  228.68    4.37   0 
   0   0   9  652.09    5.57   0 
   0   1  11 1350.80    7.44   0 
   0   2  12  624.26    5.26   0 
   1   1   2  588.40    6.93   0 
   1   1   5 1807.03    9.30   0 
   1   2   8 2605.08    9.72   0 
   1   3   9 1941.68    8.20   0 
   1   6   9  503.87    5.22   0 
   1   7   8  708.64    6.14   0 
   1   9  -2  160.27    5.94   0 
  -8   0  -2   89.12    3.53   0 
  -7   1  -5   79.10    3.46   0 
  -6  -3   8  222.84    9.44   0 
  -6   0  -4   41.77    3.21   0 
  -5  -3   6  276.63    8.06   0 
  -5  -2  14  266.55    6.49   0 
  -3   1  -6   81.43    3.43   0 
  -1  -1  10 5788.09   16.04   0 
  -1   7  -9  548.60    7.58   0 
   0   3  12  299.76    4.27   0 
   1   1   3 1342.53    8.95   0 
   1   1   4 5932.89   16.70   0 
   1   5   9  139.62    3.56   0 
   1   8   6   78.13    4.04   0 
  -7  -2   2  211.37    5.14   0 
  -6  -3   7  371.14    8.69   0 
  -6   1  -6   45.34    3.35   0 
  -4  -2   0  103.86    4.59   0 
  -4  -2  13   19.17    3.75   0 
  -3  -1  14  387.84    5.85   0 
  -2  -2   9  819.82    8.07   0 
  -2   0  14  597.98    5.59   0 
  -2   1  15  100.61    3.60   0 
  -2   3  -8  801.34    6.10   0 
  -1   1  13  856.35    5.96   0 
   0   0   8 1487.76    8.10   0 
   0   1  10  582.03    5.33   0 
   0   2  11  827.49    6.20   0 
   0   4  12  179.79    3.77   0 
   1   2   7 1048.02    6.65   0 
   1   3   8  440.64    4.70   0 
   1   6   8  195.93    3.97   0 
   1   7   7  139.44    3.70   0 
   1   9  -1  102.86    4.74   0 
   1   9   2  261.99    5.32   0 
   1   9   3  283.37    4.91   0 
  -7   2  -7  122.38    3.55   0 
  -6  -3   6   39.83    5.25   0 
  -5  -2   0  455.47    5.29   0 
  -5  -1  -3  579.23    5.71   0 
  -5   2  -8  308.11    4.76   0 
  -5   3  -9  208.82    3.93   0 
  -4  -3   6 1326.09   19.34   0 
  -4  -1  -3 1083.78    6.83   0 
  -4  -1  15   60.13    4.07   0 
  -4   2  -8  385.59    4.74   0 
  -4   3  -9  221.04    3.91   0 
  -3   7 -11    7.25    3.11   0 
  -2  -1  12  863.74    6.96   0 
  -2   6 -10  491.04    5.69   0 
  -1  -1   9 2791.40   12.07   0 
  -1   3  14   45.37    3.17   0 
  -1   6  -9   26.05    3.83   0 
   0   6  11  250.34    4.69   0 
   1   2   6   84.47    3.29   0 
   1   4   8   28.04    3.03   0 
   1   8  -3  135.23    5.72   0 
   1   8   5  154.30    4.19   0 
   1   9   1   90.03    4.24   0 
  -7  -2   1  447.12    6.05   0 
  -6  -2   0  276.32    5.04   0 
  -6   3  -9  210.04    4.07   0 
  -5   4 -10    5.51    2.95   0 
  -4   4 -10   52.09    3.26   0 
  -3   0  -5  533.59    5.08   0 
  -3   6 -11   15.24    3.93   0 
  -2  -2   8   53.97    4.55   0 
  -2  -1  -2 1591.84    9.64   0 
  -1   0  11  653.53    5.68   0 
  -1   2  13  525.23    4.92   0 
   0   0   7 6115.74   16.27   0 
   0   3  11  625.40    5.35   0 
   0   4  11   52.61    3.97   0 
   0   5  11   29.26    3.22   0 
   1   3   7   37.08    3.06   0 
   1   7   6   66.19    3.40   0 
   1   8   4  124.34    4.30   0 
  -6  -3   5   12.15    4.56   0 
  -6  -1  -3 1312.90    7.36   0 
  -6   2  -8  173.64    3.83   0 
  -5   5 -11  322.10    4.70   0 
  -4  -3   5  784.04   11.67   0 
  -4   5 -11   14.34    3.08   0 
  -3  -2   0   11.67    2.84   0 
  -3  -1  -3  496.79    5.28   0 
  -3   4 -10  362.97    4.85   0 
  -1   1  12  885.37    6.12   0 
  -1   5  -9 1063.88    8.28   0 
   0   1   9 2993.62   10.49   0 
   0   2  10  764.83    5.75   0 
   1   2   5  147.39    3.75   0 
   1   3   6 1046.92    7.04   0 
   1   7   5  217.31    4.69   0 
   1   8   3  374.00    5.77   0 
  -5  -3   4  717.81    8.29   0 
  -5  -2  -1  722.53    6.28   0 
  -4  -2  -1 1303.38    8.16   0 
  -4  -2  12  261.12    6.10   0 
  -3  -1  13  108.21    3.70   0 
  -2  -1  11  108.24    4.31   0 
  -2   3  15   75.70    3.51   0 
  -1  -1   8  467.41    5.53   0 
  -1   3  13   69.26    3.30   0 
  -1   4  13   17.08    3.12   0 
   0   0   6 1798.32    9.79   0 
   0   1  -3 2618.28   17.73   0 
   0   3  10  509.55    5.29   0 
   0   6  10  194.65    3.88   0 
   1   2   0  251.17    6.15   0 
   1   2   4 4548.69   14.24   0 
   1   5   6  228.11    3.91   0 
   1   8   2  435.80    5.93   0 
  -7  -3   8  107.99    7.79   0 
  -7  -2   0  218.78    4.89   0 
  -7  -1  -3   25.42    3.66   0 
  -7   0  -5    6.21    3.14   0 
  -6  -3   4  607.31    8.02   0 
  -6  -2  -1  520.86    5.90   0 
  -5  -1  -4 2699.03    9.90   0 
  -5  -1  15    6.48    3.74   0 
  -5   3 -10   58.00    3.22   0 
  -4  -3   4  176.42    6.17   0 
  -4  -1  -4  718.46    5.73   0 
  -4   3 -10  908.68    6.10   0 
  -4   6 -12  173.99    4.70   0 
  -3   5 -11   36.68    3.20   0 
  -2  -2   7  420.14    7.79   0 
  -2   0  -5 2314.46   10.06   0 
  -2   3  -9  504.07    5.13   0 
  -2   8 -11   12.48    3.92   0 
  -1   2  12  122.59    3.51   0 
   0   1   8 2926.65   10.55   0 
   0   2   9  691.68    5.88   0 
   0   4  -7  846.70    9.05   0 
   0   4  10  223.95    4.05   0 
   0   5  10  633.32    5.39   0 
   0   7   9   60.12    3.35   0 
   1   2   3 1680.35    9.49   0 
   1   3   5  619.50    5.45   0 
   1   6   5   82.50    3.47   0 
   1   7   4  127.60    3.69   0 
   1   8  -1  288.19    5.66   0 
   1   8   0  122.32    4.43   0 
   1   8   1  206.01    4.87   0 
  -7  -3   6 1316.11   12.37   0 
  -6  -1  -4  588.56    5.34   0 
  -6   0  -6  357.97    4.71   0 
  -6   2  -9   46.17    3.25   0 
  -5  -3   3  141.42    4.56   0 
  -5   4 -11  385.30    4.79   0 
  -4   1  -8  229.80    4.47   0 
  -3  -2  -1 1493.61    9.30   0 
  -3  -2  10 2139.65   12.69   0 
  -3   0  -6   17.03    3.15   0 
  -3   0  14  577.05    5.80   0 
  -3   7 -12   13.02    3.75   0 
  -2  -2   1 1207.87   11.14   0 
  -1  -1   7 1631.06   10.34   0 
  -1   1  11  277.94    4.30   0 
  -1   2  -7 3569.00   12.79   0 
   0   0   5 1120.54    8.36   0 
   0   2  -5 1111.98   10.09   0 
   1   2   1 2138.71   12.63   0 
   1   2   2 2734.36   12.83   0 
   1   4   5  741.36    5.80   0 
   1   5   5  436.05    4.78   0 
   1   6   4  180.28    4.50   0 
   1   7  -3  103.20    5.89   0 
  -7  -3   5  142.46    5.74   0 
  -6  -3   3  364.48    5.93   0 
  -6   1  -8  216.74    4.13   0 
  -5  -2  -2  620.75    5.68   0 
  -4  -3   3  488.50    7.51   0 
  -4  -2  -2  407.88    5.40   0 
  -4   0  15   38.72    3.39   0 
  -4   5 -12  973.67    7.62   0 
  -2  -1  -3 1264.34    8.23   0 
  -2  -1  10 1637.20    9.75   0 
  -2   1  13  509.83    5.27   0 
  -2   3  14   77.90    3.48   0 
  -2   4  14  173.30    4.32   0 
  -1   4  -9 1394.52    8.64   0 
  -1   4  12  280.05    4.20   0 
  -1   5  12   69.87    3.33   0 
  -1   8 -10  133.13    6.17   0 
   0   3   9  790.32    5.74   0 
   0   4   9  163.00    4.13   0 
   0   7   8 1606.59    8.42   0 
   0   8   7  561.65    5.35   0 
   1   3   4  749.52    6.21   0 
   1   7   2  129.25    4.49   0 
  -7  -3   4   31.43    4.59   0 
  -7  -2  -1  104.19    3.73   0 
  -7  -1  -4    2.51    3.15   0 
  -7   0  -6  211.06    4.10   0 
  -6  -2  -2  180.72    4.48   0 
  -5  -3   2   40.74    3.70   0 
  -5  -1  -5  239.47    4.07   0 
  -5   0  -7  485.01    5.53   0 
  -4  -1  -5  179.73    4.50   0 
  -3  -1  12  214.96    4.34   0 
  -3   2  15  125.69    3.62   0 
  -2   5 -11  145.06    4.47   0 
  -1  -1  -1   21.11    4.11   0 
  -1   0  -4 1380.55    9.02   0 
  -1   0   9 2624.93   10.56   0 
  -1   1  -6  869.99    7.42   0 
  -1   2  11  757.02    5.84   0 
   0   0   4  796.47    7.90   0 
   0   1   7  914.07    6.55   0 
   0   2   8  443.35    4.90   0 
   0  10  -4    7.43    5.01   0 
   1   3   3 4628.74   14.98   0 
   1   5   4  347.84    4.51   0 
   1   6   3  143.78    3.86   0 
   1   7  -2  635.40    8.16   0 
   1   7   1  964.28    7.82   0 
  -6  -3   2  571.22    6.69   0 
  -6  -1  -5   16.18    3.16   0 
  -6   0  -7  324.21    4.46   0 
  -5  -2  12  237.77    6.30   0 
  -5  -1  14   66.76    4.67   0 
  -5   2 -10  886.07    6.30   0 
  -5   3 -11  143.54    3.65   0 
  -4  -3   2  342.43    6.42   0 
  -4  -2  11  375.65    6.74   0 
  -4  -1  13  226.65    4.95   0 
  -3   0  13  206.79    4.93   0 
  -3   1  14   50.95    3.94   0 
  -3   3  15  220.47    4.26   0 
  -2   2  13  305.99    4.33   0 
  -1  -1   6 1328.71   10.17   0 
  -1   1  10  611.54    5.38   0 
  -1   5 -10   32.90    3.86   0 
   0   8   6   53.53    3.22   0 
   0   9   4   67.60    4.14   0 
   1   4   3 1982.37    9.75   0 
   1   5   3  171.89    4.57   0 
   1   7  -1 1088.77    8.98   0 
   1   7   0  542.62    6.59   0 
  -7  -3   3   79.45    4.20   0 
  -7  -2  -2  155.95    4.72   0 
  -5  -3   1   70.01    4.05   0 
  -5  -2  -3  444.12    5.11   0 
  -4  -2  -3  581.81    5.91   0 
  -4   1  -9  377.63    4.66   0 
  -3  -2   9  498.92    7.45   0 
  -3  -1  -5  142.74    3.81   0 
  -2  -2   0  927.94    9.11   0 
  -2  -2   6  936.83   11.61   0 
  -2   0  -6  639.60    5.63   0 
  -2   0  11  348.86    4.65   0 
  -2   1  12   18.38    3.25   0 
  -2   3 -10  577.84    5.49   0 
  -2   3  13  194.12    3.87   0 
  -2   7 -12    5.72    3.88   0 
  -1   3  11  607.51    5.21   0 
  -1   7  10   89.19    3.41   0 
   0   0   3 1348.78   11.24   0 
   0   1   6  185.97    4.18   0 
   0   3   8   70.41    3.44   0 
   0   4   8   48.22    3.25   0 
   0   5   8    4.46    2.92   0 
   0  10  -3   70.15    5.22   0 
   0  10   0  184.85    5.12   0 
   1   3   2 2310.65   11.29   0 
   1   6  -3  486.77    8.42   0 
   1   6   1  303.94    5.37   0 
  -7  -3   2  243.50    5.22   0 
  -6  -2  -3  548.35    5.39   0 
  -6   1  -9   76.61    3.38   0 
  -5  -1  -6  139.85    4.38   0 
  -4  -3   1  154.14    4.70   0 
  -4   0  14   61.50    4.16   0 
  -3   2 -10  797.76    5.90   0 
  -3   2  14   90.20    4.23   0 
  -2  -1  -4 4093.16   13.27   0 
  -2  -1   9 1098.25    8.50   0 
  -2   4 -11  522.78    5.48   0 
  -2   4  13   85.30    3.43   0 
  -2   8 -12   66.62    4.41   0 
  -1   0   8 1209.69    8.08   0 
  -1   2  -8  848.06    6.55   0 
  -1   2  10   20.25    3.72   0 
  -1   3  -9  424.61    5.26   0 
   0   2   7   41.29    3.05   0 
   0   6   7   32.05    3.12   0 
   0   8   5  177.30    3.85   0 
   0   9  -6   16.51    7.34   0 
   0   9   3   78.35    4.22   0 
   0  10  -2  226.78    5.60   0 
   0  10  -1  188.50    5.14   0 
   1   3   0 1325.60   10.62   0 
   1   3   1 1235.43    9.25   0 
   1   4   2  706.88    6.33   0 
   1   6   0 1847.37   10.84   0 
  -6  -1  -6  153.28    3.80   0 
  -6   0  -8  302.20    4.87   0 
  -5  -3   0  734.97    7.01   0 
  -5   0  -8  247.57    4.28   0 
  -3  -1  11   77.08    4.24   0 
  -3   6 -13  124.39    3.86   0 
  -2   2  12  451.02    5.16   0 
  -1   1   9 1258.77    7.57   0 
  -1   6  10  197.29    3.90   0 
   0   1  -4   36.22    3.41   0 
   0   3   7 1867.66    8.76   0 
   0   4  -8 1129.44    9.59   0 
   1   4   1 1290.97    9.05   0 
   1   5  -3 1522.45   14.55   0 
   1   5   1  347.04    5.59   0 
   1   6  -1 2318.26   12.73   0 
  -7  -3   1  142.75    4.52   0 
  -7  -2  -3  110.31    3.70   0 
  -6  -2  -4 1138.57    7.69   0 
  -6  -2  12  870.10   11.23   0 
  -6  -1  14  423.33    6.82   0 
  -5  -2  -4   89.11    3.49   0 
  -5   2 -11  275.44    4.29   0 
  -4  -2  -4   15.61    3.67   0 
  -4   2 -11  761.49    5.76   0 
  -4   2  15  830.96    6.55   0 
  -4   3 -12   13.39    3.16   0 
  -3  -2  -3 1481.51    8.17   0 
  -3  -1  -6  945.68    6.77   0 
  -3   0  12  115.67    4.28   0 
  -3   1  13  469.02    5.12   0 
  -3   3  14  541.52    5.24   0 
  -3   4  14  611.05    5.56   0 
  -2  -2  -1 2040.14   11.46   0 
  -2   0  -7  247.57    4.66   0 
  -2   5 -12  184.53    4.82   0 
  -1  -1  -2  571.22    6.97   0 
  -1  -1   5  775.47    8.96   0 
  -1   1  -7    8.64    3.11   0 
  -1   3  10 1386.81    7.11   0 
  -1   4  10 1674.23    7.88   0 
  -1   5  10  516.76    5.02   0 
  -1   6 -11  181.28    4.94   0 
  -1   7 -11  137.39    5.23   0 
  -1   7   9   32.91    3.09   0 
   0   1   5 2080.58   10.14   0 
   0   2  -6 3313.30   14.87   0 
   0   4   7  685.70    5.53   0 
   0   8   4  207.27    4.12   0 
   0   9   2  359.23    5.81   0 
   1   4  -2 2040.30   15.91   0 
  -5  -3  -1  445.14    5.91   0 
  -5  -1  -7  532.07    5.59   0 
  -4  -3   0  143.14    4.14   0 
  -4  -1  12  288.84    5.41   0 
  -4   3  15  321.05    4.81   0 
  -3   0  -8  517.02    5.01   0 
  -2  -1  -5 2776.28   10.57   0 
  -2   0  10  497.04    5.50   0 
  -2   1  11  382.85    4.65   0 
  -2   2 -10  717.25    5.70   0 
  -2   4  12  279.41    4.19   0 
  -1   6   9  644.36    5.85   0 
   0   2   6 2962.23   10.80   0 
   0   6   6  404.51    4.66   0 
   0   7   5  332.49    4.64   0 
   0   9   1   55.08    4.25   0 
  -6  -3  -1  284.93    4.76   0 
  -6  -1  -7  239.86    4.33   0 
  -5  -2  -5    6.00    3.65   0 
  -5  -1  13  391.93    6.29   0 
  -5   0  -9  545.52    5.22   0 
  -4  -2  10  158.72    5.75   0 
  -4  -1  -7  581.82    5.12   0 
  -4   0  -9  561.17    5.23   0 
  -4   0  13  486.67    5.98   0 
  -4   1  14   28.96    3.20   0 
  -3  -2  -4  449.96    5.30   0 
  -2   4 -12  171.52    4.57   0 
  -1   0   7 3056.39   12.49   0 
  -1   2  -9  788.73    6.59   0 
  -1   2   9  416.54    4.74   0 
  -1   7   8  424.83    5.42   0 
  -1   8 -11  389.07    7.46   0 
  -1   9   6   53.41    3.33   0 
   0   3   6  943.79    6.40   0 
   0   5   6  451.40    5.00   0 
   0   8   3  577.56    6.59   0 
  -6  -2  -5  381.69    4.79   0 
  -5  -3  -2  251.13    5.06   0 
  -5  -2  11  776.64    9.51   0 
  -5   0  14   88.47    3.66   0 
  -4  -3  -1  897.65    7.06   0 
  -4  -2  -5    9.01    2.77   0 
  -3  -3   1   11.08    4.31   0 
  -3  -2   8  553.70    8.44   0 
  -3   3  13  152.51    4.30   0 
  -2   6 -13  165.94    4.91   0 
  -1  -1  -3 1380.61    9.16   0 
  -1   0  -6 4375.39   13.70   0 
  -1   1   8 2483.13   10.10   0 
  -1   3 -10 1157.55    7.38   0 
  -1   3   9  247.64    4.15   0 
  -1   4   9 1247.28    6.81   0 
  -1   8   7  186.68    3.96   0 
   0   1   4 4383.58   15.81   0 
   0   4   6  147.19    3.73   0 
   0   6   5  310.84    4.41   0 
   0   7   4  394.77    5.52   0 
  -7  -3  -1  371.47    5.22   0 
  -6  -3  -2  269.23    4.59   0 
  -5  -1  -8  400.81    5.35   0 
  -5   1 -11   59.72    3.39   0 
  -5   2  15  437.66    5.84   0 
  -4   1 -11    5.87    2.97   0 
  -4   2 -12  406.93    4.96   0 
  -4   2  14  406.85    4.92   0 
  -4   3 -13   67.10    3.40   0 
  -3  -3   4 1386.18   18.15   0 
  -3  -1  -7  306.19    4.26   0 
  -3  -1  10  341.90    5.71   0 
  -3   0  -9 1751.59    7.95   0 
  -3   4  13  615.47    5.53   0 
  -2  -2   5  293.51    9.14   0 
  -2   0  -8  356.96    4.68   0 
  -2   3  11  455.72    4.75   0 
  -2   5  11  689.81    5.66   0 
  -2   7  10   35.61    3.20   0 
  -1   1  -8 1064.99    6.88   0 
  -1   4 -11  628.11    6.16   0 
  -1   6   8 1117.80    7.25   0 
  -1   9   5   22.84    3.65   0 
   0   2  -7  675.00    7.00   0 
   0   2   5 2564.31   10.59   0 
   0   3  -8  353.36    5.80   0 
   0   7  -9  284.91    8.85   0 
   0   8   2  970.82    7.69   0 
   0   9  -5  180.20    7.25   0 
   0   9  -1  387.99    6.07   0 
  -5  -2  -6 1482.99    7.65   0 
  -4  -3  -2  665.28    5.96   0 
  -4   3  14 1135.96    7.26   0 
  -3  -3   0 1281.39    9.28   0 
  -3   0  11  154.55    4.68   0 
  -3   2 -12  349.20    5.38   0 
  -2  -2  -3 3208.70   12.32   0 
  -2   0   9 4081.92   13.94   0 
  -2   1 -10  520.78    5.62   0 
  -2   1  10   70.14    3.20   0 
  -2   5 -13  522.60    5.67   0 
  -1   7   7  295.99    4.29   0 
  -1   8   6  119.37    4.17   0 
   0   3   5 1649.48    8.79   0 
   0   4  -9  556.48    6.89   0 
   0   5   5   82.55    3.33   0 
   0   9  -2  232.75    5.68   0 
  -6  -3  -3  113.17    3.73   0 
  -6  -2  -6  163.90    4.13   0 
  -6  -1  13  473.08    6.89   0 
  -4  -2  -6  868.83    6.09   0 
  -4   0 -10  281.64    4.38   0 
  -4   4  14  417.22    5.11   0 
  -3  -1  -8  134.07    4.08   0 
  -3   1 -11  487.69    5.04   0 
  -3   2  12  703.56    6.18   0 
  -3   6  12  258.79    4.19   0 
  -2   6  10   72.35    3.16   0 
  -1  -1  -4 6151.56   17.18   0 
  -1  -1   4  370.21    7.41   0 
  -1   0  -7   25.63    3.79   0 
  -1   0   6 1838.80   10.87   0 
  -1   2   8 1385.08    7.58   0 
  -1   5 -12  361.73    5.54   0 
  -1   5   8  515.64    4.99   0 
  -1   6 -12  194.90    4.94   0 
   0   4   5  982.18    6.46   0 
   0   6   4  989.00    6.91   0 
   0   9  -4  151.63    5.81   0 
   0   9  -3    6.06    4.07   0 
  -6   0  14  342.44    5.90   0 
  -5  -1  -9  169.19    3.82   0 
  -5  -1  12  267.48    5.37   0 
  -5   1  14  253.02    4.57   0 
  -4  -3  -3  189.20    4.09   0 
  -4  -1  11  215.68    4.94   0 
  -3   0 -10  401.83    4.62   0 
  -3   3  12  754.19    6.02   0 
  -3   4 -14   44.50    3.25   0 
  -3   5  12  200.66    4.11   0 
  -2  -1  -7  193.40    3.93   0 
  -2   0  -9  266.81    4.13   0 
  -2   2  10  479.44    4.99   0 
  -2   5  10  853.15    6.08   0 
  -2   7   9  657.90    5.57   0 
  -1   1  -9  514.21    5.60   0 
  -1   1   7  927.87    6.91   0 
  -1   3 -11  364.85    4.77   0 
  -1   3   8   21.33    3.24   0 
  -1   4   8   46.63    3.27   0 
  -1   6   7  108.88    4.00   0 
  -1  10   2  165.93    4.26   0 
   0   0  -2 1251.46   13.27   0 
   0   1   3    6.81    3.37   0 
   0   2   4 2829.64   12.04   0 
  -6  -3  -4   11.46    2.95   0 
  -5  -3  -4  229.40    4.12   0 
  -5  -2  -7  450.31    4.94   0 
  -5   0  13  311.75    4.91   0 
  -4  -2  -7  307.63    4.34   0 
  -4  -1  -9  861.47    5.98   0 
  -4   1 -12  253.60    4.20   0 
  -3  -3  -2  832.06    6.89   0 
  -3  -2  -6  357.99    4.58   0 
  -3   4  12  213.68    4.07   0 
  -2   3  10  960.85    6.36   0 
  -2   4  10 1027.55    6.59   0 
  -2   8   8  318.96    4.63   0 
  -1  -1  -5 1740.32    9.30   0 
  -1   4 -12  175.68    4.61   0 
  -1   7   6  147.47    3.70   0 
  -1   8 -12   66.27    5.15   0 
  -1   8   5  138.77    3.89   0 
   0   5 -10  835.09    8.77   0 
   0   5   4  228.97    4.07   0 
   0   7   2  347.41    5.39   0 
   0   8   0  192.38    4.73   0 
  -6  -4   2  298.49    6.11   0 
  -6  -4   3  298.79    6.22   0 
  -4  -3  -4    7.12    2.96   0 
  -4  -2   9    6.74    4.06   0 
  -4   3  13  717.57    6.42   0 
  -4   4  13  188.59    4.46   0 
  -3  -3  -3 2003.05    9.78   0 
  -3  -1  -9  263.03    4.23   0 
  -3  -1   9 1078.98    8.66   0 
  -3   2 -13  568.49    5.36   0 
  -3   6  11   33.18    3.60   0 
  -2  -2  -5  509.69    5.07   0 
  -2  -1   7 2339.65   12.52   0 
  -2   3 -13  481.86    5.41   0 
  -2   6   9   13.45    3.68   0 
  -1   0  -8   21.14    3.44   0 
  -1   5   7  101.86    3.62   0 
  -1   9   3   26.88    3.88   0 
  -1  10   1  435.73    5.67   0 
   0   4   4  259.55    4.32   0 
  -6  -4   1  124.51    4.48   0 
  -6  -4   4  213.56    6.20   0 
  -6  -3  -5  370.15    4.81   0 
  -5  -4   1   16.94    3.68   0 
  -5  -4   2   96.94    4.92   0 
  -5  -2  -8  289.37    4.54   0 
  -5   3  14  140.57    3.75   0 
  -4  -1 -10  124.22    4.06   0 
  -3  -2  -7  601.62    5.42   0 
  -3   0 -11  387.52    4.51   0 
  -3   0  10   11.92    4.00   0 
  -2  -1  -8  319.48    4.52   0 
  -2   0 -10  168.69    3.72   0 
  -2   0   8 2180.46   10.76   0 
  -2   9   6    0.89    3.80   0 
  -1   2 -11   16.16    3.13   0 
  -1   2   7  914.51    6.52   0 
  -1   3   7 1111.44    7.24   0 
  -1   4   7  756.03    5.88   0 
  -1   6 -13  225.66    5.22   0 
   0   0  -4  821.61    8.46   0 
   0   4 -10 1043.47    8.55   0 
   0   8  -1   26.50    3.83   0 
  -7  -4   2  113.16    4.68   0 
  -7  -4   4  968.08   10.94   0 
  -6  -4   0  299.28    5.28   0 
  -5  -4   3  367.56    7.08   0 
  -3  -3  -4 1261.69    7.48   0 
  -3   2  11  556.86    5.29   0 
  -3   4  11  531.25    5.41   0 
  -2  -2  -6  270.80    4.74   0 
  -2   2   9  271.96    4.69   0 
  -2   5   9  325.66    4.35   0 
  -2   7   8  395.91    4.54   0 
  -2   8   7   45.00    3.14   0 
  -1  -1  -6 1197.60    7.30   0 
  -1   1 -10   14.58    3.03   0 
  -1   3 -12  158.87    4.09   0 
  -1   5 -13   45.36    4.20   0 
  -1   6   6  498.78    4.91   0 
  -1   7 -13  260.29    6.08   0 
  -1   7   5  242.37    4.77   0 
  -1   8   4   14.68    2.90   0 
  -1  10   0   71.16    4.17   0 
   0   6   2  273.05    5.12   0 
  -7  -2  11   17.37    5.21   0 
  -6  -4  -1  100.82    3.68   0 
  -6  -4   5    4.88    6.00   0 
  -6  -1  12   54.04    4.74   0 
  -6   0  13   11.69    3.81   0 
  -5  -4   4  144.10    6.34   0 
  -5  -3  -6  389.55    4.80   0 
  -4   0 -12   32.76    3.11   0 
  -4   0  11  183.78    4.77   0 
  -4   6  12  198.41    3.94   0 
  -3  -2  -8  446.95    5.15   0 
  -3  -2   7  121.66    5.52   0 
  -3  -1 -10  338.69    4.43   0 
  -3   1 -13  109.26    3.60   0 
  -3   3  11  714.86    5.60   0 
  -3   8   9   50.68    3.26   0 
  -2   2 -13  530.81    5.39   0 
  -2   3   9  226.71    3.89   0 
  -2   4   9 1961.43    8.42   0 
  -1   0   5 1821.97   11.32   0 
  -1   9   2    5.23    2.87   0 
   0   0  -5 1124.57    8.75   0 
   0   2  -9  346.73    5.12   0 
   0   7 -10  269.39    8.00   0 
   0   8  -2   45.60    4.08   0 
  -6   2  14    2.84    2.96   0 
  -5  -2  -9   99.42    3.51   0 
  -5  -1  11  775.56    8.23   0 
  -5   0  12  422.83    6.01   0 
  -5   2  13  374.74    5.41   0 
  -4  -4   1  406.60    6.12   0 
  -4  -3  -6  305.46    4.38   0 
  -4  -2  -9  126.97    3.53   0 
  -4  -1  10   60.69    4.17   0 
  -4   2  12 1274.02    7.54   0 
  -4   5  12  596.09    5.43   0 
  -3   0 -12  250.58    4.23   0 
  -3   6  10  288.39    4.34   0 
  -2   0 -11  779.95    5.76   0 
  -2   6   8  155.53    3.66   0 
  -2   9   5  147.05    4.32   0 
  -1  -1  -7 3844.29   11.99   0 
  -1   2 -12  294.85    5.08   0 
  -1   5   6  506.31    5.13   0 
  -1  10  -1   19.46    3.84   0 
   0   1  -8  651.29    6.46   0 
   0   3   3 2393.45   11.23   0 
   0   5 -11  999.86    8.73   0 
   0   7   0 1014.04    8.12   0 
  -6  -4  -3   13.30    3.68   0 
  -5  -4  -3   23.00    3.83   0 
  -5  -3  -7  383.87    4.69   0 
  -5   3  13   29.32    3.88   0 
  -5   4  13   23.34    4.10   0 
  -4  -4  -1  186.89    4.30   0 
  -4  -4   2   66.76    4.53   0 
  -4   3  12   65.09    3.33   0 
  -4   4  12    6.90    2.92   0 
  -3   7   9  606.59    5.95   0 
  -2  -3  -1 1428.97    9.25   0 
  -2  -3   0  176.91    4.95   0 
  -2  -2  -7  749.73    5.78   0 
  -2   1   8 1370.78    8.27   0 
  -2   7   7    4.43    2.90   0 
  -2  10   3  395.86    5.67   0 
  -1  -2  -1 2084.81   12.63   0 
  -1   1 -11  325.39    4.36   0 
  -1   2   6 1389.72    8.03   0 
  -1   3 -13  620.80    6.26   0 
  -1   4   6  809.94    6.12   0 
  -1   6   5  711.35    5.72   0 
  -1   8   3  278.13    4.57   0 
  -1   9   1  302.52    5.53   0 
   0   6   1  713.11    7.04   0 
   0   8  -3  242.75    5.57   0 
  -4  -4  -2  379.74    5.14   0 
  -4  -3  -7  157.59    3.76   0 
  -4   6  11  205.88    4.11   0 
  -3  -2  -9    9.26    2.89   0 
  -3  -1 -11  225.88    4.13   0 
  -3   2  10  945.94    6.77   0 
  -3   5  10  208.05    3.86   0 
  -3   8   8  484.57    5.09   0 
  -3   9   7  356.27    4.76   0 
  -2   1 -13  148.59    3.82   0 
  -2   2 -14  670.30    5.88   0 
  -2   5   8   14.22    2.95   0 
  -1  -1  -8  379.41    4.71   0 
  -1   0 -10   45.74    3.24   0 
  -1   3   6  775.20    6.12   0 
  -1   5 -14  323.76    5.65   0 
  -1   6 -14  391.55    6.31   0 
  -1  10  -2  228.82    5.19   0 
   0   2 -10   75.17    4.43   0 
   0   8  -4  508.26    8.01   0 
  -7  -1  12   67.59    4.55   0 
  -5  -4  -4  177.64    3.87   0 
  -4  -4  -3  270.42    4.66   0 
  -4  -2 -10  128.86    3.63   0 
  -4   1  11 1015.78    7.13   0 
  -3  -1   8  289.26    5.59   0 
  -3   0 -13  150.88    3.68   0 
  -3   0   9  759.85    6.81   0 
  -3   3  10  256.60    4.34   0 
  -3   4  10  310.19    4.29   0 
  -2  -2  -8  184.62    3.93   0 
  -2  -1   6  264.46    5.81   0 
  -2   0 -12  149.44    3.75   0 
  -2   0   7 1237.94    9.06   0 
  -2   2   8  750.82    5.93   0 
  -2   3 -15 1001.19    7.22   0 
  -2   4   8  501.85    5.04   0 
  -2   6   7  404.96    5.14   0 
  -1   4 -14  147.39    4.10   0 
  -1  10  -3   23.80    4.53   0 
   0   0  -7 5856.15   16.28   0 
   0   1  -9  290.27    4.39   0 
   0   3 -11   16.56    3.07   0 
   0   4   2 1250.35    8.81   0 
   0   7  -1  348.52    5.80   0 
   0   8  -7  337.06   10.67   0 
   0   8  -5  277.76    7.40   0 
  -7  -4   6   77.47    9.05   0 
  -6  -2  10  124.16    6.11   0 
  -5  -4  -5  741.67    6.82   0 
  -5  -4   5  158.68    8.57   0 
  -4  -4  -4  374.27    4.92   0 
  -4  -3  -8  166.18    3.96   0 
  -4   5  11  409.50    4.67   0 
  -4   7  10  194.60    3.98   0 
  -3  -3  -7  230.46    3.98   0 
  -3  -2 -10  164.87    3.77   0 
  -3   6   9 1099.36    6.67   0 
  -2  -3  -5  131.38    3.67   0 
  -2   3   8  907.26    6.26   0 
  -2   7   6  191.56    4.25   0 
  -2   8   5   18.12    2.95   0 
  -2  10   2  607.50    6.11   0 
  -1  -1  -9   14.38    3.74   0 
  -1   1 -12  695.32    5.67   0 
  -1   2 -13  201.05    3.93   0 
  -1   3 -14  431.42    5.63   0 
  -1   5   5 1179.18    7.10   0 
  -1   8   2  534.16    5.70   0 
  -1   9   0  645.00    6.88   0 
   0   2   2 4183.10   17.12   0 
   0   3   2  743.74    7.50   0 
   0   4 -12   68.34    4.10   0 
   0   5 -12  115.89    5.01   0 
   0   8  -6  473.24    9.77   0 
  -6   0  12   94.47    4.52   0 
  -5   2  12    1.08    3.72   0 
  -5   5  12   73.11    3.40   0 
  -4  -4  -5  492.48    5.72   0 
  -4  -2   8  142.29    6.00   0 
  -4   0  10 2484.85   11.41   0 
  -4   3  11    7.98    2.99   0 
  -4   4  11  329.40    4.42   0 
  -4   8   9  173.48    4.09   0 
  -3  -4  -2  776.46    7.10   0 
  -3   7   8  110.31    3.53   0 
  -3   8   7   75.45    4.00   0 
  -3   9   6  245.62    4.51   0 
  -2  -2  -9  186.24    3.78   0 
  -2  -1 -11  566.65    5.18   0 
  -2   1 -14  405.71    5.07   0 
  -2   2 -15   86.97    4.31   0 
  -1  -2  -6   85.90    3.27   0 
  -1   0 -11  721.19    5.83   0 
  -1   4   5 1007.15    7.09   0 
  -1   6   4 1957.02    8.77   0 
  -1   7   3 1740.93    8.65   0 
  -1  10  -4    3.32    4.50   0 
   0   1 -10   71.62    4.02   0 
   0   2 -11   26.46    3.28   0 
   0   5   1  686.63    6.91   0 
   0   7 -11   88.90    6.60   0 
  -6  -1  11   72.36    4.23   0 
  -6   3  13    7.95    2.82   0 
  -6   4  13   16.73    3.35   0 
  -5   0  11  810.03    7.38   0 
  -5   4  12  956.11    6.53   0 
  -4  -3  -9   41.07    3.44   0 
  -4   6  10  235.46    4.19   0 
  -3  -4  -3  383.07    5.31   0 
  -3  -4   0 1137.98    8.65   0 
  -3   5   9    9.04    3.02   0 
  -2  -3  -6  845.93    6.30   0 
  -2   0 -13   32.90    3.07   0 
  -2   5   7  423.86    4.82   0 
  -2   9   3  308.37    5.07   0 
  -1   2   5 1188.99    7.70   0 
  -1   3   5 1999.29    9.59   0 
  -1   9  -1  407.74    5.95   0 
  -1  10  -5  448.84    7.79   0 
   0   3 -12  124.60    3.87   0 
   0   6 -12  744.18    9.05   0 
   0   7  -2   74.05    4.19   0 
  -5  -2   9   45.54    4.90   0 
  -5   6  11  198.27    4.52   0 
  -4  -4  -6  126.68    3.73   0 
  -4  -1   9  202.00    5.21   0 
  -3  -4   1 1409.51   10.36   0 
  -3  -2 -11   79.75    3.53   0 
  -3   2   9 1147.62    7.42   0 
  -3   4   9    4.21    3.05   0 
  -2  -2 -10  878.44    6.04   0 
  -2  -1 -12  298.89    4.26   0 
  -2   4   7  644.01    6.04   0 
  -2   6   6  548.00    5.79   0 
  -2  10   1   30.64    3.20   0 
  -1  -1 -10  812.10    5.96   0 
  -1   0 -12  774.54    5.80   0 
  -1   0   4 1710.58   12.20   0 
  -1   1 -13   53.65    3.21   0 
  -1   2 -14  317.67    4.74   0 
  -1  10  -6  704.95   10.19   0 
   0  -1  -4 4206.72   15.67   0 
   0  -1  -3    6.53    3.33   0 
   0   0  -9  634.21    5.61   0 
  -6  -3   8  216.61    9.67   0 
  -6   1  12  166.39    4.88   0 
  -5  -1  10 1928.87   11.55   0 
  -4  -4  -7   83.41    4.04   0 
  -4   1  10 2257.01   10.56   0 
  -4   5  10  290.47    4.43   0 
  -4   7   9  157.46    3.86   0 
  -4   8   8  223.88    4.04   0 
  -3  -4  -5  868.53    6.46   0 
  -3   6   8   56.97    3.22   0 
  -3   9   5  359.91    4.69   0 
  -2   0 -14   27.36    3.80   0 
  -2   2   7 1456.03    8.54   0 
  -2   3   7 2112.87    9.29   0 
  -2   8   4   49.62    3.19   0 
  -1  -2  -8 2653.56    9.98   0 
  -1   5   4 4261.76   12.79   0 
  -1   7   2 1152.03    8.06   0 
  -1  10  -7  429.12    9.76   0 
   0  -1  -6  180.15    4.04   0 
   0   1   1 5863.34   27.99   0 
   0   2 -12  239.76    4.37   0 
   0   4 -13   37.00    4.06   0 
   0   4   1 2541.65   12.43   0 
   0   5 -13   72.42    4.14   0 
   0   6  -1 1515.21   10.13   0 
  -7  -2  10  246.17    7.12   0 
  -7   0  12  317.24    6.00   0 
  -6  -5   1   79.15    4.90   0 
  -6   5  12   12.48    3.12   0 
  -5  -5  -1   70.43    4.34   0 
  -5   1  11  112.78    4.49   0 
  -5   5  11  101.87    3.36   0 
  -5   7  10  255.51    4.28   0 
  -4  -4   4  114.12    7.09   0 
  -4   4  10  653.20    5.53   0 
  -3  -4  -6  745.10    6.08   0 
  -3  -2 -12   50.26    3.22   0 
  -3   0   8  894.49    7.81   0 
  -3   7   7    3.70    2.91   0 
  -2  -2 -11  139.41    3.82   0 
  -2   9   2  343.57    5.43   0 
  -2  10   0   49.14    3.96   0 
  -1  -1 -11  911.11    6.13   0 
  -1   1 -14   49.29    3.98   0 
  -1   6   3 1733.73    8.66   0 
   0   3 -13  556.45    5.82   0 
   0   5   0 1174.20    9.13   0 
   0   7  -3  550.22    7.30   0 
  -7  -1  11  231.92    5.65   0 
  -6   2  12  147.60    3.95   0 
  -6   3  12  527.88    5.81   0 
  -6   4  12  161.14    3.97   0 
  -5  -5  -2   53.37    3.34   0 
  -5  -5   0  192.72    5.02   0 
  -5   4  11  372.63    4.72   0 
  -4   2  10   28.53    3.15   0 
  -4   3  10   17.80    2.85   0 
  -4   6   9  392.17    4.85   0 
  -3  -4   2 2480.93   15.34   0 
  -3  -3 -10  218.14    4.05   0 
  -3   5   8   90.39    3.38   0 
  -3  10   3  226.85    4.38   0 
  -2  -1 -13  169.63    3.94   0 
  -1  -2  -9 1879.28    8.43   0 
  -1   0 -13  529.35    5.24   0 
  -1   2 -15   52.63    3.49   0 
  -1   4   4  570.09    5.66   0 
   0  -1  -8 2781.01   10.52   0 
   0   1 -12  802.17    6.71   0 
   0   3   1  374.13    6.17   0 
   0   6 -13  218.82    6.25   0 
   0   7 -12  274.26    8.50   0 
  -6  -5   2   61.87    4.95   0 
  -6   0  11  233.49    5.21   0 
  -5  -5  -4  418.88    5.52   0 
  -5  -5   1  372.52    6.12   0 
  -5   3  11  523.50    5.27   0 
  -4  -5  -2  190.10    5.08   0 
  -4   7   8  349.64    4.89   0 
  -3  -2   6  869.23   11.80   0 
  -3   9   4  118.31    4.43   0 
  -2  -2 -12  118.28    4.24   0 
  -2   0   6  445.95    6.31   0 
  -2   6   5  564.02    5.81   0 
  -1  -3  -6  937.43    7.00   0 
  -1  -2 -10 1119.19    6.78   0 
  -1  -1 -12  108.99    3.46   0 
  -1   1   4 2377.73   12.76   0 
   0   0 -11  774.41    6.05   0 
   0   2 -13  331.43    4.88   0 
   0   4 -14   60.93    4.46   0 
   1   3  -7 3798.83   20.40   0 
  -7   1  12   56.96    3.78   0 
  -5   6  10  287.56    4.42   0 
  -4  -5   0  885.94    8.58   0 
  -4   0   9 2735.68   12.48   0 
  -4   5   9  256.00    4.20   0 
  -4   9   6   39.05    3.23   0 
  -3  -4  -8  135.76    3.74   0 
  -3  -3 -11   62.66    3.20   0 
  -3  -1   7  510.64    7.07   0 
  -3   1   8 1366.42    8.13   0 
  -3   4   8  247.08    4.11   0 
  -3   6   7   11.11    3.22   0 
  -3   7   6   87.48    3.93   0 
  -3   8   5  913.83    6.88   0 
  -2  -4  -5  115.65    3.51   0 
  -2  -3 -10  661.81    5.61   0 
  -2  -2   4 2061.32   26.07   0 
  -2  -1 -14   60.05    3.51   0 
  -2   9   1  147.34    4.46   0 
  -1  -3  -7   31.65    3.70   0 
  -1   0 -14   87.35    3.58   0 
  -1   1 -15   10.62    3.19   0 
  -1   2   4 1615.55    9.71   0 
  -1   3   4    7.78    2.90   0 
  -1   5   3  683.68    6.02   0 
  -1   7   1  384.79    5.15   0 
  -1   9  -3   33.06    4.00   0 
   0   3 -14    5.95    3.17   0 
   0   5 -14  541.03    6.99   0 
   0   7  -4 1074.88   10.76   0 
   1   2  -7  504.76    7.01   0 
   1   2  -6  952.71   10.41   0 
   1   3  -8 1393.18   11.25   0 
   1   3  -6 1664.71   16.77   0 
  -7   2  12  203.99    5.03   0 
  -6  -5   3   15.45    5.12   0 
  -5   0  10 1921.33   10.39   0 
  -5   5  10   94.30    4.05   0 
  -5   7   9  132.16    4.01   0 
  -4  -5  -5  296.09    4.59   0 
  -4  -3   6 1315.43   20.10   0 
  -3   2   8 1909.99    9.03   0 
  -3   3   8 1829.08    8.60   0 
  -3  10   2 1090.91    7.52   0 
  -1   6   2  388.03    5.06   0 
  -1   8  -1 1055.51    8.23   0 
   0  -1 -10  540.97    5.34   0 
   0   0 -12  512.75    5.80   0 
   0   1 -13  237.98    4.34   0 
   0   2 -14  408.85    5.65   0 
   0   6  -2 1119.57    9.39   0 
   1   2  -8 3899.19   16.29   0 
   1   3  -9   16.89    3.67   0 
   1   4  -8   82.91    5.92   0 
  -7   3  12  530.85    5.80   0 
  -6  -2   9  141.44    6.13   0 
  -6  -1  10  767.65    8.08   0 
  -6   1  11  243.53    5.49   0 
  -6   5  11  296.47    4.57   0 
  -5  -3   7  163.90    9.00   0 
  -5   8   8  192.85    3.99   0 
  -4  -5  -6  163.22    4.03   0 
  -4  -5   1 1081.35    9.73   0 
  -4   4   9    4.35    2.98   0 
  -4   6   8   31.46    3.41   0 
  -3   5   7 1198.73    6.97   0 
  -2  -2 -13  198.25    3.99   0 
  -2   1   6 1109.89    8.11   0 
  -2   2   6 2976.90   12.01   0 
  -2   3   6 1933.68    9.10   0 
   0  -2  -5 2465.14   10.66   0 
   0   4 -15  271.76    5.57   0 
   0   4   0 1819.77   11.38   0 
   0   5  -1  861.79    8.34   0 
   0   6 -14  226.79    5.79   0 
   1   2  -9 1673.00   10.33   0 
   1   3 -10   18.70    4.40   0 
   1   4  -9  283.18    7.07   0 
   1   4  -7  732.86   13.66   0 
  -7  -3   8  110.69    8.14   0 
  -6   2  11  300.01    5.16   0 
  -6   3  11  156.08    4.60   0 
  -6   4  11  255.96    4.41   0 
  -5   1  10    5.38    3.95   0 
  -5   4  10  126.53    3.73   0 
  -4  -5  -7   85.72    3.63   0 
  -4  -1   8  864.48    8.89   0 
  -4   1   9 1614.87    8.98   0 
  -4   2   9  990.08    7.18   0 
  -4   3   9  365.02    4.74   0 
  -4   7   7  110.07    4.25   0 
  -4   9   5   42.24    3.32   0 
  -3  -5  -5  219.80    4.78   0 
  -3  -5  -4   36.80    3.34   0 
  -3   9   3  796.60    6.43   0 
  -2   5   5 1417.45    7.71   0 
  -2   8   2  113.58    3.92   0 
  -1  -3  -9 1902.03    8.39   0 
  -1  -1 -14  540.98    5.87   0 
  -1   4   3  746.86    6.88   0 
  -1   9  -4   42.26    3.98   0 
   0  -2  -4 2595.35   11.73   0 
   0  -1 -11 1322.97    7.52   0 
   0   3 -15    9.38    3.22   0 
   0   5 -15  369.68    6.44   0 
   0   7 -13  211.12    7.45   0 
   1   1  -7 1572.21   10.21   0 
   1   1  -6 1303.56   10.41   0 
   1   2 -10  481.37    6.53   0 
   1   2  -5 1334.82   14.27   0 
  -6   6  10  288.35    4.26   0 
  -5  -1   9  566.82    7.16   0 
  -5   2  10  148.20    4.13   0 
  -5   3  10  718.67    5.95   0 
  -5   6   9  182.60    3.88   0 
  -4   8   6  395.99    4.73   0 
  -3  -5  -6  872.93    6.74   0 
  -3   4   7 1750.60    8.84   0 
  -3   7   5   35.45    3.77   0 
  -3   8   4 1641.35    8.20   0 
  -3  10   1  246.07    4.81   0 
  -2  -3 -12  112.40    3.70   0 
  -2   6   4 1794.43    8.66   0 
  -2   7   3  144.00    3.76   0 
  -2   9   0   99.23    3.90   0 
   0  -2  -3 4836.11   17.18   0 
   0   2 -15  237.88    4.50   0 
   0   7  -5  759.48   10.35   0 
   1   1  -9 2638.78   11.82   0 
   1   3 -11  526.96    6.72   0 
   1   4 -10  847.37    9.44   0 
  -6   7   9  174.16    4.59   0 
  -5   7   8  268.08    4.38   0 
  -5   9   6   79.28    3.50   0 
  -4  -2   7  103.27    5.81   0 
  -4   5   8   25.47    3.23   0 
  -4  10   3   12.20    3.22   0 
  -3  -5  -7  558.34    5.63   0 
  -3  -4   3 1221.10   14.07   0 
  -3   0   7 1281.96    9.41   0 
  -2   4   5 3821.05   12.53   0 
  -1  -2 -13   57.37    3.48   0 
  -1   5   2  356.32    4.97   0 
  -1   6   1 1177.06    8.40   0 
   1   1  -5  780.54    9.27   0 
   1   4 -11  200.12    5.78   0 
  -7  -1  10  196.16    5.55   0 
  -7   1  11  125.23    4.15   0 
  -7   4  11  183.17    4.22   0 
  -6   0  10  275.72    5.39   0 
  -6   5  10  129.09    3.69   0 
  -5   5   9  304.71    4.34   0 
  -5   8   7  229.80    4.28   0 
  -3  -5  -8  514.56    5.38   0 
  -3  -5   0 1239.34    9.47   0 
  -3   3   7 1349.90    7.74   0 
  -3   9   2 1025.85    7.56   0 
  -2   8   1  322.73    5.48   0 
  -2  10  -3  245.65    5.33   0 
  -1  -4  -5  729.77    5.97   0 
  -1   0   3  515.63    8.55   0 
  -1   3   3  272.10    4.71   0 
  -1   9  -5    6.71    3.83   0 
   0   0 -14  826.02    6.57   0 
   0   1 -15  808.62    6.41   0 
   0   2 -16    6.74    3.84   0 
   0   3 -16   21.49    3.37   0 
   0   3   0   48.35    4.38   0 
   1   0  -7 2919.34   12.68   0 
   1   2 -12  254.77    5.20   0 
   1   3 -12   35.62    3.88   0 
   1   3  -5  260.56   12.24   0 
  -7  -2   9   87.68    5.49   0 
  -7   2  11  198.77    4.53   0 
  -7   3  11  375.80    5.16   0 
  -6  -5   4   13.46    6.10   0 
  -5  -6  -2   63.84    4.29   0 
  -4   4   8  479.30    5.18   0 
  -4   6   7  201.03    4.10   0 
  -4   8   5  553.75    5.83   0 
  -4   9   4   91.76    3.61   0 
  -3   2   7 1681.02    8.89   0 
  -3  10   0   40.17    3.61   0 
  -2  -5  -6   45.92    3.79   0 
  -2  -4 -11   98.11    3.63   0 
  -2  -4   1  666.34    8.53   0 
  -2   5   4 4528.41   13.84   0 
  -2   9  -1   61.91    4.28   0 
   1   0  -6 1749.19   10.76   0 
   1   4 -12  108.33    5.15   0 
  -6   1  10  199.51    4.92   0 
  -6   4  10  221.05    4.22   0 
  -6   6   9  378.99    4.75   0 
  -5   0   9  384.30    5.97   0 
  -5   4   9  171.17    3.90   0 
  -5   6   8  408.41    4.73   0 
  -4  -6  -3   73.04    4.34   0 
  -4   0   8  356.16    5.41   0 
  -4   3   8 1753.62    9.01   0 
  -4   7   6  595.22    5.40   0 
  -4  10   2  276.62    4.64   0 
  -3   6   5  220.17    4.72   0 
  -3   8   3 1039.66    7.15   0 
  -2  -5  -7  328.92    4.53   0 
  -2   0   5  830.33    8.54   0 
  -2   3   5 3353.13   12.11   0 
  -1  -4  -9   12.12    3.11   0 
  -1   2   3 1230.56    9.12   0 
  -1   7  -1   13.16    3.98   0 
   0  -1 -14  202.44    4.39   0 
   0   0 -15   83.80    3.63   0 
   0   1 -16  158.31    4.09   0 
   0   5  -2  908.26    9.54   0 
   1   1 -12  307.64    4.64   0 
   1   2 -13  153.21    4.63   0 
   1   3 -13  214.03    5.15   0 
  -7   5  10  450.90    5.94   0 
  -6   2  10  402.64    5.10   0 
  -6   3  10  353.05    4.85   0 
  -6   7   8  412.98    5.45   0 
  -5  -6   0  153.95    5.56   0 
  -5   1   9 1230.57    8.53   0 
  -5   3   9  101.14    3.76   0 
  -5   7   7  127.33    3.66   0 
  -5   8   6  133.52    3.88   0 
  -5   9   5   12.54    3.15   0 
  -4  -6  -2  139.86    4.66   0 
  -4   1   8  480.43    6.22   0 
  -4   2   8 2576.54   10.84   0 
  -3  -5   1 1518.01   11.47   0 
  -3   7   4 1088.82    6.83   0 
  -2  -5  -9  147.76    4.48   0 
  -2   2   5  249.29    4.75   0 
  -2  10  -4  536.95    6.83   0 
  -1  -4 -10  308.61    4.43   0 
  -1   1   3 1587.76   11.67   0 
  -1   4   2 2784.95   12.55   0 
   0  -3 -10  465.01    5.48   0 
   0  -3  -9  754.96    5.84   0 
   0  -3  -4 3195.15   12.52   0 
   0   4  -1  109.83    4.49   0 
   0   7  -6 1318.33   14.16   0 
   1  -1  -7  923.89    7.15   0 
   1   0 -12 1160.50    7.79   0 
   1   0  -5 1785.99   11.52   0 
   1   4 -13  435.99    6.54   0 
   1   5 -10  653.90   11.39   0 
  -7   0  10   95.10    4.47   0 
  -6  -1   9  127.38    4.83   0 
  -5   2   9 1243.72    7.81   0 
  -4  -6  -1  213.05    5.26   0 
  -4   5   7  337.56    4.56   0 
  -3   4   6 1632.22    8.42   0 
  -3   9   1   16.65    3.19   0 
  -3  10  -1  242.07    5.51   0 
  -2   1   5  220.92    4.76   0 
  -2   8   0  548.90    6.43   0 
  -1   6   0  951.70    8.21   0 
   0  -1 -15   -0.52    3.13   0 
   1  -1 -10  588.98    5.47   0 
   1  -1  -6 2943.24   12.72   0 
   1   2 -14  132.08    4.75   0 
   1   5 -11  470.79    9.09   0 
   1   5  -9 1091.31   16.53   0 
  -6   5   9  383.01    4.83   0 
  -5   5   8  138.45    3.81   0 
  -4   6   6  778.74    5.92   0 
  -4   8   4  306.47    5.21   0 
  -4  10   1  163.26    4.69   0 
  -3  -6  -4  313.72    4.96   0 
  -3  -6  -3   35.50    4.13   0 
  -3  -1   6  221.69    5.55   0 
  -2  -5 -10   45.39    3.36   0 
  -2   4   4 2109.34    9.77   0 
  -2  10  -5  373.19    6.79   0 
  -1   5   1 1093.84    7.97   0 
   0  -3  -3 2362.11   12.12   0 
   0   6  -4  838.90   10.10   0 
   1  -1 -11  270.25    4.35   0 
   1   0 -13  409.64    5.17   0 
   1   1  -4  364.43    7.80   0 
   1   4 -14   35.25    4.40   0 
  -7   1  10  121.45    4.19   0 
  -7   2  10  334.11    5.56   0 
  -7   3  10  315.96    4.67   0 
  -7   6   9  319.55    4.70   0 
  -6   4   9  313.23    5.14   0 
  -6   6   8  471.74    5.63   0 
  -5   6   7  715.08    6.39   0 
  -5   9   4   15.00    3.81   0 
  -4  -5   3  188.05    7.69   0 
  -4   4   7 1421.16    7.75   0 
  -4   7   5 1358.09    7.53   0 
  -3  -6  -2  202.64    4.93   0 
  -3   3   6 1873.51    9.20   0 
  -3   5   5 1244.49    7.48   0 
  -3   8   2   26.80    3.29   0 
  -2  -3   3 1408.80   23.85   0 
  -2   7   1  391.85    5.62   0 
  -1  -4 -12  122.06    3.80   0 
  -1   9  -7  376.84    7.87   0 
   0  -3 -12  293.99    4.44   0 
   1  -1 -12  832.03    6.40   0 
   1  -1  -5 1197.81    8.79   0 
   1   0 -14 1112.46    7.68   0 
   1   3 -15  528.42    6.85   0 
  -6  -2   8  237.90    6.84   0 
  -6   0   9  412.82    6.05   0 
  -5  -5   4   27.37    7.26   0 
  -5   4   8  330.23    4.78   0 
  -5   7   6  391.64    4.70   0 
  -5   8   5  345.53    4.60   0 
  -4  -1   7  395.82    6.51   0 
  -3   6   4   30.56    3.25   0 
  -3   7   3 1183.69    7.21   0 
  -3  10  -2  245.83    5.39   0 
  -1   7  -2   47.79    4.19   0 
  -1   8  -4  847.89    8.42   0 
   0  -4  -8   44.03    3.13   0 
   0  -4  -7  646.85    5.67   0 
   0  -2 -15   20.02    3.21   0 
   1  -2 -10   16.32    3.08   0 
   1  -2  -9  394.03    4.88   0 
   1  -2  -8 1246.65    7.66   0 
   1   0  -4 1718.49   12.64   0 
   1   2  -4  783.14   16.33   0 
   1   4 -15  116.03    5.31   0 
   1   5 -13    5.39    4.32   0 
  -8   1  10   13.61    3.50   0 
  -8   3  10  365.83    5.30   0 
  -7  -1   9  126.69    4.95   0 
  -6   3   9  344.43    4.71   0 
  -6   7   7  291.95    4.40   0 
  -6   8   6   78.19    3.69   0 
  -4   3   7 1359.95    8.14   0 
  -3   0   6   60.02    4.37   0 
  -3   2   6 2198.15   10.76   0 
  -3   9   0  285.18    4.70   0 
  -2  -6  -8   20.30    4.18   0 
  -2  -6  -7    7.44    3.26   0 
  -2  -6  -6  142.23    3.95   0 
  -2  -5   0  964.01    9.27   0 
  -2   3   4   12.48    3.53   0 
  -2   8  -1  328.19    5.75   0 
  -2   9  -3   45.88    4.13   0 
  -2  10  -6   32.66    4.84   0 
  -1  -5 -10    6.12    2.85   0 
  -1   3   2 1917.14   11.05   0 
   0  -4 -10  211.62    4.34   0 
   0  -4  -5  854.95    6.45   0 
   1  -2 -11  728.72    5.97   0 
   1  -2  -6 1244.57    8.03   0 
   1   0 -15    9.89    3.03   0 
   1   2 -16  730.51    7.74   0 
  -6  -3   7  375.49    9.45   0 
  -6   1   9  619.36    6.35   0 
  -6   2   9  238.51    4.65   0 
  -6   5   8  573.93    5.65   0 
  -5   3   8  937.10    6.82   0 
  -5   5   7 1312.52    7.78   0 
  -4  -6   1  590.44    8.36   0 
  -4   5   6  419.19    4.95   0 
  -4   8   3 1848.65    9.13   0 
  -3  -5   2  610.18    8.96   0 
  -3   1   6 1022.50    8.09   0 
  -1  -5 -11   61.44    3.35   0 
  -1  -5  -3  172.03    4.26   0 
  -1  -3   1 1720.43   15.17   0 
  -1   9  -8   18.09    5.02   0 
   0  -4 -11   52.52    3.37   0 
   0  -3 -14   23.39    3.14   0 
   0   7  -7  832.95   12.65   0 
   1  -2 -12  116.20    3.70   0 
   1   1 -16   78.35    4.08   0 
   1   5 -14    6.27    4.69   0 
  -7  -4   6   81.11    9.90   0 
  -7   4   9  476.67    5.43   0 
  -5  -6   2  127.49    6.63   0 
  -5   0   8  107.39    4.08   0 
  -5   1   8  978.83    7.94   0 
  -5   2   8  919.58    7.20   0 
  -3   4   5 1991.13    9.42   0 
  -3   8   1   65.49    3.78   0 
  -2  -6  -3   52.00    3.63   0 
  -2  -4   2 1363.92   13.46   0 
   0  -4 -12  176.50    4.05   0 
   0   5  -3 2472.96   15.87   0 
   1  -3 -10 1222.00    7.35   0 
   1  -3  -8   15.03    3.18   0 
   1  -2  -5 1096.30    7.78   0 
   1  -1  -4 2475.16   13.25   0 
   1   4 -16   61.80    4.56   0 
  -7  -2   8  384.73    7.86   0 
  -7   0   9  211.18    5.46   0 
  -7   3   9  139.76    4.13   0 
  -7   7   7  153.39    3.97   0 
  -6   9   4  690.64    6.18   0 
  -5   7   5  679.68    6.19   0 
  -5   8   4   76.82    3.50   0 
  -5  10   1    0.37    4.08   0 
  -3  -6   0  525.73    7.26   0 
  -3   5   4  778.86    6.75   0 
  -3   9  -1  414.68    6.06   0 
  -2  -6  -2  597.20    7.00   0 
  -2   7   0  378.32    5.69   0 
  -2  10  -7  433.38    7.33   0 
  -1  -4   0   73.16    4.35   0 
  -1   5   0  680.88    7.17   0 
  -1   8  -5  150.91    5.84   0 
   0   3  -1   78.15    4.79   0 
   1  -3 -11  543.51    5.33   0 
   1  -2 -14   14.63    3.25   0 
  -8   0   9   95.06    4.77   0 
  -8   4   9  444.25    5.61   0 
  -7   1   9  118.56    4.94   0 
  -7   2   9  171.49    4.16   0 
  -7   5   8  361.78    5.50   0 
  -6   4   8  299.14    4.51   0 
  -6   7   6  144.15    3.78   0 
  -6   8   5   14.33    3.37   0 
  -5  -2   7  257.30    6.99   0 
  -5   4   7  216.71    4.41   0 
  -4  -7  -2   21.88    4.33   0 
  -4   4   6  264.44    4.56   0 
  -4  10  -1   71.96    3.75   0 
  -3  -7  -4  435.54    6.22   0 
  -3   7   2    7.22    3.07   0 
  -2   9  -4  216.94    5.54   0 
  -1  -6  -7    5.34    3.24   0 
  -1   7  -3 1025.70    8.98   0 
  -1   9  -9  114.65    6.55   0 
   0  -5  -9 2499.01   10.12   0 
   0  -5  -8    1.83    3.00   0 
   0  -5  -7    9.34    3.13   0 
   0  -4  -3   20.73    3.25   0 
   0   4  -2 1490.75   13.08   0 
   1  -3 -12  371.19    4.96   0 
  -7  -3   7  409.73    9.84   0 
  -6  -1   8  285.29    6.04   0 
  -6   3   8  480.07    6.04   0 
  -4   8   2  314.18    5.16   0 
  -3   3   5 3146.22   12.11   0 
  -2   6   1  424.36    5.22   0 
  -2   8  -2  135.54    4.24   0 
  -1  -6 -10   68.60    3.57   0 
   0  -5 -11   25.31    3.43   0 
   0   6  -5 1740.51   14.59   0 
   2   0 -11  351.90    5.63   0 
   2   1 -12  876.93    7.83   0 
  -8   1   9  162.35    4.78   0 
  -8   2   9   25.79    3.62   0 
  -7   6   7   25.95    3.49   0 
  -6   9   3  368.87    5.62   0 
  -5   5   6 1748.13    8.83   0 
  -5   9   2  273.20    4.56   0 
  -4   7   3  546.59    6.13   0 
  -3   8   0  321.60    5.71   0 
  -3  10  -4   83.96    4.03   0 
  -2  -7  -7   85.63    4.53   0 
  -2  -7  -6  252.98    5.33   0 
  -2  -6  -1  132.77    4.84   0 
  -2  -5   1 1699.11   12.65   0 
  -2   0   4 1359.23   11.85   0 
  -2   1   4 1332.89   10.01   0 
  -1   9 -10  214.21    8.59   0 
   0  -5 -12    3.15    3.15   0 
   1  -4 -11  224.91    4.41   0 
   1  -3  -5 1924.98    9.74   0 
   2  -1 -11  396.46    5.50   0 
   2   0 -12  733.38    6.49   0 
   2   0 -10  477.31    5.73   0 
   2   0  -9 3925.60   14.67   0 
   2   2 -12    7.89    4.08   0 
  -7   7   6  120.97    4.03   0 
  -6   1   8   78.79    4.85   0 
  -6   2   8  413.73    5.49   0 
  -6   6   6  416.60    4.95   0 
  -6   8   4   66.54    4.38   0 
  -4  -6   2  641.41    9.96   0 
  -4   3   6 1734.74    9.04   0 
  -4   6   4 1858.00    8.93   0 
  -4   9   0  292.49    4.81   0 
  -4  10  -2  167.55    5.27   0 
  -3  -7  -2   65.84    4.49   0 
  -2  -7  -5   73.19    3.78   0 
  -1  -5  -1  345.56    5.55   0 
   0   7  -8  304.25    9.65   0 
   1  -4 -12  263.99    4.50   0 
   1  -4  -7  738.88    6.25   0 
   1   0  -3  520.75    9.13   0 
   2  -1 -13  467.04    5.72   0 
   2  -1 -12   15.78    3.27   0 
   2  -1  -9  336.45    5.22   0 
   2   1 -14  621.85    6.58   0 
   2   2 -14  191.06    5.21   0 
  -7  -1   8  435.74    7.22   0 
  -5  -1   7  239.05    6.27   0 
  -5   6   5  581.39    5.66   0 
  -3   2   5  740.25    6.89   0 
  -3   7   1  253.67    5.09   0 
  -2   3   3   30.40    3.27   0 
  -2   7  -1 1012.15    8.31   0 
  -2   9  -5 1112.21    9.34   0 
  -1   1   2 1913.51   15.06   0 
  -1   6  -2  520.47    6.79   0 
  -1   8  -6   71.26    4.66   0 
   0  -4  -2 1255.86    9.14   0 
   1  -4 -13   12.45    3.30   0 
   1  -1  -3 1578.36   12.13   0 
   2  -2 -12  424.39    5.58   0 
   2  -2 -11 1455.49    8.48   0 
   2  -2 -10  453.18    5.82   0 
   2  -1  -8 1359.60    8.89   0 
   2   0 -15  164.48    4.33   0 
   2   1 -15  300.26    5.23   0 
  -8  -1   8   15.40    4.28   0 
  -5   2   7  581.68    5.85   0 
  -4   2   6 1241.14    8.20   0 
  -3   5   3   66.33    3.65   0 
  -3   6   2 1841.44    9.52   0 
  -3  10  -5   75.65    4.79   0 
  -2  -7  -3  144.94    5.22   0 
   0  -6  -7   27.18    3.23   0 
   1  -4 -14  127.15    4.10   0 
   1  -3  -4   17.90    3.19   0 
   1   6 -14  233.67    9.45   0 
   1   6 -13   47.09    7.79   0 
   1   6 -12  361.18   14.98   0 
   2  -2 -13  274.09    4.51   0 
   2  -2  -9  245.54    4.37   0 
   2   0 -16  233.89    5.48   0 
   2   1 -16   10.64    4.05   0 
   2   1  -8  871.86    8.55   0 
   2   2  -9  778.68    8.97   0 
   2   3 -13  142.02    5.55   0 
   2   3 -12  181.68    5.83   0 
  -8   3   8   18.71    4.31   0 
  -7   0   8   16.27    4.24   0 
  -7   1   8   66.41    4.69   0 
  -7   2   8  573.73    6.11   0 
  -6   9   2   29.41    3.60   0 
  -5  -3   6  281.77    9.25   0 
  -5   1   7  466.02    6.08   0 
  -5  10  -1   10.12    3.27   0 
  -4   4   5  121.83    4.00   0 
  -4   8   1   38.71    3.59   0 
  -3  -7  -1  148.27    5.10   0 
  -3   1   5   54.38    3.84   0 
  -2  -6   0   17.65    4.09   0 
  -2   6   0  743.66    7.19   0 
  -1  -6  -2  203.48    5.17   0 
  -1   5  -1 1649.06   10.94   0 
   0  -6  -6  388.77    5.02   0 
   0  -5  -3  773.73    6.70   0 
   1  -5 -11  364.99    4.94   0 
   1  -5 -10  487.61    5.42   0 
   1  -5  -9 2499.06   10.14   0 
   2  -3 -11  385.71    5.46   0 
   2  -2 -14   45.54    3.62   0 
   2  -1 -16  168.02    4.94   0 
   2   3 -14   56.20    4.52   0 
   2   3 -11 1519.59   12.22   0 
  -8   0   8  103.72    5.03   0 
  -8   5   7   26.93    3.56   0 
  -7   7   5  259.05    4.60   0 
  -7   8   4  403.21    5.31   0 
  -6   8   3  122.73    3.95   0 
  -5   8   2  148.43    3.99   0 
  -4  -1   6   11.65    4.07   0 
  -4   1   6  730.69    6.88   0 
  -4   5   4   92.47    3.84   0 
  -4   7   2  158.97    3.95   0 
  -4   9  -1  283.67    4.81   0 
  -3  -1   5 2222.36   15.05   0 
  -3   0   5  271.71    5.91   0 
  -3   9  -3  252.94    5.28   0 
  -2   9  -6 1315.56   10.45   0 
  -1  -7  -5  187.16    4.47   0 
   1  -5 -13   35.24    3.55   0 
   1  -5  -7   95.25    3.81   0 
   2  -3 -12  918.50    6.72   0 
   2  -3 -10  917.85    6.84   0 
   2  -2 -15  142.55    4.26   0 
   2  -1  -7  594.34    6.45   0 
   2   0  -7 1209.08    9.23   0 
   2   3 -15  679.02    8.09   0 
  -8   1   8  613.94    6.88   0 
  -8   6   6  436.33    5.54   0 
  -7   4   7  399.78    5.15   0 
  -6   7   4    9.04    3.33   0 
  -5   5   5 1406.28    7.98   0 
  -5   6   4 1924.08    9.49   0 
  -5   7   3 1064.55    7.08   0 
  -4   0   6  342.71    5.67   0 
  -4   6   3    8.49    3.33   0 
  -3   3   4  805.25    6.95   0 
  -3  10  -6   75.34    4.87   0 
  -2  -7  -2   12.17    3.52   0 
  -1  -7  -4  125.09    4.86   0 
  -1  -5   0  933.14    9.09   0 
  -1  -4   1 4155.81   20.59   0 
  -1   8  -7  182.85    6.39   0 
   0   5  -4 1170.21   12.36   0 
   2  -3 -14   78.09    3.65   0 
   2  -2  -7 1523.39    8.95   0 
   2   3 -16  733.62    8.57   0 
   2   3 -10  682.47    9.47   0 
  -8   4   7  151.45    5.05   0 
  -6   2   7   21.78    3.66   0 
  -5   9   0   95.69    3.93   0 
  -5  10  -2    5.91    3.63   0 
  -4   3   5  171.23    4.67   0 
  -4  10  -4  149.67    5.13   0 
  -3  -5   3  367.47   10.19   0 
  -3   7   0  358.41    5.24   0 
  -2   7  -2  146.27    5.05   0 
  -1   0   2 5918.72   32.35   0 
   0  -7  -9   63.08    3.77   0 
   0  -7  -8 1564.23    9.26   0 
   0  -6  -4  983.70    7.58   0 
   0  -5  -2 2403.01   12.00   0 
   1  -4  -4  586.81    6.23   0 
   2  -3 -15   69.82    3.77   0 
   2   1  -7 2392.67   14.14   0 
  -7   3   7  513.87    5.77   0 
  -7   5   6  272.42    4.61   0 
  -6   1   7  181.96    5.19   0 
  -4  -7   1  181.43    6.70   0 
  -4   8   0  781.98    6.66   0 
  -3   4   3 3100.48   12.53   0 
  -3   9  -4  277.90    6.05   0 
  -2   8  -4  286.99    5.84   0 
  -1  -7  -3   81.30    4.79   0 
  -1  -6  -1  303.77    6.10   0 
   0  -7  -7  552.32    6.00   0 
   1  -6 -11  216.91    4.49   0 
   1  -6 -10  199.70    4.37   0 
   1  -6  -9  633.98    5.93   0 
   1  -6  -8  987.73    7.13   0 
   2  -2  -6 2920.02   12.90   0 
  -8   3   7  390.25    5.99   0 
  -8   5   6   42.42    3.75   0 
  -7   6   5  102.10    3.85   0 
  -7   7   4  115.52    4.04   0 
  -6   0   7  398.59    6.49   0 
  -5   2   6  835.91    7.42   0 
  -5   4   5 1445.39    8.52   0 
  -5   8   1  344.84    5.19   0 
  -3   5   2   75.66    3.65   0 
  -3   6   1 1276.66    8.13   0 
  -3  10  -7   71.85    4.89   0 
  -2  -8  -4   66.64    4.77   0 
  -2  -7  -1    8.04    4.15   0 
  -2   9  -7  313.32    6.61   0 
  -1   6  -3 2295.03   13.28   0 
  -1   7  -5  783.21    9.15   0 
   0  -7  -6   88.83    3.82   0 
   0  -6  -3  808.28    7.51   0 
   0   7  -9  280.24    9.72   0 
   2   0  -6  418.14    6.58   0 
   2   4 -14  321.35    7.54   0 
   2   4 -13   33.79    5.27   0 
  -8  -1   7    4.86    4.63   0 
  -8   6   5  503.79    5.80   0 
  -7  -1   7   73.72    5.00   0 
  -7   2   7  287.10    4.99   0 
  -6   5   5  440.99    5.30   0 
  -6   6   4  508.84    6.29   0 
  -6   7   3   15.96    3.45   0 
  -5   9  -1  107.89    4.86   0 
  -4   4   4  117.17    4.04   0 
  -4   7   1  706.80    6.22   0 
  -4  10  -5    0.36    4.42   0 
  -3   2   4  159.92    4.64   0 
  -2  -6   1  191.92    6.23   0 
  -2  -5   2   79.29    5.73   0 
   0  -7  -5  329.48    5.76   0 
   1  -4  -3  726.16    7.50   0 
   2  -5 -13  295.92    4.94   0 
   2  -5 -12  112.76    4.16   0 
   2  -5 -11  702.89    6.27   0 
   2   4 -12  394.36    8.93   0 
  -8   2   7  328.78    5.72   0 
  -7   1   7  173.75    4.82   0 
  -7   4   6  822.02    6.68   0 
  -6  -3   6   38.96    6.20   0 
  -6   3   6  474.37    5.63   0 
  -6   9   0  151.76    4.63   0 
  -5   6   3  318.48    4.90   0 
  -5   7   2   17.47    3.49   0 
  -4   5   3   88.50    3.96   0 
  -4   6   2   54.88    3.81   0 
  -1  -8  -5  148.46    5.51   0 
  -1  -7  -2  124.11    5.11   0 
  -1   8  -8  277.69    7.27   0 
   0  -3   0   62.20    5.03   0 
   0   4  -3 1525.52   14.54   0 
   1  -5  -4 4223.07   14.08   0 
   2  -5  -9  334.16    4.88   0 
   3  -2 -13  295.65    5.47   0 
   3  -1 -15  227.02    5.58   0 
   3  -1 -14   48.65    3.74   0 
   3  -1 -12  287.04    5.12   0 
   3   0 -14  555.97    6.89   0 
   3   0 -13  209.64    5.41   0 
  -8   4   6   43.69    3.68   0 
  -7   5   5    3.18    3.46   0 
  -7   8   2   20.04    3.59   0 
  -4  -6   3  684.01   13.62   0 
  -4   9  -3  375.83    6.11   0 
  -3   7  -1  398.37    5.51   0 
  -3   9  -5  285.62    6.10   0 
  -2   1   3 3258.30   16.83   0 
  -2   4   1 2900.19   13.66   0 
  -2   5   0  489.06    6.14   0 
  -2   8  -5   72.68    4.78   0 
  -2   9  -8   52.42    5.34   0 
   0  -7  -4  380.16    6.28   0 
   0  -5  -1  712.36    7.84   0 
   1  -6  -5  675.92    6.36   0 
   1  -2  -2  630.50    8.08   0 
   2  -5  -8   10.56    3.39   0 
   2  -4  -6 1032.69    7.43   0 
   2  -2  -5  246.89    5.07   0 
   3  -2 -15  129.00    4.20   0 
   3  -2 -14   87.88    4.18   0 
   3  -2 -12  691.95    6.42   0 
   3  -2 -11  516.62    5.84   0 
   3  -1 -16  174.88    4.77   0 
   3  -1 -11  430.79    5.74   0 
   3   0 -16  183.49    5.48   0 
   3   0 -15  187.64    4.76   0 
  -7   6   4   35.97    3.51   0 
  -7   7   3    4.67    3.60   0 
  -6   2   6   15.54    4.28   0 
  -5  -4   5  173.79   10.45   0 
  -5  -1   6 1118.93   10.23   0 
  -5   3   5  555.04    5.91   0 
  -5   8   0  523.13    5.83   0 
  -3  -8  -1    3.64    4.44   0 
  -3  -7   1  150.14    6.21   0 
  -2  -8  -2   15.04    4.63   0 
  -2  -7   0  625.99    8.30   0 
  -2   7  -3  458.89    6.25   0 
  -1  -8  -4  112.26    4.27   0 
   0  -6  -2  258.12    5.26   0 
   1  -3  -2 1864.51   12.11   0 
   1  -1  -2 1960.69   15.58   0 
   2  -6 -12  284.66    4.89   0 
   2  -6 -11  186.23    4.28   0 
   2  -6 -10   74.88    3.69   0 
   2  -3  -5 3302.47   13.13   0 
   3  -3 -15  223.44    4.84   0 
   3  -3 -14  544.09    5.96   0 
   3  -3 -13  149.56    4.32   0 
   3  -3 -12  749.15    6.49   0 
   3  -3 -11  632.93    6.20   0 
   3  -1 -10  402.52    5.59   0 
   3   1 -16  113.36    5.36   0 
   3   1 -15  182.98    5.41   0 
   3   1 -14  361.74    5.96   0 
  -6   7   2  352.05    5.07   0 
  -6   9  -1   18.28    3.74   0 
  -5   9  -2  249.86    4.90   0 
  -4   1   5  678.65    7.16   0 
  -4   3   4  307.04    5.55   0 
  -4   7   0  459.21    6.11   0 
  -3   3   3 1741.46   10.13   0 
  -1  -6   0 1933.02   12.10   0 
  -1  -5   1   25.73    4.65   0 
  -1   3   0 2608.66   15.44   0 
   0  -8  -6   51.98    3.68   0 
   1  -5  -3  670.63    6.67   0 
   2  -6  -9   15.49    3.41   0 
   3  -4 -14  601.03    7.03   0 
   3  -4 -13  608.52    6.13   0 
   3  -4 -12  210.18    4.45   0 
   3   0 -10   14.76    4.65   0 
  -8  -2   6   11.29    5.52   0 
  -7   8   1  230.17    4.90   0 
  -5   4   4  134.33    4.61   0 
  -1  -8  -3  347.88    6.67   0 
  -1  -7  -1  976.41    9.10   0 
   0  -7  -3  868.37    7.74   0 
   0  -4   0 1807.60   13.51   0 
   2  -6  -8  158.28    4.16   0 
   2  -5  -6 1140.72    7.72   0 
   3  -4 -11  552.84    5.75   0 
   3  -4 -10  301.20    4.66   0 
   3  -3  -9  684.86    6.45   0 
   3  -1  -9 1051.85    8.20   0 
   3   1 -11   82.95    4.85   0 
   3   2 -15  316.53    6.38   0 
  -6   8   0  225.07    5.31   0 
  -5   5   3  115.42    4.21   0 
  -5   6   2  337.34    5.11   0 
  -4  -7   2  594.82   11.61   0 
  -4   0   5  277.22    6.26   0 
  -4   4   3  551.68    6.16   0 
  -4   8  -2  898.10    7.55   0 
  -4   9  -4  151.26    4.46   0 
  -3   9  -6  216.62    5.21   0 
  -1   8  -9  600.42    9.89   0 
   0  -8  -5  177.58    4.58   0 
   1  -7  -5  257.08    5.51   0 
   3  -5 -13  503.90    5.95   0 
   3  -5 -12  178.58    4.64   0 
   3  -4  -9    4.42    4.08   0 
   3   2 -16   98.62    5.34   0 
   3   2 -14  145.40    5.28   0 
   3   2 -13  184.27    6.16   0 
  -7  -2   6 1633.49   13.12   0 
  -7   6   3   64.44    3.75   0 
  -6   0   6  203.74    5.75   0 
  -6   9  -2   59.12    4.09   0 
  -5   2   5  398.00    5.57   0 
  -5   9  -3  243.39    4.83   0 
  -4   5   2 3449.66   12.80   0 
  -3   7  -2  111.70    4.72   0 
  -2  -8  -1  346.41    6.72   0 
  -2   0   3   28.19    4.68   0 
  -2   8  -6 1072.78    9.64   0 
   1  -8  -8   68.48    4.21   0 
   2  -7  -9  618.55    6.59   0 
   2  -5  -5 1440.62    9.18   0 
   3  -5 -11  208.57    4.64   0 
   3  -5 -10  202.03    4.45   0 
   3   0  -9  749.89    7.69   0 
   3   1 -10  337.12    6.65   0 
  -8   0   6  346.81    6.74   0 
  -8   7   2   49.43    4.04   0 
  -7  -1   6    6.06    4.78   0 
  -7   0   6   36.27    4.79   0 
  -6  -4   5    4.03    6.93   0 
  -2   2   2  450.89    6.97   0 
  -1  -8  -2  432.38    7.15   0 
   0  -8  -4  217.63    4.93   0 
   0  -7  -2  356.83    6.41   0 
   1  -6  -3 1593.91    9.48   0 
   2  -3  -4   10.75    3.22   0 
   2  -2  -4  119.94    4.33   0 
   3  -5  -9    7.96    3.55   0 
   3   2 -12   38.37    4.52   0 
  -8   3   5  334.15    5.68   0 
  -7   3   5 1115.97    7.91   0 
  -6   4   4  127.75    4.43   0 
  -5   7   0 1119.59    7.68   0 
  -4   7  -1  580.65    6.22   0 
  -4   9  -5  201.60    5.01   0 
  -3   9  -7  535.72    7.52   0 
  -2   9 -10   98.32    5.56   0 
   1  -8  -6  115.56    4.50   0 
   1  -7  -4  326.73    5.39   0 
   1  -5  -2  370.21    5.77   0 
   2  -4  -4 2212.17   11.13   0 
   3  -6 -11   27.93    3.91   0 
  -7   7   1  275.43    5.16   0 
  -6   8  -1  124.23    4.68   0 
  -6   9  -3  378.93    5.91   0 
  -5   3   4  111.87    4.24   0 
  -3   2   3  864.64    8.31   0 
  -3   6  -1 1246.87    8.63   0 
  -2  -7   1 2479.96   15.99   0 
   3  -5  -8   89.21    3.89   0 
   3  -4  -7 1769.41    9.67   0 
   3   2 -11  149.76    6.03   0 
  -8   4   4  124.51    4.33   0 
  -8   7   1  345.42    5.54   0 
  -5   6   1 1152.51    7.91   0 
  -4   6   0  661.10    6.57   0 
  -2   3   1 5362.46   19.33   0 
  -2   4   0  149.13    4.93   0 
  -2   8  -7  171.70    5.82   0 
  -1  -9  -3  296.55    6.78   0 
   0  -9  -5  108.18    5.42   0 
   1  -8  -5  132.49    4.62   0 
   2  -8  -9  339.51    5.62   0 
   2  -5  -4 4681.56   15.34   0 
   3  -1  -7  986.94    8.81   0 
   3   3 -16  290.98    7.38   0 
   4  -3 -14 1160.80    8.42   0 
   4  -1 -15  219.80    5.18   0 
  -8   5   3  289.60    4.95   0 
  -7   8  -1   44.52    3.82   0 
  -4   3   3 3553.44   13.90   0 
  -3   8  -5  516.17    6.52   0 
   1  -7  -3 1665.79   10.03   0 
   2  -8  -8  307.95    5.39   0 
   3  -7 -11  274.86    5.40   0 
   3  -7 -10  529.48    6.36   0 
   4  -4 -12    2.75    3.54   0 
   4  -1 -13  136.09    4.55   0 
  -6  -5   5  306.68    6.71   0 
  -6  -4   4  221.45    6.15   0 
  -5  -6   5  298.10    6.18   0 
  -5  -4   3  373.07    6.55   0 
  -5   6   3  314.49    6.31   0 
  -5   8   6  130.94    5.18   0 
  -4  -6   4  693.88    7.34   0 
  -4   7   4 2648.64   12.26   0 
  -4   8   6  360.86    6.10   0 
  -2   4   1 3079.96   14.53   0 
  -2   6   3  774.25    7.48   0 
  -1  -2   0  257.53    6.75   0 
  -1   6   4 1916.42    9.92   0 
   0  -4   1  109.61    4.13   0 
   0   4   2 1255.46    9.27   0 
   1  -8   5  152.94    4.40   0 
   1   5   5  444.90    5.68   0 
   1   6   8  167.09    4.61   0 
   3  -4   3  971.09   10.04   0 
   4  -8   9  382.89    6.84   0 
   4  -6   6  257.05    6.05   0 
   4   2   9  131.22    5.41   0 
  -7  -2   4   30.35    5.41   0 
  -5  -5   4   29.76    4.06   0 
  -5   5   2 1616.98   11.69   0 
  -5   7   4 1221.02    9.42   0 
  -4  -2   1   18.86    4.55   0 
  -4   4   1 1996.42   13.49   0 
  -3  -8   6   93.41    4.15   0 
  -3  -3   1    9.51    4.25   0 
  -3   0   0  270.14    9.53   0 
  -3   8   6   23.77    3.73   0 
  -2  -9   7  388.64    5.67   0 
  -2  -5   2   74.12    3.99   0 
  -2   8   7   46.65    3.93   0 
  -1  -8   5  661.80    6.59   0 
   0   3   1  384.98    6.70   0 
   0   5   3  760.53    7.45   0 
   0   6   5  317.78    5.28   0 
   0   7   8 1548.38    9.43   0 
   1  -9   7  389.35    6.22   0 
   1  -7   4  668.67    6.62   0 
   1  -5   2 4945.26   16.60   0 
   1   4   3 1930.29   10.99   0 
   2  -8   6 1037.68    8.41   0 
   2  -4   2 6046.24   21.17   0 
   2   4   5  115.44    4.36   0 
   2   5   8  597.32    6.45   0 
   3  -9   9  169.66    4.82   0 
   3  -8   7  208.16    4.92   0 
   3   3   6   71.00    5.08   0 
   3   4   9  486.12    7.27   0 
  -5   3   1  631.21   11.24   0 
  -1  -7   4  304.23    5.06   0 
  -1   2   0 2561.46   18.53   0 
   0  -7   4 1074.13    8.27   0 
   0   7   7  551.33    6.79   0 
   1  -3   1 3491.19   17.20   0 
   1   6   7    3.56    3.72   0 
   2  -9   8   47.91    4.07   0 
   2   5   7  322.57    6.13   0 
   3  -7   6  593.37    7.43   0 
   4   0   5  367.94    9.13   0 
   4   1   6  202.51    6.75   0 
   4   2   8  321.33    6.89   0 
   5  -6  10  482.55    9.09   0 
   5  -4   8  116.07    7.83   0 
   5   0  10  164.04    8.18   0 
  -7   6   4   42.39    4.55   0 
  -7   7   5  268.33    6.39   0 
  -6  -2   3  884.19    9.96   0 
  -6   7   4    2.41    4.76   0 
  -5  -2   2  982.51   10.42   0 
  -5   8   5  332.33    6.13   0 
  -4  -7   6  201.58    5.32   0 
  -4   8   5  542.93    6.15   0 
  -2  -9   8  173.76    5.62   0 
  -2  -8   6  407.31    5.52   0 
  -2  -1   0  922.46   11.82   0 
  -2   7   4    6.65    3.61   0 
  -2   8   6    8.13    3.62   0 
  -1  -6   3  476.36    5.86   0 
  -1  -5   2    7.91    3.46   0 
  -1   4   1  560.99    6.76   0 
  -1   6   3 1849.61    9.89   0 
  -1   7   5  239.72    4.83   0 
  -1   8   8   71.51    3.93   0 
   0  -6   3 1247.59    8.41   0 
   0  -5   2 1031.88    7.95   0 
   0   6   4  999.97    8.22   0 
   1   5   4  318.74    5.40   0 
   1   6   6  262.14    5.42   0 
   2  -7   5  115.81    4.20   0 
   2  -5   3 1697.78   11.06   0 
   3  -6   5  829.39    8.20   0 
   3  -5   4   86.93    5.13   0 
   3   4   8  130.42    4.93   0 
   4  -8  10  187.08    5.34   0 
   4  -7   8  661.78    8.34   0 
   4  -4   5  133.25    6.28   0 
   5  -5   9  192.62    7.71   0 
   5  -1   8  435.37   12.65   0 
  -4   6   2   54.65    4.72   0 
  -4   7   3  529.10    6.86   0 
  -3  -8   7   74.81    4.20   0 
  -3  -6   4  177.19    4.48   0 
  -3  -4   2 2514.69   12.10   0 
  -3   8   5  932.83    7.42   0 
  -1  -8   6  667.12    6.60   0 
   0   7   6   92.06    4.25   0 
   1  -8   6   64.61    3.81   0 
   1   2   1 2124.32   14.20   0 
   2  -9   9  174.27    5.18   0 
   2  -6   4  229.15    4.83   0 
   2   4   4   44.53    4.49   0 
   2   5   6   44.64    4.80   0 
   3  -8   8  117.77    4.51   0 
   3   3   5  278.09    5.95   0 
   4  -6   7  412.50    7.08   0 
   4   2   7  302.51    7.14   0 
  -8  -2   6    9.19    5.32   0 
  -6  -5   6   69.20    4.27   0 
  -6   8   5   13.14    3.78   0 
  -5  -6   6   99.64    4.40   0 
  -4  -6   5  161.36    4.42   0 
  -4  -3   2  349.22    6.68   0 
  -3   7   3 1194.38    8.37   0 
  -3   9   7  341.05    5.65   0 
  -2  -7   5   41.32    3.86   0 
  -2  -3   1 6878.49   21.73   0 
  -2   5   1  185.35    5.33   0 
  -2   6   2   89.86    3.94   0 
  -2   8   5   23.05    4.43   0 
  -1   7   4  333.17    5.15   0 
   0  -9   8   37.19    3.75   0 
   0  -8   6  467.99    5.78   0 
   2  -8   7  161.90    4.33   0 
   2   2   2 1703.71   12.74   0 
   3   1   3  484.30    8.65   0 
   4  -5   6  199.99    5.80   0 
   5  -3   8  163.05   10.91   0 
   5   0   9  521.33   11.10   0 
  -7   1   3  110.33    9.43   0 
  -7   5   3 1225.68   12.63   0 
  -6  -4   5    4.87    3.81   0 
  -5  -5   5   63.36    4.81   0 
  -5  -3   3  146.81    5.66   0 
  -5   6   2  351.18    6.42   0 
  -4  -5   4  725.60    7.31   0 
  -4  -4   3  244.49    5.91   0 
  -4   9   6   43.30    4.02   0 
  -3   3   0  195.40    6.19   0 
  -3   8   4 1591.83    9.79   0 
  -1  -7   5  586.40    6.83   0 
   0  -3   1   75.34    4.33   0 
   0   5   2 2234.58   10.92   0 
   0   7   5  336.83    5.87   0 
   1  -9   9  105.61    5.05   0 
   1  -7   5  828.13    7.19   0 
   1  -4   2 5251.93   18.79   0 
   1   4   2  721.89    7.66   0 
   1   6   5   84.72    3.90   0 
   2  -3   2 1045.99   11.06   0 
   3  -8   9  538.69    7.23   0 
   3  -7   7   10.34    4.72   0 
   4  -7   9  432.12    7.10   0 
  -5  -4   4  139.13    4.82   0 
  -5   8   4   75.44    4.01   0 
  -4  -7   7   45.98    3.89   0 
  -4  -1   1 3376.61   19.22   0 
  -3  -8   8   14.47    3.61   0 
  -3   9   6  232.80    5.23   0 
  -2  -5   3 2324.38   11.44   0 
  -2  -4   2 1343.82    9.37   0 
  -1   6   2  387.50    5.52   0 
   0  -9   9   44.49    3.82   0 
   0   4   1 2689.72   12.74   0 
   1  -8   7  173.71    4.53   0 
   1  -5   3 2107.16   11.61   0 
   2   5   5  387.02    5.76   0 
   3   4   6  749.14    7.60   0 
   5  -5  10  443.81    9.76   0 
  -8   5   4  241.19    8.71   0 
  -7  -1   4  213.22    6.49   0 
  -7   7   4  109.70    5.35   0 
  -7   8   5  145.72    5.73   0 
  -5   9   5    7.16    4.87   0 
  -4   9   5   38.69    4.12   0 
  -1  -8   7  482.03    5.88   0 
  -1  -6   4  882.51    7.20   0 
  -1   7   3 1705.04    9.77   0 
   0  -8   7  311.91    5.23   0 
   0  -6   4  838.63    7.18   0 
   1  -2   1 2469.01   18.45   0 
   1   6   4  168.58    4.86   0 
   2  -8   8    3.60    3.58   0 
   2   6   7    7.82    3.67   0 
   3  -6   6   14.82    4.53   0 
   3   5   8  509.64    7.57   0 
   4  -7  10  482.63    7.46   0 
   4  -6   8  371.89    6.86   0 
   4  -3   5  138.40    7.80   0 
   4   1   5  181.34    6.51   0 
   4   2   6  863.74    9.49   0 
  -8   0   5   48.60    6.90   0 
  -6  -5   7   42.93    5.08   0 
  -6   7   3   13.51    4.03   0 
  -6   8   4   64.14    4.25   0 
  -5  -6   7  137.54    4.54   0 
  -4  -6   6    1.46    3.67   0 
  -4   8   3 1836.07   10.59   0 
  -3   4   0 1089.17   10.10   0 
  -3   6   1 1374.01    9.41   0 
  -3   7   2    9.69    3.47   0 
  -3   9   5  383.25    5.50   0 
  -2  -7   6   71.23    3.95   0 
  -2   4   0  154.74    5.03   0 
  -1  -5   3 1496.88    9.17   0 
   0  -9  10   79.68    4.83   0 
   0  -5   3 2569.79   11.76   0 
   0  -4   2 1557.48   10.00   0 
   0   7   4  383.24    5.37   0 
   1  -9  10  212.32    4.84   0 
   2  -4   3  482.72    7.40   0 
   2   4   3 1316.53    9.26   0 
   3  -8  10  121.58    4.64   0 
   3  -7   8  399.96    6.52   0 
   3  -5   5  222.76    5.98   0 
   3   3   4 1259.62    9.80   0 
   5  -4   9   41.09    7.11   0 
   5   0   8  232.76    8.85   0 
  -7  -3   6 1324.07   10.59   0 
  -7   6   3   62.34    5.52   0 
  -6   1   2  440.31   12.91   0 
  -5   5   1 1488.58   11.79   0 
  -5   8   3  135.24    5.26   0 
  -4  -7   8  251.45    5.28   0 
  -4   6   1  873.80    8.62   0 
  -3  -8   9   -0.18    3.62   0 
  -3  -5   4  740.05    6.88   0 
  -3   8   3 1069.34    7.89   0 
  -1  -8   8   58.92    4.75   0 
  -1  -7   6 1876.84    9.56   0 
  -1   8   4   15.93    4.56   0 
   0   8   6   48.56    4.11   0 
   2  -5   4  817.43    7.56   0 
   2   3   2 1541.24   10.42   0 
   2   5   4  292.84    5.31   0 
   3   2   3 1457.25   11.62   0 
   3   5   7  558.40    7.52   0 
   4  -7  11  161.95    5.80   0 
   4  -5   7  441.47    7.90   0 
   4   3   7  151.21    5.66   0 
   5  -5  11  297.91    9.08   0 
   5   1   9  168.49    7.65   0 
  -6   6   2  464.89    7.53   0 
  -5  -5   6  402.99    5.93   0 
  -5   7   2   18.47    3.93   0 
  -5   9   4    8.74    4.47   0 
  -4  -5   5  374.51    5.75   0 
  -4   9   4   94.95    4.12   0 
  -3  -4   3 1261.13    8.82   0 
  -2  -6   5  600.91    6.36   0 
  -2   8   3  322.42    5.06   0 
  -1   9   6   61.04    4.18   0 
   0  -8   8  137.83    4.46   0 
   0  -7   6 1319.77    8.27   0 
   0   5   1  709.18    6.91   0 
   0   6   2  291.56    5.10   0 
   1   5   2 1204.53    8.29   0 
   2  -7   7  208.17    4.83   0 
   4  -4   6 1170.08   12.19   0 
  -8   6   4   48.72    5.66   0 
  -7   8   4  398.81    7.14   0 
  -6  -3   5    7.53    4.66   0 
  -6  -2   4   21.02    5.40   0 
  -5  -6   8  175.11    5.45   0 
  -2  -8   9  160.89    4.49   0 
  -2  -7   7   74.86    4.70   0 
  -2  -2   1 1277.17   11.37   0 
   1  -8   9  580.99    6.78   0 
   1  -6   5  656.33    6.50   0 
   1   4   1 1266.91    9.57   0 
   1   6   3  142.25    4.45   0 
   2  -8  10  186.08    5.12   0 
   2   6   5  685.59    6.80   0 
   3  -7   9  376.30    6.71   0 
   3  -6   7   82.18    4.91   0 
   3   5   6  870.46    8.16   0 
   4  -6   9   54.32    4.84   0 
   4   2   5    9.03    4.27   0 
  -6   8   3  110.42    5.18   0 
  -5  -4   5  165.32    4.79   0 
  -5  -2   3   77.15    5.11   0 
  -4  -7   9  529.86    6.48   0 
  -4  -6   7  263.19    4.96   0 
  -4  -3   3  523.47    7.22   0 
  -4   8   2  302.43    6.05   0 
  -3   5   0 2636.03   13.19   0 
  -3   8   2   19.02    4.51   0 
  -2  -5   4  603.92    6.37   0 
  -2   5   0  482.00    6.37   0 
  -1  -8   9  268.17    4.91   0 
  -1  -6   5  196.73    4.60   0 
  -1   8   3  286.18    5.09   0 
  -1   9   5   20.91    3.67   0 
   0  -6   5 1779.59    9.70   0 
   1  -7   7   39.94    3.96   0 
   1   7   4  130.36    5.11   0 
   2  -6   6   66.35    4.65   0 
   2   5   3  194.14    5.30   0 
   3  -2   3 1976.49   22.14   0 
   3   4   4  195.12    5.50   0 
   4   3   6  290.80    5.73   0 
   4   4   8    6.22    3.73   0 
  -7   7   3    9.79    4.44   0 
  -5  -3   4  701.30    7.48   0 
  -4   7   1  700.91    7.64   0 
  -3   7   1  252.98    4.84   0 
  -3   9   3  777.72    7.29   0 
  -2  -4   3  193.01    5.25   0 
  -2   0   0  251.37   10.00   0 
  -2   7   1  408.38    5.59   0 
  -2   8   2  113.94    4.18   0 
  -1   5   0  667.25    6.94   0 
   0  -7   7  774.49    6.65   0 
   0   4   0 1876.95   10.90   0 
   1  -5   4 1574.98    9.67   0 
   2  -8  11   13.28    4.34   0 
   2  -7   8 1599.37    9.64   0 
   2   1   1  677.13   10.39   0 
   3   3   3 1955.03   11.84   0 
   3   5   5  229.99    5.72   0 
   4  -6  10  308.94    6.40   0 
   4   0   4 3669.88   26.12   0 
   5  -4  10   10.53    5.96   0 
  -7  -3   7  417.48    7.19   0 
  -5  -6   9  140.43    5.45   0 
  -5  -5   7  664.02    6.86   0 
  -5   8   2  151.86    4.45   0 
  -5   9   3  116.82    4.35   0 
  -4   5   0  822.31    8.67   0 
  -3  -5   5  517.42    6.16   0 
  -2  -6   6  120.38    4.94   0 
  -1  -8  10  326.35    6.02   0 
  -1  -5   4  612.47    6.39   0 
  -1   9   4   20.51    3.70   0 
   0  -5   4 1157.78    8.24   0 
   0   6   1  709.56    6.62   0 
   1  -8  10  128.27    4.39   0 
   1  -4   3 1574.97   10.54   0 
   1   6   2  201.49    4.70   0 
   2   2   1 1952.25   13.50   0 
   2   7   6  246.70    5.38   0 
   3  -7  10  148.64    4.72   0 
   3  -5   6    5.47    4.55   0 
   3   6   7  350.25    6.22   0 
   4  -5   8  382.76    7.07   0 
   4   1   4  712.83   10.08   0 
   5   0   7  474.01   11.49   0 
  -7   0   4  494.11    9.48   0 
  -6  -4   7  217.83    5.34   0 
  -4  -7  10  214.85    5.04   0 
  -4  -5   6  213.79    4.81   0 
  -4   2   0   79.59   10.70   0 
  -3  -7   9    9.43    3.64   0 
  -3  -1   1  980.61   11.26   0 
  -2  -8  11  136.87    4.33   0 
  -2   9   3  316.08    5.15   0 
  -1  -4   3 2460.22   12.17   0 
  -1   8   2  510.13    5.89   0 
   0  -8  10  170.51    4.63   0 
   0   8   3  582.39    6.42   0 
   0   9   5  108.52    4.25   0 
   1  -8  11  372.82    6.32   0 
   1  -7   8  116.24    4.19   0 
   1  -6   6 1187.81    8.27   0 
   1   7   3   77.61    3.89   0 
   1   8   5  151.56    4.68   0 
   2  -8  12   65.24    4.21   0 
   2  -5   5  279.83    5.25   0 
   3  -6   8 1592.89   10.88   0 
   3   1   2  947.33   11.34   0 
   4  -6  11  125.59    5.38   0 
   4   3   5  555.91    7.75   0 
  -7  -2   6 1434.08   11.58   0 
  -7  -1   5  689.76    9.37   0 
  -6  -5   9  192.75    4.85   0 
  -6   9   3  331.00    6.76   0 
  -5   7   1  436.18    6.22   0 
  -4  -6   8  195.68    4.85   0 
  -4   0   1 1895.44   17.79   0 
  -3  -6   7  352.28    5.39   0 
  -3  -4   4  649.22    7.01   0 
  -3   8   1   72.84    4.68   0 
  -1  -7   8   10.04    3.54   0 
  -1  -6   6   98.94    4.14   0 
  -1  -3   2 5431.26   19.14   0 
  -1   6   0  964.96    7.66   0 
   0  -8  11   72.13    4.73   0 
   0  -7   8  305.09    4.94   0 
   0  -6   6 1282.25    8.25   0 
   0  -4   3 1475.77    9.71   0 
   1   3   0 1328.37   10.52   0 
   2  -6   7   23.82    4.49   0 
   2   5   2 1133.61    8.29   0 
   3  -7  11   10.07    3.76   0 
   3  -4   5   76.40    4.82   0 
   3   2   2 1334.64   11.10   0 
   3   4   3  396.97    6.62   0 
   3   5   4   39.70    4.67   0 
   3   6   6   17.18    4.32   0 
   4   2   4   22.88    4.98   0 
   4   4   6  125.42    4.83   0 
   5  -4  11  375.54    9.69   0 
   5  -3   9  202.01    9.67   0 
   5   1   7  540.02   10.59   0 
   5   2   8  287.26    7.67   0 
  -7   5   2 1036.84   13.24   0 
  -6  -3   6   39.82    4.84   0 
  -6   8   2   81.40    5.27   0 
  -5  -4   6  267.23    5.35   0 
  -4  -4   5  213.59    5.64   0 
  -4   6   0  648.99    7.33   0 
  -4   9   2  912.44    7.74   0 
  -4  10   3    2.51    4.62   0 
  -3   9   2 1042.31    8.07   0 
  -2  -7   9  150.68    5.06   0 
  -2  -5   5  960.40    7.45   0 
  -2   9   2  343.05    6.06   0 
  -1   9   3   26.11    3.76   0 
   0   9   4   75.63    4.00   0 
   1   8   4  120.02    4.20   0 
   2  -4   4 1416.14   10.37   0 
   2  -3   3 1123.08   11.05   0 
   3  -7  12   10.02    4.47   0 
   3  -3   4 2010.36   15.41   0 
   4  -6  12  159.40    6.03   0 
   4  -4   7 1770.14   14.08   0 
   5  -2   8  300.88   13.34   0 
  -8  -1   7    6.40    5.29   0 
  -8   1   5  418.31   10.30   0 
  -7   4   2  615.59   15.39   0 
  -6   4   1  637.04   11.73   0 
  -5  -5   8  146.87    4.65   0 
  -5   9   2  273.04    5.25   0 
  -3  -7  10    9.43    3.54   0 
  -3  -2   2  141.51    5.28   0 
  -3  10   3  235.20    5.02   0 
  -2  -6   7   15.58    3.50   0 
  -2   4  -1 3592.74   16.74   0 
  -1  -8  12   64.53    4.03   0 
   0  -8  12   60.15    4.17   0 
   0   7   1  732.93    6.53   0 
   0   8   2  974.81    7.47   0 
   1  -7   9  481.57    5.64   0 
   1  -5   5 1287.95    8.67   0 
   1   4   0   69.82    4.34   0 
   1   6   1  305.38    5.73   0 
   1   7   2  126.39    4.14   0 
   2  -7  10  113.35    4.27   0 
   2   4   1 1182.74    8.60   0 
   3  -6   9   96.56    4.90   0 
   3   0   2 1268.52   17.81   0 
   3   6   5  115.66    4.31   0 
   4  -5   9   20.94    4.27   0 
   4   4   5  520.66    7.28   0 
  -8   0   6  319.04    7.85   0 
  -7  -3   8  110.85    5.48   0 
  -6  -2   5  304.91    6.45   0 
  -6   0   3  126.52    6.42   0 
  -5  -3   5  300.78    6.06   0 
  -5   8   1  357.93    5.56   0 
  -4  -6   9  107.89    4.50   0 
  -4  -5   7  661.05    6.51   0 
  -4   7   0  439.24    6.55   0 
  -3  -6   8  357.69    5.21   0 
  -3  -5   6  180.77    4.50   0 
  -2   5  -1  289.79    5.89   0 
  -1  -7   9  204.92    4.61   0 
  -1  -5   5 1150.20    7.98   0 
  -1   4  -1 4557.12   17.29   0 
  -1   7   0  167.58    5.00   0 
  -1   8   1    8.78    3.58   0 
   0  -7   9  257.73    4.69   0 
   0  -5   5 1153.11    8.55   0 
   1  -6   7 2113.95   10.46   0 
   3  -5   7 2360.21   13.10   0 
   3   5   3   84.98    5.06   0 
   4  -3   6  754.78   11.43   0 
   4   3   4    9.65    4.28   0 
   5   2   7  443.67    8.73   0 
  -8   6   3   18.01    6.72   0 
  -7   7   2  203.77    6.26   0 
  -6  -1   4  152.55    5.49   0 
  -6   9   2   38.52    4.63   0 
  -5   0   2   61.18    5.55   0 
  -4  10   2  275.66    6.24   0 
  -3  -7  11   36.10    3.84   0 
  -3   9   1   16.96    3.64   0 
  -2  -7  10  254.89    4.76   0 
  -1  -6   7  129.54    4.06   0 
  -1   5  -1 1623.33    9.79   0 
   0  -6   7  143.36    4.28   0 
   0   9   3   68.61    4.02   0 
   1  -7  10  445.81    5.66   0 
   1   5   0  959.04    7.91   0 
   2  -7  11  349.72    5.35   0 
   2  -6   8  895.87    7.55   0 
   2  -5   6  656.32    7.00   0 
   2   6   2  617.79    6.53   0 
   3  -6  10   49.24    4.78   0 
   3   6   4  311.96    5.44   0 
   4  -5  10   71.58    5.36   0 
  -8   5   3  287.40   11.62   0 
  -5  -5   9  113.79    4.47   0 
  -5  -2   4  110.48    5.26   0 
  -5   6   0  663.01    8.26   0 
  -4  -6  10  417.63    5.80   0 
  -4  -2   3  446.05    6.87   0 
  -4  -1   2  879.76    9.83   0 
  -3   4  -1 2225.36   13.73   0 
  -3  10   2 1083.53    8.54   0 
  -2  -6   8  238.98    5.20   0 
  -2   6  -1   99.58    3.78   0 
  -2   8   0  554.58    6.14   0 
  -2   9   1  151.84    4.71   0 
  -1  -7  10  194.58    4.44   0 
   0   4  -1  112.00    4.70   0 
   0   8   1  397.48    6.29   0 
   1  -4   4 2117.38   11.85   0 
   2  -7  12    8.86    4.51   0 
   3   4   2  808.05    7.70   0 
   5  -3  10   57.14    7.10   0 
   5   1   6  139.76    7.39   0 
  -7  -2   7  938.11    8.86   0 
  -7   8   2   20.23    5.51   0 
  -6  -3   7  373.76    6.55   0 
  -5  -1   3 2787.48   15.73   0 
  -5   7   0 1103.53    9.53   0 
  -5   9   1   52.74    4.47   0 
  -4  -4   6 1665.70    9.97   0 
  -4   8   0  794.42    7.20   0 
  -3  -4   5  336.09    5.17   0 
  -3   6  -1 1234.80    8.97   0 
  -2  -3   3 1414.26    9.85   0 
  -1  -4   4  747.30    6.88   0 
  -1   2  -1 2450.83   18.21   0 
  -1   6  -1   36.08    3.58   0 
  -1   9   1  295.16    5.69   0 
   0   3  -1   77.58    4.32   0 
   0   7   0  981.05    7.32   0 
   0   9   2  358.36    5.44   0 
   1  -7  11  129.72    4.45   0 
   1  -6   8  555.09    6.49   0 
   1   7   1  992.66    7.45   0 
   1   8   2  416.16    5.47   0 
   2   8   4   62.58    4.23   0 
   3  -6  11   13.80    4.65   0 
   3   7   5  257.98    5.24   0 
   4  -5  11   16.13    4.98   0 
   4  -4   8   44.90    5.23   0 
   5   3   7  388.00    8.04   0 
  -7  -3   9  198.20    5.02   0 
  -6  -4   9  296.69    5.49   0 
  -6   8   1  217.32    5.98   0 
  -4  -6  11  170.10    5.17   0 
  -3  -5   7  888.95    7.27   0 
  -3   3  -1 3533.68   21.03   0 
  -2  -1   1  687.96    9.95   0 
  -2   7  -1  992.05    8.12   0 
  -1  -7  11  211.69    4.44   0 
  -1  -6   8  847.22    6.77   0 
  -1   8   0  113.32    4.05   0 
   0  -6   8  584.03    6.57   0 
   0   5  -1  881.03    7.45   0 
   1  -5   6  427.55    5.50   0 
   1   6   0 1944.77    9.91   0 
   2  -6   9  518.19    6.20   0 
   2   6   1  138.71    4.90   0 
   2   7   2   13.69    3.46   0 
   3  -5   8  563.57    6.72   0 
   3  -4   6  401.39    6.82   0 
   3   5   2  782.47    7.85   0 
   4   1   3 1105.81   12.41   0 
   4   2   3  572.00    8.18   0 
   5   0   6    7.44    7.21   0 
  -8  -1   8   20.80    4.73   0 
  -7  -1   6    9.10    4.53   0 
  -5  -5  10  190.23    4.71   0 
  -3  -6  10   98.00    4.74   0 
  -3   7  -1  408.43    5.90   0 
  -3  10   1  264.19    5.02   0 
  -2  -7  12  101.64    4.16   0 
  -2  -6   9  283.61    4.91   0 
  -2  10   1   31.62    4.50   0 
  -1  -5   6  152.75    4.33   0 
  -1   7  -1   10.45    4.20   0 
   0  -5   6   42.78    3.51   0 
   0   6  -1 1566.02    9.01   0 
   1  -7  12  316.41    5.23   0 
   2  -5   7 3837.88   15.45   0 
   2  -4   5 1319.68    9.77   0 
   2   3   0  207.23    5.11   0 
   2   4   0 1794.26   10.56   0 
   2   8   3   42.08    3.81   0 
   3  -6  12   66.79    4.21   0 
   3   7   4  434.57    6.12   0 
   4  -5  12  940.57    9.96   0 
   4   3   3  187.29    5.60   0 
   5  -3  11  140.88    8.30   0 
  -8   3   4  358.29   13.47   0 
  -6  -2   6 1979.36   11.88   0 
  -6   9   1   19.92    4.80   0 
  -5  -4   8  200.86    4.65   0 
  -5  10   1   -1.47    4.42   0 
  -3  -3   4 1372.65    9.18   0 
  -2  -7  13  192.69    4.63   0 
  -1  -7  12  514.96    5.97   0 
  -1  -3   3  525.83    6.48   0 
   0   9   1   55.05    3.88   0 
   1  -7  13  251.25    5.12   0 
   1  -6   9   24.09    3.31   0 
   1   4  -1 3959.87   15.53   0 
   1   7   0  545.76    6.51   0 
   2  -6  10  430.43    5.85   0 
   2   2   0  915.50    9.67   0 
   3  -6  13  124.64    4.64   0 
   3   3   1 1479.64   10.29   0 
   4   5   4  462.49    6.56   0 
   5   3   6  378.89    7.55   0 
  -7  -3  10   16.67    4.45   0 
  -7  -2   8  383.38    6.65   0 
  -7   0   5  659.08    9.14   0 
  -6  -4  10  139.22    4.46   0 
  -6  -3   8  209.64    5.65   0 
  -5  -5  11   82.69    4.92   0 
  -3  -6  11  549.79    6.37   0 
  -3  -5   8  304.94    5.66   0 
  -3   8  -1  142.48    4.38   0 
  -2   8  -1  342.84    5.21   0 
  -1  -6   9  249.21    4.71   0 
   0  -7  13  210.09    4.81   0 
   0  -6   9  819.50    6.91   0 
   0   7  -1  358.80    5.76   0 
   1  -2   2  588.45    8.88   0 
   1   3  -1 1835.17   11.32   0 
   1   5  -1   27.66    3.46   0 
   2   7   1    7.53    4.20   0 
   3  -5   9  285.78    5.83   0 
   3   6   2  201.58    4.73   0 
   3   7   3   85.09    4.85   0 
   4  -4   9  426.27    7.77   0 
   4   4   3  271.00    5.38   0 
   4   6   5  171.34    5.26   0 
  -8   0   7  239.69    6.50   0 
  -4  -4   7  786.95    6.94   0 
  -4   8  -1 1153.44    9.06   0 
  -3  -4   6  811.54    6.86   0 
  -3  10   0   49.49    4.52   0 
  -2  -6  10  309.40    4.88   0 
   1  -6  10  321.36    5.86   0 
   1  -4   5 1570.92   10.37   0 
   2  -6  11   87.10    4.01   0 
   3   5   1  436.16    6.35   0 
   4  -3   7  609.23   10.00   0 
   5   2   5    6.19    5.28   0 
   5   4   6    2.37    4.39   0 
  -6  -4  11   14.13    3.58   0 
  -6  -1   5 2256.10   13.18   0 
  -6   7   0  312.38    6.83   0 
  -5  -5  12   79.32    4.21   0 
  -5  -2   5  277.95    6.02   0 
  -4  -5  10    0.26    3.41   0 
  -4  10   0   23.80    3.70   0 
  -3  -6  12   55.03    3.79   0 
  -3  -2   3   87.38    4.96   0 
  -3   9  -1  444.84    6.13   0 
  -2   6  -2  688.52    6.48   0 
  -2   9  -1   55.55    4.52   0 
  -2  10   0   38.94    3.93   0 
  -1  -6  10  182.59    4.32   0 
  -1   5  -2 5014.38   16.23   0 
  -1   6  -2  528.16    6.37   0 
   0  -6  10  139.11    4.74   0 
   0  -5   7   85.51    3.86   0 
   0   9   0   24.55    3.51   0 
   1   6  -1 2391.53   10.67   0 
   1   9   1   88.50    4.04   0 
   2  -6  12  648.94    7.16   0 
   2  -5   8  243.98    4.91   0 
   2  -3   4 1088.09   10.23   0 
   2   6   0   14.25    3.56   0 
   3  -5  10  242.55    5.58   0 
   3  -4   7 2747.72   14.40   0 
   4   5   3  127.50    4.90   0 
   4   6   4  126.08    4.85   0 
   5  -2   9  172.69    9.50   0 
   5   1   5  244.30    8.25   0 
   5   3   5   13.10    4.38   0 
  -8   1   6  251.46    7.41   0 
  -8   2   5 1427.08   16.08   0 
  -7   7   1  266.67    6.75   0 
  -6   8   0  218.76    5.86   0 
  -4  -2   4 1243.09    9.77   0 
  -3  -5   9  323.13    4.83   0 
  -2  -6  11   86.18    4.13   0 
  -2  -5   8    5.42    3.32   0 
  -2   7  -2  131.26    4.19   0 
  -1   9  -1  392.08    6.34   0 
  -1  10   0   67.32    3.91   0 
   0   5  -2  970.37    8.02   0 
   1  -6  11  158.97    5.13   0 
   2  -6  13  165.83    5.44   0 
   2  -4   6 3573.83   15.38   0 
   2   8   1  336.50    5.32   0 
   3   1   1  306.65    7.49   0 
   3   6   1  719.08    7.47   0 
   3   7   2   67.11    3.95   0 
   4  -4  10   57.26    4.70   0 
  -7  -2   9   87.18    4.95   0 
  -7  -1   7   75.45    4.79   0 
  -7   6   1  429.20    9.04   0 
  -6  -3   9   41.80    3.85   0 
  -5   6  -1 1044.76    9.56   0 
  -5   7  -1 1429.99   10.37   0 
  -5  10   0   44.02    3.94   0 
  -4  -4   8  258.24    5.34   0 
  -3   6  -2  438.16    6.03   0 
  -3   7  -2  116.59    4.09   0 
  -2  -6  12  187.40    4.23   0 
  -2  -4   6  618.86    6.68   0 
  -2   4  -2 6061.20   20.72   0 
  -1  -6  11  560.48    6.01   0 
  -1   7  -2   42.88    3.59   0 
   0  -6  11  221.71    4.60   0 
   0   4  -2 1496.09    9.54   0 
   0   6  -2 1058.42    7.61   0 
   1   7  -1 1056.80    7.51   0 
   2  -6  14   56.60    3.92   0 
   2   7   0  613.58    6.24   0 
   3  -5  11   30.46    4.90   0 
   4   0   3 1270.33   18.48   0 
   5   4   5  759.22    9.06   0 
  -6  -2   7  232.95    4.96   0 
  -6   0   4  721.33    8.77   0 
  -6   9   0  146.69    5.50   0 
  -5  -4  10   15.97    3.81   0 
  -5  -1   4   16.32    4.61   0 
  -5   3   0  482.62   15.21   0 
  -5   8  -1  483.21    6.34   0 
  -4  -3   6 1297.99    8.54   0 
  -3  -4   7  434.44    5.39   0 
  -3  -3   5  553.44    6.58   0 
  -3  -1   2 2197.80   14.54   0 
  -3   8  -2  813.31    7.57   0 
  -3  10  -1  235.61    4.73   0 
  -2   8  -2  142.99    3.98   0 
  -1  -6  12  360.01    5.70   0 
  -1   8  -2  137.15    4.10   0 
   0   7  -2   78.44    3.81   0 
   0   9  -1  376.51    5.84   0 
   0  10   0  181.57    4.54   0 
   2  -5   9   62.13    3.83   0 
   2   1   0  875.05   11.11   0 
   3  -5  12  455.53    6.82   0 
   3   4   0 1168.14    8.97   0 
   4  -4  11   25.81    4.20   0 
  -8   0   8   97.28    5.85   0 
  -8   7   2   50.72    6.43   0 
  -5   9  -1  108.08    4.98   0 
  -4  -1   3  291.66    6.10   0 
  -4  10  -1   69.72    3.97   0 
  -3  -5  10  108.26    3.88   0 
  -2  -6  14   63.68    4.43   0 
  -2  -5   9  114.93    3.99   0 
   0  -6  12  739.49    6.54   0 
   1  -6  13  227.75    4.71   0 
   1  -6  14  360.32    5.40   0 
   1   5  -2    3.10    4.04   0 
   2   3  -1 6790.12   20.56   0 
   2   8   0  354.03    5.27   0 
   3  -5  13   69.52    4.98   0 
   3  -4   8   90.14    4.70   0 
   3   3   0 1291.62    9.58   0 
   3   5   0 1247.68    8.70   0 
   3   7   1  153.98    4.32   0 
   3   8   2    8.86    3.51   0 
   4  -4  12  172.46    5.75   0 
   5   2   4   83.62    6.20   0 
   5   3   4  228.44    5.97   0 
  -7  -2  10  253.68    5.93   0 
  -6  -3  10   68.58    3.70   0 
  -6   1   3  661.91    9.98   0 
  -5  -4  11    1.30    4.35   0 
  -5  -3   8  131.96    4.99   0 
  -5   5  -1  238.70    6.74   0 
  -4  -4   9  448.44    5.80   0 
  -4   7  -2 1440.95    9.38   0 
  -4   8  -2  925.66    8.16   0 
  -3   0   1 3528.64   23.18   0 
  -3   9  -2  419.13    5.35   0 
  -2   9  -2  306.68    4.83   0 
  -1  -4   6  899.37    7.05   0 
  -1   3  -2 1832.05   12.33   0 
   0  -6  13  217.96    4.50   0 
   0  -6  14  224.12    5.52   0 
   0   3  -2 4667.43   17.92   0 
   0   8  -2   47.20    3.46   0 
   1  -5   9  914.79    7.57   0 
   1  -4   6  298.58    5.05   0 
   1  -3   4  107.25    4.30   0 
   1   4  -2 2097.49   10.86   0 
   2  -5  10  385.57    5.58   0 
   2  -2   3  463.44    8.51   0 
   3  -2   4  374.45    9.16   0 
   3   6   0  540.09    6.24   0 
   4  -3   8  148.39    6.05   0 
   4   6   2  137.94    5.31   0 
   5  -2  10  825.81   13.29   0 
   5   4   4  170.69    5.58   0 
  -7   0   6   37.43    4.43   0 
  -5  -2   6  539.56    6.24   0 
  -4  -5  13  168.08    4.45   0 
  -3  -5  11  205.59    4.32   0 
  -3   4  -2 1823.61   12.53   0 
  -2  -5  10  140.75    4.01   0 
  -2  -4   7 2208.87   10.51   0 
   0  -4   6  280.13    4.81   0 
   0  10  -1  193.51    4.54   0 
   1   9  -1  100.99    3.95   0 
   2  -4   7 2558.85   12.41   0 
   2   7  -1 2400.60   10.62   0 
   3  -3   6 6816.56   24.08   0 
   3   8   1    5.86    4.37   0 
   4   1   2 1289.11   12.92   0 
   5   5   4  434.14    6.94   0 
  -7  -1   8  422.61    6.25   0 
  -7   5   1  278.04   10.92   0 
  -6  -3  11 1071.02    8.75   0 
  -6  -1   6 1765.93   11.46   0 
  -5   0   3 1203.30   11.08   0 
  -4   9  -2  361.91    5.46   0 
  -3  -4   8  454.52    5.46   0 
  -2   3  -2 1036.64   10.57   0 
  -2   6  -3 1938.00   10.34   0 
  -2   7  -3  454.97    5.38   0 
  -2  10  -2   91.73    3.88   0 
   1  -5  10   28.68    4.19   0 
   2  -5  11  145.91    4.36   0 
   2   8  -1  376.53    5.97   0 
   2   9   0   23.79    3.70   0 
   3  -4   9  224.12    5.54   0 
   3   2   0   11.75    3.98   0 
   4  -2   6 1570.43   16.36   0 
   4   3   1  921.14    8.75   0 
   4   5   1  320.28    5.31   0 
   4   7   2   33.47    4.52   0 
   5  -2  11  266.78    8.77   0 
  -8   1   7  262.38    6.75   0 
  -7  -2  11   14.39    3.58   0 
  -5  -3   9   91.43    4.43   0 
  -4  -2   5 1519.18    9.93   0 
  -4   0   2 3819.56   20.32   0 
  -4  10  -2  162.31    5.21   0 
  -3  -5  13   32.81    4.44   0 
  -3  -3   6 1893.04    9.97   0 
  -3  -2   4 1498.90   10.35   0 
  -2  -5  11    7.14    3.42   0 
  -2  -3   5  680.89    6.69   0 
  -2   8  -3  215.91    4.34   0 
  -1   8  -3   44.53    3.54   0 
   0  -5  10  769.37    6.37   0 
   1   8  -2  755.05    6.58   0 
   2  -5  12  181.14    4.43   0 
   2  -5  13  485.90    6.62   0 
   2  -3   5 1686.67   11.74   0 
   2   2  -1 1225.41   10.52   0 
   2   5  -2   77.35    4.47   0 
   4  -3   9  202.10    6.35   0 
   5   1   4 2686.30   21.17   0 
   5   3   3  277.99    6.72   0 
  -7   1   5   50.06    5.35   0 
  -7   8   0  197.77    6.48   0 
  -6   9  -1   16.83    4.52   0 
  -5  -4  13   50.35    3.87   0 
  -5   8  -2  997.88    8.85   0 
  -4   3  -1 1395.73   16.71   0 
  -3  -4   9  308.41    5.49   0 
  -2  -5  12  365.64    5.67   0 
  -1  -4   7  730.79    6.45   0 
   0   5  -3 2499.21   11.21   0 
   0   8  -3  242.78    4.59   0 
   1  -5  11  320.53    5.09   0 
   1  -4   7  309.89    4.90   0 
   1   9  -2  160.23    4.93   0 
   2  -5  14  421.92    5.87   0 
   2  -4   8  799.96    7.81   0 
   2   4  -2 1352.43    9.32   0 
   2   6  -2   11.04    3.45   0 
   3   4  -1 1449.83    9.26   0 
   3   6  -1   46.62    3.54   0 
   5   5   3    6.19    4.19   0 
  -5   1   2  309.63    8.07   0 
  -5   7  -2  503.27    6.98   0 
  -3   6  -3  130.44    4.29   0 
  -2  -5  13  199.62    4.86   0 
  -2  -4   8 1200.84    7.73   0 
  -1  -5  11  466.35    5.29   0 
   0  -4   7  862.56    6.80   0 
   1  -5  12  321.26    4.89   0 
   1   7  -3   97.76    4.43   0 
   2   9  -1   33.67    3.70   0 
   3  -4  11  812.67    7.97   0 
   3   7  -1  141.21    4.77   0 
   4  -3  10  832.57    9.59   0 
   4   2   1 1339.50   10.93   0 
   4   7   1  144.81    4.74   0 
   5   2   3  420.88    7.95   0 
  -7   0   7   20.12    4.05   0 
  -7   7   0   48.15    5.69   0 
  -6   0   5 3245.25   15.83   0 
  -5  -3  10    9.34    3.26   0 
  -5  -1   5  449.45    6.30   0 
  -5  10  -2    8.08    4.55   0 
  -4  -4  12  204.01    4.43   0 
  -4  -3   8  166.34    4.14   0 
  -3  10  -3  344.10    5.78   0 
  -1  10  -3   27.71    3.58   0 
   0   4  -3 1501.13    9.25   0 
   1  -5  13   36.42    3.70   0 
   1  -5  14  314.67    4.86   0 
   3  -4  12  213.96    5.66   0 
   3  -4  13   71.09    4.66   0 
   3  -4  14   48.82    4.75   0 
   3   3  -1   13.05    3.22   0 
   4   4   0 1081.56    8.90   0 
   4   5   0  903.41    7.71   0 
  -8   2   6  301.23    7.42   0 
  -6  -1   7  713.00    7.25   0 
  -4  -4  13  526.77    6.14   0 
  -3  -4  10   63.74    3.70   0 
  -3  -3   7  366.31    5.44   0 
  -3   2  -1 1623.63   21.97   0 
  -2  -5  15    6.11    3.18   0 
  -2  -4   9   72.79    4.22   0 
  -2  -1   2   19.85    3.38   0 
  -1  -5  14    8.00    3.01   0 
  -1  -5  15   18.70    4.11   0 
   0  -5  13   72.65    3.58   0 
   0  -5  14  518.91    5.76   0 
   0  -5  15  385.97    6.18   0 
   0  -3   5  540.27    6.76   0 
   1  -4   8  934.81    7.14   0 
   1  -3   5   33.18    3.67   0 
   2  -4   9  542.71    6.73   0 
   3  -3   7    5.28    3.99   0 
   3   8  -1  212.23    4.64   0 
   4  -3  11 1361.95   11.26   0 
   4  -3  12   10.19    4.85   0 
   4  -3  13   64.96    5.43   0 
  -7  -1  10  188.46    5.37   0 
  -7   2   4  478.09    9.17   0 
  -5  -3  11   57.22    3.57   0 
  -4  -2   6  306.28    5.09   0 
  -4   1   1  890.39   13.94   0 
  -4  10  -3  583.05    6.16   0 
  -2  -3   6  860.60    6.97   0 
  -2   4  -3  457.42    6.82   0 
  -2   7  -4  580.50    6.37   0 
  -2   8  -4  290.73    4.83   0 
  -1   6  -4  800.10    7.03   0 
   0   2  -2 6087.43   23.54   0 
   0   7  -4 1120.62    7.35   0 
   0  10  -3   65.79    3.65   0 
   2   6  -3  369.79    5.74   0 
   2   9  -2  653.78    6.30   0 
   3   5  -2  638.99    6.65   0 
   4   7   0   66.77    3.83   0 
   5   3   2  256.01    5.96   0 
  -5  -3  12  163.05    4.79   0 
  -5  -2   8  453.92    5.49   0 
  -5   2   1  831.87   15.99   0 
  -3  -1   3  275.95    6.07   0 
  -2  -4  10  197.62    4.72   0 
  -2  -2   4 1993.12   11.40   0 
  -2   9  -4  222.37    4.61   0 
  -1  -4   9  288.90    5.21   0 
  -1   9  -4   48.09    3.55   0 
   2  -4  10   50.06    3.58   0 
   2  -3   6 3617.74   15.57   0 
   2   7  -3   47.39    3.44   0 
   3   7  -2    2.18    3.30   0 
   5  -1   8  435.43   11.30   0 
  -6   9  -2   57.05    4.77   0 
  -4   4  -2 1118.79   11.44   0 
  -3  -4  12 1464.09    8.23   0 
  -3  -4  13   60.61    4.08   0 
  -3  -2   5 5832.71   17.54   0 
  -3   7  -4 1220.05    8.65   0 
  -3   9  -4  289.71    4.81   0 
  -2  10  -4  545.43    5.88   0 
  -1   2  -2  586.68    8.90   0 
  -1  10  -4    3.44    3.21   0 
   0  -4   9  490.53    5.35   0 
   0   9  -4  157.13    4.02   0 
   1  -4   9 1359.45    8.15   0 
   1   2  -2 6936.18   23.36   0 
   1   6  -4  874.47    7.24   0 
   1   7  -4  295.34    4.66   0 
   2  -4  11  469.78    6.34   0 
   2   8  -3   17.38    3.33   0 
   3  -3   8   87.73    4.62   0 
   3   1   0  304.60    6.71   0 
   4  -2   7  346.37    7.80   0 
   4   5  -1 1125.20    8.67   0 
   4   6  -1  603.49    6.68   0 
   5   5   1   68.23    4.63   0 
  -8   3   5  307.28    8.35   0 
  -6  -2  12  870.57    7.53   0 
  -6  -1   8  261.18    4.98   0 
  -6   8  -2    7.98    4.11   0 
  -5  -3  14   69.16    3.66   0 
  -5  -1   6 1127.58    8.94   0 
  -5   8  -3  160.70    5.07   0 
  -4  -3  10  682.28    5.92   0 
  -3  -4  14  131.21    3.95   0 
  -3  -4  15  125.79    3.95   0 
  -3   3  -2 1568.40   13.86   0 
  -2  -4  11  629.14    5.76   0 
  -2  -3   7   37.85    3.84   0 
  -1  -4  10  830.24    6.42   0 
   0   3  -3  833.67    7.87   0 
   0  10  -4    5.05    3.25   0 
   1  -4  10  847.73    7.30   0 
   1   8  -4  391.40    5.17   0 
   2  -4  13  133.04    4.04   0 
   2  -4  14  331.27    5.37   0 
   3   2  -1    3.86    3.77   0 
   4   4  -1  419.09    6.32   0 
   4   7  -1  174.05    4.46   0 
   6   2   6  166.94    8.90   0 
   6   3   5  383.88    9.16   0 
  -8   1   9  155.81    5.18   0 
  -7  -1  12   73.79    4.50   0 
  -7   1   6  289.87    6.10   0 
  -7   6   0   99.32    7.25   0 
  -6  -2  13  562.84    6.82   0 
  -5  -2   9   41.69    3.35   0 
  -5   0   4 4229.73   17.47   0 
  -4  -2   7   98.11    4.14   0 
   0  -3   6  363.95    5.54   0 
   1  -4  11  607.49    6.44   0 
   1  -3   6 1397.40    9.25   0 
   1   3  -3  527.11    6.55   0 
   1   5  -4  630.46    6.07   0 
   1   9  -4  136.00    4.04   0 
   2  -2   4  679.92    8.96   0 
   4   1   1  455.14    8.47   0 
   5   1   3  557.24   10.83   0 
   5   2   2  648.64    8.95   0 
  -8   7   1  354.88   10.82   0 
  -7   3   3  579.52   11.19   0 
  -7   8  -1   40.24    5.16   0 
  -6   0   6  184.58    4.53   0 
  -5   7  -3   51.67    4.17   0 
  -4  -3  11  287.08    4.60   0 
  -4   8  -4   90.69    4.59   0 
  -4  10  -4  157.50    4.35   0 
  -3   6  -4   54.26    3.83   0 
  -2  -4  14  296.74    4.56   0 
  -2  -4  15  106.59    3.88   0 
  -2   5  -4  919.82    7.34   0 
  -1  -4  11  207.63    4.24   0 
  -1   3  -3  264.91    5.38   0 
  -1   7  -5  824.47    6.98   0 
   0  -4  11  963.79    6.76   0 
   0   8  -5  290.95    4.61   0 
   1  -4  12  157.27    4.14   0 
   1  -4  13  463.15    5.93   0 
   1  -4  15  590.01    6.03   0 
   2  -1   2  593.26   13.84   0 
   2   6  -4  369.95    4.99   0 
   2   7  -4  392.78    5.00   0 
   2   8  -4   51.11    3.51   0 
   3  -3   9  408.09    5.85   0 
   3   3  -2  266.00    5.27   0 
   3   5  -3  364.00    5.55   0 
   3   6  -3  460.15    5.47   0 
   3   7  -3    0.72    3.19   0 
   3   8  -3    5.42    3.90   0 
   5  -1   9  502.75   10.71   0 
  -6   7  -2  654.10    8.17   0 
  -5  -2  10   89.48    3.76   0 
  -5   5  -2  200.08    6.31   0 
  -4  -3  12    6.56    3.20   0 
  -3  -2   6  903.18    7.50   0 
  -3   4  -3 1023.84    9.43   0 
  -1  -4  13  417.48    4.96   0 
  -1  -4  14   39.97    3.30   0 
  -1  -4  16   65.21    3.71   0 
  -1  -3   7 3723.61   13.32   0 
  -1  10  -5  469.66    5.39   0 
   0  -4  14   61.72    4.36   0 
   0   4  -4 1273.51    8.44   0 
   0   7  -5  784.88    6.40   0 
   0   9  -5  181.23    4.17   0 
   2   2  -2 2720.65   13.87   0 
   2   9  -4   43.37    3.59   0 
   3  -3  10  105.32    4.48   0 
   3  -3  13  227.16    5.58   0 
   3  -3  14   55.63    3.89   0 
   3   0   1  100.04    7.35   0 
   4  -2   8  365.72    7.34   0 
   4   3  -1  147.93    5.11   0 
   4   5  -2  166.37    5.06   0 
   4   7  -2  574.27    6.38   0 
   5  -1  10  544.41   10.14   0 
   5  -1  11   62.54    5.68   0 
   5   5   0  198.33    5.35   0 
  -8   1  10   13.38    4.32   0 
  -4  -3  13   34.89    3.31   0 
  -4  -3  14   92.79    3.71   0 
  -4  -1   5  865.59    7.46   0 
  -4   5  -3   10.56    4.15   0 
  -4   7  -4  327.28    5.26   0 
  -3   9  -5  269.71    4.71   0 
  -3  10  -5   74.73    4.27   0 
  -2  -2   5  291.48    5.05   0 
  -1  -1   2 1046.11   10.77   0 
  -1   4  -4 2123.08   11.43   0 
   1  -3   7 2261.52   11.14   0 
   1   4  -4  767.84    6.51   0 
   1   7  -5  596.25    5.73   0 
   1   9  -5  123.93    3.93   0 
   3  -3  12  472.24    6.29   0 
   5   4   0  156.84    5.02   0 
   6   3   4   12.33    4.69   0 
  -8   4   4  123.46    7.45   0 
  -7   0  10   94.80    4.40   0 
  -5  -1   7  213.11    4.47   0 
  -3  -3  11 1954.86    9.33   0 
   1   6  -5  202.00    4.28   0 
   3  -1   3 2147.72   24.93   0 
   4  -2   9  308.89    6.37   0 
   4  -2  12  387.64    7.17   0 
   4   4  -2   68.41    4.49   0 
   6   2   5  387.51    9.69   0 
   6   4   3   11.64    4.06   0 
  -7   1   7  157.67    4.90   0 
  -6   0   7  380.51    6.06   0 
  -6   9  -3  390.80    6.55   0 
  -3   7  -5  709.94    6.92   0 
  -2  -3   9 1927.39    9.09   0 
  -2   6  -5  361.69    5.11   0 
  -1  -3   8 1382.32    8.01   0 
   0  -2   4 2153.82   12.14   0 
   0   5  -5 1164.12    8.01   0 
   2  -3   9  470.13    6.28   0 
   2  -3  15  997.76    8.85   0 
   2   7  -5   45.08    3.32   0 
   3   8  -4  120.48    3.86   0 
   4  -2  10  471.07    7.20   0 
   4  -2  11  723.03    8.84   0 
   5   6  -1  454.75    6.58   0 
  -7   0  11  177.56    4.98   0 
  -7   2   5  192.84    5.55   0 
  -7   7  -1   25.50    5.72   0 
  -5  -2  13   74.39    3.54   0 
  -5  -2  15   17.23    3.06   0 
  -5   0   5 3414.99   14.65   0 
  -5   8  -4    4.05    4.33   0 
  -4  -2   9    7.32    3.11   0 
  -4   9  -5  209.50    5.12   0 
  -4  10  -5    4.42    3.16   0 
  -3  -3  15  211.95    4.10   0 
  -3  -3  16  253.78    4.65   0 
  -3  -2   7  113.63    3.56   0 
  -2   0   1 4272.64   25.84   0 
  -2   9  -6 1345.02    8.62   0 
  -2  10  -6   33.48    4.39   0 
  -1   5  -5 1360.86    8.49   0 
  -1   8  -6   67.71    3.51   0 
  -1   9  -6  270.37    4.40   0 
  -1  10  -6  697.21    6.18   0 
   0   8  -6  452.47    5.11   0 
   0   9  -6   17.44    3.02   0 
   1  -3   8  437.83    5.22   0 
   2  -3  14   98.45    4.65   0 
   2   6  -5  590.94    5.68   0 
   2   9  -5  196.41    4.24   0 
   4   7  -3  261.76    4.46   0 
   5   2   1  726.94    8.80   0 
   5   3   0  768.98    7.86   0 
   5   5  -1  377.20    5.48   0 
   6   3   3  112.79    5.84   0 
  -6  -1  13  451.41    5.93   0 
  -6   2   3 2065.31   15.43   0 
  -6   8  -3    3.34    3.91   0 
  -4  -2  10  163.20    4.51   0 
  -4   6  -4 1963.13   11.34   0 
  -4   8  -5  445.45    6.08   0 
  -3   0   2 2103.08   14.85   0 
  -2  -3  11 1486.82    7.86   0 
  -2   4  -4 1376.94    9.68   0 
  -2   8  -6 1006.49    7.09   0 
  -1  -3   9   12.83    3.11   0 
  -1   7  -6  395.17    5.18   0 
   0  10  -6   35.40    3.40   0 
   1   8  -6  675.21    5.90   0 
   1   9  -6   81.79    3.67   0 
   2  -3  10  503.49    5.87   0 
   2  -3  11  520.72    6.38   0 
   2  -3  12  481.48    6.17   0 
   2  -3  13  438.11    5.54   0 
   4   5  -3  186.53    4.30   0 
   5   4  -1   18.57    3.87   0 
   6   4   2  116.45    5.01   0 
  -7   1   8   58.58    4.08   0 
  -6   0   8  345.80    5.82   0 
  -6   1   5    7.31    3.82   0 
  -5   1   3  210.40    5.62   0 
  -4  -1   6   10.58    2.85   0 
  -3   9  -6  221.95    4.95   0 
  -3  10  -6   72.63    3.68   0 
  -2  -3  14   56.74    3.49   0 
  -1  -3  10   15.46    3.67   0 
  -1  -3  16  132.45    4.16   0 
  -1  -2   5 1371.84    8.78   0 
   0  -3   9  963.18    6.83   0 
   0  -3  16   21.05    3.32   0 
   1  -3  14  417.43    5.63   0 
   1  -3  15  355.07    5.12   0 
   2  -2   5 1590.67   11.47   0 
   2   5  -5 1011.73    6.84   0 
   3   2  -2  149.43    4.28   0 
   3   3  -3 2934.66   12.30   0 
   4   0   2 1688.59   24.35   0 
   4   2  -1   16.05    3.78   0 
   4   3  -2  344.06    5.79   0 
   5   6  -2  132.52    4.83   0 
   6   2   4 1134.02   14.58   0 
  -8   2   9   21.93    4.23   0 
  -7   4   2  594.67   13.19   0 
  -6   6  -2  296.61    7.23   0 
  -5  -1   9  542.89    5.60   0 
  -4  -2  12  253.91    4.72   0 
  -3   6  -5  830.52    7.06   0 
  -2   5  -5  290.89    5.13   0 
  -1  -3  11  508.77    5.26   0 
  -1  -3  14  555.10    5.94   0 
  -1   6  -6 1279.21    8.05   0 
   0  -3  10  685.66    6.22   0 
   0  -3  14    7.90    4.03   0 
   0   3  -4  620.87    6.80   0 
   1  -3  11  343.71    5.28   0 
   1  -3  12  161.01    4.69   0 
   1  -3  13  595.31    5.77   0 
   1   3  -4 3389.30   12.94   0 
   1   6  -6   91.65    3.76   0 
   2   7  -6   70.04    4.17   0 
   2   9  -6  179.48    4.04   0 
   3  -2   7  381.41    6.83   0 
   3  -2  14  456.71    6.96   0 
   3   4  -4  663.48    6.36   0 
   3   6  -5  414.99    4.82   0 
   4   4  -3  251.34    5.01   0 
   4   7  -4    6.88    3.18   0 
   5   5  -2   54.58    4.50   0 
  -5   7  -4  322.24    5.93   0 
  -4   7  -5  216.13    5.08   0 
  -1  -3  12   31.37    3.23   0 
  -1  -3  13  212.89    4.06   0 
  -1   9  -7  386.59    5.24   0 
  -1  10  -7  444.94    5.36   0 
   0  -3  12  120.45    3.64   0 
   0  -2   5 1107.53    8.66   0 
   0   2  -3  942.61    9.15   0 
   0   4  -5  145.33    3.98   0 
   0  10  -7   31.27    4.17   0 
   1  -1   2   87.74    5.74   0 
   1   4  -5  780.77    6.41   0 
   3  -2  13  528.53    6.76   0 
   5   1   2  541.48    9.88   0 
   6   3   2  267.10    6.76   0 
   6   4   1  103.70    4.79   0 
  -8   5   3  281.20    9.88   0 
  -7   8  -2   39.29    5.27   0 
  -5   0   6  358.97    5.89   0 
  -5   9  -5   67.27    4.36   0 
  -4  -1   7  403.34    5.36   0 
  -2   9  -7  315.64    4.79   0 
  -2  10  -7  443.12    5.46   0 
  -1   8  -7  177.00    3.88   0 
   0   8  -7  372.60    4.78   0 
   1   8  -7  468.14    5.30   0 
   2   3  -4  385.65    5.21   0 
   3  -2   8  269.91    5.98   0 
   3   5  -5  517.62    5.39   0 
   4   1   0  201.61    6.09   0 
   4   5  -4  759.45    6.46   0 
   5   3  -1   71.65    4.23   0 
   6   5   0   54.53    4.47   0 
  -8   3   7  345.63    6.81   0 
  -6   0  10  279.47    5.08   0 
  -6   7  -3    7.16    4.35   0 
  -5  -1  12  265.94    4.89   0 
  -5  -1  15    3.92    2.97   0 
  -4   9  -6   34.75    3.46   0 
  -3  -2  15  318.25    5.18   0 
  -3  -2  16  101.38    3.57   0 
  -3   7  -6  561.90    6.36   0 
  -2   6  -6   68.99    3.42   0 
  -2   8  -7  163.70    4.57   0 
  -1   3  -4  101.85    4.48   0 
  -1   4  -5 1648.75    9.73   0 
   0   7  -7  777.11    5.99   0 
   1   5  -6  147.22    3.88   0 
   2  -2   6 1125.14    9.10   0 
   3  -2  12  328.40    5.41   0 
   3   7  -6  202.55    4.65   0 
   3   8  -6   80.41    3.60   0 
   4   7  -5  100.11    4.39   0 
   5   6  -3   27.74    3.36   0 
  -6   0  11  225.31    4.90   0 
  -3  10  -7   71.27    3.57   0 
  -2  -2   8   51.97    3.12   0 
  -2  -2  16  123.67    4.52   0 
  -1   7  -7   51.98    3.35   0 
   2  -2  14  679.82    7.08   0 
   2   0   0  242.18    8.76   0 
   2   9  -7  377.08    4.80   0 
   4  -1  12  253.62    6.21   0 
   6   2   3  537.37   10.35   0 
   6   4   0  296.93    6.26   0 
  -8   4   5   94.76    6.01   0 
  -7   1  12   52.66    4.20   0 
  -7   3   4 1724.48   13.59   0 
  -6   0  12   81.28    3.60   0 
  -6   0  13   12.05    3.73   0 
  -6   0  14  306.56    5.02   0 
  -5   8  -5  121.44    4.66   0 
  -4   8  -6  340.08    5.83   0 
  -2  -2  15  358.63    5.37   0 
  -1  -2  16  741.34    7.07   0 
   0  -2   6 3293.17   13.47   0 
   0  -2  16    4.64    3.07   0 
   0   6  -7  151.69    4.37   0 
   0   9  -8   37.92    3.88   0 
   1  -2  15   53.39    4.15   0 
   1   6  -7  131.90    4.22   0 
   2   7  -7   78.95    3.37   0 
   4  -1   6  607.22    9.52   0 
   4   4  -4  113.75    3.79   0 
   6   3   1  290.95    6.42   0 
   6   5  -1   83.85    4.48   0 
  -7   2   7  279.61    5.39   0 
  -4  -1   9  207.87    4.62   0 
  -4   2   0   80.22    8.64   0 
  -3   4  -4 2234.24   12.90   0 
  -3   5  -5  211.68    5.24   0 
  -3   8  -7  237.78    4.94   0 
  -2   7  -7  206.71    4.29   0 
  -1  -2   7  509.13    5.41   0 
  -1   2  -3 1810.72   12.97   0 
  -1   9  -8   22.52    3.01   0 
   0   8  -8  151.94    4.01   0 
   1   9  -8  509.65    5.24   0 
   2  -2   7  749.61    7.39   0 
   4  -1  11    8.23    3.76   0 
   4   2  -2  230.64    4.98   0 
   5   0  10  167.27    6.98   0 
   5   6  -4  228.68    5.10   0 
  -6   1   7  175.52    4.76   0 
  -6   2   4 1518.79   11.58   0 
  -4  -1  10   65.75    4.01   0 
  -4   1   2 1683.70   13.68   0 
  -4   6  -5  820.16    7.61   0 
  -3   6  -6   10.83    3.82   0 
  -2  -2  10 9557.21   18.64   0 
  -2  -2  12   11.50    2.91   0 
   0  -2  15  230.20    4.34   0 
   1   8  -8   66.79    3.34   0 
   2  -2   8  937.35    7.97   0 
   2  -2  12  655.20    6.11   0 
   2   1  -2   17.62    3.69   0 
   2   6  -7   19.27    3.02   0 
   3   5  -6  195.34    4.15   0 
   3   7  -7  124.05    3.63   0 
   4  -1  10  576.03    7.71   0 
   4   7  -6  208.56    4.25   0 
   5   3  -2   39.48    3.87   0 
   5   4  -3  370.76    5.18   0 
  -5   0   8  109.38    3.64   0 
  -4   0   5  263.33    5.00   0 
  -2   5  -6  711.98    6.87   0 
  -1  -2  13  152.77    3.76   0 
   1  -2   7 3323.36   13.30   0 
   1  -2  13  190.43    4.02   0 
   1   3  -5  279.09    4.37   0 
   1   7  -8    8.47    3.20   0 
   2  -2   9  408.87    5.95   0 
   2  -2  10  695.61    6.94   0 
   2  -2  11  268.95    4.76   0 
   4  -1   7  209.15    6.08   0 
   4  -1   9  366.27    6.85   0 
   5   0   6    5.58    6.46   0 
   5   0   9  543.44    9.48   0 
   5   5  -4   25.48    3.22   0 
   6   4  -1  134.10    4.50   0 
   6   5  -2   61.18    4.28   0 
  -7   2   8  578.62    6.59   0 
  -6   1   8   73.20    4.27   0 
  -5   0   9  390.96    5.40   0 
  -5   9  -6  111.49    4.00   0 
  -4   7  -6  761.99    7.30   0 
  -4   9  -7    7.51    3.26   0 
  -3  -1   7  501.54    5.32   0 
  -2   8  -8    1.40    3.07   0 
  -1   7  -8  113.71    3.58   0 
   0  -2   8  816.07    6.71   0 
   0   1  -2  407.70    7.68   0 
   0   3  -5  575.22    6.41   0 
   1  -2   8  860.96    6.93   0 
   1  -2  12  275.90    4.50   0 
   2   4  -6  629.37    5.74   0 
   3  -1  13  103.51    4.52   0 
   5   0   7  472.07   10.13   0 
   5   0   8  240.15    7.78   0 
   5   1   1 1045.18   12.20   0 
   5   6  -5  290.29    5.13   0 
   6   2   2  173.46    6.64   0 
   6   3   0  275.59    5.80   0 
  -8   4   6   41.10    4.78   0 
  -6   3   2  658.32   10.36   0 
  -5   0  10 2052.85    9.63   0 
  -5   7  -5  164.11    4.69   0 
  -3   7  -7    3.14    3.21   0 
  -2  -1   5 4721.90   15.79   0 
  -2   3  -4 1111.31    9.33   0 
  -1   9  -9  116.67    3.69   0 
   0  -2   9  347.64    4.48   0 
   0  -2  10   70.37    3.32   0 
   0  -2  11   27.60    3.03   0 
   0  -2  12  238.02    4.08   0 
   0   9  -9   48.58    3.30   0 
   1  -2   9  725.64    6.22   0 
   1  -2  10  469.42    5.18   0 
   1  -2  11   12.07    3.01   0 
   1   9  -9  133.71    3.68   0 
   2   5  -7  800.92    6.06   0 
   4   3  -4  177.87    4.69   0 
  -7   7  -2   68.72    6.51   0 
  -6   1  14   34.19    4.08   0 
  -5   0  13  284.34    4.51   0 
  -5   2   2 1109.32   11.59   0 
  -4   8  -7  380.76    5.76   0 
  -1  -1  16   80.41    3.55   0 
  -1   4  -6  314.54    5.14   0 
   0  -1   3 2545.35   15.19   0 
   0   6  -8  567.36    5.57   0 
   0   8  -9  199.91    3.96   0 
   2  -1  14  434.56    6.12   0 
   2   6  -8  243.33    4.15   0 
   3  -1  12  238.44    5.37   0 
   3   4  -6  827.46    6.15   0 
   4   5  -6  217.12    4.28   0 
   4   7  -7   48.49    3.39   0 
   5   4  -4  146.45    4.57   0 
   6   4  -2  305.93    5.48   0 
   6   5  -3   15.61    4.02   0 
  -8   6   2  299.89   10.40   0 
  -5   8  -6   56.59    4.11   0 
  -3  -1  12  209.36    3.90   0 
  -3   8  -8  121.50    4.40   0 
  -2   9  -9  165.87    3.84   0 
  -1   8  -9  580.92    5.50   0 
   1  -1  15   11.51    2.98   0 
   2  -1   3  530.67    9.42   0 
   3   5  -7  905.49    6.53   0 
   4   2  -3  486.70    6.27   0 
   6   3  -1  690.10    7.85   0 
  -8   5   4  226.92    7.24   0 
  -7   8  -3  211.69    7.11   0 
  -6   2   5  162.74    4.67   0 
  -4   0  15   36.79    3.28   0 
  -2  -1  14  629.93    5.51   0 
  -1   3  -5   27.86    4.00   0 
  -1   6  -8  628.91    5.54   0 
   0  -1  15  789.41    6.18   0 
   0   2  -4 2166.95   11.70   0 
   3  -1  11  479.57    6.24   0 
   4   0  12   32.81    4.24   0 
   6   2   1  504.12    8.73   0 
  -7   3   6  297.01    5.93   0 
  -6   7  -4   23.27    4.51   0 
  -4   0   7  247.17    4.20   0 
  -4   3  -2  303.73    9.59   0 
  -2  -1  13  214.83    3.97   0 
  -2   8  -9  409.56    5.03   0 
  -1   7  -9  518.08    5.54   0 
   0   9 -10   80.64    3.32   0 
   1  -1  14   49.60    3.15   0 
   1   5  -8  853.20    6.18   0 
   2   4  -7 2218.38    9.56   0 
   3  -1  10  669.15    6.88   0 
   3   2  -4 1492.07    8.99   0 
  -7   4   3  749.75   10.01   0 
  -6   8  -5  512.31    7.55   0 
  -5   1  15  687.85    6.03   0 
  -5   9  -7   30.30    3.80   0 
  -4   0   8  387.25    5.19   0 
  -4   0  13  413.58    4.66   0 
  -3   5  -6    2.69    3.21   0 
  -3   6  -7   78.12    3.47   0 
  -3   9  -9  180.75    4.61   0 
  -2  -1   7 2458.00   10.40   0 
  -2  -1  12  844.10    5.90   0 
  -1   9 -10  226.33    4.30   0 
   0   4  -7  845.22    6.56   0 
   0   5  -8  959.55    6.40   0 
   0   8 -10  170.43    3.63   0 
   2   3  -6  855.10    6.41   0 
   2   5  -8    3.63    2.99   0 
   3  -1   5 1411.78   12.17   0 
   4   3  -5  795.88    6.84   0 
   4   5  -7  646.55    5.60   0 
   5   4  -5  163.55    4.02   0 
   6   5  -4   15.45    3.11   0 
  -6   2   6   10.75    3.72   0 
  -4   0   9 2513.90    9.95   0 
  -4   0  10 2521.14   10.12   0 
  -4   0  11  173.16    3.73   0 
  -4   0  12   47.52    3.05   0 
  -4   5  -5 2059.14   12.13   0 
  -4   7  -7  682.96    6.93   0 
  -3   7  -8  367.69    5.52   0 
  -2  -1   8  834.86    6.28   0 
  -2  -1   9 1066.80    6.86   0 
  -2  -1  10 1578.97    8.00   0 
  -2  -1  11   98.87    3.44   0 
  -2   0  16  225.29    4.21   0 
  -1  -1   5  775.63    6.86   0 
   0   6  -9  862.85    6.08   0 
   1  -1  13   52.59    3.26   0 
   2   6  -9  303.85    4.31   0 
   2   8 -10  113.66    3.71   0 
   3  -1   9  429.73    5.84   0 
   3   0   0  245.29    7.66   0 
   4   0  11  153.10    4.99   0 
   4   6  -8  188.28    3.88   0 
   5   1   0  480.56    8.21   0 
   5   3  -4  727.82    6.83   0 
   6   3  -2  576.99    6.76   0 
  -7   3   7  522.28    6.50   0 
  -7   5   1  260.45    9.32   0 
  -5   1   7  490.10    5.99   0 
  -5   1  13  149.25    4.09   0 
  -3   0  14  535.30    5.05   0 
  -3   4  -5   75.57    4.14   0 
  -2   4  -6 3527.68   13.43   0 
  -2   7  -9  586.08    6.07   0 
  -1   0  16   61.41    3.25   0 
  -1   8 -10  135.45    3.84   0 
   0  -1   4   36.13    3.29   0 
   0   3  -6  363.00    4.94   0 
   1  -1  12  727.60    6.61   0 
   1   7 -10  185.17    3.91   0 
   2  -1  11  186.50    4.27   0 
   2   1  -3  292.36    5.50   0 
   3  -1   6   84.72    4.23   0 
   3  -1   8 1430.32    9.81   0 
   3   6  -9  550.19    5.21   0 
   6   2   0  265.76    6.62   0 
  -8   5   5  204.27    5.93   0 
  -7   3   8  274.54    5.37   0 
  -7   3  12  494.50    6.28   0 
  -6   2   7   23.38    3.74   0 
  -5   1   8 1014.75    7.18   0 
  -5   1  11  110.23    3.87   0 
  -5   1  12  619.72    5.40   0 
  -5   7  -6   64.47    4.11   0 
  -4   8  -8  526.18    5.81   0 
  -3   1   1 1688.12   16.07   0 
  -3   8  -9  516.45    5.62   0 
  -2   2  -3  464.69    7.97   0 
  -1   5  -8 2315.62    9.70   0 
   0   7 -10  277.43    4.33   0 
   1   0  15   14.34    3.09   0 
   1   1  -3 6238.85   21.55   0 
   2   2  -5  308.48    4.78   0 
   4   0  10  303.52    5.87   0 
   4   2  -4 1235.37    8.24   0 
   6   4  -4  220.91    5.06   0 
  -7   3  10  328.54    5.49   0 
  -6   2   8  419.25    5.71   0 
  -6   2  11  286.44    4.90   0 
  -5   1  10    8.92    3.00   0 
  -5   8  -7   29.16    3.88   0 
  -3   0  13  208.84    3.85   0 
  -2   8 -10  204.45    4.62   0 
  -1  -1   8  478.08    5.37   0 
  -1  -1   9 2578.81   10.28   0 
  -1   2  -4  194.86    4.63   0 
   0  -1  11  172.86    3.68   0 
   1   8 -11   46.72    3.26   0 
   3   0  12  263.81    5.25   0 
   4   4  -7  768.21    6.01   0 
   4   5  -8  303.11    4.22   0 
   5   2  -3   79.33    4.15   0 
   5   4  -6  261.71    4.43   0 
  -4   1  14   32.18    2.80   0 
  -4   4  -4  170.34    5.46   0 
  -3   0  12  103.33    3.39   0 
  -3   1  16  169.73    4.06   0 
  -2   0  14  603.24    5.49   0 
   1  -1  10   10.71    3.61   0 
   1   0  14  104.62    4.23   0 
   1   6 -10  183.40    3.84   0 
   2  -1   9  920.11    7.26   0 
   4   6  -9  113.49    3.46   0 
   5   3  -5  324.27    5.17   0 
   6   3  -3  376.87    5.84   0 
  -8   5   6   41.92    3.94   0 
  -7   4   4  460.20    7.34   0 
  -5   5  -4  934.02   11.00   0 
  -3   0  10   15.97    2.86   0 
  -3   0  11  150.36    3.62   0 
  -3   1  15  222.62    4.56   0 
  -2   0  13  491.59    5.03   0 
  -2   1  16  167.30    3.86   0 
  -2   3  -5 1738.11   10.64   0 
  -1   1  -2   87.75    5.09   0 
  -1   3  -6 1726.79    9.75   0 
  -1   8 -11  389.18    5.40   0 
   0  -1   9  304.20    4.23   0 
   0   0  14  817.35    6.48   0 
   0   5  -9  655.54    5.57   0 
   2  -1   8  305.76    5.31   0 
   2   0  13   36.62    3.11   0 
   4   0   9  545.02    7.03   0 
   6   2  -1  368.55    6.86   0 
   6   4  -5    1.23    3.80   0 
   6   5  -6   63.60    3.75   0 
  -8   5   7   24.97    4.33   0 
  -5   2  14  425.84    4.92   0 
  -4   1  13  137.29    3.66   0 
  -3   6  -8 1780.37    9.47   0 
  -3   7  -9  372.55    5.54   0 
  -2   6  -9  493.04    5.31   0 
   0  -1   8  639.90    5.77   0 
   0   2  -5 1120.89    8.07   0 
   0   7 -11   90.10    4.02   0 
   1  -1   5 4384.69   17.00   0 
   1  -1   8 1069.04    7.46   0 
   2  -1   6  927.92    8.16   0 
   2  -1   7  479.93    5.69   0 
   2   7 -11  366.80    4.50   0 
   3   0  11  397.87    5.94   0 
   5   1  -1  602.10    8.19   0 
   7   3   1  364.07    8.70   0 
  -6   8  -6  128.33    5.34   0 
  -4   6  -7  404.78    5.88   0 
  -4   7  -8  669.11    7.00   0 
  -3   8 -10  134.33    4.56   0 
  -2   0  12  737.71    5.60   0 
  -2   1  15   97.49    4.00   0 
  -2   7 -10  115.06    3.71   0 
   0   0  13  647.00    6.05   0 
   1  -1   6  720.28    6.90   0 
   1  -1   7    4.39    2.88   0 
   1   8 -12   70.36    3.40   0 
   2   0  12  156.78    4.67   0 
   4   0   8  853.88    8.84   0 
   4   2  -5 1597.97    8.91   0 
   4   5  -9   91.31    3.39   0 
   5   4  -7  293.32    4.44   0 
   5   6  -9  127.40    3.46   0 
   6   3  -4  631.38    6.67   0 
  -6   3   4   25.13    3.63   0 
  -6   3  13   -1.83    2.95   0 
  -4   1  11  934.96    6.23   0 
  -4   8  -9  386.06    5.24   0 
  -2   0  11  334.12    4.38   0 
  -1   1  15   55.04    3.76   0 
   0   1  15   -0.18    3.75   0 
   0   3  -7 2073.58    9.49   0 
   0   8 -12   59.18    3.12   0 
   1   5 -10  671.17    5.44   0 
   2   2  -6  951.64    6.80   0 
   4   1  -3  302.38    5.36   0 
   4   1  11  269.57    5.77   0 
   4   3  -7  175.88    4.28   0 
   5   3  -6  281.46    5.00   0 
   6   4  -6    5.17    3.59   0 
   7   4  -3  232.04    5.52   0 
  -5   2  12    3.55    2.96   0 
  -3   1  13  466.27    4.76   0 
  -2   0   4 1371.29    9.52   0 
  -2   0  10  489.13    5.05   0 
  -1   0  12 1277.23    7.24   0 
  -1   4  -8  937.87    6.55   0 
   1   0  12  813.77    6.34   0 
   2   1  -4 5409.39   17.28   0 
   3   0  10  391.00    5.30   0 
   3   4  -9  292.78    4.34   0 
  -8   1  -1  113.31    3.98   0 
  -7   0  -2    1.78    3.18   0 
  -6  -1  -4  554.11    5.68   0 
  -6   2   4 1448.75    9.49   0 
  -6   3   5  665.86    7.68   0 
  -4  -2  -9  135.62    4.69   0 
  -4  -2  -8  335.17    4.82   0 
  -4  -2  -7  286.29    4.45   0 
  -4  -2  -5    2.23    3.99   0 
  -4   0   2 3755.38   14.60   0 
  -3   0   2 2079.75   12.39   0 
  -3   9   5  370.70    7.21   0 
  -2  -2 -13  201.93    5.52   0 
  -2   6   5  552.01    8.10   0 
  -1   7   4  334.86    6.12   0 
   0  -2 -13  538.83    8.06   0 
   0   6   3  793.11    7.58   0 
   0   9   2  356.97    5.26   0 
   1  -2 -11  747.02   11.14   0 
   1  -2  -8 1337.60   13.94   0 
   1   8   1  210.33    4.39   0 
   2   4   0 1781.49    9.03   0 
   2   5   0  964.87    6.99   0 
   3   0 -15  185.82   10.41   0 
   4   1 -14  359.30    7.71   0 
   5   5 -10  187.28    4.07   0 
   5   6 -10  149.36    4.38   0 
  -8   1   0  295.53    5.31   0 
  -8   2   2   68.10    3.68   0 
  -7   5   6  263.63    7.19   0 
  -6  -1  -3 1215.09    7.42   0 
  -5  -1  -1 1059.40    7.00   0 
  -5   4   6  243.90    8.69   0 
  -4  -2 -10  128.31    4.01   0 
  -4  -2  -4   19.14    4.01   0 
  -4  -1   0  198.70    4.20   0 
  -3  -2  -3 1484.35    8.34   0 
  -2  -1   0  923.64    8.41   0 
  -2   1   3 3328.33   26.30   0 
  -1   2   3 1234.35   16.70   0 
  -1   9   3   32.95    4.39   0 
   0  -2  -5 2647.85   15.14   0 
   0   2   2 4139.33   21.25   0 
   2   1  -2   16.28    3.37   0 
   2   9  -2  636.20    6.75   0 
   3   0  -7 1271.62   11.73   0 
   4   1 -13  225.81    6.35   0 
   4   1 -10   61.78    4.32   0 
   4   2  -7  105.20    3.92   0 
   4   3  -6 1182.37    7.55   0 
   4   7  -6  203.54    4.38   0 
   5   4 -13   49.34    3.68   0 
   5   4 -12   61.44    3.81   0 
   5   5 -12   75.44    4.41   0 
  -8   3   4  341.42    6.19   0 
  -7   1   2  251.34    4.46   0 
  -6  -1  -2  770.01    6.19   0 
  -6   1   3  638.59    6.31   0 
  -5   0   2   55.42    3.32   0 
  -4   7   6  574.22   11.06   0 
  -2   9   4  309.64    6.06   0 
  -1  -2 -14   57.44    4.64   0 
  -1   5   4 4215.09   17.20   0 
  -1   6   4 1938.70   11.53   0 
   1   7   1  965.41    7.16   0 
   1   9   0  161.51    4.24   0 
   3   1  -5 2102.98   12.16   0 
   3   3  -3 3053.43   11.68   0 
   3   6  -3  408.33    5.47   0 
   3   8  -4  125.72    4.06   0 
   4   1 -12  268.56    6.57   0 
   4   1 -11  206.49    5.47   0 
   4   4  -6 1673.63    8.71   0 
   4   5  -6  219.03    4.06   0 
   4   6  -6    5.76    3.07   0 
  -8   2   3   28.83    4.23   0 
  -8   4   5   99.48    4.60   0 
  -7   0   0  750.24    6.19   0 
  -7   2   4  473.66    6.48   0 
  -6   4   6 1016.91   11.08   0 
  -5  -2  -7  443.78    5.25   0 
  -5  -2  -6 1481.38    8.06   0 
  -5  -2  -5    7.83    3.27   0 
  -4  -2  -3  572.57    5.57   0 
  -1  10   2  166.47    5.34   0 
   0  -2 -14   38.94    5.04   0 
   0   8   2  950.49    7.22   0 
   1  -2 -12  117.82    6.51   0 
   1   3   1 1285.62    9.23   0 
   4   3  -7  171.97    4.59   0 
   4   7  -7   39.54    3.47   0 
  -8   0  -2  101.48    3.72   0 
  -6  -1  -1  179.12    4.09   0 
  -6   0   2  344.52    5.41   0 
  -5  -2  -4   80.04    3.68   0 
  -4  -2  -2  383.76    5.70   0 
  -4   6   6  800.28   14.00   0 
  -3  -2  -2 1301.29    8.05   0 
  -3   8   5  909.50    9.57   0 
  -2  -2  -2 1654.56   10.16   0 
  -2   0   2 3085.28   18.30   0 
  -2  10   3  395.30    6.69   0 
   1  -2  -7  880.87   12.09   0 
   1   4   1 1248.78    8.81   0 
   1   6   1  295.75    4.65   0 
   1   8   0  122.96    4.60   0 
   2   3  -1 6670.64   18.00   0 
   2   6  -1  183.78    4.18   0 
   2   9  -3  344.25    5.56   0 
   3   7  -4  201.32    4.41   0 
   3   8  -5   45.80    4.45   0 
   4   5  -7  661.48    6.31   0 
   4   7  -8  259.13    4.60   0 
  -8   0  -1  346.26    5.01   0 
  -7   0   1  154.15    4.01   0 
  -7   4   6  818.10    9.59   0 
  -5  -2  -3  415.68    4.98   0 
  -5   1   4 3805.29   15.06   0 
  -5   2   5  408.88    6.77   0 
  -4  -1   1 3450.08   12.54   0 
  -4   1   4 4108.73   17.49   0 
  -1   8   3  285.42    5.10   0 
   0   7   2  357.38    5.71   0 
   1   5   1  349.91    4.86   0 
   1   9  -1  109.23    4.61   0 
   2   0  -4 1415.18   13.71   0 
   3   0  -8  860.85   10.22   0 
   3   6  -4  164.16    4.66   0 
   4   2  -9    9.83    3.21   0 
   4   3  -8  180.82    4.78   0 
  -8   1   2  230.90    4.49   0 
  -7  -1  -2   38.26    3.44   0 
  -6  -2  -6  164.75    4.02   0 
  -6  -2  -5  406.15    5.06   0 
  -6  -1   0  584.74    5.65   0 
  -6   1   4 1483.95    9.58   0 
  -5  -2  -2  639.21    5.75   0 
  -5   8   6  136.54    7.66   0 
  -4   0   3 2945.17   13.65   0 
  -3  -3  -8  152.14    4.73   0 
  -3  -3  -7  227.97    5.06   0 
  -2  -3  -9 1157.07    8.26   0 
  -2  -3  -8  555.78    6.02   0 
  -2  -3  -7  709.05    6.63   0 
  -2   8   4   46.22    4.44   0 
   0  -2  -4 2890.68   16.79   0 
   0   1   1 5973.67   34.36   0 
   1  -2 -13  520.57    9.76   0 
   2   7  -2   39.44    3.46   0 
   3   0 -14  558.56   12.32   0 
   3   3  -4 1389.42    8.25   0 
   3   5  -4  743.18    6.64   0 
   4   2 -15  186.30    5.69   0 
   4   2 -10  160.14    4.80   0 
   4   5  -8  301.34    4.94   0 
   4   7  -9  504.60    5.79   0 
  -8   0   0  345.51    5.19   0 
  -8   2   4 1321.45    9.33   0 
  -8   3   5  319.41    5.98   0 
  -7  -1  -1   30.82    3.42   0 
  -7   0   2  107.84    4.44   0 
  -6  -2  -4 1159.96    7.33   0 
  -4   2   5 2142.77   15.91   0 
  -4   9   5   41.33    5.13   0 
  -3  -3 -10  222.57    5.29   0 
  -3  -3  -9  227.31    4.67   0 
  -3  -3  -6   69.32    3.42   0 
  -3  -2  -1 1483.33    8.61   0 
  -2  -3 -11  130.55    5.08   0 
  -2  -3 -10  717.66    7.15   0 
  -2  -3  -6  856.32    6.91   0 
  -1  -3 -10 1450.59    9.95   0 
  -1  -3  -9 1936.45   11.28   0 
  -1  -3  -8  439.98    6.33   0 
  -1  -3  -7   35.57    4.39   0 
  -1   9   2    8.06    4.15   0 
   0   3   2  739.00    8.42   0 
   0   6   2  278.41    5.47   0 
   1   2   0  250.56    5.97   0 
   3   2  -5 5782.48   17.70   0 
   3   4  -4  667.20    6.01   0 
   3   7  -5  268.45    4.52   0 
   4   2 -14  103.58    4.92   0 
   4   2 -11  377.12    6.06   0 
   4   3  -9  323.45    5.47   0 
   4   6  -9  118.93    4.02   0 
   4   7 -10  229.63    4.73   0 
  -8   0   1   87.80    4.36   0 
  -7   2   5  200.98    5.38   0 
  -6  -2  -3  527.04    5.49   0 
  -6  -1   1  268.25    4.51   0 
  -6   3   6  495.51    8.07   0 
  -4  -3  -8  160.66    4.26   0 
  -4  -3  -7  156.83    4.13   0 
  -3  -3  -5  274.40    4.63   0 
  -3   7   5   33.53    4.86   0 
  -2  -3  -5  131.81    4.02   0 
  -1  -3 -11  229.18    5.59   0 
  -1   7   3 1723.96   10.17   0 
  -1  10   1  428.33    5.73   0 
   0   8   1  401.48    5.47   0 
   2   1  -3  287.32    5.97   0 
   2   6  -2   12.74    3.30   0 
   3   0  -9  782.99    9.95   0 
   3   6  -5  403.38    5.12   0 
   4   2 -13   17.55    4.03   0 
   4   2 -12  251.29    5.53   0 
   4   4  -9  491.86    5.61   0 
   4   5  -9   89.25    3.57   0 
   4   6 -10  435.38    5.86   0 
  -8   4   6   47.20    4.42   0 
  -7   1   4  208.98    4.61   0 
  -6  -2  -2  172.41    4.24   0 
  -4  -3  -5  539.17    5.68   0 
  -4  -3  -4   11.72    3.99   0 
  -4  -1   2  859.97    7.39   0 
  -3  -3  -4 1262.25    7.90   0 
  -3   0   3 3100.46   15.66   0 
  -3   9   4  114.39    4.81   0 
  -2  -3 -12  111.17    5.06   0 
  -2   7   4    8.59    4.08   0 
  -1  -3 -12  467.25    6.63   0 
  -1  -3  -6  966.85    8.13   0 
  -1  -2  -2 2704.86   13.79   0 
   0   5   2 2286.44   11.31   0 
   0   9   0   24.59    3.58   0 
   0  10  -1  188.46    4.46   0 
   1  -2 -14   14.63    6.31   0 
   2   7  -3   44.53    4.12   0 
   3   3  -5  553.66    6.23   0 
   3   5  -5  507.47    5.97   0 
   3   7  -6  210.55    4.23   0 
   3   8  -7   71.23    3.85   0 
   4   3 -10  708.63    6.75   0 
   4   5 -10    4.35    3.93   0 
   4   6 -11  166.88    4.90   0 
  -6  -2  -1  533.62    5.57   0 
  -5  -3  -6  392.02    5.22   0 
  -5  -3  -5   16.11    3.94   0 
  -5  -2   0  437.58    5.72   0 
  -5  -1   2 1927.67    9.43   0 
  -5   3   6   10.55    4.66   0 
  -4  -2   0  104.89    3.91   0 
  -3  -2   0   13.51    3.12   0 
  -3   1   4  453.87    7.97   0 
  -2  -3  -4  762.53    6.52   0 
  -2  10   2  617.55    6.90   0 
  -1   6   3 1770.55   11.00   0 
   0  -3  -9  809.77    8.94   0 
   1  -2  -6 1473.74   16.27   0 
   1   3   0 1314.85    9.49   0 
   1   5   0  940.03    7.44   0 
   2   8  -4   47.24    3.42   0 
   2   9  -5  206.05    4.38   0 
   3   0 -13  203.24    7.98   0 
   3   0 -10   16.64    5.04   0 
   3   1  -7  501.71    6.90   0 
   3   4  -5  324.45    4.89   0 
   3   8  -8   14.48    4.06   0 
   4   3 -14   93.74    4.68   0 
   4   3 -13   38.26    4.31   0 
   4   3 -12    2.79    4.20   0 
   4   3 -11  272.36    4.85   0 
   4   4 -11  290.00    5.35   0 
   4   5 -11  843.79    7.35   0 
   4   6 -12  240.01    4.74   0 
  -8   2   5 1422.91    9.93   0 
  -7  -2  -3  100.43    3.91   0 
  -7  -1   1  462.06    5.29   0 
  -7   0   3   44.31    3.34   0 
  -5  -3  -4  211.71    4.31   0 
  -4  -3  -3  187.59    4.27   0 
  -3  -3  -3 2065.82    9.62   0 
  -3  10   3  239.84    5.79   0 
  -1  -3 -13   72.34    4.79   0 
  -1  -3  -5  616.82    6.82   0 
  -1   8   2  525.38    6.05   0 
   0  -3 -11  605.96    8.39   0 
   0  -3 -10  489.14    7.15   0 
   0  -3  -8   70.21    4.68   0 
   0   7   1  696.11    6.61   0 
   1   4   0   71.92    3.83   0 
   1   7  -1 1079.10    7.36   0 
   2  -1  -7  594.23   15.80   0 
   3   0 -12  109.38    7.13   0 
   3   0 -11  154.42    6.76   0 
   3   2  -6  885.55    7.37   0 
   3   6  -6  453.99    5.23   0 
   3   7  -7  125.56    3.84   0 
   4   4 -14  190.17    5.49   0 
   4   4 -13  525.39    6.65   0 
   4   4 -12  237.17    5.34   0 
   4   5 -13  185.91    5.37   0 
   4   5 -12 1878.99    9.66   0 
  -8  -1   0  145.88    4.03   0 
  -8   1   4  193.52    4.33   0 
  -7  -2  -2  156.65    4.20   0 
  -6  -2   0  271.01    4.52   0 
  -6   1   5    8.72    4.01   0 
  -5  -3  -3  276.13    4.48   0 
  -5   0   4 4354.94   15.58   0 
  -5   1   5 4700.89   17.61   0 
  -4  -3  -2  646.71    6.39   0 
  -3   6   5  213.17    6.44   0 
  -2  -3  -3 2744.06   11.49   0 
  -2   6   4 1750.68   11.96   0 
  -1   3   3  266.16    6.67   0 
  -1   9   1  293.16    5.09   0 
   0  -3  -7 1806.94   12.22   0 
   0   8   0  188.21    5.06   0 
   0  10  -2  223.75    5.51   0 
   1   8  -2  758.98    6.44   0 
   1   9  -3  170.09    4.15   0 
   2   6  -3  378.99    4.94   0 
   2   9  -6  173.89    4.08   0 
   3   5  -6  190.69    4.24   0 
   3   8  -9    3.29    3.16   0 
  -8   0   3   80.41    4.53   0 
  -8   3   6  630.97    7.52   0 
  -7  -2  -1  101.98    3.96   0 
  -7  -1   2  201.55    4.27   0 
  -6  -3  -5  356.50    5.23   0 
  -6  -3  -4   10.10    3.45   0 
  -6   0   4  717.91    6.84   0 
  -5  -3  -2  244.25    4.93   0 
  -5  -2   1 2168.27    9.73   0 
  -5   7   6  392.68   10.49   0 
  -4  -2   1   14.18    3.12   0 
  -4   8   5  553.18    8.70   0 
  -3  -3  -2  841.81    6.72   0 
  -2   8   3  322.88    6.02   0 
  -1  -3  -4  747.18    7.59   0 
  -1   4   3  752.59    8.53   0 
   0  -3 -12  297.76    6.78   0 
   0   6   1  704.62    6.94   0 
   0   9  -1  385.34    5.29   0 
   1   0  -2 5959.91   37.20   0 
   2   5  -3 2295.72   10.03   0 
   2   7  -4  400.11    5.07   0 
   2   8  -5  184.57    4.28   0 
   3   3  -6 1853.82    9.47   0 
   3   4  -6  792.03    6.39   0 
   3   6  -7  345.98    4.85   0 
   3   7  -8  336.61    4.78   0 
  -8  -1   1  104.37    4.11   0 
  -7  -2   0  215.24    5.01   0 
  -7   0   4  494.38    6.25   0 
  -7   1   5   51.98    3.76   0 
  -7   5   7  183.01    8.34   0 
  -7   6   7   29.37    9.70   0 
  -6  -3  -3  117.13    3.73   0 
  -6  -2   1  379.62    5.50   0 
  -6  -1   3  227.34    4.88   0 
  -6   2   6   12.00    4.03   0 
  -5  -1   3 2737.16   11.16   0 
  -5   9   5    7.72    4.83   0 
  -3   8   4 1698.22   11.37   0 
  -2  -2   0  996.26    8.03   0 
  -1   7   2 1202.06    9.02   0 
   1  -2 -15   91.95    8.69   0 
   1   6  -1 2373.44   10.24   0 
   2   4  -3  187.97    4.80   0 
   3   1  -8  289.74    5.89   0 
   3   2  -7  118.09    4.80   0 
   3   5  -7  917.85    7.22   0 
  -8   5   7   27.69    6.03   0 
  -7   2   6  280.37    5.80   0 
  -6  -3  -2  260.60    4.53   0 
  -6   8   6   81.82    8.03   0 
  -5  -3  -1  446.53    5.25   0 
  -4  -4  -8    3.88    4.11   0 
  -4  -4  -7   88.98    4.66   0 
  -4  -3  -1  912.75    6.89   0 
  -4  -1   3  292.34    4.88   0 
  -3  -4  -9  500.84    6.56   0 
  -3  -4  -8  131.35    4.04   0 
  -3  -4  -7  136.63    4.12   0 
  -3  -4  -6  769.22    7.34   0 
  -3  -3  -1 1477.87    8.73   0 
  -3  -2   1    1.58    3.12   0 
  -3   5   5 1275.15   13.70   0 
  -2  -4  -8  902.33    7.92   0 
  -2   9   2  349.04    5.60   0 
  -2  10   1   28.12    3.63   0 
   0  -3 -13   86.50    5.78   0 
   0  -3  -6  959.84    9.29   0 
   0  10  -3   64.34    4.57   0 
   1   7  -2  636.32    6.16   0 
   1   8  -3  134.93    3.98   0 
   2   0  -5  853.84   10.82   0 
   2   3  -3 1427.24    8.98   0 
   2   7  -5   41.05    3.48   0 
   2   8  -6  398.18    5.01   0 
   3   4  -7  446.09    5.84   0 
   3   6  -8  361.09    4.89   0 
  -8  -1   2   80.59    3.92   0 
  -8   1   5  418.65    5.73   0 
  -7  -1   3  112.90    3.79   0 
  -7   4   7  412.17    8.82   0 
  -5  -2   2  957.49    7.02   0 
  -5   2   6  809.70    9.68   0 
  -4  -4  -6  129.94    4.11   0 
  -4  -4  -5  544.87    5.65   0 
  -4   1   5  709.37    8.65   0 
  -4   9   4   93.32    5.34   0 
  -3  -4 -10   94.67    3.88   0 
  -3  -4  -5  906.93    6.92   0 
  -2  -4 -10  223.07    5.65   0 
  -2  -4  -9 1256.39    8.96   0 
  -2  -4  -7  661.60    6.62   0 
  -2  -4  -6  983.45    7.90   0 
  -2   3   4   12.39    5.79   0 
  -1  10  -1   17.12    3.39   0 
   0   5   1  705.36    6.80   0 
   0   7   0 1026.66    7.30   0 
   0   9  -2  228.50    5.06   0 
   1   5  -1   28.37    3.23   0 
   2   1  -4 5314.58   20.44   0 
   3   1 -15  182.68    7.22   0 
   3   1  -9 1077.43    9.54   0 
   3   3  -7  361.52    4.99   0 
   3   5  -8  307.87    5.14   0 
   3   6  -9  532.34    6.14   0 
   3   7 -10    1.63    3.23   0 
  -8   0   4    5.27    3.29   0 
  -8   2   6  314.88    5.30   0 
  -5  -4  -6   12.72    3.52   0 
  -4  -4  -4  375.25    5.10   0 
  -3  -4  -4  198.55    4.59   0 
  -3   4   5 1967.04   21.17   0 
  -3  10   2 1121.94    9.19   0 
  -2  -4 -11  109.47    5.15   0 
  -2   4   4 2232.19   16.47   0 
  -2   7   3  146.25    4.88   0 
  -1  -3  -3 4637.79   16.51   0 
  -1   9   0  637.32    6.24   0 
   0  -1  -1 5713.31   34.10   0 
   0   2   1 2552.35   16.67   0 
   0   8  -1   24.32    3.40   0 
   1   4  -1 4014.87   14.28   0 
   1   9  -5  115.38    3.94   0 
   2   5  -4  614.00    5.87   0 
   2   8  -7  255.93    4.51   0 
   3   2  -8  560.59    6.87   0 
   3   7 -12   14.90    4.42   0 
   3   7 -11   38.65    3.69   0 
  -8  -1   3  131.56    4.95   0 
  -7   0   5  663.56    7.04   0 
  -6  -1   4  160.28    4.85   0 
  -6   0   5 3442.91   13.36   0 
  -5   0   5 3761.95   15.07   0 
  -4  -4  -3  277.90    4.62   0 
  -4  10   3   -1.10    4.50   0 
  -3  -1   3  274.13    5.91   0 
  -2  -4  -5  116.86    3.87   0 
  -2  -1   2   19.06    3.46   0 
  -1  -4 -10  304.79    6.16   0 
   0  -3 -14   20.07    5.40   0 
   0  -3  -5 1670.41   11.68   0 
   0   4   1 2434.24   12.62   0 
   0  10  -4    4.19    3.07   0 
   1   3  -1 1853.29   10.63   0 
   1   6  -2   55.06    3.46   0 
   1   8  -4  368.57    5.05   0 
   2   4  -4 2042.98   10.11   0 
   2   6  -5  604.24    5.71   0 
   2   7  -6   66.01    3.64   0 
   3   1 -14  367.87    7.56   0 
   3   3  -8  318.89    5.07   0 
   3   4  -8  426.68    5.22   0 
   3   5  -9  340.05    4.89   0 
  -7  -1   4  209.76    4.90   0 
  -7   1   6  306.78    5.82   0 
  -7   3   7  537.41    8.37   0 
  -6   1   6   24.54    4.18   0 
  -6   4   7 1448.14   16.92   0 
  -5  -4  -3   21.97    3.40   0 
  -4   7   5 1358.22   12.59   0 
  -3  -4  -3  377.73    5.31   0 
  -3   7   4 1095.07    9.61   0 
  -2  -4  -4   35.94    3.48   0 
  -2  -3  -1 1457.72    8.96   0 
  -2   8   2  118.91    4.88   0 
  -2  10   0   50.88    4.57   0 
  -1  -4  -7  771.32    7.02   0 
   0   3   1  390.15    6.19   0 
   0   6   0  718.59    6.50   0 
   1   7  -3   96.68    3.63   0 
   1   9  -6   79.30    4.37   0 
   2   2  -4 1860.84   11.03   0 
   2   3  -4  391.59    5.48   0 
   3   1 -13  109.50    5.58   0 
   3   1 -11   72.86    4.84   0 
   3   2 -16  107.66    5.14   0 
   3   2  -9  516.81    6.78   0 
   3   6 -12   60.08    4.43   0 
   3   6 -11  536.12    5.76   0 
  -8   0   5   50.55    4.37   0 
  -8   1   6  256.31    5.79   0 
  -8   3   7  384.47    6.87   0 
  -6  -3   1  706.67    6.05   0 
  -6  -2   3  830.93    6.40   0 
  -5  -4  -2  124.97    3.99   0 
  -4  -4  -2  392.01    4.95   0 
  -4  -3   1  154.34    4.12   0 
  -3  -2   2  149.05    4.18   0 
  -3   0   4 2951.89   16.01   0 
  -2  -2   1 1236.79    8.89   0 
  -1  -4 -12  123.16    5.12   0 
  -1  -4  -6  551.19    6.37   0 
  -1   7   1  403.11    6.14   0 
   0   7  -1  360.98    5.49   0 
   0   9  -3    6.40    3.32   0 
   1  -2  -5 1207.22   15.97   0 
   2   5  -5  958.43    7.04   0 
   2   7  -7   79.66    3.71   0 
   2   8  -9  173.19    4.17   0 
   3   1 -12  217.28    5.73   0 
   3   5 -10  116.39    3.95   0 
   3   6 -13  419.02    5.55   0 
  -8  -1   4   60.49    3.63   0 
  -6  -4  -2  120.24    3.93   0 
  -6   3   7   83.22    5.87   0 
  -5   1   6  663.31    8.06   0 
  -4  -1   4 1134.63    8.27   0 
  -3  -4  -2  845.81    6.58   0 
  -2  -4  -3 1405.56    8.34   0 
  -1  -4  -5  761.99    7.56   0 
  -1  -3  -2 2285.09   11.95   0 
  -1   5   2  363.00    6.09   0 
  -1   9  -1  410.26    5.20   0 
   0   8  -2   47.87    3.34   0 
   0  10  -5   32.23    3.42   0 
   1  -3 -10 1346.82   14.30   0 
   1   5  -2    3.62    3.20   0 
   1   8  -5  680.00    6.27   0 
   1   9  -7  464.58    6.07   0 
   2   6  -6  122.48    3.85   0 
   3   2 -15  334.85    6.69   0 
   3   2 -10 2123.72   11.83   0 
   3   3 -16  284.93    6.13   0 
   3   3 -10 1850.50   10.36   0 
   3   4 -10   62.45    3.61   0 
   3   5 -14  172.59    5.12   0 
   3   5 -13   35.88    4.13   0 
   3   5 -12  525.15    6.59   0 
   3   5 -11  211.97    4.44   0 
  -7  -3   1  141.89    4.09   0 
  -5  -4  -1  193.74    4.44   0 
  -5   8   5  348.04    7.96   0 
  -4  -4  -1  202.74    4.35   0 
  -4  -2   3  443.76    5.28   0 
  -4   0   5  263.67    5.86   0 
  -3  -3   1   10.24    3.85   0 
  -3  10   1  257.32    6.03   0 
   0  -3  -4 3442.86   16.47   0 
   0  -2  -2 4257.09   21.50   0 
   0   5   0 1195.45    8.72   0 
   1  -3 -11  569.17   10.37   0 
   1  -3  -9  246.07    7.38   0 
   1   7  -4  287.11    4.51   0 
   2   4  -5 1208.02    7.81   0 
   2   7  -8  176.74    4.29   0 
   2   8 -11  139.05    4.01   0 
   3   2 -14  144.48    5.01   0 
   3   2 -13  185.10    5.78   0 
   3   2 -12   40.77    4.14   0 
   3   2 -11  158.91    4.95   0 
   3   3 -11 1909.84   10.82   0 
   3   4 -15  131.20    5.05   0 
   3   4 -12 1452.19    9.35   0 
   3   4 -11 2934.85   12.07   0 
  -8  -2   3  119.15    4.24   0 
  -8   2   7  331.45    6.29   0 
  -7   0   6   28.36    4.26   0 
  -6  -3   2  597.42    5.80   0 
  -6  -1   5 2367.01   10.69   0 
  -5  -4   0  159.64    5.03   0 
  -5   6   6  936.61   15.03   0 
  -4  -5  -7   83.16    3.96   0 
  -4  -5  -5  297.83    5.45   0 
  -4   8   4  313.89    6.20   0 
  -3  -5  -7  594.43    6.19   0 
  -3  -4  -1  935.63    6.78   0 
  -3   2   5  754.97   16.83   0 
  -3   9   2 1024.47    8.38   0 
  -2  -3   0  208.67    4.48   0 
  -2  10  -1  195.54    5.21   0 
  -1  -2   0  253.78    5.56   0 
  -1  10  -3   21.56    3.49   0 
   0   9  -4  154.19    3.99   0 
   0  10  -6   34.07    3.35   0 
   1  -3 -12  377.89    9.99   0 
   1   8  -6  699.78    6.05   0 
   1   9  -8  494.86    5.52   0 
   2   0  -6  461.81    8.78   0 
   2   3  -5  691.07    7.07   0 
   2   5  -6 1208.21    7.47   0 
   3   3 -14  123.87    4.98   0 
   3   3 -13  586.62    6.98   0 
   3   3 -12  122.21    4.72   0 
   3   4 -13   62.93    3.78   0 
  -8  -1   5  107.32    4.78   0 
  -8   0   6  337.53    5.96   0 
  -7  -3   2  254.52    4.59   0 
  -7  -2   4   29.00    3.62   0 
  -6  -4   0  294.73    4.73   0 
  -6  -2   4   21.57    3.27   0 
  -6   0   6  206.06    4.73   0 
  -6   2   7   24.57    4.38   0 
  -5  -5  -4  417.75    6.02   0 
  -5  -2   4  112.06    3.87   0 
  -5  -1   5  443.89    5.80   0 
  -5   9   4   10.81    4.93   0 
  -4  -5  -4  475.09    5.48   0 
  -4  -4   0 1077.63    7.11   0 
  -4  -3   2  335.72    4.84   0 
  -4   9   3  637.40    7.66   0 
  -2  -5  -9  145.02    5.27   0 
  -2  -5  -8  597.17    7.12   0 
  -2  -5  -7  327.93    5.84   0 
  -2  -4  -2 1387.73    8.19   0 
  -1  -4  -4  763.87    7.16   0 
   0  -4 -11   47.62    5.03   0 
   0  -4 -10  208.10    5.93   0 
   0  -4  -9  156.47    5.21   0 
   0  -4  -8   45.85    4.33   0 
   0   6  -1 1544.28    9.02   0 
   0   8  -3  245.06    4.43   0 
   1  -3  -8   19.60    5.00   0 
   1   9  -9  132.52    4.77   0 
   2  -1 -14  386.88   12.80   0 
   2  -1  -8 1395.46   19.70   0 
   2   2  -5  309.92    5.43   0 
   2   7 -10  270.94    5.33   0 
  -7   1   7  176.72    5.19   0 
  -6  -3   3  369.07    5.71   0 
  -5  -5  -3    5.22    3.37   0 
  -4  -5  -3  131.98    3.97   0 
  -3  -5  -4   40.68    3.53   0 
  -3   6   4   29.01    5.08   0 
  -2  -5 -10   43.08    4.60   0 
  -2  -5  -6   50.00    3.76   0 
  -2   7   2  555.43    6.30   0 
  -2   9   0  102.60    3.98   0 
  -1   4   2 2841.60   15.01   0 
  -1  10  -4    0.56    4.02   0 
   0  -4  -7  695.76    7.95   0 
   1   1  -2 1057.78   11.22   0 
   1   3  -2 5898.41   18.14   0 
   1   5  -3 1526.23    8.46   0 
   1   7  -5  606.91    5.78   0 
   1   8  -7  457.65    5.34   0 
   2   4  -6  636.21    6.29   0 
   2   5  -7  793.76    6.90   0 
   2   7 -11  335.18    5.45   0 
  -8  -2   4  154.69    4.36   0 
  -7  -3   3   77.60    3.78   0 
  -5  -5  -2   51.44    3.53   0 
  -5  -4   1   19.88    3.48   0 
  -5  -3   3  157.99    4.13   0 
  -5   0   6  359.49    6.30   0 
  -4  -5  -2  193.46    5.04   0 
  -4   2   6 1270.78   14.84   0 
  -4   6   5  681.01   10.39   0 
  -3  -5  -3   82.95    3.63   0 
  -3  -4   0 1095.96    7.44   0 
  -3  -2   3   92.35    4.00   0 
  -2  -5  -5  370.90    5.37   0 
  -1  -4  -3 1975.51   10.60   0 
  -1  -3  -1 1348.76    9.42   0 
  -1   7   0  164.61    4.30   0 
  -1   8  -1 1072.56    7.51   0 
   0  -4 -12  181.36    6.47   0 
   0   4   0 1769.93   10.84   0 
   1  -3 -13   66.21    8.00   0 
   2   6  -9  302.56    4.53   0 
   2   7 -13  196.33    4.61   0 
   2   7 -12  101.01    3.95   0 
  -7  -1   6    4.92    4.17   0 
  -6   1   7  185.22    5.40   0 
  -4  -4   1  425.03    5.17   0 
  -3  -3   2  277.13    4.82   0 
  -2  -5  -4  288.77    5.40   0 
  -2  -2   2 2694.82   12.99   0 
  -2   5   3 2777.75   14.91   0 
   0  -4  -6  144.57    5.10   0 
   0  -3  -3 2578.53   14.81   0 
   0   8  -4  523.41    5.51   0 
   0   9  -6   18.92    3.20   0 
   1  -3  -7 1057.05   12.43   0 
   1   7  -6 1945.65    9.06   0 
   2   0 -16  249.19    9.01   0 
   2   3  -6  841.14    7.06   0 
   2   6 -10  319.56    5.26   0 
  -8  -1   6   93.03    4.70   0 
  -8   4   8   90.36    6.92   0 
  -6  -4   2  299.80    4.63   0 
  -6  -1   6 1800.73    9.80   0 
  -6   7   6  145.10    8.10   0 
  -5  -5  -1   71.31    3.69   0 
  -5  -4   2  113.94    3.91   0 
  -4  -5  -1  334.18    4.77   0 
  -4  -3   3  496.50    5.54   0 
  -3  -5  -2  760.24    6.26   0 
  -3   7   3 1229.17    9.63   0 
  -3   9   1   12.32    3.98   0 
  -2  -3   1 6778.56   18.30   0 
  -2  -1   3  284.27    6.10   0 
  -1  -5 -10   11.31    3.96   0 
  -1  -5  -9  124.44    5.12   0 
  -1  -5  -8   85.98    3.98   0 
  -1  -5  -7  203.92    5.36   0 
  -1   9  -3   34.65    3.42   0 
  -1  10  -5  455.74    5.58   0 
   0  -4 -13    3.23    4.72   0 
   0   5  -1  856.53    7.54   0 
   0   7  -3  561.23    6.33   0 
   1   4  -3 2603.91   11.27   0 
   1   6  -5  208.91    4.84   0 
   1   8  -9  266.13    5.18   0 
   2   1  -6  263.11    5.86   0 
   2   2  -6  967.82    8.81   0 
   2   4  -7 2189.39   10.07   0 
   2   5  -8    7.89    3.28   0 
   2   6 -11   81.97    4.35   0 
  -8  -2   5   84.88    3.97   0 
  -8   0   7  267.48    5.70   0 
  -8   3   8   22.15    4.43   0 
  -7  -3   4   40.65    3.67   0 
  -7   0   7   16.23    3.57   0 
  -6  -3   4  614.69    5.86   0 
  -5  -5   0  188.87    4.36   0 
  -5  -3   4  718.19    6.72   0 
  -4  10   1  161.96    5.36   0 
  -3   8   2   22.22    4.37   0 
  -2  -5  -3  187.98    4.17   0 
  -2   9  -1   63.66    3.73   0 
  -1  -5  -6  219.58    5.32   0 
  -1   3   2 1848.57   14.48   0 
  -1   8  -2  138.43    4.51   0 
   0   3   0   54.64    4.28   0 
   0   9  -7   34.79    3.42   0 
   1   5  -4  617.17    6.05   0 
   1   7  -7  348.86    4.79   0 
   1   8 -10  333.61    5.29   0 
   2   5  -9  117.86    3.66   0 
   2   6 -14   69.94    3.71   0 
   2   6 -13   89.53    3.75   0 
   2   6 -12  181.62    4.18   0 
  -8   2   8  271.94    6.27   0 
  -6  -5   0   60.92    3.64   0 
  -6   0   7  398.68    6.33   0 
  -5  -1   6 1113.34    8.66   0 
  -4  -6  -5  170.64    4.33   0 
  -4  -4   2   69.87    3.57   0 
  -3  -6  -7  355.32    6.25   0 
  -3  -5  -1  405.81    5.19   0 
  -3  10  -1  241.58    5.37   0 
  -2  -4   0 1790.53    9.26   0 
  -2   8   0  562.10    6.68   0 
  -2  10  -3  238.03    4.58   0 
  -1  -5  -5  447.83    6.33   0 
  -1  -4  -2  729.64    6.79   0 
  -1   5   1 1069.34    8.37   0 
  -1  10  -6  679.96    6.05   0 
   0  -4  -5  909.46    8.59   0 
   0   8  -5  278.10    4.52   0 
   1   8 -11   46.15    3.48   0 
   2  -1 -13  487.66   11.94   0 
   2   0  -7 1204.26   12.53   0 
   2   3  -7   34.97    3.30   0 
   2   4  -8 1349.39    8.23   0 
   2   5 -10  143.52    4.49   0 
  -7  -4   3  229.37    4.51   0 
  -7  -2   6 1540.47    9.47   0 
  -7   3   8  298.33    7.81   0 
  -6  -4   3  311.56    4.84   0 
  -5  -5   1  382.23    5.01   0 
  -5  -4   3  369.10    4.84   0 
  -5   7   5  651.02   10.03   0 
  -4   7   4 2701.81   15.02   0 
  -4   8   3 1830.02   12.19   0 
  -4   9   2  922.13    8.15   0 
  -3  -6  -6   19.19    3.43   0 
  -3  -6  -5  114.89    4.09   0 
  -2  -5  -2 1206.44    7.74   0 
  -2   7   1  397.83    5.98   0 
  -1  -3   0 1295.24    9.53   0 
  -1   6   0  959.84    7.36   0 
  -1   9  -4   41.47    3.47   0 
   1   6  -6   91.97    3.72   0 
   1   7  -8    9.72    3.21   0 
   1   8 -12   67.09    3.71   0 
   2   5 -11    2.43    3.88   0 
  -8   1   8  634.84    7.88   0 
  -8   5   8  273.84   12.64   0 
  -7  -3   5  140.99    4.20   0 
  -6  -2   6 1977.98   10.02   0 
  -6   8   5   10.45    4.88   0 
  -6   9   4  674.04    9.55   0 
  -5   1   7  499.36    7.91   0 
  -5   3   7  389.54   11.91   0 
  -5   9   3  110.28    4.94   0 
  -4  -6  -3   77.20    3.81   0 
  -4  -5   1 1127.32    7.66   0 
  -4  -3   4  170.88    4.11   0 
  -4  -2   5 1568.37    9.39   0 
  -4   0   6  358.45    6.36   0 
  -3  -5   0 1367.18    8.48   0 
  -3  -3   3 3000.45   11.81   0 
  -3   0   5  269.46    6.24   0 
  -3   5   4  758.72    9.59   0 
  -2  -6  -8   25.17    4.46   0 
  -2   9  -2  302.97    5.26   0 
  -1  -5  -4  336.84    5.65   0 
  -1  10  -7  400.71    5.28   0 
   0   9  -9   36.17    3.52   0 
   1  -3  -6  756.12   10.50   0 
   1   4  -4  724.50    6.84   0 
   1   5  -5 1114.18    7.50   0 
   1   7  -9  183.81    4.07   0 
   2   0 -15  165.91    7.34   0 
   2   1 -16    7.14    4.81   0 
   2   2  -7  408.73    5.59   0 
   2   4  -9   73.15    3.52   0 
   2   5 -13  205.22    4.50   0 
   2   5 -12  361.25    5.13   0 
  -7  -4   4  969.07    7.74   0 
  -7   1   8   63.49    4.48   0 
  -7   4   8   97.89    8.48   0 
  -6  -5   2   64.95    3.79   0 
  -5  -6  -1  114.24    4.51   0 
  -5  -3   5  314.37    5.27   0 
  -5   8   4   79.21    4.67   0 
  -4  10   0   20.08    4.41   0 
  -3  -6  -3   39.80    3.41   0 
  -3   9   0  277.86    4.95   0 
  -2  -6  -6  141.82    4.09   0 
  -2  -6  -5  654.95    6.74   0 
  -1   8  -3   42.18    3.53   0 
  -1   9  -5    6.45    3.25   0 
   0  -4  -4  272.95    5.84   0 
   0  -2  -1 2560.90   16.63   0 
   0   6  -3 1253.68    7.78   0 
   0   9 -10   86.51    3.65   0 
   1   7 -10  186.89    4.80   0 
   2  -1 -12   15.61    7.13   0 
   2   2 -16  122.72    5.76   0 
   2   3 -16  757.54    8.44   0 
   2   4 -15  110.18    4.89   0 
   2   4 -10  198.89    4.44   0 
  -5  -5   2   48.38    3.65   0 
  -5  -4   4  144.00    4.02   0 
  -5   0   7  724.62    7.93   0 
  -4  -6  -1  212.84    4.28   0 
  -3  10  -2  237.93    4.67   0 
  -2  -5  -1 1873.98    9.20   0 
  -2  -4   1  711.75    6.30   0 
  -2   4   3  264.91    6.21   0 
  -1  -5  -3  168.82    4.78   0 
  -1   2   2  625.22   11.39   0 
   0  -5  -9 2522.50   14.29   0 
   0  -3  -2  744.66    8.13   0 
   0   8  -7  321.96    4.75   0 
   1  -2  -4 1598.96   19.10   0 
   1   2  -3 1447.56   10.48   0 
   1   7 -12  534.37    6.11   0 
   1   7 -11  217.16    4.48   0 
   2  -1 -10   73.41    6.80   0 
   2   0  -8 2219.70   15.88   0 
   2   2  -8   54.65    4.14   0 
   2   3  -9 1970.26   10.66   0 
   2   4 -14  320.62    5.22   0 
   2   4 -12  398.10    6.04   0 
  -7  -3   6 1351.89    9.00   0 
  -7   0   8   13.63    4.41   0 
  -6  -5   3   14.75    4.20   0 
  -5  -6   0  152.16    4.15   0 
  -4  -5   2  167.48    4.32   0 
  -3  -5   1 1542.65    8.43   0 
  -3   8   1   71.68    3.93   0 
  -2  -6  -4  507.03    5.84   0 
  -2  10  -5  381.08    5.10   0 
  -1   4   1  564.43    7.52   0 
  -1   7  -2   50.23    3.51   0 
   0  -5 -10  598.95    7.86   0 
   0  -5  -8    6.18    4.18   0 
   0  -5  -7   10.93    3.84   0 
   0   8  -8  146.45    4.62   0 
   1   5  -6  153.74    3.99   0 
   1   6  -8  882.40    6.71   0 
   1   7 -13  304.46    5.18   0 
   2  -1 -11  397.03   10.41   0 
   2   0 -14  601.33    9.90   0 
   2   1  -8  845.52    9.03   0 
   2   2 -15  368.39    7.02   0 
   2   3 -15  702.10    7.15   0 
  -7  -4   5   76.60    3.99   0 
  -7  -2   7  987.57    7.49   0 
  -6  -3   6   37.26    3.49   0 
  -6   1   8   76.71    5.21   0 
  -5  -5   3   69.92    3.80   0 
  -5  10   1    5.91    3.69   0 
  -4  -6   0  198.24    4.41   0 
  -4  -1   6    9.43    3.46   0 
  -4   9   1   44.72    4.69   0 
  -3  -6  -1  708.40    6.16   0 
  -3  -1   5 2152.48   12.45   0 
  -3   6   3   64.95    4.71   0 
  -3   7   2    8.76    4.14   0 
  -2  -6  -3   45.35    3.86   0 
  -1  -6  -9  466.90    6.83   0 
  -1  -6  -8  180.24    5.35   0 
   0  -5 -11   32.05    5.08   0 
   1   0  -3  516.61   11.33   0 
   1   3  -4 3342.49   13.67   0 
   1   4  -5  820.42    6.74   0 
   1   6  -9  242.81    4.99   0 
   2   2  -9  788.35    8.01   0 
   2   3 -14   56.89    3.87   0 
   2   3 -11 1563.62    9.74   0 
   2   3 -10  688.58    6.72   0 
  -8  -1   8   13.37    4.31   0 
  -6  -2   7  231.42    4.87   0 
  -5  -6   1  454.50    5.62   0 
  -5  -1   7  238.74    5.40   0 
  -4  -4   4  113.73    4.00   0 
  -4  -3   5  807.70    6.62   0 
  -4   5   5  744.58   11.01   0 
  -4  10  -1   72.80    4.84   0 
  -3  -4   3 1306.14    7.91   0 
  -3  -3   4 1388.35    8.39   0 
  -3   9  -1  430.55    5.54   0 
  -3  10  -3  339.63    5.13   0 
  -2  -5   0  957.01    7.05   0 
  -2   5   2  442.18    6.80   0 
  -2   7   0  370.26    5.40   0 
  -2  10  -6   29.14    3.52   0 
  -1  -6  -6  272.81    5.46   0 
  -1  -5  -2 1171.18    7.82   0 
  -1  -1   2 1054.42   11.30   0 
  -1   5   0  684.12    6.86   0 
  -1   9  -7  388.31    4.96   0 
   0  -5  -6  459.97    6.53   0 
   0  -4  -3   20.54    3.20   0 
   0   6  -4  836.20    6.59   0 
   0   8  -9  195.89    4.32   0 
   1  -4 -10 1617.18   15.69   0 
   1  -4  -9 1200.92   13.02   0 
   1   5  -7   72.26    3.57   0 
   1   6 -10  192.13    4.63   0 
   2   1 -14  662.14    8.63   0 
   2   2 -14  198.52    5.40   0 
   2   3 -12  176.33    4.50   0 
  -6  -5   4   14.45    3.34   0 
  -5  -4   5  167.27    4.10   0 
  -5  -3   6  270.85    4.72   0 
  -4  -5   3  184.76    4.11   0 
  -4   8   2  303.99    5.95   0 
  -3  -7  -5  252.32    4.70   0 
  -3  -7  -4  427.70    6.35   0 
  -3  -6   0  548.27    5.68   0 
  -3  -5   2  630.13    5.77   0 
  -2  -6  -2  624.35    6.06   0 
  -2   6   1  402.70    5.79   0 
  -1  -6  -5   82.73    4.61   0 
  -1  -4   0   72.91    3.82   0 
  -1  -3   1 1845.06   10.57   0 
  -1   9  -8   23.48    3.36   0 
   0  -5 -12    5.85    4.96   0 
   0  -5  -5   82.48    4.78   0 
   0   5  -3 2490.18   10.84   0 
   0   8 -12   68.63    4.25   0 
   1  -3  -5 1966.92   15.98   0 
   1   6 -14  239.30    4.72   0 
   1   6 -12  354.21    5.52   0 
   1   6 -11  596.45    5.62   0 
   2   0 -13  500.56    8.60   0 
   2   0  -9 3977.20   20.35   0 
   2   1  -9 1092.71    9.56   0 
   2   2 -13  553.44    7.11   0 
   2   2 -12   10.24    3.81   0 
   2   2 -11 1624.53   10.44   0 
  -8   1   9  158.97    5.49   0 
  -8   2   9   21.59    5.02   0 
  -7  -4   6   78.13    4.62   0 
  -7  -3   7  423.03    5.35   0 
  -5  -6   2  133.37    3.95   0 
  -5  -5   4   28.83    3.31   0 
  -5   5   6 1704.66   19.75   0 
  -3  -7  -3   85.77    3.84   0 
  -3  -2   5 5883.84   18.15   0 
  -3  10  -4   79.22    4.59   0 
  -2  -4   2 1320.64    8.34   0 
  -2  -3   3 1387.67    8.84   0 
  -2   1   4 1234.78   20.35   0 
  -2   8  -2  148.14    4.21   0 
  -1  -6  -4  176.61    4.94   0 
  -1   7  -3 1035.75    7.08   0 
  -1   9  -9  107.00    3.95   0 
   0   6  -5 1734.28    9.23   0 
   0   7  -7  852.09    6.34   0 
   1  -4 -11  229.21    7.86   0 
   1  -4  -8   43.41    4.93   0 
   1   4  -6  888.66    6.95   0 
   1   5  -8  829.00    6.58   0 
   2   0 -12  763.09    9.74   0 
   2   0 -10  488.23    8.25   0 
   2   1 -13  225.32    5.78   0 
   2   1 -12  872.91    9.11   0 
   2   1 -10 1610.56   11.32   0 
  -8   0   9   96.68    5.00   0 
  -8   3   9  127.03    7.17   0 
  -6  -4   6    1.26    3.46   0 
  -6  -3   7  380.21    5.69   0 
  -6  -1   8  284.58    5.71   0 
  -6   3   8  467.94   11.45   0 
  -5  -2   7  262.02    4.98   0 
  -5  10   0   39.83    4.49   0 
  -4  -6   2  651.21    6.01   0 
  -4   6   4 1854.15   13.27   0 
  -4   7   3  521.97    6.99   0 
  -4  10  -2  156.20    4.79   0 
  -3   8   0  319.50    5.16   0 
  -3   9  -2  433.54    5.78   0 
  -2  -7  -6  258.80    4.98   0 
  -2  -7  -5   79.69    4.44   0 
  -2  -5   1 1787.62    8.95   0 
  -2  -1   4 5187.12   20.87   0 
  -1  -5  -1  350.63    4.84   0 
  -1   8  -6   65.81    4.17   0 
  -1   9 -10  206.31    4.30   0 
   0  -3  -1  383.92    6.58   0 
   0   7  -8  296.51    4.61   0 
   1  -4  -7  728.48    9.53   0 
   1   2  -4  789.87    8.23   0 
   1   3  -5  275.87    5.40   0 
   1   5 -15   17.44    4.18   0 
   1   5  -9 1075.59    7.71   0 
   2   0 -11  339.89    7.19   0 
   2   1 -11  101.08    4.77   0 
  -7   7   6  120.68    7.60   0 
  -7   8   5  140.61    6.63   0 
  -5   8   3  140.88    5.04   0 
  -4  -7   0   70.25    4.46   0 
  -4  -5   4  746.58    6.09   0 
  -4  -4   5  212.12    4.37   0 
  -4   9   0  280.04    5.21   0 
  -3  -6   1   37.21    3.33   0 
  -3  10  -5   82.70    4.44   0 
  -2  -7  -4  163.41    4.80   0 
  -2   7  -1  980.35    7.50   0 
  -1   6  -2  518.84    5.47   0 
   0  -5  -4  212.78    4.78   0 
   0  -4  -2 1256.56    9.37   0 
   0   7  -9  251.78    4.35   0 
   1  -4 -12  259.28    9.70   0 
   1   5 -10  641.41    6.27   0 
  -7   1   9  121.29    4.98   0 
  -6  -2   8  244.85    5.35   0 
  -5  -5   5   60.27    3.53   0 
  -4  -3   6 1256.84    7.92   0 
  -3  -7  -1  149.21    3.95   0 
  -3  -5   3  368.81    5.02   0 
  -3   7   1  256.56    5.38   0 
  -2  -7  -3  141.61    4.64   0 
  -2  -6   0   16.95    3.50   0 
  -2   8  -3  186.82    4.25   0 
  -2   9  -6 1300.39    8.08   0 
  -1   8  -7  166.60    4.15   0 
   0   7 -10  256.67    4.40   0 
   1   4 -16   61.02    4.70   0 
   1   4  -7  773.18    6.40   0 
   1   5 -13    5.56    3.29   0 
   1   5 -12  281.95    4.59   0 
  -7  -4   7  150.11    4.38   0 
  -7  -3   8  109.01    4.65   0 
  -7   2   9  170.70    6.46   0 
  -5  -3   7  162.62    4.26   0 
  -5   6   5  577.46    9.50   0 
  -5   7   4 1169.76   10.41   0 
  -4  -7   1  173.58    4.15   0 
  -4  -6   3  705.71    6.23   0 
  -4  10  -3  575.58    6.50   0 
  -3  -6   2    3.35    3.27   0 
  -3  -3   5  587.80    5.98   0 
  -3   9  -3  238.93    5.05   0 
  -3  10  -6   69.51    3.68   0 
  -2  -5   2   76.27    4.43   0 
  -2  -4   3  188.85    4.23   0 
  -2  -2   4 2077.01   11.60   0 
  -1  -6  -2  201.73    5.10   0 
  -1   3   1 2552.82   15.61   0 
  -1   8  -8  279.02    5.01   0 
   0  -6  -8  958.34    8.85   0 
   0   7 -13  209.45    4.53   0 
   0   7 -11   87.40    3.53   0 
   1  -4  -6  769.89    9.40   0 
   1   4  -8   86.35    4.03   0 
  -6  -5   6   63.68    3.79   0 
  -6  -4   7  233.53    4.65   0 
  -6   7   5  254.77    7.14   0 
  -5   9   1   50.36    3.56   0 
  -5  10  -1   10.23    3.48   0 
  -4   0   7  267.08    5.90   0 
  -4   8   1   37.27    4.30   0 
  -4   9  -1  284.44    5.47   0 
  -3  -7   0   17.91    3.29   0 
  -3   4   4 2271.97   17.18   0 
  -3   6   2 1851.92   11.34   0 
  -3   8  -1  139.11    4.32   0 
  -2  -7  -2   12.18    3.20   0 
  -2   3   3   33.97    4.69   0 
  -1  -7  -8  692.20    7.87   0 
  -1  -7  -6   67.76    4.36   0 
  -1  -5   0  938.74    7.00   0 
  -1   4   0 1127.21    9.27   0 
  -1   8  -9  563.12    6.06   0 
   0  -6 -10  181.52    6.17   0 
   0  -6  -9  793.25    8.74   0 
   0  -6  -7   29.20    4.05   0 
   0  -5  -3  768.78    7.20   0 
   0   4  -3 1372.30    8.74   0 
   1   3  -6 1623.05    9.49   0 
  -6  -3   8  217.61    4.53   0 
  -5  -5   6  405.00    5.75   0 
  -5  -1   8  181.56    4.63   0 
  -5   1   8  959.54   10.55   0 
  -4  -5   5  397.77    5.03   0 
  -4  -4   6 1684.38    8.80   0 
  -3   5   3   66.28    5.01   0 
  -2  -7  -1    8.15    3.73   0 
  -2  -6   1  189.24    4.19   0 
  -2  -3   4  396.67    5.90   0 
  -2   7  -2  133.68    4.44   0 
  -2   9  -8   51.41    3.72   0 
  -1  -7  -5  204.74    4.59   0 
  -1   8 -12   65.78    4.16   0 
   0   3  -2 4879.09   17.56   0 
   0   5  -5 1146.41    7.50   0 
   0   6  -8  580.29    5.65   0 
   1  -3  -4   13.34    4.39   0 
   1   1  -4  364.94    6.99   0 
   1   2  -5 1394.58   10.18   0 
   1   3 -16  132.33    5.19   0 
   1   4 -14   37.36    3.52   0 
   1   4  -9  275.04    4.49   0 
  -5  -6   5  284.55    4.75   0 
  -5  -4   7  288.78    4.75   0 
  -4  -6   4  701.75    6.11   0 
  -3  -8  -2   12.21    3.39   0 
  -3  -7   1  129.94    3.99   0 
  -3  -4   5  347.20    4.93   0 
  -3  -1   6  212.32    5.51   0 
  -2   9  -9  167.07    4.08   0 
  -1  -7  -4  124.89    4.01   0 
  -1  -6  -1  308.33    4.78   0 
  -1   7  -6  394.44    4.83   0 
   0  -6 -11  234.10    6.98   0 
   0  -4  -1 2373.47   12.21   0 
   0   6  -9  808.36    6.25   0 
   1   3  -7 3821.12   14.19   0 
   1   4 -12  106.37    3.93   0 
   1   4 -11  197.92    4.29   0 
   1   4 -10  841.57    6.91   0 
  -8   1  10   11.91    4.99   0 
  -6  -5   7   45.74    3.75   0 
  -6  -1   9  125.74    4.99   0 
  -4  -7   3  245.67    4.61   0 
  -4   7   2  150.62    5.08   0 
  -3  -8  -1    5.14    4.22   0 
  -3   0   6   61.71    4.68   0 
  -3   7   0  357.44    5.59   0 
  -2   4   2 3361.32   16.67   0 
  -2   9 -10   96.08    3.64   0 
  -1  -5   1   25.79    3.20   0 
   0  -6  -4 1001.23    8.24   0 
   0  -5  -2 2302.96   11.28   0 
   0   5  -6   41.35    3.88   0 
   0   6 -13  199.77    4.35   0 
   0   6 -11  226.44    4.32   0 
   0   6 -10  140.08    3.88   0 
   1  -4  -5 1020.88   10.16   0 
  -7   3   9  135.38    8.90   0 
  -6  -4   8   80.84    3.79   0 
  -6  -2   9  142.69    4.98   0 
  -5  -7   4  339.79    5.20   0 
  -4  -5   6  223.77    4.75   0 
  -4  -3   7  174.90    4.03   0 
  -3  -7   2    0.51    3.32   0 
  -2  -8  -3   40.98    3.63   0 
  -2  -6   2   15.68    3.36   0 
  -2  -4   4 2056.40    9.86   0 
  -1   7  -7   39.14    3.25   0 
   0  -3   0   55.35    4.14   0 
   0   4  -4 1279.14    8.28   0 
   1  -5  -9 2437.12   16.66   0 
   1  -5  -8  530.83    8.29   0 
   1   1 -16   76.84    5.38   0 
   1   3 -14  551.53    6.96   0 
   1   3  -8 1379.84    8.93   0 
  -5  -6   6  105.13    3.87   0 
  -5  -5   7  688.21    6.07   0 
  -5  10  -3  182.22    4.44   0 
  -4  -6   5  166.20    4.03   0 
  -3  -8   0   78.13    3.76   0 
  -3  -6   4  181.31    4.07   0 
  -3  -3   6 1965.71    9.79   0 
  -2  -8  -2   12.13    4.18   0 
  -2   7  -3  496.35    5.51   0 
  -2   8  -6 1018.55    6.79   0 
  -1  -7  -2  118.21    3.93   0 
  -1   7  -8  120.91    3.74   0 
   0  -6  -3  820.51    7.60   0 
   0   5 -15  394.33    6.01   0 
   0   5  -7   91.55    3.61   0 
   1  -5 -10  482.83    9.33   0 
   1  -5  -7   96.51    5.07   0 
   1   0 -16   63.53    5.58   0 
   1   2 -15 2032.82   11.89   0 
   1   2  -6 1008.12    8.77   0 
   1   3 -13  214.64    5.00   0 
  -8   2  10  195.49    7.26   0 
  -7  -1  10  194.66    5.34   0 
  -7   0  10  100.77    4.85   0 
  -6  -3   9   42.03    3.44   0 
  -6   9   1   17.50    4.48   0 
  -5  -7   5  166.04    4.23   0 
  -5  -4   8  200.52    4.79   0 
  -4  -7   4    2.40    3.22   0 
  -4  -4   7  762.53    6.35   0 
  -4   6   3    8.63    4.01   0 
  -3  -8   1  211.89    4.97   0 
  -3  -7   3    0.25    3.31   0 
  -3   8  -3  612.08    6.19   0 
  -2  -7   1 2419.07   10.16   0 
  -1  -2   3 1582.88   11.30   0 
  -1   6  -5  666.62    6.36   0 
  -1   7 -13  257.33    4.66   0 
  -1   7 -12  307.89    5.27   0 
  -1   7 -10  444.37    5.00   0 
   0  -5  -1  682.88    6.95   0 
   1   3 -12   32.41    3.54   0 
   1   3 -11  543.06    6.45   0 
   1   3 -10   17.68    3.94   0 
  -5   2   8  953.62   14.78   0 
  -5   7   3 1071.03    9.32   0 
  -3   6   1 1343.22    9.45   0 
  -3   9  -7  517.59    5.36   0 
  -2  -8  -1  352.89    5.04   0 
  -2  -5   4  601.98    5.83   0 
  -2  -2   5  305.44    5.40   0 
  -2   7  -4  528.29    5.50   0 
  -2   8  -8    5.82    3.13   0 
  -1  -8  -6   77.94    4.00   0 
  -1  -8  -5  152.24    5.30   0 
  -1  -7  -1  974.45    7.05   0 
  -1  -6   1 2222.74   10.30   0 
  -1  -5   2    6.41    3.14   0 
  -1  -3   3  516.90    6.48   0 
  -1   4  -1 4655.26   16.61   0 
   0  -7  -9   58.40    5.10   0 
   0  -7  -8 1517.28   11.00   0 
   0  -7  -7  571.69    7.47   0 
   0  -7  -6  100.91    4.60   0 
   0   3  -3  816.45    7.47   0 
   0   5 -13   74.97    4.34   0 
   0   5  -8  950.10    6.62   0 
   1  -5 -11  386.27    9.86   0 
   1  -5  -6  486.96    7.23   0 
   1  -4  -4  597.28    7.84   0 
   1  -2 -15   97.67    8.02   0 
   1  -2  -3 1214.82   16.40   0 
   1   1 -15  167.07    5.90   0 
   1   1  -5  798.72    9.09   0 
   1   2 -14  137.90    4.95   0 
  -7   1  10  128.06    6.15   0 
  -5  -6   7  140.64    4.05   0 
  -5   8   1  342.34    5.84   0 
  -4  -6   6   10.17    3.29   0 
  -4   8  -1 1094.29    8.20   0 
  -3  -8   2  111.25    3.87   0 
  -3  -6   5  413.07    5.65   0 
  -3   9  -9  154.67    4.01   0 
  -2  -3   5  650.01    6.44   0 
  -2  -1   5 4997.68   20.25   0 
  -2   5   0  483.45    6.37   0 
  -2   8 -11    9.84    3.30   0 
  -2   8 -10  168.87    4.09   0 
  -2   8  -9  424.99    4.97   0 
  -1  -8  -4  116.64    4.10   0 
  -1   6  -6 1175.05    7.68   0 
   0  -7  -5  335.85    5.88   0 
   0   5 -12  109.24    3.76   0 
   0   5 -11  938.59    6.68   0 
   0   5 -10  797.42    6.17   0 
   0   5  -9  685.75    5.92   0 
   1   0  -4 1742.81   17.39   0 
   1   2  -7  512.42    6.28   0 
  -6   2   9  259.36    8.58   0 
  -5  -5   8  146.26    4.17   0 
  -5  -2   9   48.76    3.88   0 
  -5  -1   9  581.79    7.12   0 
  -4  -5   7  677.93    5.82   0 
  -4  -3   8  178.79    4.68   0 
  -4  -1   8  906.21    8.55   0 
  -4   5   4   86.06    5.22   0 
  -3  -7   4  196.89    4.29   0 
  -3  -5   6  194.33    4.39   0 
  -3   8  -4  622.22    5.74   0 
  -2   6  -2  668.49    5.99   0 
  -2   7  -5  116.77    4.37   0 
  -1  -8  -3  364.63    5.21   0 
  -1  -4   3 2595.95   11.17   0 
   0  -7  -4  387.35    5.96   0 
   0   4 -15  283.48    5.63   0 
   1  -5  -5 1169.39    9.83   0 
   1  -3  -3  270.79    6.46   0 
   1   0 -15    8.46    4.86   0 
   1   2 -13  152.98    4.68   0 
  -7   7   5  256.14    7.08   0 
  -6  -2  10  128.34    5.15   0 
  -6   7   4    3.96    3.83   0 
  -5  -3   9   94.17    4.00   0 
  -3  -8   3    4.95    4.01   0 
  -3   8  -5  490.66    5.70   0 
  -2  -8   1  376.79    5.13   0 
  -2  -6   4  366.62    5.42   0 
  -2  -4   5 1200.71    7.74   0 
  -1  -8  -2  413.55    5.45   0 
  -1   3   0 2427.90   13.97   0 
   0  -5   0 1162.31    8.19   0 
   0   2  -2 5917.40   22.38   0 
   0   4  -6  251.10    4.48   0 
   1  -3 -14   39.77    8.92   0 
   1  -1 -15   60.41    5.98   0 
   1   1 -14  538.69    7.14   0 
   1   2 -12  262.77    5.66   0 
   1   2  -8 3810.77   14.65   0 
  -6  -3  10   73.66    4.56   0 
  -6   8   2   86.36    4.63   0 
  -5  -4   9  241.88    4.99   0 
  -4  -6   7  268.83    5.15   0 
  -4  -4   8  269.61    4.69   0 
  -4   4   5  119.36    6.86   0 
  -4   9  -6   32.09    3.21   0 
  -3  -3   7  304.02    4.79   0 
  -3   5   2   74.20    4.75   0 
  -2  -7   3   44.45    3.26   0 
  -2   7  -6  183.47    3.91   0 
  -1  -8  -1  211.31    4.82   0 
  -1  -6   2   58.31    3.45   0 
  -1   5  -4 1436.81    8.23   0 
  -1   6 -12  189.96    4.66   0 
   0  -7  -3  902.57    7.26   0 
   0  -3   1   81.79    3.96   0 
   0   3 -16   19.54    3.61   0 
   1  -5 -12   66.79    8.16   0 
   1  -5  -4 4148.07   16.80   0 
   1  -4  -3  750.91    8.24   0 
   1   2 -11  145.28    4.17   0 
   1   2 -10  488.08    6.54   0 
   1   2  -9 1617.13    9.92   0 
  -8   5   8  271.58   12.17   0 
  -6   0  10  278.98    6.60   0 
  -5   8   0  504.58    6.42   0 
  -4   0   8  387.30    6.88   0 
  -4   9  -7    8.18    3.13   0 
  -3  -6   6  458.18    5.08   0 
  -3  -4   7  429.52    5.16   0 
  -3  -1   7  521.13    7.02   0 
  -3   6   0  437.14    6.15   0 
  -2  -8   2  796.49    6.29   0 
  -2  -5   5  997.18    7.05   0 
  -2   7 -13   25.40    4.09   0 
  -2   7  -7  183.94    4.00   0 
  -1   4  -2 5092.87   16.89   0 
  -1   6 -11  168.61    3.93   0 
  -1   6 -10  320.18    4.60   0 
  -1   6  -9   22.25    3.20   0 
   0  -7  -2  343.90    5.59   0 
   0  -4   1  108.36    4.79   0 
   0   3  -4  645.99    6.53   0 
   0   4 -13   35.12    3.38   0 
   0   4  -7  788.70    6.35   0 
   1  -6  -9  628.42    9.41   0 
   1  -6  -8 1039.45   10.44   0 
   1   1 -13  565.27    7.26   0 
   1   1  -6 1358.90   10.96   0 
  -6  -4  10  132.76    4.26   0 
  -5   7   2   19.38    4.05   0 
  -4   7   0  449.91    6.02   0 
  -4   9  -8  147.15    3.90   0 
  -3   8  -7  198.63    4.01   0 
  -2  -9   0   22.76    3.64   0 
  -2   0   5  827.64   10.98   0 
  -2   7 -12    6.29    3.18   0 
  -2   7 -11  343.12    5.15   0 
  -2   7  -8 1647.23    8.21   0 
  -1   2   1 1605.66   15.44   0 
   0  -8  -7  555.27    7.20   0 
   0  -8  -6   50.63    4.40   0 
   0  -6   0  702.59    6.75   0 
   0   3 -15    9.90    4.31   0 
   0   4 -12   72.72    3.88   0 
   0   4 -11  982.12    7.39   0 
   0   4 -10 1094.95    7.60   0 
   0   4  -9  519.13    5.80   0 
   0   4  -8 1115.01    7.22   0 
   1  -6  -6  472.64    6.77   0 
   1   0 -14 1133.33   10.31   0 
  -7   2  10  330.20    9.39   0 
  -7   6   6   17.21    5.60   0 
  -6   6   5  428.86    7.85   0 
  -5   9  -4   47.19    3.44   0 
  -4   8  -3   24.09    3.31   0 
  -3   8 -11  244.86    4.31   0 
  -3   8 -10  109.28    3.84   0 
  -3   8  -9  497.28    5.31   0 
  -3   8  -8  126.51    3.69   0 
  -2  -8   3   21.94    4.14   0 
  -2  -7   4  414.53    5.01   0 
  -2  -6   5  582.42    5.53   0 
  -1  -9  -3  271.48    5.18   0 
  -1  -6   3  468.43    5.38   0 
  -1  -3   4 3238.44   13.77   0 
  -1   5  -5 1310.92    7.80   0 
   0  -8  -5  172.05    4.69   0 
   0  -8  -4  209.05    5.28   0 
   0  -7  -1  691.78    6.85   0 
   0  -5   1  865.74    6.99   0 
   0   2 -16    6.75    4.17   0 
   1  -6 -10  183.65    7.14   0 
   1  -6  -5  688.82    7.54   0 
   1  -5  -3  703.78    7.69   0 
   1   1 -12  319.91    5.86   0 
  -6   8   1  208.40    5.38   0 
  -5  -6   9  141.30    4.67   0 
  -5   5   5 1361.78   13.03   0 
  -5   8  -1  446.21    5.84   0 
  -5   9  -5   64.10    4.34   0 
  -4   2   7 1046.58   21.72   0 
  -3  -8   5   41.38    3.48   0 
  -3  -7   6  205.46    4.12   0 
  -2  -3   6  836.98    6.99   0 
  -1  -8   1  291.24    5.23   0 
  -1  -4   4  751.26    6.47   0 
  -1   5  -6  404.97    5.41   0 
   0  -8  -3  580.22    6.68   0 
   0   3 -14    8.32    3.41   0 
   1  -2 -14   14.62    6.04   0 
   1  -1 -14  183.05    6.40   0 
   1   1 -11  276.80    5.77   0 
   1   1  -7 1524.30   10.81   0 
  -6   7   3   10.87    3.89   0 
  -5  -3  10    5.96    3.28   0 
  -5  -2  10   88.22    4.58   0 
  -4  -3   9  338.35    5.08   0 
  -4  -2   9    7.10    3.97   0 
  -4   8  -4   83.64    3.66   0 
  -2  -5   6 1193.19    7.34   0 
  -2   6 -14   56.87    3.62   0 
  -1  -9  -1   76.10    3.59   0 
  -1  -5   4  636.48    6.02   0 
  -1   5 -13   52.15    3.59   0 
   1  -4  -2 2771.04   14.34   0 
   1  -3  -2 1858.20   13.93   0 
   1   0 -13  430.08    6.95   0 
   1   1 -10 5845.04   19.31   0 
   1   1  -8  470.28    6.69   0 
  -7   8   2   18.82    4.20   0 
  -6  -3  11 1108.08    8.16   0 
  -5   1   9 1283.62   13.16   0 
  -5   9  -7   20.65    3.03   0 
  -4  -5   9   91.53    4.25   0 
  -4   7  -1  579.06    5.89   0 
  -3  -4   8  451.61    5.68   0 
  -3  -3   8  332.36    5.64   0 
  -3   0   7 1306.32   11.94   0 
  -3   6  -1 1174.95    7.79   0 
  -2  -8   4   49.54    3.52   0 
  -2  -7   5   43.08    3.45   0 
  -2   6 -13  168.65    4.71   0 
  -2   6  -5  365.23    4.71   0 
  -1   4  -3 1441.03    8.85   0 
  -1   5 -11  338.16    4.65   0 
  -1   5  -8 2334.14   10.18   0 
  -1   5  -7 1608.77    8.25   0 
   0  -8  -2  961.35    7.26   0 
   0  -7   0 1019.82    7.03   0 
   0  -6   1 1553.36    8.54   0 
   0   2 -15  237.40    4.86   0 
   0   2  -3  951.25    8.88   0 
   0   3  -6  387.20    5.33   0 
   1  -6 -11  216.21    8.53   0 
   1   0  -5 1794.92   15.99   0 
   1   1  -9 2562.25   13.11   0 
  -7   7   4  110.22    5.00   0 
  -6  -4  11   14.82    3.60   0 
  -5  -1  10 2015.30   11.87   0 
  -5   7   1  403.97    6.15   0 
  -3  -8   6   89.84    3.66   0 
  -3  -7   7  128.69    3.83   0 
  -3  -5   8  304.86    4.52   0 
  -3   5   1 1413.49    9.54   0 
  -3   7  -5  687.77    5.99   0 
  -2  -9   3  362.73    5.12   0 
  -2   6 -12  701.15    6.70   0 
  -2   6  -6   69.62    3.38   0 
  -1  -9   0  164.46    4.10   0 
  -1   0   3  522.07   11.21   0 
  -1   3  -1 3576.18   15.79   0 
  -1   5  -9  973.61    6.73   0 
   0  -8  -1  395.44    5.96   0 
   0  -5   2  959.41    7.64   0 
   0  -4   2 1526.82    9.28   0 
   0  -3   2 4861.37   17.63   0 
   0   3 -12  120.65    4.11   0 
   1  -7  -8  403.98    7.48   0 
   1  -7  -7  281.70    5.85   0 
   1  -6  -3 1672.45   10.08   0 
   1   0 -12 1246.31   10.57   0 
  -6  -1  11   74.72    4.39   0 
  -6   5   6  538.40    9.62   0 
  -5  -6  10  155.22    4.14   0 
  -5   6   3  315.73    5.74   0 
  -4  -6   9  116.67    3.89   0 
  -4  -1   9  208.89    5.46   0 
  -4   5   3   85.12    4.62   0 
  -4   6   1  807.08    7.75   0 
  -4   8 -10  187.60    4.04   0 
  -3  -2   8  584.37    6.65   0 
  -3   7 -11    2.55    3.90   0 
  -2   6 -11   94.78    3.53   0 
  -2   6  -7   21.02    3.13   0 
  -1  -9   1  106.90    3.93   0 
  -1   4 -14  146.68    4.12   0 
   0  -9  -4   65.20    4.35   0 
   0  -7   1  354.59    5.33   0 
   0   2 -14  435.77    6.24   0 
   0   3 -11   17.07    3.27   0 
   0   3  -8  343.90    5.25   0 
   1  -7  -9   24.58    4.89   0 
  -7   5   7  182.91    7.94   0 
  -5   8  -3  131.94    3.93   0 
  -3   6  -2  378.30    4.99   0 
  -3   7 -10  143.89    3.69   0 
  -3   7  -9  360.28    4.70   0 
  -2  -9   4   47.11    3.45   0 
  -2  -8   5  193.90    4.17   0 
  -2  -4   7 2177.74   10.24   0 
  -2  -1   6  261.27    5.28   0 
  -2   4   0  149.70    4.44   0 
  -2   6 -10  458.22    4.97   0 
  -2   6  -9  515.93    5.17   0 
  -2   6  -8  901.24    6.32   0 
  -1  -5   5 1116.88    7.75   0 
  -1  -4   5  822.55    6.68   0 
   0  -8   0  187.26    4.29   0 
   0   3  -9  915.26    6.84   0 
   1  -7  -4  331.47    5.32   0 
   1  -6  -2  388.51    6.01   0 
  -7  -1  12   73.84    5.17   0 
  -7   8   1  206.78    5.42   0 
  -5  -4  11    1.77    3.75   0 
  -5   4   6  248.76    8.30   0 
  -5   8  -4    8.54    3.66   0 
  -4  -4  10  159.28    4.91   0 
  -4   1   8  487.66    9.66   0 
  -3  -8   7   72.32    3.68   0 
  -2  -3   7   35.24    3.90   0 
  -2   5 -14  413.93    5.27   0 
  -2   5  -3 1684.93    8.93   0 
  -1  -3   5  266.15    5.47   0 
  -1   3 -15  370.99    5.96   0 
  -1   4 -13  461.20    5.37   0 
   0  -9  -2  360.17    5.22   0 
   1  -7  -3 1720.43   10.19   0 
   1  -5  -1 1116.25    8.58   0 
   1  -4  -1  549.91    7.24   0 
   1   0 -11  651.96    7.77   0 
  -4  -5  10    0.55    3.18   0 
  -3   3   4  823.08   12.15   0 
  -2  -8   6  395.53    5.63   0 
  -2  -6   7   18.93    3.25   0 
  -1  -6   5  202.69    4.37   0 
  -1   4 -12  165.46    3.92   0 
   0  -9  -1   58.52    4.10   0 
   0  -8   1   26.68    3.06   0 
   0  -2   2 5897.46   22.49   0 
   0   2  -4 2169.61   12.25   0 
   1  -7 -10   89.37    5.87   0 
   1  -2 -13  534.14    9.73   0 
   1  -2  -2  628.35   11.10   0 
   1   0 -10  532.58    7.76   0 
   1   0  -6 1780.38   14.11   0 
  -8   6   6  415.77    8.92   0 
  -6   8  -2   12.61    3.60   0 
  -5   8  -5  121.47    3.64   0 
  -4  -6  10  428.14    5.27   0 
  -4   6   0  636.01    6.81   0 
  -3  -5   9  341.14    4.88   0 
  -2   5  -4  827.47    6.46   0 
  -1  -9   3  165.05    3.88   0 
  -1   4 -11  633.97    5.86   0 
   0  -6   3 1196.58    7.99   0 
   0   1 -14  607.87    7.02   0 
   1  -8  -7  179.59    5.40   0 
   1  -8  -6  114.80    4.60   0 
   1  -8  -4   16.78    3.88   0 
   1  -7  -2 1129.93    7.77   0 
   1  -6  -1 1209.95    8.36   0 
   1  -3  -1 2603.91   15.26   0 
   1  -1 -12  915.36   10.02   0 
  -7   6   5   96.42    5.47   0 
  -7   8   0  182.97    4.55   0 
  -5   6   2  333.65    5.62   0 
  -5   7  -1 1392.49    8.75   0 
  -5   8  -8  321.99    4.68   0 
  -5   8  -7   30.28    3.13   0 
  -4  -7  10  242.44    5.34   0 
  -3  -8   8   13.83    3.31   0 
  -3  -6   9  546.96    5.54   0 
  -3  -3   9  241.64    4.71   0 
  -3   6 -12   67.71    3.54   0 
  -3   6  -4   49.89    3.19   0 
  -2  -2   7  414.15    5.99   0 
  -2   5 -12  181.54    3.97   0 
  -1   4 -10  829.42    6.28   0 
  -1   4  -9 1279.00    7.97   0 
  -1   4  -8  909.32    6.97   0 
  -1   4  -7  335.93    4.57   0 
   0  -9   0   25.60    3.44   0 
   0  -8   2   46.82    3.92   0 
   0   0 -15   95.88    4.95   0 
   1  -8  -8   69.62    5.15   0 
   1  -8  -3  280.04    5.52   0 
   1  -3 -13   67.92    7.34   0 
   1   0  -9 2771.70   14.96   0 
   1   0  -8 1179.12   10.69   0 
   1   0  -7 3051.42   16.93   0 
  -6   7   1  875.59    7.77   0 
  -6   8  -3    3.03    3.06   0 
  -4   7 -10  472.73    5.20   0 
  -4   7  -9  419.71    5.41   0 
  -3  -7   9   11.61    3.04   0 
  -3   4   2  101.03    4.57   0 
  -3   6 -11   10.43    2.87   0 
  -2  -9   6  175.68    4.03   0 
  -2  -8   7  255.50    4.37   0 
  -2  -5   8    3.28    3.89   0 
  -2   4  -1 3526.66   14.12   0 
  -1  -9   4  121.89    3.89   0 
  -1  -8   5  715.01    6.06   0 
  -1  -6   6   93.22    4.37   0 
  -1  -2   5 1323.97    9.58   0 
   0  -9   1  384.60    5.59   0 
   0  -3   3  815.97    7.53   0 
   1  -7  -1  386.28    5.39   0 
   1  -6   0  981.37    7.48   0 
   1  -5   0  647.21    6.47   0 
  -5   5   4  145.02    4.95   0 
  -4   7  -8  683.92    5.76   0 
  -4   7  -7  693.13    5.79   0 
  -3   6 -10   43.80    3.32   0 
  -3   6  -9   91.98    4.16   0 
  -2  -4   8 1262.07    7.78   0 
  -2   5 -10  381.26    4.73   0 
  -2   5  -9   60.02    3.53   0 
  -2   5  -7 3721.29   12.24   0 
  -1  -7   6 1936.18    9.21   0 
  -1   2 -15   55.56    3.70   0 
  -1   3 -13  623.46    5.89   0 
   0   1  -2  399.51    7.85   0 
   0   2 -10   68.77    4.47   0 
   0   2  -6 3222.43   14.05   0 
   1  -8  -2  512.50    5.95   0 
  -7   4   8   99.88    8.46   0 
  -6  -1  12   59.22    5.09   0 
  -6   4   7 1434.47   16.47   0 
  -6   8  -6  124.08    3.92   0 
  -5  -4  12   64.47    3.83   0 
  -5  -1  11  817.05    8.53   0 
  -4  -6  11  177.50    4.24   0 
  -4  -4  11  289.68    4.82   0 
  -4   4   4  121.25    5.42   0 
  -4   6  -1  501.30    5.55   0 
  -3  -8   9    0.17    3.08   0 
  -3  -2   9  514.66    6.25   0 
  -3   5  -1  385.85    5.13   0 
  -3   6  -8 1597.83    7.94   0 
  -2  -7   8  174.90    4.09   0 
  -2   5  -8  249.41    4.25   0 
  -1   2   0 2596.78   16.94   0 
   0 -10   0  183.23    4.81   0 
   0  -9   2  235.93    4.42   0 
   0  -8   3  242.56    4.27   0 
   0  -1 -15    2.74    4.50   0 
   0   2  -9  358.63    5.25   0 
   0   2  -8  800.12    7.15   0 
   0   2  -7  648.37    6.94   0 
   1  -8  -1    4.81    4.00   0 
   1  -1 -11  283.15    6.72   0 
  -6   6   3  332.46    5.92   0 
  -5  -3  12  164.25    5.08   0 
  -4  -3  11  284.53    5.37   0 
  -4  -1  10   62.04    4.36   0 
  -3  -6  10   95.34    3.69   0 
  -3  -4  10   62.92    4.16   0 
  -2  -8   8   28.01    4.01   0 
  -2  -3   8 2167.06   10.34   0 
  -1  -8   6  679.06    5.95   0 
  -1  -3   6 1586.51    9.28   0 
  -1   3 -12  159.79    4.17   0 
  -1   3  -3  251.13    4.66   0 
   0  -4   4 1275.31    8.12   0 
   0   0 -14  887.20    8.43   0 
   1  -9  -6   59.71    4.43   0 
   1  -9  -3   28.23    4.17   0 
   1  -6   1   33.97    3.69   0 
  -6  -3  13    6.77    4.06   0 
  -5   6   1 1103.06    8.03   0 
  -4   6  -2  108.05    3.61   0 
  -2   4 -12  177.79    4.54   0 
  -1  -6   7  125.75    4.46   0 
  -1   3 -11  363.22    5.36   0 
   0 -10   1  187.25    4.50   0 
   0  -9   3    7.05    3.22   0 
   0  -8   4  495.05    5.74   0 
   0   1 -12  855.74    7.81   0 
   1  -8   0  112.01    3.99   0 
   1  -7   1    8.63    3.72   0 
  -7   6   4   39.08    4.58   0 
  -6   5   5  443.09    7.42   0 
  -5   7  -9   73.40    3.52   0 
  -5   7  -8  731.46    5.90   0 
  -5   7  -6   62.41    3.31   0 
  -4   6 -11  118.56    3.69   0 
  -2  -9   8  179.27    4.88   0 
  -2  -6   9  282.40    4.49   0 
  -2  -5   9  117.65    3.55   0 
  -1  -9   6   73.30    3.54   0 
  -1  -7   7  346.51    4.63   0 
  -1  -5   7   74.10    3.45   0 
  -1   1 -15   12.75    4.17   0 
  -1   3  -4   98.70    3.49   0 
   0 -10   2  240.10    4.57   0 
   1  -9  -1  292.11    4.77   0 
   1  -1 -10  639.14    8.64   0 
  -8   5   7   22.27    5.26   0 
  -8   7   2   46.43    4.46   0 
  -5  -2  12  242.45    5.51   0 
  -4   5   1  974.58    8.19   0 
  -4   6 -10  309.82    4.42   0 
  -4   6  -3 1502.64    8.04   0 
  -3   5 -11   30.60    3.20   0 
  -2  -1   7 2518.89   13.82   0 
  -2   0   6  474.54    8.57   0 
  -2   3 -14   97.59    3.84   0 
  -2   4 -11  492.77    5.21   0 
  -2   4  -3  433.83    5.75   0 
  -1  -8   7  467.05    5.17   0 
  -1   3 -10 1160.77    7.30   0 
   0  -9   4  149.19    4.37   0 
   0  -7   5  770.32    6.14   0 
   0  -5   5 1149.01    7.76   0 
   0  -2   3  930.66    9.17   0 
   0   0 -13  656.77    7.73   0 
   1  -9   0  631.49    6.66   0 
   1  -4   1 4898.14   16.57   0 
  -7   5   6  270.62    6.80   0 
  -6   7  -2  572.47    5.57   0 
  -5   6   0  603.68    6.04   0 
  -4  -5  12 1932.91    9.90   0 
  -4   6  -9   47.34    3.33   0 
  -3  -6  11  564.08    6.34   0 
  -3   0   8  943.31   10.41   0 
  -3   5 -10  246.80    4.11   0 
  -2  -2   8   48.58    4.22   0 
  -2   4 -10   47.23    3.16   0 
  -1   3  -9  451.76    5.09   0 
  -1   3  -8  450.24    5.44   0 
  -1   3  -6 1504.15    8.95   0 
  -1   3  -5   30.66    3.15   0 
   0 -10   3   67.16    3.72   0 
   0  -8   5  284.22    4.41   0 
   0  -1 -14  219.70    5.69   0 
   1 -10  -2  162.82    5.08   0 
   1  -5   2 4708.85   15.07   0 
   2  -6  -6  546.84    8.23   0 
   2  -6  -5  553.44    7.68   0 
   2  -5  -6 1209.67   12.37   0 
  -7   7   0   47.35    3.45   0 
  -6   1  11  243.84    8.75   0 
  -6   6   2  435.86    5.59   0 
  -6   7  -8  238.36    4.42   0 
  -6   7  -3    6.92    3.02   0 
  -5  -4  13   51.69    3.70   0 
  -5   5   3  116.29    4.73   0 
  -4   6  -7  391.43    4.72   0 
  -3  -1   9 1101.83    9.38   0 
  -3   4 -13   63.56    3.49   0 
  -3   5  -9  295.77    4.24   0 
  -2   4  -9  566.63    5.36   0 
  -2   4  -4 1364.71    8.11   0 
  -1  -6   8  882.97    7.11   0 
  -1   1 -14   53.95    4.52   0 
   0   1 -10   81.62    4.44   0 
   1 -10  -1  417.17    5.70   0 
   1  -9   1  375.86    5.04   0 
   1  -8   2  139.41    3.98   0 
   1  -3 -12  403.37    9.33   0 
   1  -2  -1 1614.24   15.30   0 
   1  -1  -9 1272.88   11.66   0 
   2  -7  -6  193.92    5.87   0 
   2  -7  -5  151.63    5.21   0 
   2  -6  -7  398.75    8.04   0 
   2  -6  -4 1761.36   11.52   0 
   2  -5  -7  412.53    9.37   0 
   2  -5  -5 1408.98   11.97   0 
  -7   7  -1   20.43    3.81   0 
  -5   3   7  385.32   11.20   0 
  -4   5 -12  978.04    6.90   0 
  -3  -4  11 2906.78   11.97   0 
  -3   5  -7 2334.91    9.44   0 
  -3   5  -6    1.44    3.12   0 
  -3   5  -5  207.76    4.14   0 
  -2  -7  10  281.63    4.62   0 
  -2  -6  10  326.35    4.48   0 
  -2   4  -8  788.29    6.05   0 
  -2   4  -7 2610.95   10.53   0 
  -2   4  -6 3464.47   12.04   0 
  -2   4  -5 1282.02    7.66   0 
  -1  -8   8   62.38    3.51   0 
  -1  -5   8  845.96    6.46   0 
  -1   0 -15   14.59    4.09   0 
   0 -10   4    4.97    3.19   0 
   0  -7   6 1292.23    7.92   0 
   0  -4   5  147.72    3.94   0 
   1 -10   0   67.50    3.64   0 
   2  -7  -7    1.33    5.10   0 
   2  -7  -4    4.25    3.66   0 
   2  -6  -3  830.51    8.04   0 
   2  -5  -4 4610.86   19.10   0 
  -7   6   3   58.28    4.35   0 
  -7   7  -2   72.20    3.96   0 
  -6   0  12   99.92    5.72   0 
  -5  -3  13   55.79    3.58   0 
  -5   1  10    7.90    6.15   0 
  -4  -3  12    6.37    4.19   0 
  -2  -8  10  108.13    3.75   0 
  -2  -5  10  140.49    3.95   0 
  -1  -9   8  499.23    6.01   0 
  -1   2  -1 2487.34   15.04   0 
   0  -6   6 1307.53    7.68   0 
   0   0 -12  540.36    6.77   0 
   0   1  -9  305.55    5.56   0 
   1 -10   1   17.33    3.93   0 
   1  -9   2  203.71    4.06   0 
   1  -8   3   44.50    3.73   0 
   1  -6   3 2243.73    9.77   0 
   1  -4   2 5294.08   16.76   0 
   2  -8  -5   18.62    4.46   0 
   2  -8  -4   54.11    4.14   0 
   2  -7  -3  141.11    4.06   0 
   2  -6  -8  154.82    7.24   0 
   2  -5  -8   11.57    6.98   0 
  -8   7   0  422.93    5.57   0 
  -7   7  -4  937.00    7.50   0 
  -5   6  -9  416.57    4.89   0 
  -5   6  -8  363.96    5.09   0 
  -4   4   3  550.93    7.29   0 
  -3   1   7  963.67   15.14   0 
  -3   4   0 1093.08    8.63   0 
  -1  -4   8   87.06    4.01   0 
  -1   1 -13   56.34    4.27   0 
  -1   2 -11   12.73    3.12   0 
   0 -10   5   23.82    3.26   0 
   0   1  -4   36.16    4.07   0 
   1  -5   3 2121.84    9.93   0 
   2  -8  -6    6.10    3.82   0 
   2  -5  -3 2669.01   14.04   0 
  -7   1  12   60.69    7.74   0 
  -6   5   4  962.66    8.74   0 
  -5   6  -7  786.15    6.06   0 
  -5   6  -4  709.00    6.26   0 
  -4  -5  13  186.46    4.66   0 
  -4   5 -10   73.82    3.31   0 
  -4   5  -1  999.33    7.33   0 
  -3  -7  12   14.06    3.36   0 
  -3  -6  12   56.75    3.67   0 
  -3  -3  11 2003.57   10.96   0 
  -3   3   3 1879.08   14.22   0 
  -3   4 -11  770.39    6.00   0 
  -2   3 -11  550.24    5.58   0 
  -1  -8   9  272.59    4.95   0 
  -1  -7   9  189.61    3.98   0 
  -1  -6   9  254.90    5.01   0 
   0  -1 -13  513.04    6.93   0 
   1 -10   2  237.29    4.35   0 
   1  -9   3   36.07    3.23   0 
   1  -7   4  672.35    6.31   0 
   2  -8  -7   43.52    5.02   0 
   2  -7  -8  385.61    8.30   0 
   2  -7  -1  400.31    5.80   0 
   2  -4  -6 1034.37   15.06   0 
  -6   6   0  787.20    6.70   0 
  -5   6  -6  729.85    5.73   0 
  -5   6  -5  596.19    5.41   0 
  -4   5  -9   17.29    3.20   0 
  -3   3 -13  237.58    5.09   0 
  -2  -8  11  143.13    4.52   0 
  -2  -7  11  352.75    4.93   0 
  -2  -6  11   87.93    4.16   0 
  -1  -9   9  134.83    4.04   0 
  -1   0 -14  103.18    4.50   0 
  -1   2 -10  468.81    5.47   0 
   0 -10   6   34.61    3.24   0 
   0  -8   7  317.67    4.70   0 
   0  -7   7  906.92    6.43   0 
   0  -6   7  143.19    3.95   0 
   0  -3   5  521.06    6.12   0 
   0   1  -7  731.12    7.17   0 
   1 -10   3   20.29    4.01   0 
   1  -6   4  799.31    6.27   0 
   2  -9  -5  154.76    4.97   0 
   2  -9  -4  304.24    5.78   0 
   2  -9  -3  315.98    5.83   0 
   2  -8  -1  318.97    4.98   0 
   2  -5  -2  443.09    6.33   0 
  -8   6   3   14.94    3.99   0 
  -7   5   5    3.59    3.82   0 
  -6   6  -8  115.26    3.66   0 
  -6   6  -1  724.07    6.57   0 
  -5  -2  13   76.69    4.56   0 
  -5   5 -11  287.10    4.56   0 
  -4   4 -12  178.59    4.26   0 
  -4   5  -8  387.99    4.63   0 
  -3   4 -10  363.50    4.62   0 
  -2   3 -10  540.96    5.32   0 
  -1  -5   9 1077.00    7.20   0 
  -1   1 -12  740.66    7.03   0 
   0  -9   7   33.48    3.35   0 
   0  -4   6  263.08    4.50   0 
   0  -3 -14   22.86    4.93   0 
   0  -2   4 2064.00   11.90   0 
   1  -9   4   48.32    3.37   0 
   1  -1  -5 1291.24   16.76   0 
   2  -9  -2  347.04    5.34   0 
   2  -9  -1  148.45    4.80   0 
   2  -8   0  570.98    6.34   0 
   2  -7   0  382.08    5.58   0 
   2  -4  -4 2210.83   15.74   0 
  -8   4   8   88.48    6.38   0 
  -7   6   1  414.62    5.95   0 
  -6   6  -7  747.05    6.02   0 
  -5   5 -10  408.82    4.98   0 
  -4   5  -7  429.88    4.83   0 
  -3   4  -9  238.85    4.17   0 
  -2  -2   9  796.03    7.74   0 
   0 -10   7   27.61    3.21   0 
   0  -5   7   86.64    3.57   0 
   1 -10   4    2.01    3.10   0 
   1  -8   5  156.16    3.81   0 
   1  -7   5  802.93    6.65   0 
   1  -5   4 1457.86    8.14   0 
   2  -8  -8  322.60    7.60   0 
   2  -6  -9   12.37    7.23   0 
   2  -6   0  753.34    6.73   0 
   2  -5  -1  187.27    4.81   0 
   2  -4  -7  663.64   17.95   0 
  -6   4   6 1022.18   10.67   0 
  -6   6  -6   53.64    3.15   0 
  -6   6  -5    5.43    2.97   0 
  -6   6  -2  296.74    4.55   0 
  -4   3   5  167.43    6.58   0 
  -4   4 -11   28.24    3.19   0 
  -4   5  -4  403.93    4.77   0 
  -3  -6  13  416.17    5.85   0 
  -3   4  -8   97.74    3.62   0 
  -2  -3  10  701.08    6.69   0 
  -2  -1   8  857.91    8.52   0 
  -1   0   4 1728.51   16.79   0 
  -1   2  -8  854.50    6.69   0 
   0  -8   8  139.20    3.86   0 
   0  -7   8  313.17    4.51   0 
   0  -1 -12  657.67    7.57   0 
   1  -6   5  697.37    6.47   0 
   1  -3   2 1838.72   10.83   0 
   1  -2   0 2561.11   16.73   0 
   2 -10  -2  610.85    6.65   0 
   2 -10  -1   33.95    4.16   0 
   2  -9   0  101.59    3.70   0 
   2  -8   1  333.84    4.80   0 
   2  -7  -9  658.45   12.44   0 
   2  -7   1  994.17    6.90   0 
   2  -4  -3  273.16    6.04   0 
  -7   4   7  413.16    8.32   0 
  -5   5  -9  183.66    3.88   0 
  -4  -5  14   87.09    3.91   0 
  -4  -3  13   41.97    3.48   0 
  -4   3 -13   63.14    3.65   0 
  -3  -2  11  163.01    4.86   0 
  -3  -1  10  349.66    6.61   0 
  -3   4  -7 2787.51   10.29   0 
  -3   4  -2 1848.20    9.48   0 
  -2   3  -8  759.26    6.07   0 
  -1  -1 -14  590.21    7.25   0 
  -1   2  -7 3428.28   12.98   0 
  -1   2  -3 1756.15   10.89   0 
   0  -9   8   35.45    3.47   0 
   0  -6   8  624.29    5.85   0 
   0  -2 -13  585.78    7.54   0 
   1 -10   5  454.43    5.39   0 
   2 -10   0   35.26    4.30   0 
   2  -9   1   58.65    3.47   0 
   2  -6   1  101.82    3.99   0 
  -8   6   1    8.47    3.21   0 
  -7   5   4   13.64    3.83   0 
  -7   6  -5  307.56    5.13   0 
  -7   6  -1   65.51    3.50   0 
  -6   3   8  456.61   10.86   0 
  -5   5   0  774.27    6.61   0 
  -4   4 -10   55.73    3.35   0 
  -3  -5  13   34.90    3.35   0 
  -3  -3  12  129.02    4.71   0 
  -3   2 -13  565.79    6.25   0 
  -3   3 -11  739.65    5.87   0 
  -3   4  -5   75.72    3.38   0 
  -3   4  -4 2187.91    9.54   0 
  -3   4  -3  993.50    6.97   0 
  -2   3  -7 1001.96    6.70   0 
  -1  -5  10  675.57    6.35   0 
  -1   2  -6 1673.85    9.43   0 
  -1   2  -4  217.66    4.96   0 
   0  -4   7  822.08    6.78   0 
   1  -9   6  258.61    4.39   0 
   1  -7   6  402.62    5.41   0 
   1  -5 -12   70.51    7.60   0 
   2 -10   1  200.41    4.90   0 
   2  -9   2  301.01    5.03   0 
   2  -7   2  141.08    4.28   0 
   2  -4  -2 3342.51   15.99   0 
  -8   6   0    6.95    3.02   0 
  -7   6  -4   24.76    3.08   0 
  -7   6  -3  155.94    3.92   0 
  -7   6  -2  148.46    3.96   0 
  -6   5  -9  231.69    4.20   0 
  -5   4 -11  378.17    4.76   0 
  -5   4   4  129.27    4.78   0 
  -5   5  -7  564.72    5.40   0 
  -4   3 -12   13.65    3.80   0 
  -2   3  -6 3822.45   12.51   0 
  -1  -1   6 1359.92   10.55   0 
   0  -8   9  193.69    4.22   0 
   0  -5   8  939.07    6.93   0 
   0   0  -9  652.75    7.21   0 
   1  -5   5 1316.93    7.68   0 
  -8   6  -1   22.37    3.31   0 
  -6   5  -8  111.64    3.81   0 
  -5   5  -2  187.19    4.40   0 
  -5   5  -1  239.48    4.05   0 
  -4   4  -9  453.19    4.89   0 
  -4   4   1 1943.52   10.75   0 
  -3  -4  13   62.31    4.23   0 
  -3   2   5  781.01   15.72   0 
  -3   3 -10  103.82    3.35   0 
  -2   1   5  214.70   11.57   0 
  -2   3  -5 1726.19    8.82   0 
  -2   3  -4 1100.42    7.42   0 
  -1   1 -10    9.16    3.96   0 
   0  -7   9  283.50    4.35   0 
   1  -6   6 1263.86    7.36   0 
   2 -10   2   85.45    3.64   0 
   2  -9   3   45.19    3.19   0 
   2  -5   1  280.86    5.18   0 
  -5   4 -10    8.95    3.08   0 
  -5   5  -5  922.44    6.27   0 
  -5   5  -4  823.26    6.18   0 
  -4   4  -8   46.54    3.24   0 
  -2  -7  13  197.19    4.16   0 
  -1  -6  11  662.40    5.70   0 
  -1  -3   9   13.61    3.75   0 
  -1  -2 -14   59.43    4.47   0 
   0  -6   9  778.36    6.05   0 
   0  -3 -13   79.74    5.21   0 
   0  -2   5 1097.39    8.58   0 
   0  -1 -11 1388.73    9.87   0 
   1 -10   7  407.36    5.73   0 
   1  -7   7   57.91    3.84   0 
   1  -3   3  261.90    4.71   0 
   2 -10   3  233.09    4.49   0 
   2  -7   3  503.40    5.27   0 
  -6  -1  14  435.17    9.07   0 
  -6   5  -7  386.79    4.69   0 
  -4  -2  13   17.02    4.15   0 
  -4   3 -11 1398.18    7.64   0 
  -3   3  -9  435.88    4.99   0 
  -2   1 -12  324.95    4.82   0 
  -1  -1 -13  712.71    7.35   0 
   2  -8   4  296.72    4.41   0 
   2  -6   3 1894.75    9.39   0 
  -8   4   7  149.88    5.68   0 
  -7   5  -7  219.39    4.24   0 
  -6   4   5  809.31    8.39   0 
  -6   5  -6  412.97    4.80   0 
  -6   5  -5  522.46    5.60   0 
  -6   5   0  892.37    7.08   0 
  -5   4  -9   42.37    3.12   0 
  -5   4   3  177.93    5.09   0 
  -4  -3  14   92.95    4.73   0 
  -4   4  -7 1794.73    8.22   0 
  -4   4   0 1910.42    9.82   0 
  -2  -4  12  389.36    5.23   0 
  -2  -1 -14   63.37    4.70   0 
  -2   0 -13   38.13    4.14   0 
  -2   2  -9  427.10    5.23   0 
  -1  -8  12   68.90    3.55   0 
  -1  -7  12  522.05    5.49   0 
  -1   1  -9  504.77    5.78   0 
   0  -7  10  261.05    4.26   0 
   0  -4   8 1119.65    7.19   0 
   1  -9   8   21.27    3.19   0 
   1  -6   7 2288.93    9.37   0 
   1  -5   6  442.08    5.06   0 
   1  -4   5 1586.12    8.52   0 
   1  -2   1 2425.18   14.75   0 
   2 -10   4  544.46    5.61   0 
   2  -7   4  529.66    5.44   0 
   2  -5   2 2764.85   11.28   0 
   2  -4   0  157.14    4.94   0 
  -7   4   6  806.42    9.01   0 
  -7   5  -6   94.81    3.49   0 
  -6   0  13    8.36    5.67   0 
  -6   4  -9  480.78    5.71   0 
  -6   5  -2    9.04    3.33   0 
  -6   5  -1  242.48    4.29   0 
  -5   3 -11  138.34    3.98   0 
  -5   4  -8  121.78    4.03   0 
  -4   2 -12  402.35    5.05   0 
  -4   3 -10  876.57    6.18   0 
  -4   4  -6 1252.80    7.14   0 
  -4   4  -5  122.61    4.11   0 
  -3   2 -11  189.66    4.01   0 
  -3   3  -8   87.71    3.36   0 
   0  -5   9  673.46    5.88   0 
   0  -3   7 2014.17    9.93   0 
   1  -8   8  277.46    4.59   0 
   2 -10   5  367.10    5.44   0 
   2  -9   5 1118.70    6.85   0 
   2  -8   5   68.27    3.37   0 
  -7   5  -5   12.42    2.97   0 
  -4   4  -4  160.44    3.70   0 
  -3  -3  13  586.32    6.81   0 
  -3   3  -7    5.93    3.69   0 
  -3   3   1 2354.88   13.01   0 
  -2  -1   9 1086.80    9.29   0 
  -2   1 -11  193.73    4.29   0 
  -2   2  -8  958.50    6.93   0 
   0  -4 -13    3.95    4.47   0 
   1  -7   8  124.75    3.68   0 
   2  -6   4  238.34    4.18   0 
   3  -9  -3  786.80    7.80   0 
   3  -9  -2  996.10    8.40   0 
   3  -9  -1   12.58    3.96   0 
   3  -8  -4 1652.71   10.77   0 
   3  -8  -3 1039.90    8.47   0 
   3  -8  -2   26.10    3.87   0 
   3  -8  -1   73.74    4.30   0 
  -8   3   9  127.50    6.71   0 
  -8   5   2  369.21    5.10   0 
  -7   5  -4   70.47    3.59   0 
  -7   5  -2  323.01    4.97   0 
  -7   5  -1  308.52    4.99   0 
  -6   4  -8  109.48    3.59   0 
  -5   3 -10   57.92    3.39   0 
  -5   3   6   11.70    4.78   0 
  -5   4  -7  147.21    3.65   0 
  -4   3  -9  218.42    3.98   0 
  -4   3   4  268.51    6.47   0 
  -3  -4  14  141.10    4.87   0 
  -3   2 -10  783.49    6.54   0 
  -1  -2 -13   65.55    4.15   0 
   1  -9   9  101.78    3.75   0 
   1  -8   9  596.47    6.09   0 
   1  -5   7 1606.65    8.19   0 
   1  -2  -8 1426.11   13.52   0 
   2 -10   6   35.85    4.07   0 
   2  -9   6 1347.26    7.54   0 
   2  -7   5  114.08    3.64   0 
   2  -4   1 3574.87   14.13   0 
   3 -10  -2 1120.15    9.19   0 
   3  -9  -4  112.68    4.69   0 
   3  -9   0  280.87    4.73   0 
   3  -8  -5  919.94    9.24   0 
   3  -8   0  316.56    5.45   0 
   3  -7  -3 1231.29    9.06   0 
   3  -7  -2    9.63    3.80   0 
  -8   4   6   39.24    4.62   0 
  -8   5  -3  787.94    6.35   0 
  -8   5   0   39.58    3.85   0 
  -6   4   4  118.29    4.39   0 
  -5   4  -6  408.77    4.68   0 
  -3  -1  11   77.26    4.21   0 
  -3   0 -13  147.33    4.61   0 
  -2   0 -12  159.31    4.79   0 
  -2   2  -7  764.26    6.44   0 
  -1  -3  10   20.91    3.84   0 
  -1  -1   7 1690.05   11.35   0 
   0  -7  11   90.64    3.43   0 
   0  -2   6 3366.83   14.10   0 
   1  -6   8  597.05    5.48   0 
   1  -4   6  309.01    4.56   0 
   3 -10   0   45.87    3.53   0 
   3  -9  -5  360.35    6.46   0 
   3  -9   1  411.40    5.11   0 
  -7   4  -7  113.06    4.31   0 
  -7   4   5  567.44    6.88   0 
  -5   4  -5  945.11    6.67   0 
  -3   3  -5 6394.27   15.63   0 
  -2   1 -10  519.40    5.56   0 
  -1   1  -7    6.27    3.12   0 
   1  -7   9  565.44    5.42   0 
   1  -2   2  555.86    7.01   0 
   2  -7   6  192.69    3.88   0 
   2  -6   5  368.37    4.69   0 
   3 -10   2  243.02    4.90   0 
   3  -9   2  426.08    4.99   0 
   3  -8  -6   24.22    4.77   0 
   3  -7  -5   30.83    3.98   0 
   3  -7   0  354.32    4.88   0 
  -6   4  -6 1446.26    7.58   0 
  -5   4  -4  790.78    5.95   0 
  -4   1 -12  243.88    4.38   0 
  -3   2  -9  162.54    3.77   0 
  -2  -5  14   58.65    4.30   0 
  -2   2  -6 1095.05    7.69   0 
  -2   2   1  212.49    5.41   0 
  -1  -6  13   48.87    3.59   0 
   0  -3   8  337.84    4.78   0 
   0  -1   4   33.25    3.39   0 
   1  -9  10  220.74    4.15   0 
   1  -8  10  123.36    4.26   0 
   2  -3  -3   34.87    4.91   0 
   3 -10   3  353.35    5.46   0 
   3  -9  -6  251.01    6.43   0 
   3  -9   3  269.47    4.89   0 
   3  -8   2  819.47    6.52   0 
   3  -6  -3   67.19    4.29   0 
   3  -6  -2 1908.52   10.84   0 
  -8   4   5   95.13    4.36   0 
  -7   3   8  286.44    7.49   0 
  -6   3  -9  215.29    4.17   0 
  -6   3   7   82.93    5.95   0 
  -6   4   3  544.40    6.43   0 
  -5   4  -3  693.98    5.72   0 
  -5   4  -1  178.22    3.70   0 
  -4  -3  15  263.84    5.76   0 
  -4   3  -7  624.91    5.41   0 
  -3   3  -3  152.20    3.68   0 
  -1  -3 -13   68.11    4.98   0 
  -1   1  -6  863.57    7.68   0 
  -1   1   1 3668.45   29.68   0 
   0  -7  12  281.46    4.48   0 
   0  -1  -9 2983.00   14.00   0 
   1  -6   9   26.43    3.29   0 
   1  -5   8 2268.47    9.40   0 
   1  -3   5   28.53    3.12   0 
   2  -3  -4   10.99    5.17   0 
   2  -3  -2 1422.35   12.14   0 
   3  -8   3  632.93    6.06   0 
   3  -7  -6   91.39    5.36   0 
   3  -6  -4   28.61    3.89   0 
  -7   4  -5  178.74    3.90   0 
  -5   3  -8  183.21    3.77   0 
  -3  -3  14  123.90    4.72   0 
  -2   2  -5 1572.96    8.69   0 
  -1  -1 -11  952.90    7.81   0 
   0   0  -5 1206.11   10.69   0 
   1  -7  10  460.30    4.95   0 
   1  -4   7  350.34    4.61   0 
   2  -9   8   52.94    3.38   0 
   2  -7   7  224.45    4.06   0 
   3 -10   4   80.89    3.57   0 
   3  -6  -5  215.53    6.06   0 
   3  -6   0  451.46    5.56   0 
  -7   4  -4  320.05    4.85   0 
  -6   3  -8  296.45    4.36   0 
  -6   4  -4  467.63    4.94   0 
  -5  -1  14   66.35    5.22   0 
  -4   1 -11    3.56    3.08   0 
  -4   2  -9  323.90    4.36   0 
  -4   3  -6  774.94    5.87   0 
  -2  -1 -12  327.41    5.59   0 
  -2   2  -4  687.65    6.49   0 
  -1  -5  13    6.47    3.19   0 
  -1  -2 -12  241.45    5.31   0 
  -1   0  -9   61.98    3.46   0 
   0  -6  12  724.39    6.47   0 
   0  -5  11  990.50    6.85   0 
   0  -4  10 1078.84    7.05   0 
   1  -8  11  366.32    5.34   0 
   2  -8   8    2.50    3.09   0 
   3 -10   5   76.47    4.22   0 
   3  -8  -7   69.95    5.94   0 
   3  -7   3  798.82    6.07   0 
   3  -6   1 1206.65    7.74   0 
  -8   3   8   22.45    4.54   0 
  -8   4  -3    6.19    3.15   0 
  -7   4  -3  332.84    4.94   0 
  -7   4   3  755.90    7.10   0 
  -6   4   0  631.08    6.19   0 
  -6   4   1  585.56    5.78   0 
  -5   1 -11   59.72    3.59   0 
  -5   3   5  565.10    7.73   0 
  -4   0 -12   34.64    3.32   0 
  -4   3  -5  134.14    3.78   0 
  -3   0  10   14.16    4.89   0 
  -2   2  -3  445.70    5.82   0 
  -1  -6  14  230.71    5.07   0 
   0  -2   7  608.18    6.41   0 
   1  -6  10  343.62    5.14   0 
   1  -2   3 1780.71   11.01   0 
   2  -9   9  174.63    4.03   0 
   2  -7   8 1687.79    8.59   0 
  -8   4  -2   85.23    3.57   0 
  -7   3  -7  103.83    3.62   0 
  -7   4   2  608.33    6.40   0 
  -6   2  -9   48.00    4.09   0 
  -5   2  -9  178.50    3.78   0 
  -5   3  -6  355.35    4.88   0 
  -3   2  -7  441.28    4.91   0 
  -2  -5  15    3.26    3.89   0 
  -2  -4  14  326.04    5.12   0 
  -2  -3  13  139.60    4.71   0 
   0  -3   9  904.17    6.75   0 
   1  -7  11  128.06    3.73   0 
   1  -5   9  963.42    6.75   0 
   1  -3   6 1594.97    8.76   0 
   2  -8   9  426.25    4.98   0 
   3 -10   6   69.14    3.50   0 
   3  -8   5  536.85    5.23   0 
   3  -6   2  430.45    5.10   0 
  -7   3  -6  411.63    5.58   0 
  -3   0 -11  406.44    5.04   0 
  -2   0 -10  174.18    4.15   0 
  -1  -1   8  457.12    6.47   0 
  -1   1  -4 1941.15   11.24   0 
   0  -1  -8 2987.51   14.37   0 
   1  -4   8  942.87    6.62   0 
   2  -5   6  699.49    5.86   0 
   2  -4   4 1393.19    8.07   0 
   3  -9   6  226.50    4.01   0 
   3  -7  -7    5.61    4.69   0 
   3  -6  -6  602.59    9.98   0 
   3  -6   3  116.25    3.52   0 
   3  -5  -3   68.65    4.61   0 
   3  -5  -2   73.75    4.19   0 
   3  -5  -1 1444.61    9.50   0 
  -7   2  10  332.97    9.22   0 
  -6   3   6  483.38    7.42   0 
  -5   1 -10  574.65    5.62   0 
  -5   3  -5  170.86    3.75   0 
  -4   3   1  619.64    6.64   0 
  -3   2  -6 5648.58   14.68   0 
  -2  -2  12   13.64    3.85   0 
  -1   1  -3  911.93    8.86   0 
   0  -6  13  210.27    4.84   0 
   0  -5  12  110.00    3.76   0 
   1  -8  12   66.31    3.49   0 
   2  -9  10   99.23    3.57   0 
   2  -7   9  589.65    5.51   0 
   2  -6   8  928.48    6.32   0 
   3 -10   7   70.43    3.31   0 
   3  -8   6 1012.03    6.59   0 
  -8   3   7  341.70    6.52   0 
  -6   2  -8  177.92    3.97   0 
  -6   3  -5  558.83    5.11   0 
  -4   2  -7  351.25    4.57   0 
  -4   3  -1 1304.39    7.92   0 
  -4   3   0 1074.33    7.62   0 
  -2  -2 -12  120.98    4.13   0 
  -2   1  -7  519.72    5.31   0 
  -1   1   0   56.13    4.38   0 
   0  -5 -12    5.82    4.45   0 
   0   0  -3 1357.28   13.89   0 
   1  -7  12  307.70    5.06   0 
   1  -6  11  172.34    3.78   0 
   1  -5  10   30.85    3.22   0 
   2  -8  10  168.73    3.95   0 
   2  -5   7 3933.20   12.66   0 
   2  -4   5 1289.68    7.61   0 
   3  -6   4   50.01    3.08   0 
   3  -5  -4  770.42    9.01   0 
   3  -5   1  394.40    5.04   0 
   4 -10  -2  270.66    5.55   0 
   4 -10   1   70.95    3.63   0 
   4 -10   2  173.38    4.64   0 
   4  -9  -2  945.07    8.21   0 
   4  -9  -1   44.82    4.31   0 
   4  -9   0  292.46    5.02   0 
   4  -9   1  277.87    5.13   0 
  -8   3  -4   13.02    3.04   0 
  -7   2  -7  109.68    4.29   0 
  -5   3   4  108.28    4.47   0 
  -3   1   8 1445.92   21.55   0 
  -3   2  -5 5410.56   14.52   0 
  -1  -3  12   34.35    3.32   0 
  -1   1  -2   87.39    4.36   0 
   0  -2   8  786.58    6.67   0 
   1  -3   7 2099.33    9.77   0 
   3  -8   7  219.16    4.13   0 
   3  -5   2 1988.76    9.68   0 
   4 -10  -3   -0.18    3.96   0 
   4 -10   3  563.97    6.25   0 
   4  -9  -3  643.11    7.11   0 
   4  -9   2  346.75    4.84   0 
   4  -8  -1   36.66    3.89   0 
   4  -8   0  815.66    7.21   0 
  -8   3  -3   32.04    3.24   0 
  -6   1  -9   70.88    3.47   0 
  -6   2  -7   86.16    3.33   0 
  -5   2  -7  122.63    3.54   0 
  -5   2   8  949.27   13.76   0 
  -5   3  -3  322.28    4.42   0 
  -3  -2 -12   49.63    3.66   0 
  -3   1  -8 1474.35    7.84   0 
  -2  -4  15  108.32    3.91   0 
  -1   0  -7   26.87    3.78   0 
   1  -4   9 1423.31    7.79   0 
   2  -7  10  112.90    3.65   0 
   2  -6   9  538.16    5.18   0 
   3  -9   8  124.85    3.82   0 
   3  -6   5  838.85    6.00   0 
   4 -10   4  141.75    4.57   0 
   4  -9   3  374.17    4.87   0 
   4  -8  -2  291.83    4.94   0 
   4  -8   1 1083.93    7.37   0 
  -8   3   6  634.09    6.99   0 
  -7   3  -3  656.86    5.54   0 
  -7   3   6  300.91    5.58   0 
  -6   3  -3 1080.75    6.74   0 
  -6   3   5  685.12    7.27   0 
  -5   3  -2  262.88    4.06   0 
  -5   3   3 5063.38   16.93   0 
  -3   2  -4  374.12    4.67   0 
  -2  -3  14   60.67    3.84   0 
  -2  -1  11  107.34    5.13   0 
  -2   1  -6 1040.46    7.22   0 
  -1  -1  -9   13.87    4.01   0 
   0  -5  13   72.84    3.48   0 
   0  -1  -7  933.97    8.74   0 
   1  -6  12  189.26    4.49   0 
   2  -8  11    8.35    3.15   0 
   2  -5   8  254.73    4.77   0 
   2  -4   6 3670.75   11.93   0 
   2  -3   3 1088.77    7.69   0 
   3  -8  -8  515.93   13.37   0 
   3  -7   7    4.74    3.02   0 
   3  -5  -5 1309.38   12.93   0 
   3  -5   3  803.89    6.13   0 
   4  -9  -4   87.66    4.51   0 
   4  -9   4  144.69    3.88   0 
   4  -8   2  935.24    6.75   0 
  -7   2  -6   18.90    3.02   0 
  -6   1  -8  222.65    4.77   0 
  -6   2   9  250.50    8.04   0 
  -6   3  -2 2392.89    9.92   0 
  -5   2  -6  293.30    4.22   0 
  -5   3  -1   88.54    3.25   0 
  -5   3   0  490.68    5.57   0 
  -5   3   2  793.98    7.28   0 
  -4   1  -8  221.32    4.10   0 
  -2  -1 -10  156.93    4.05   0 
  -1  -2  11  147.72    4.61   0 
  -1  -1   9 2818.89   13.66   0 
   0  -4 -11   54.65    4.65   0 
   0  -4  12   68.32    3.71   0 
   1  -7  13  265.89    4.53   0 
   1  -2   5 2605.56   11.88   0 
   3  -9   9  165.25    4.07   0 
   3  -6   6   15.13    3.04   0 
   4 -10   5    0.15    3.11   0 
   4  -8   3   23.62    3.11   0 
   4  -7  -1  693.68    6.86   0 
   4  -7   0  440.12    5.76   0 
  -7   3  -1  213.78    4.39   0 
  -7   3   5 1095.69    8.59   0 
  -6   3  -1  254.68    4.57   0 
  -6   3   4   29.06    3.76   0 
  -5   1  -8  444.61    4.92   0 
  -4  -1  14  378.22    7.58   0 
  -4   2  -5 5047.01   13.62   0 
  -3   0  -9 1758.92    8.66   0 
  -3   1  -7 1003.34    6.61   0 
  -3   2  -3 1822.40    9.14   0 
  -2   0  -8  363.24    5.33   0 
  -1  -3 -11  244.12    5.27   0 
  -1  -2 -10 1268.85    9.01   0 
   1  -4  10  918.49    6.83   0 
   2  -7  11  348.26    4.60   0 
   2  -6  10  465.33    4.91   0 
   3  -8   9  526.57    5.34   0 
   3  -7   8  377.89    5.41   0 
   3  -5   4   88.67    3.36   0 
   4  -9  -5   40.28    4.74   0 
   4  -9   5  191.80    4.06   0 
   4  -8   4   83.70    3.34   0 
   4  -7   2 1363.68    8.17   0 
  -8   3   1  248.53    4.35   0 
  -8   3   4  325.14    5.09   0 
  -7   1  12   59.02    7.64   0 
  -7   2  -5  540.46    5.21   0 
  -7   3   0  268.19    4.98   0 
  -7   3   4 1741.69    9.96   0 
  -6   3   0    4.31    3.40   0 
  -6   3   3 1014.17    7.81   0 
  -5  -1  15    1.71    5.52   0 
  -5   0  -9  558.45    6.00   0 
  -5   2  -5  216.56    4.47   0 
  -4   0  -9  564.43    5.85   0 
  -4   2   6 1265.31   13.72   0 
  -2   1  -5  793.61    6.67   0 
   0  -3  11   18.97    3.07   0 
   0  -2   9  359.25    5.16   0 
   2  -8  12   66.28    3.45   0 
   2  -4   7 2644.28   10.22   0 
   3  -6  -7   18.83    7.79   0 
   4  -8   5  399.75    4.80   0 
   4  -7  -3  528.77    6.57   0 
   4  -7   3  821.58    6.62   0 
  -8   2  -3  580.98    6.04   0 
  -7   3   3  539.74    6.26   0 
  -6   1  -7  411.40    4.75   0 
  -6   2  -5  110.00    3.65   0 
  -4  -1 -10  127.78    4.46   0 
  -4   1  -7  210.10    4.14   0 
  -4   2  -4 1380.05    7.53   0 
  -3  -3  16  250.86    5.90   0 
  -3  -1  13  107.67    5.39   0 
  -3   0  11  156.66    6.41   0 
  -3   2  -2   43.54    3.15   0 
  -2  -4  16  431.09    6.81   0 
   0  -5  14  541.72    5.48   0 
   1  -6  13  217.77    4.25   0 
   1  -5  12  347.61    5.24   0 
   1  -2  -6 1545.21   15.51   0 
   1  -2   6 1755.18    9.65   0 
   3  -6   7   75.17    3.44   0 
   3  -4  -2  100.55    4.33   0 
   3  -4  -1   13.92    2.85   0 
   3  -4   1 2093.08   10.68   0 
   4  -8  -5  560.70    8.07   0 
  -7   2  -4  589.94    5.38   0 
  -7   2   9  174.33    5.88   0 
  -5   1  -7   86.17    3.41   0 
  -2  -3  15  697.11    7.51   0 
  -2  -1  -9   33.83    4.02   0 
   0  -4  13   36.49    3.32   0 
   2  -7  12    2.89    3.13   0 
   2  -6  11   85.46    3.58   0 
   2  -3   5 1794.31    8.91   0 
   3  -8  10  136.55    3.86   0 
   3  -4   2 1796.75    9.56   0 
   4  -9   7    6.03    2.90   0 
   4  -8   6  357.37    4.53   0 
   4  -7  -4 2767.07   14.27   0 
   4  -6   0  657.89    6.66   0 
  -7   2  -3  394.38    5.27   0 
  -6   0  -8  332.58    4.51   0 
  -6   2  -4  836.45    5.95   0 
  -5   2  -4  143.01    3.61   0 
  -4   2  -3 1164.34    7.08   0 
  -2   0  -7  243.87    4.65   0 
  -2   1  -4   90.35    3.42   0 
   1  -4  11  609.16    5.62   0 
   1  -3   9  419.76    5.00   0 
   1  -1   0   60.79    4.44   0 
   2  -6  -9   10.42    7.10   0 
   2  -4   8  743.84    5.86   0 
   3  -6   8 1798.04    8.15   0 
   3  -5   6    3.50    3.15   0 
   4  -9  -6   37.49    5.53   0 
   4  -9   8  143.36    4.37   0 
   4  -6  -2   49.48    4.15   0 
   4  -6   1  492.79    5.34   0 
   4  -6   2  107.73    4.24   0 
  -8   2  -1  261.41    4.72   0 
  -7   1  -5   74.09    4.14   0 
  -6   2  -3  749.39    6.10   0 
  -5   1  -6  164.23    4.27   0 
  -4   0  -8  860.12    6.03   0 
  -4   1  -6  613.83    5.46   0 
  -1  -4 -11  293.89    5.54   0 
   0  -2  10   70.42    4.45   0 
   3  -8  11  243.61    4.43   0 
   3  -7  10  147.33    3.84   0 
   3  -4  -3 3049.22   16.03   0 
   4  -8   7  343.38    4.57   0 
   4  -6   3 1474.82    8.26   0 
   5 -10   1    9.13    2.96   0 
   5 -10   2    4.02    3.21   0 
  -8   2   8  241.06    5.65   0 
  -6   0  -7  334.44    5.08   0 
  -6   2   8  419.13    7.49   0 
  -5   2  -3   77.79    3.38   0 
  -4  -1  -9  869.80    6.41   0 
  -4   2  -2  679.74    5.86   0 
  -3   1  -5 1361.91    7.71   0 
  -2  -2  14  199.92    5.07   0 
  -2  -1  12  892.36    8.42   0 
  -1  -3  14  562.01    6.56   0 
  -1   0   7 3019.97   16.50   0 
   1  -5  13   53.19    3.36   0 
   2  -7  13   21.16    3.10   0 
   2  -6  12  681.05    6.11   0 
   2  -3   6 4021.17   12.84   0 
   3  -6   9  101.39    3.50   0 
   3  -5   7 2410.44    9.39   0 
   3  -4   4 2258.28    9.63   0 
   4  -8   8  501.84    5.84   0 
   4  -7   6  758.07    5.87   0 
   4  -6  -3   12.53    3.79   0 
   4  -6   4 1927.28    9.09   0 
   5  -9   0   98.29    4.34   0 
   5  -9   2  239.95    4.98   0 
  -8   2   0  180.25    3.88   0 
  -7   2   8  571.83    7.69   0 
  -6   1  -5  121.54    3.78   0 
  -5   2   7  586.88    8.62   0 
  -4   2   5 2140.48   14.69   0 
  -3   0  -7  112.62    3.43   0 
  -2  -4 -11  108.14    4.67   0 
  -2   1  -3  549.63    5.98   0 
   0  -4  14   66.50    4.12   0 
   1  -3  10 1106.07    7.39   0 
   1  -1   2   86.36    4.29   0 
   2  -5  11  140.02    4.29   0 
   2  -4   9  572.49    5.44   0 
   3  -5  -6  778.63   14.21   0 
   4  -7   7  663.23    5.62   0 
   5  -9  -1   52.61    3.31   0 
   5  -9   3  249.60    4.22   0 
   5  -9   4   49.64    3.92   0 
  -8   2   1  332.87    4.59   0 
  -7   1  -4  273.13    4.33   0 
  -5   0  -7  480.77    5.04   0 
  -5   1  -5 1076.13    6.61   0 
  -4   1  -5 4870.87   13.35   0 
  -2  -1  -8  318.93    4.87   0 
  -2   0  -6  640.77    6.32   0 
  -1  -5 -11   62.10    4.42   0 
   1  -4  12  177.54    4.14   0 
   3  -5   8  579.55    5.35   0 
   4  -8   9  354.38    4.81   0 
   4  -6   5  822.81    6.15   0 
   5  -9   5   62.77    4.15   0 
   5  -8   0  524.36    6.13   0 
   5  -8   1  452.70    5.75   0 
   5  -8   2  929.78    7.33   0 
  -8   2   3   28.73    3.08   0 
  -8   2   4 1299.83    8.66   0 
  -8   2   5 1392.94    9.22   0 
  -8   2   6  289.21    4.72   0 
  -7   2   0   25.25    3.14   0 
  -7   2   7  286.49    5.82   0 
  -6   0  -6  341.88    4.51   0 
  -6   2  -1  103.21    3.59   0 
  -5  -1  -8  403.19    4.98   0 
  -5   2  -1  952.55    6.60   0 
  -4   2   0   76.04    3.51   0 
  -3   1  -4 2892.16   11.06   0 
  -2  -3  16  716.72    8.09   0 
  -2  -2  -9  191.97    4.92   0 
  -2   0  10  503.63    7.94   0 
   0   0   2 1290.67   16.27   0 
   1  -2   8  845.80    6.91   0 
   1  -1   3  898.96    8.54   0 
   2  -6  13  169.38    4.04   0 
   2  -3   7 1000.13    6.74   0 
   2  -2   2   63.24    3.65   0 
   3  -4  -4 2313.57   16.66   0 
   4  -7   8  647.91    5.67   0 
   4  -6  -4 1862.85   12.52   0 
   4  -6   6  255.02    4.70   0 
   5  -8  -1  359.94    5.62   0 
   5  -8   3  132.37    3.66   0 
  -7   0  -5    5.37    3.07   0 
  -7   2   1   44.57    3.14   0 
  -6  -1  -7  251.09    4.21   0 
  -6   1  -4  218.95    3.97   0 
  -6   2   0   62.71    3.95   0 
  -6   2   7   24.98    3.71   0 
  -4  -1  -8  666.80    5.66   0 
  -4  -1  15   57.08    5.74   0 
  -4   2   1 1017.23    8.06   0 
  -4   2   4 3787.48   17.01   0 
  -3  -2  -9   12.31    3.75   0 
  -3  -1  -8  133.25    3.71   0 
  -3  -1  14  382.57    7.29   0 
  -2   1  -2  597.75    6.55   0 
  -2   1   6 1081.33   22.05   0 
   0  -3  13  574.70    5.95   0 
   1  -5  14  331.34    4.82   0 
   2  -5  -8   12.16    7.18   0 
   2  -2  -1  216.59    5.86   0 
   2  -2   3  459.11    5.90   0 
   3  -7  12   12.04    2.89   0 
   3  -4   6  385.65    4.76   0 
   4  -5  -1 1019.92    8.12   0 
   4  -5   0  766.26    6.72   0 
   5  -9   6  108.05    3.88   0 
   5  -8  -2  154.52    4.78   0 
   5  -8   4    8.26    3.05   0 
  -8   1  -1  116.06    3.68   0 
  -7   2   2  256.70    4.47   0 
  -7   2   3  608.17    6.37   0 
  -7   2   6  272.46    5.27   0 
  -6   2   1  431.83    5.36   0 
  -5   0  -6    8.31    3.00   0 
  -5   2   0  411.27    4.75   0 
  -5   2   6  786.47    8.54   0 
  -4   0  13  476.48   10.51   0 
  -4   1  -4 2114.41    9.08   0 
  -4   2   2 1534.73    9.63   0 
  -4   2   3 1026.25    8.72   0 
  -1  -3  15  528.51    6.57   0 
  -1  -1  11  270.86    5.50   0 
  -1   0  -4 1405.49    9.85   0 
   0  -1  -5 2152.05   14.04   0 
   2  -3   8  769.67    5.98   0 
   3  -6  11   12.79    2.99   0 
   3  -5   9  314.06    4.29   0 
   4  -7   9  429.05    4.80   0 
   4  -6   7  391.76    4.58   0 
   4  -5   3   11.15    2.85   0 
   5  -9   7   22.90    3.05   0 
   5  -8   5  122.23    3.59   0 
  -7   0  -4   43.37    3.33   0 
  -7   1  11  128.04    6.38   0 
  -6   0  -5   81.93    3.60   0 
  -6   2   2  162.26    4.39   0 
  -6   2   6   12.30    3.55   0 
  -5  -1  -7  552.11    5.31   0 
  -5   2   1  752.93    6.19   0 
  -3  -4 -10   95.86    4.54   0 
  -3   0  12  117.74    6.84   0 
  -3   1  -3 2151.73    9.89   0 
  -2  -2  15  364.56    6.69   0 
  -1  -2  -8 2740.52   12.14   0 
  -1   0   8 1220.75   10.40   0 
   2  -6  14   55.87    4.14   0 
   3  -4   7 2640.09    9.99   0 
   4  -5  -2 3365.21   14.12   0 
   4  -5   4  411.01    4.75   0 
   5  -8  -3  145.74    4.80   0 
   5  -8   6   57.22    3.27   0 
   5  -7   2  516.68    5.56   0 
   5  -7   3   49.15    3.48   0 
  -8   0  -2   87.73    3.57   0 
  -8   1  10   16.69    3.90   0 
  -6  -1  -6  157.02    3.92   0 
  -6   1  11  236.09    8.04   0 
  -6   2   3 2022.14   10.29   0 
  -6   2   5  161.88    4.65   0 
  -5   2   2 1071.11    7.71   0 
  -5   2   3 2645.85   12.16   0 
  -5   2   4  495.42    6.42   0 
  -5   2   5  388.97    6.13   0 
  -2   1  -1  184.12    4.66   0 
   0  -1   9  303.89    5.38   0 
   1  -5  15  495.24    5.73   0 
   1  -2   9  792.95    6.34   0 
   1  -1   5 4315.87   16.04   0 
   2  -4  11  511.90    5.29   0 
   3  -3   1 3631.70   13.67   0 
   4  -7  10  473.51    5.19   0 
   5  -7  -1  426.61    5.44   0 
   5  -7   4  316.58    4.27   0 
  -8   1   1  149.20    3.70   0 
  -7   0  -3   68.75    4.08   0 
  -6   1  -2   20.14    2.94   0 
  -5   0  -5  554.91    5.16   0 
  -4   1  -3 2418.12    9.74   0 
   0  -2  12  249.22    5.29   0 
   0   0   4  823.38    9.94   0 
   1  -3  12  164.18    4.72   0 
   2  -5  13  493.32    5.37   0 
   2  -3   9  450.33    5.11   0 
   2  -2  -2  499.17    8.68   0 
   3  -4   8   88.16    3.61   0 
   4  -5   6  195.42    3.91   0 
   5  -7  -2   18.19    3.68   0 
   5  -7   5  168.14    3.95   0 
  -8   0  -1  346.22    4.70   0 
  -8   1   2  226.26    4.21   0 
  -8   1   9  155.11    4.81   0 
  -7   1   0  168.65    4.38   0 
  -6   0  -4   42.34    3.29   0 
  -4   0  -5  367.18    4.65   0 
  -3  -2  -8  453.82    5.23   0 
  -3   1  -2  385.47    4.92   0 
  -2  -5 -10   43.97    4.17   0 
  -1  -5 -10    8.57    3.77   0 
  -1  -2  14  136.53    4.69   0 
   0  -4  -9  167.89    4.95   0 
   0  -3  -8   72.10    4.42   0 
   1  -4  14  151.59    3.96   0 
   2  -7  -9  705.64   12.29   0 
   3  -3  -1 2356.55   12.75   0 
   3  -3   4 1923.73    9.17   0 
   4  -6   9   51.62    3.25   0 
   4  -5  -3   86.89    4.46   0 
   5  -8  -4   83.03    4.84   0 
   5  -8   8  339.34    4.70   0 
   5  -7   6   58.07    3.18   0 
  -8   1   3  129.83    3.70   0 
  -8   1   8  598.75    6.96   0 
  -7  -1  -4    4.13    3.06   0 
  -6  -2  -6  168.71    4.37   0 
  -6  -1  -5   23.28    3.04   0 
  -6   1  -1 1040.39    6.82   0 
  -5  -2  -7  447.52    5.14   0 
  -4   1  -2  926.25    7.00   0 
  -1  -3  16  139.80    4.86   0 
  -1  -1  12  326.37    5.61   0 
  -1   0  -3  232.15    5.48   0 
   1  -4  -8   46.89    5.26   0 
   1  -2  -5 1289.15   15.40   0 
   1  -2  10  469.29    5.36   0 
   2  -4  12  166.75    3.87   0 
   2  -2   6 1168.10    7.51   0 
   3  -5  11   36.49    3.18   0 
   3  -4   9  228.40    4.20   0 
   5  -9  -5    8.78    5.08   0 
   5  -7  -3 1096.12    8.86   0 
   5  -7   7  642.20    5.52   0 
   5  -6   1 1008.32    6.98   0 
   5  -6   2  219.78    4.07   0 
   5  -6   3  288.50    4.72   0 
   6  -9   3  378.06    5.06   0 
  -8   0   0  351.18    4.93   0 
  -8   1   5  411.17    5.78   0 
  -8   1   6  248.87    5.12   0 
  -8   1   7  258.49    5.26   0 
  -7   0  -2    5.08    2.90   0 
  -7   1  10  114.08    5.54   0 
  -6   0  -3   41.16    3.87   0 
  -5   0  -4 2536.08    9.57   0 
  -4  -1  -6  210.83    4.17   0 
  -3  -4  -9  495.74    5.76   0 
  -2   0  11  350.95    6.96   0 
  -1  -6 -10   63.15    4.54   0 
  -1   0   9 2870.30   14.99   0 
   0  -1  10   77.35    4.44   0 
   2  -3  10  562.82    5.29   0 
   3  -6  13  119.44    3.86   0 
   3  -3   6 6847.12   16.28   0 
   4  -8  -7  198.71   10.35   0 
   4  -6  10  324.88    4.42   0 
   4  -4   1  349.10    5.09   0 
   4  -4   2 1033.54    6.87   0 
   4  -4   3   71.65    3.90   0 
   5  -6   0  673.39    6.12   0 
   5  -6   4  724.78    5.67   0 
   6  -9   0  127.87    3.88   0 
  -7  -1  -3   29.53    3.80   0 
  -5   1  -1  903.10    6.45   0 
  -4  -2  -7  296.84    4.23   0 
  -4   0  -4 3639.29   11.95   0 
  -3  -1  -6  978.66    6.72   0 
  -3   1  -1 1242.41    8.31   0 
  -2  -2  16  128.09    5.38   0 
  -1  -4  -9   14.20    3.29   0 
  -1  -2  -7 1041.20    7.92   0 
   0  -3  15   11.02    3.98   0 
   0  -2  13  342.07    5.70   0 
   1  -3  13  610.87    5.79   0 
   1  -1   7    4.03    3.66   0 
   3  -5  12  462.93    5.36   0 
   4  -5   8  372.99    4.56   0 
   4  -4   0 1938.82    9.77   0 
   4  -4   4  144.67    3.71   0 
   5  -7   8  749.17    6.01   0 
   5  -6  -1 1101.77    7.76   0 
   5  -6   5  604.87    5.42   0 
   6  -8   2    9.83    3.69   0 
  -8   0   1   87.10    3.52   0 
  -7   0  -1  250.03    4.08   0 
  -4   1  -1  347.62    4.75   0 
  -3  -3  -8  156.39    3.80   0 
  -3   0  -4 2454.78   10.23   0 
  -2  -1  14  639.26    7.88   0 
  -1  -3  -8  450.52    5.68   0 
   1  -4  15  636.09    6.34   0 
   1  -2  11   16.62    3.71   0 
   2  -4  13  132.64    3.78   0 
   3  -4  -5 1999.41   20.42   0 
   3  -4  10  344.44    4.51   0 
   3  -3   7    6.09    3.07   0 
   4  -6  11  107.31    3.62   0 
   4  -5  -4   88.17    5.01   0 
   4  -5   9   15.58    3.69   0 
   5  -6   6  728.67    5.76   0 
   6  -8   0  219.81    4.97   0 
   6  -8   1  124.49    3.72   0 
   6  -8   3   -0.29    3.16   0 
   6  -8   4  429.45    5.00   0 
   6  -8   5  456.55    5.77   0 
  -8   0   2  132.77    4.40   0 
  -7   1   3  105.17    3.72   0 
  -6   0  -2  819.22    5.98   0 
  -6   1   1  211.52    4.00   0 
  -6   1  10  201.06    6.66   0 
  -4  -4  -8    6.72    3.29   0 
  -1  -2  15 1925.16   11.37   0 
  -1  -1  -5 1914.81   11.27   0 
   0   0   6 1762.05   11.99   0 
   2  -3  11  539.16    5.40   0 
   4  -4   6 1168.38    6.86   0 
   5  -7  -4 1219.07   10.02   0 
   5  -6   7  768.79    5.78   0 
   6  -9  -2   35.77    3.40   0 
   6  -8   6  122.69    3.93   0 
  -8  -1   0  135.65    3.73   0 
  -7   1   4  206.29    4.24   0 
  -7   1   5   50.18    3.92   0 
  -7   1   7  163.26    4.74   0 
  -7   1   8   66.02    4.05   0 
  -5   1  10    8.17    6.28   0 
  -4  -1  -5  183.47    3.95   0 
  -4  -1  16  129.38    7.05   0 
  -2  -5  -9  171.18    4.26   0 
  -1  -1  13  571.24    7.11   0 
   0  -1  11  169.92    4.70   0 
   3  -5  13   68.08    3.62   0 
   3  -4  11  716.42    6.01   0 
   3  -3   8   86.58    3.45   0 
   4  -6  12  156.42    3.84   0 
   5  -7  10  119.62    3.75   0 
   5  -5   2  194.31    4.51   0 
   6  -8  -1  206.65    4.41   0 
  -6  -1  -3 1318.71    7.36   0 
  -6   0  -1  887.50    6.52   0 
  -5  -1  -4 2726.05    9.89   0 
  -4  -2  -6  837.18    6.02   0 
  -1   0  10  541.86    7.63   0 
   0  -2  14  430.14    6.33   0 
   1  -3  14  402.50    5.29   0 
   2  -4  14  340.92    4.77   0 
   2  -3  12  488.68    5.77   0 
   2  -2   9  406.94    5.22   0 
   4  -4  -2 1355.18    9.65   0 
   4  -4   7 1720.22    8.06   0 
   5  -6  -3  304.50    5.45   0 
   5  -5   3 1213.31    7.22   0 
   6  -9  -3  350.97    6.22   0 
   6  -8  -2   84.95    4.43   0 
   6  -7   1  769.97    6.71   0 
   6  -7   3    6.28    3.03   0 
  -8   0   4    5.48    3.04   0 
  -7  -1  -1   32.81    3.10   0 
  -6   1   3  633.42    6.47   0 
  -6   1   9  633.88    8.29   0 
  -3   0  -3  690.07    6.00   0 
  -2   0  12  756.51    9.58   0 
  -2   1   2 2433.80   17.96   0 
  -2   1   7  573.14   13.99   0 
   0  -4  -8   49.02    4.05   0 
   0  -3  16   20.78    3.43   0 
   1  -2  12  298.37    4.88   0 
   3  -3  -3 2000.68   14.41   0 
   3  -3   9  375.70    4.70   0 
   4  -5  11   18.67    3.74   0 
   4  -4   8   42.06    3.23   0 
   5  -6   9  402.90    4.89   0 
   5  -5   5  900.56    6.33   0 
   5  -5   6 1330.28    7.70   0 
   6  -7   6  226.49    4.70   0 
  -8   0   9   83.98    4.39   0 
  -6   1   4 1495.76    8.91   0 
  -5  -4  -6    7.20    3.84   0 
  -4  -4  -7   84.21    3.67   0 
  -4   1   1  911.00    7.60   0 
  -3  -5  -8  530.31    6.05   0 
  -2  -4  -8  937.15    7.10   0 
  -1  -4  -8   30.71    4.05   0 
   1  -7  -9   27.79    4.67   0 
   3  -4  12  214.44    4.24   0 
   3  -2   3 1768.67    9.19   0 
   5  -9  -6   87.14    6.81   0 
   5  -5  -1 1504.42    9.33   0 
  -8   0   8   94.70    4.45   0 
  -7   0  12  310.48    7.47   0 
  -6  -3  -4   11.62    3.10   0 
  -6  -1  -2  738.55    5.74   0 
  -6   1   5    6.59    3.66   0 
  -4   0  -2 1682.67    8.44   0 
  -3   1   1 1749.80   10.75   0 
  -2  -3  -7  705.36    6.63   0 
  -2  -2  -6  275.01    4.52   0 
  -2  -1  15  306.94    6.96   0 
   0  -7  -9   63.58    4.98   0 
   0   0   8 1544.24   10.42   0 
   1  -3  15  368.62    5.80   0 
   2  -3  13  460.34    5.91   0 
   2  -2  10  702.67    6.04   0 
   3  -2   2   41.65    3.35   0 
   3  -2   4  363.39    4.72   0 
   4  -4   9  461.47    4.92   0 
   5  -6  10  454.51    5.14   0 
   5  -5   7  575.16    5.33   0 
   6  -8  -3  119.21    4.75   0 
  -7  -1   0  475.59    5.00   0 
  -6   1   6   21.22    3.78   0 
  -5  -3  -5    9.73    3.03   0 
  -5  -2  -4   70.67    4.09   0 
  -5   1   3  214.62    4.69   0 
  -4  -2  -5    8.93    3.19   0 
  -3  -1  16  111.03    6.40   0 
  -1  -1  14  557.86    7.04   0 
   1  -1  10    8.36    3.81   0 
   2  -1   2  596.12    6.56   0 
   2  -1   3  510.88    5.93   0 
   2  -1   4   87.64    3.42   0 
   2  -1   5  786.69    6.66   0 
   3  -4  13   69.57    3.56   0 
   3  -2   1 1597.74    9.59   0 
   3  -2   6 5381.63   14.53   0 
   4  -5  12  924.48    7.03   0 
   4  -4  -3  578.45    7.25   0 
   4  -3   1 1287.74    8.35   0 
   4  -3   4  952.84    6.56   0 
   5  -7  -5  671.41    9.14   0 
   5  -5   8    7.42    3.16   0 
   6  -9  -4  693.75    8.72   0 
   6  -7  -2  331.31    5.61   0 
   6  -7   8  236.79    4.53   0 
   6  -6   2  280.94    4.31   0 
   6  -6   3  523.30    5.33   0 
   6  -6   4  244.71    4.10   0 
  -7  -2  -1  100.40    3.61   0 
  -6   0  13    6.68    5.57   0 
  -5   1   9 1192.02   12.40   0 
  -3  -4  -7  140.39    3.90   0 
  -2   0  -2  312.24    5.11   0 
   2  -2  11  290.70    5.09   0 
   2  -1   6  974.10    7.42   0 
   3  -3  11  728.57    6.22   0 
   4  -5  -5  766.05   10.57   0 
   4  -4  10   59.86    3.24   0 
   5  -6  -4 1995.25   12.57   0 
   5  -5   9  181.13    3.94   0 
   6  -6   5   14.40    2.86   0 
   6  -6   6   53.44    3.23   0 
   7  -8   3  212.46    4.88   0 
  -7   0   4  446.79    5.12   0 
  -7   0  11  176.14    5.66   0 
  -6  -3  -3  119.57    4.38   0 
  -6  -1  -1  180.77    3.86   0 
  -5   1   4 3879.96   14.66   0 
  -4  -4  -6  131.70    3.87   0 
  -3  -3  -6   70.40    4.01   0 
  -2  -6  -8   25.79    3.87   0 
  -2  -1  -4 4125.59   14.03   0 
  -1  -5  -8   87.16    4.27   0 
   0  -5  -8    5.99    3.84   0 
   0   0   9  673.42    7.29   0 
   2  -3  14   92.62    4.36   0 
   3  -2   7  421.08    4.88   0 
   4  -3   7  620.45    5.45   0 
   5  -4   2  553.53    5.34   0 
   5  -4   5  894.50    6.71   0 
   6  -6   7  723.16    6.01   0 
   7  -8   2   37.41    3.36   0 
  -8  -1   5  103.64    3.65   0 
  -7  -3  -1  363.91    4.93   0 
  -7  -2   0  220.29    4.12   0 
  -5  -1  -2  572.04    5.30   0 
  -5   1   5 4699.49   16.43   0 
  -4   1   3 3272.59   14.19   0 
   1  -2  14  310.85    5.46   0 
   1  -1  11  304.81    5.27   0 
   3  -4  14   45.89    3.40   0 
   3  -2   8  262.93    4.27   0 
   4  -4  11   25.76    3.24   0 
   6  -7  -3   11.87    4.36   0 
   6  -6  -1  715.26    7.00   0 
   7  -8   0  188.29    5.06   0 
  -8  -2   3  117.65    3.84   0 
  -8  -1   6   89.40    3.65   0 
  -7   0   6   34.01    3.19   0 
  -7   0  10   89.49    4.40   0 
  -6  -4  -3   17.78    3.85   0 
  -5  -3  -4  245.29    4.20   0 
  -5   1   6  649.05    7.38   0 
  -4  -5  -6  165.05    4.20   0 
  -4  -2  -4   17.72    3.08   0 
  -4   1   9 1545.23   17.68   0 
  -2   0  13  493.86    8.16   0 
  -1  -6  -8  198.33    5.20   0 
   0  -2  -5 2670.81   14.67   0 
   2  -2  12  643.34    5.95   0 
   2  -1   8  300.05    4.90   0 
   3  -3  12  478.42    5.56   0 
   4  -3  -1  620.53    6.62   0 
   4  -3   8  144.05    3.71   0 
   5  -5  -3  123.39    4.65   0 
   5  -4   0  681.21    6.51   0 
   6  -6   9   56.24    4.16   0 
  -8  -2   4  144.01    4.66   0 
  -8  -1   8   21.01    4.05   0 
  -7  -2   1  441.77    5.42   0 
  -7   0   7   13.55    3.12   0 
  -7   0   8   16.42    3.80   0 
  -7   0   9  196.87    5.18   0 
  -6   0   3  127.15    4.25   0 
  -5   0   1   71.54    3.82   0 
  -4   1   4 4085.41   16.35   0 
  -3   0  -1  103.98    3.52   0 
  -3   1   3 2813.96   15.62   0 
  -2  -3  -6  834.70    6.64   0 
  -2  -1  16    4.37    4.37   0 
  -2   1   8 1321.39   17.63   0 
  -1  -4  -7  797.72    7.34   0 
  -1  -1  15  161.41    5.23   0 
  -1   0  -1   61.73    4.42   0 
   0  -4  -7  717.04    7.65   0 
   0  -2  16    8.34    3.95   0 
   0   0  10  976.46    8.47   0 
   2  -3  15  990.64    8.60   0 
   2  -1   0  721.16    8.61   0 
   3  -2   9  156.07    3.88   0 
   4  -4  12  163.23    4.01   0 
   4  -3   9  184.80    3.85   0 
   5  -5  11  304.71    4.65   0 
   6  -5   2    3.76    3.50   0 
   6  -5   3  584.70    5.45   0 
   7  -8  -1  208.79    5.23   0 
   7  -7   2   61.08    4.03   0 
   7  -7   3  202.04    4.16   0 
  -7  -3   0   36.63    3.38   0 
  -7  -1   3  108.72    3.53   0 
  -6   0  12   91.09    5.89   0 
  -5  -4  -4  174.31    3.76   0 
  -4  -4  -5  518.63    5.31   0 
  -3   0  14  537.31   10.71   0 
  -2  -5  -7  337.13    5.03   0 
  -2   1   4 1250.47   18.70   0 
  -1  -2  -5  159.01    4.18   0 
  -1   0  12 1174.27    9.68   0 
   0  -1  -3    7.04    3.88   0 
   2  -7  -8  398.73    8.62   0 
   2  -1   9  976.20    6.78   0 
   3  -3  13  219.27    5.06   0 
   5  -4  -1  547.03    6.30   0 
   6  -6  -2  443.07    6.00   0 
   6  -5   1  239.77    4.35   0 
  -8  -2   5   84.38    3.57   0 
  -7  -1   4  212.41    4.63   0 
  -5  -2  -2  636.63    5.57   0 
  -4   1   5  704.00    8.04   0 
  -3  -3  -5  279.54    4.34   0 
  -3  -2  -4  454.71    5.42   0 
  -2  -6  -7    8.14    4.12   0 
   0  -1  14  571.63    6.83   0 
   1  -2  15   51.81    3.61   0 
   1   0   7   20.26    3.11   0 
   2  -2  13  507.79    5.45   0 
   3  -2  10  765.98    6.18   0 
   4  -3  10  875.35    6.33   0 
   6  -5   0  964.37    7.48   0 
   6  -5   7  348.04    4.57   0 
   7  -8  -2   17.81    3.86   0 
  -7  -3   1  139.80    3.84   0 
  -7  -2   2  216.31    4.13   0 
  -6  -3  -1  292.23    4.99   0 
  -4  -5  -5  302.56    4.66   0 
  -4  -3  -4   10.36    2.85   0 
  -4   1   6  691.87    8.69   0 
  -4   1   7 1007.55   11.01   0 
  -3  -5  -6  927.61    6.91   0 
   2  -8  -8  324.67    7.95   0 
   2  -1  10  510.30    5.88   0 
   3  -6  -7   17.96    8.30   0 
   4  -3  -2  346.82    5.89   0 
   4  -2   5 5123.25   14.20   0 
   5  -6  -5  597.44    8.82   0 
   5  -4  10    7.93    2.91   0 
   6  -7  -4    6.98    3.63   0 
  -6  -1   2   43.15    3.22   0 
  -5  -4  -3   22.90    3.12   0 
  -5  -1   0  463.00    5.03   0 
  -3  -6  -6   19.86    3.33   0 
  -1  -5  -7  211.12    4.62   0 
   0   0  11  786.16    7.31   0 
   1  -1  13   52.96    4.26   0 
   1   0   2 1513.97   12.19   0 
   1   0   8   20.06    2.98   0 
   3  -3  14   51.26    3.52   0 
   3  -2  11  195.40    4.04   0 
   4  -3  11 1390.69    7.94   0 
   4  -2   2  689.31    6.35   0 
   4  -2   3 1138.79    7.17   0 
   5  -4  -2 1840.80   10.68   0 
   5  -3   4  378.04    4.64   0 
   6  -8  -5    9.49    5.13   0 
   6  -6  -3  359.58    5.96   0 
   6  -5  -1  739.10    7.02   0 
   6  -5   9  235.96    4.26   0 
   7  -6   3  159.42    4.00   0 
   7  -6   4   29.54    3.13   0 
  -7  -3   2  243.25    4.23   0 
  -7  -2   3  252.85    4.31   0 
  -7  -1   6    9.28    3.69   0 
  -6  -4  -1  100.14    4.29   0 
  -6   0   6  186.10    4.23   0 
  -5   0   3 1202.76    7.92   0 
  -5   0  13  286.79    9.80   0 
  -4  -4  -4  385.50    5.53   0 
  -4  -1  -1  439.65    5.05   0 
  -3  -4  -5  905.42    6.99   0 
  -3  -1  -2  920.66    6.77   0 
  -2   1   9  339.50    9.44   0 
  -1  -1  16   77.21    5.21   0 
  -1   0  13  432.44    6.92   0 
   2  -2  14  664.69    6.43   0 
   2  -1  11  189.63    4.77   0 
   3  -1   3 2038.58    9.78   0 
   3  -1   4 3196.85   11.77   0 
   3  -1   6   76.27    3.25   0 
   4  -3  12    9.29    3.82   0 
   5  -7  -6  405.06   10.10   0 
   5  -5  -4  145.08    4.92   0 
   5  -3   2  262.26    4.20   0 
   5  -3   7   50.71    3.25   0 
   7  -6   1   64.57    3.31   0 
  -7  -1   7   71.13    4.05   0 
  -7  -1  12   73.15    4.38   0 
  -6  -3   0  273.18    4.26   0 
  -6  -2   1  358.31    4.65   0 
  -6  -1   3  225.44    4.61   0 
  -6   0   7  361.97    5.80   0 
  -6   0   8  349.21    5.67   0 
  -5  -5  -3    7.65    3.20   0 
  -3   1   5   54.67    4.76   0 
  -1  -6  -7    6.82    3.26   0 
  -1   1   6 2938.22   21.30   0 
   0  -5  -7   11.45    3.67   0 
   0  -1  15  789.40    7.85   0 
   3  -2  12  319.35    4.78   0 
   3  -1   7  947.05    6.61   0 
   4  -2   1 1407.40    8.35   0 
   4  -2   8  365.35    4.59   0 
   5  -3   8  141.63    3.77   0 
   6  -4   2  459.57    5.46   0 
   6  -4   3  643.46    5.62   0 
   6  -4   5 1340.27    7.42   0 
   7  -8  -3   86.31    4.47   0 
   7  -6   0   96.50    4.25   0 
  -7  -4   2  113.82    3.73   0 
  -7  -3   3   77.82    4.05   0 
  -7  -1   8  432.09    6.06   0 
  -7  -1   9  125.31    4.67   0 
  -7  -1  11  229.21    5.40   0 
  -5  -1   1  587.88    5.48   0 
  -4  -5  -4  485.47    5.30   0 
  -4  -2  -2  353.44    4.79   0 
  -3  -3  -4 1274.93    7.68   0 
  -3  -2  -3 1488.23    8.05   0 
  -1  -7  -7  142.57    4.26   0 
  -1  -4  -6  537.01    6.04   0 
  -1   1   7  941.93   11.26   0 
   1  -2  -4 1663.60   18.60   0 
   1  -1  14   47.83    4.54   0 
   1   0  10   42.57    4.03   0 
   2  -1  -1 3022.96   17.72   0 
   5  -3   0  471.92    5.65   0 
   5  -3   9  195.91    4.07   0 
   6  -5  -2 1218.06    8.86   0 
   6  -4   7   60.38    3.33   0 
  -7  -2   5   38.85    3.37   0 
  -6  -4   0  306.22    4.55   0 
  -6  -2   2  566.07    5.80   0 
  -6  -1   4  158.64    4.42   0 
  -5  -4  -2  128.96    3.96   0 
  -4  -6  -4  131.22    4.10   0 
  -3   1   6 1091.18   13.77   0 
  -2   0   0  227.05    5.75   0 
  -1   1   5 1199.47   16.03   0 
  -1   1   8 2396.11   16.46   0 
   0  -6  -7   27.50    4.12   0 
   2  -1  12  314.40    4.85   0 
   3  -1   9  432.49    5.40   0 
   4  -2  10  462.42    5.72   0 
   7  -6  -1  420.03    6.24   0 
   7  -5   4   70.66    3.51   0 
   7  -5   5    9.74    3.02   0 
   7  -5   6   94.22    4.26   0 
  -7  -3   4   35.99    3.92   0 
  -6  -3   1  682.01    5.74   0 
  -5  -5  -2   51.67    3.47   0 
  -4  -1   0  198.68    4.04   0 
  -3   1   8 1354.19   21.34   0 
  -2  -1  -2 1688.81    9.78   0 
  -1   0  14 1081.43   10.15   0 
   0  -4  -6  156.01    5.00   0 
   1   0   1   58.18    4.51   0 
   2   0   4  812.25    7.55   0 
   4  -3  -3 3455.96   16.06   0 
   5  -3  10   60.23    3.30   0 
   6  -6  -4  502.30    7.20   0 
   6  -4   9  446.22    5.22   0 
   7  -7  -3   11.03    4.48   0 
  -7  -2   6 1418.85    8.24   0 
  -6  -1   5 2358.04   10.45   0 
  -5  -1   2 1911.24    8.98   0 
  -5   0   5 3557.86   13.93   0 
  -3  -4  -4  200.18    4.01   0 
  -3  -1  -1  311.95    4.76   0 
  -3   0   1 3580.01   14.51   0 
  -3   1   7  887.07   14.59   0 
  -2   1   5  221.17   11.52   0 
  -2   1  10   69.82    6.35   0 
   0  -8  -7  567.98    7.23   0 
   0   0  13  598.58    7.44   0 
   1   0  11  724.12    6.75   0 
   2  -1  13  148.55    4.72   0 
   2   0   7  237.55    4.21   0 
   3  -1  10  657.96    5.99   0 
   5  -3  -1  599.33    6.26   0 
   7  -8  -4  398.85    7.25   0 
  -7  -4   4 1001.64    7.65   0 
  -7  -3   5  141.36    3.99   0 
  -7  -2   7  918.84    6.96   0 
  -6  -4   1  130.56    3.70   0 
  -6  -1  14  406.38    8.38   0 
  -5  -4  -1  198.12    4.02   0 
  -5   0  12  394.20    8.78   0 
  -4  -5  -3  132.79    3.85   0 
  -3   0  15  176.28    9.53   0 
   1  -6  -7  106.38    4.70   0 
   1  -1  15   12.70    4.02   0 
   2   0   8  335.47    4.80   0 
   4  -8  -7  212.68   10.95   0 
   4  -2  -1 1026.83    8.38   0 
   5  -2   6  283.35    4.31   0 
   6  -5  -3  758.03    7.40   0 
   6  -4  -1  591.35    6.43   0 
   7  -6  -2  796.41    7.66   0 
   7  -5   0  593.96    6.32   0 
   8  -7   0  419.37    5.93   0 
  -7  -2   8  371.96    5.14   0 
  -6  -5   1   80.96    3.68   0 
  -6  -3   2  603.68    5.58   0 
  -6  -1   6 1855.38   10.03   0 
  -5  -5  -1   74.10    4.14   0 
  -5  -3   0  739.16    5.90   0 
  -4  -6  -3   82.23    3.70   0 
  -3  -2  -2 1353.11    7.93   0 
  -2  -5  -5  380.15    5.26   0 
  -1  -8  -6   73.74    4.77   0 
  -1  -6  -6  285.78    5.27   0 
  -1   0   0 7177.72   32.10   0 
   1   0  12  761.30    7.42   0 
   2   0   9  255.59    4.46   0 
   3  -1  11  469.59    5.30   0 
   4  -1   5 4827.41   13.73   0 
   5  -2   3   73.89    3.26   0 
   5  -2   7  121.12    3.67   0 
   6  -3   4  333.62    4.55   0 
   6  -3   5  555.08    5.26   0 
   6  -3   6  192.94    3.88   0 
  -7  -4   5   75.99    3.72   0 
  -7  -2   9   89.40    3.80   0 
  -6  -2   4   22.40    3.02   0 
  -5  -6  -1  120.80    3.73   0 
  -4  -1   1 3309.65   12.04   0 
  -3  -6  -4  322.07    4.90   0 
  -2  -7  -5   75.64    4.33   0 
  -1  -7  -6   72.62    3.87   0 
  -1   1  10  591.03    8.33   0 
   0   1   6  186.96    5.07   0 
   2   0  10  166.13    4.74   0 
   3  -1  12  238.85    4.97   0 
   4  -1   3 2135.36    9.49   0 
   5  -2   2   96.88    3.41   0 
   5  -2   8  303.52    4.48   0 
   7  -5  -1  277.86    5.30   0 
   7  -4   3  335.99    5.27   0 
  -7  -3   7  388.34    5.62   0 
  -6  -4   2  312.01    4.59   0 
  -5   0   8  109.64    4.98   0 
  -5   0  11  777.67    9.80   0 
  -3   0   2 1952.03   11.72   0 
  -1  -4  -5  725.16    6.83   0 
  -1   0  15    5.63    4.63   0 
   0   0  14  801.55    8.34   0 
   0   1   5 2113.14   14.41   0 
   3  -7  -7    3.28    6.01   0 
   4  -4  -5  119.67    6.71   0 
   4  -1   2  958.04    7.26   0 
   4  -1   8  221.22    4.17   0 
   5  -3  -2  779.67    7.19   0 
   5  -2   9  173.77    3.98   0 
   6  -4  -2 1240.37    8.87   0 
   7  -6  -3   59.38    4.54   0 
   7  -4   7  115.17    3.72   0 
  -7  -4   6   81.00    3.83   0 
  -7  -3   8  102.96    4.46   0 
  -6  -5   2   58.56    3.49   0 
  -6  -2   5  313.26    5.32   0 
  -6  -1   9  126.83    4.60   0 
  -6  -1  12   59.08    4.77   0 
  -5  -3   1   74.59    3.43   0 
  -5  -2   2  935.90    6.70   0 
  -5  -1   4   12.32    3.79   0 
  -5   0  10 1864.08   13.11   0 
  -4  -7  -2   36.28    3.41   0 
  -4  -5  -2  191.01    4.11   0 
  -4   0   4  297.50    4.96   0 
  -3  -1   0  311.22    4.85   0 
  -2  -4  -4   37.22    3.26   0 
   2  -8  -7   50.17    5.22   0 
   2  -7  -7    5.94    4.68   0 
   3  -2  -3  885.68   10.09   0 
   3   0   6   18.51    3.51   0 
   4  -1   9  361.39    4.75   0 
   5  -4  -4  136.37    4.95   0 
   7  -4   1  291.40    5.07   0 
   8  -6   0    6.55    2.97   0 
  -7  -4   7  146.63    4.60   0 
  -7  -3   9  189.40    5.08   0 
  -6  -4   3  306.45    4.54   0 
  -6  -3   4  631.16    6.15   0 
  -6  -1  10  748.86    7.56   0 
  -6  -1  11   76.53    4.25   0 
  -5  -6   0  161.47    3.96   0 
  -2   0   1 3830.61   18.52   0 
  -1   1  11  272.57    6.46   0 
   3  -8  -7   76.67    6.90   0 
   3  -1  13  100.77    3.84   0 
   3   0   7   99.04    3.51   0 
   3   0   8  453.53    5.55   0 
   4  -2  -2 1545.33   10.33   0 
   4  -1   1  359.87    5.46   0 
   4  -1  10  548.84    5.57   0 
   5  -6  -6  985.50   15.49   0 
   5  -2   0  403.23    4.89   0 
   6  -6  -5  445.90    8.05   0 
   6  -3   0    6.81    3.16   0 
   7  -5  -2 1030.87    8.26   0 
  -7  -3  10   11.43    4.01   0 
  -6  -5   3   19.32    3.39   0 
  -6  -2   6 2075.47    9.83   0 
  -5  -4   1   18.95    4.02   0 
  -4  -4  -1  195.04    4.22   0 
  -3  -5  -3   85.40    3.56   0 
  -3  -3  -2  835.86    6.50   0 
  -1  -5  -5  443.26    5.63   0 
  -1  -2  -3 1622.31   10.56   0 
   0  -8  -6   52.01    3.78   0 
   0  -7  -6  107.64    4.74   0 
   0   0  15   95.11    4.82   0 
   3   0   3  755.46    6.75   0 
   3   0   9 1565.28    8.98   0 
   4  -1  11    2.66    3.18   0 
   7  -8  -5  166.33    6.70   0 
  -6  -4   4  220.38    4.67   0 
  -6  -3   5    6.23    3.78   0 
  -5  -3   2   37.28    4.16   0 
  -5  -2   3   75.72    3.53   0 
  -2  -8  -4   59.23    3.61   0 
  -2   0  16  227.29    8.74   0 
   0  -4  -5  910.68    8.32   0 
   1   0  14   87.00    4.08   0 
   1   1   6 1165.51    8.76   0 
   1   1   7 4082.22   15.27   0 
   4  -3  -4  318.58    6.58   0 
   5  -3  -3 4966.93   17.52   0 
   6  -3  -1  216.05    4.39   0 
   6  -2   6   15.84    3.29   0 
   6  -2   7   79.27    3.44   0 
   7  -3   4  339.94    5.12   0 
   8  -5   1  153.51    4.15   0 
  -6  -5   4   13.37    4.03   0 
  -6  -2   7  222.40    4.55   0 
  -5  -6   1  442.98    5.40   0 
  -5  -5   1  372.80    4.84   0 
  -5  -1  15    4.50    6.09   0 
  -4  -7  -1  151.01    4.19   0 
  -4  -5  -1  333.93    4.73   0 
  -4  -3   0  138.83    3.96   0 
  -4  -2   1   11.42    3.14   0 
  -1   0  16   56.60    5.25   0 
  -1   1  12  835.70    9.79   0 
   1   1   5 1827.00   11.13   0 
   2   0  13   37.25    4.11   0 
   3   0  10  418.44    5.32   0 
   4  -1   0 2558.85   11.47   0 
   5  -2  -1  785.54    6.60   0 
   5  -1   5 1068.95    6.90   0 
   5  -1   6  166.17    3.85   0 
   5  -1   7   69.56    3.40   0 
   6  -2   3  776.14    6.20   0 
   7  -6  -4   40.07    4.19   0 
   7  -4  -1  547.16    6.00   0 
   8  -7  -3   71.62    4.73   0 
   8  -6  -2  305.76    6.09   0 
   8  -5   0   35.60    4.29   0 
  -6  -3   6   36.94    3.93   0 
  -6  -2   8  241.73    5.18   0 
  -5  -4   2  109.13    4.32   0 
  -5  -1   6 1113.18    8.41   0 
   1   1  10  799.11    7.54   0 
   5  -1   3  795.52    6.17   0 
   6  -2   9   44.31    3.55   0 
  -6  -2   9  135.77    4.73   0 
  -5  -3   3  162.74    4.81   0 
  -4  -4   0 1112.96    7.14   0 
  -4  -1   3  294.40    4.77   0 
  -2  -4  -3 1361.88    8.17   0 
  -1  -4  -4  794.97    7.02   0 
   0   1  12  598.26    7.64   0 
   1  -6  -6  531.75    7.12   0 
   1   0  15    6.90    4.27   0 
   4   0   7 1447.87    8.28   0 
   5  -1  10  529.97    5.85   0 
   8  -5  -1   88.23    4.61   0 
   8  -4   2   86.05    3.89   0 
  -6  -5   5  314.90    4.83   0 
  -6  -2  10  128.25    4.89   0 
  -6  -2  11  497.01    6.46   0 
  -6  -2  13  565.20    7.60   0 
  -5  -5   2   51.54    3.50   0 
  -5  -1   7  225.39    5.13   0 
  -3  -2   0   10.70    3.05   0 
   0  -5  -5   86.12    4.83   0 
   1  -7  -6  156.68    5.15   0 
   2   0  14   35.70    3.49   0 
   2   1   6  259.46    4.48   0 
   3   0   1   98.00    3.67   0 
   3   0  12  255.73    4.74   0 
   4  -2  -3  982.24    9.06   0 
   4   0   4 3724.12   12.35   0 
   4   0   8  857.28    6.51   0 
   4   0   9  531.65    5.93   0 
   8  -4   1  243.53    5.25   0 
  -5  -1  14   58.89    5.33   0 
  -4  -6   0  200.41    4.43   0 
  -4  -2   2  222.73    4.24   0 
  -4   0  13  440.43   10.82   0 
  -1   1  13  847.66   10.51   0 
   2   0   0  245.29    5.68   0 
   2   1   9   33.40    3.32   0 
   4   0  10  281.47    5.38   0 
   5  -2  -2 1144.53    8.36   0 
   5  -1   1  910.15    6.78   0 
   5  -1  11   58.28    3.73   0 
   6  -4  -4  126.87    4.87   0 
  -6  -5   6   68.82    3.73   0 
  -6  -4   7  245.83    4.56   0 
  -6  -3   8  208.70    4.39   0 
  -5  -5   3   73.69    3.75   0 
  -5  -3   4  707.15    6.13   0 
  -5  -1   8  184.60    4.95   0 
  -4  -1   4 1110.55    8.07   0 
  -4   0   7  270.82    5.76   0 
  -3  -8  -1    1.88    3.43   0 
  -3  -4  -1  936.99    6.89   0 
  -1  -1  -1   23.45    3.93   0 
   0  -2  -3 4918.12   22.14   0 
   0   1   3    8.79    4.09   0 
   1   1   3 1357.11   10.49   0 
   2  -9  -6    2.05    4.19   0 
   3  -1  -2 1390.30   10.79   0 
   3   0  13  144.37    4.70   0 
   4   0   2 1732.58    9.30   0 
   5  -4  -5 1443.18   12.82   0 
   6  -1   5  117.93    3.83   0 
   6  -1   7  386.57    5.64   0 
   7  -5  -4   13.17    4.13   0 
   7  -2   7  106.64    3.90   0 
  -6  -5   7   47.36    3.52   0 
  -6  -3   9   41.27    3.36   0 
  -5  -6   3   29.13    3.56   0 
  -5  -1  13  386.90    7.46   0 
  -4  -4   1  417.28    5.03   0 
  -3   0   4 3064.96   16.11   0 
  -2  -2  -1 2103.15   10.77   0 
  -2   1  13  481.81   11.31   0 
   2   1  11  558.86    6.75   0 
   4   0  11  158.82    4.26   0 
   5  -3  -4  107.00    4.88   0 
   6  -3  -3 1019.46    8.43   0 
   6  -1   3   14.08    3.73   0 
   7  -3  -1  409.85    5.36   0 
   8  -3   3   30.74    4.04   0 
   8  -3   4   18.55    3.16   0 
  -6  -4   8   82.32    3.76   0 
  -6  -3  10   65.12    3.76   0 
  -6  -3  11 1046.06    8.41   0 
  -5  -4   4  143.79    3.96   0 
  -5  -1  11  788.01    8.74   0 
  -5  -1  12  250.76    6.24   0 
  -4  -6   1  597.26    5.85   0 
  -4   0   8  375.71    6.69   0 
  -3  -1   2 2282.58   11.77   0 
  -1  -9  -3  297.03    5.77   0 
   1   1  13  634.76    7.83   0 
   2  -8  -6   11.00    4.21   0 
   3   0   0  259.69    4.95   0 
   3   1   6  938.47    7.06   0 
   3   1   7  315.53    4.70   0 
   5   0   5  579.61    5.54   0 
   5   0   6   12.22    3.16   0 
   6  -1   2   19.98    4.07   0 
   7  -2   2  884.21    6.77   0 
   8  -4  -1  176.64    4.38   0 
  -6  -5   8  233.47    4.65   0 
  -6  -4   9  297.93    4.86   0 
  -6  -3  12  358.72    6.43   0 
  -5  -6   4  232.34    4.48   0 
  -5  -5   4   24.31    3.60   0 
  -4   0   9 2674.28   16.16   0 
  -4   0  12   49.79    6.38   0 
  -3  -2   1    4.96    3.11   0 
  -2  -4  -2 1365.84    8.13   0 
   0  -9  -4   74.02    4.71   0 
   0   1  14  203.30    5.98   0 
   3   1   4  445.47    5.37   0 
   3   1   9  271.33    4.81   0 
   3   1  10  335.49    5.59   0 
   4   0   1  468.96    5.44   0 
   5   0   4 2556.75   10.33   0 
   5   0   8  230.76    4.29   0 
   5   0   9  516.79    5.88   0 
   8  -6  -4   46.87    4.69   0 
   8  -5  -3  292.52    5.93   0 
   8  -3   1 1518.10    9.33   0 
  -6  -5   9  193.52    4.49   0 
  -6  -4  10  138.22    4.77   0 
  -5  -2   7  251.96    4.53   0 
  -4  -4   2   66.10    3.59   0 
  -4   0  10 2390.83   16.40   0 
  -4   0  11  177.21    7.19   0 
  -3  -8   0   74.94    3.91   0 
  -2  -7  -2   14.65    3.35   0 
   5  -1  -1  744.48    6.46   0 
   5   0   3 2319.60    9.83   0 
  -6  -4  11   18.72    3.24   0 
  -5  -3   6  267.86    4.55   0 
  -4  -6   2  665.10    6.12   0 
  -3  -7   0   19.63    3.33   0 
  -1   0   1 2215.92   21.28   0 
   1   1   2  585.14    7.77   0 
   1   1  14  531.96    6.87   0 
   2   1  13  161.59    4.63   0 
   3   1  11  209.10    4.46   0 
   7  -2   0   20.15    3.34   0 
   8  -4  -2  198.68    4.80   0 
   8  -3   0  370.77    5.23   0 
  -5  -2   8  443.17    5.63   0 
  -4  -3   3  451.76    5.38   0 
  -3  -5   0 1462.50    8.24   0 
  -3   0   5  279.38    6.19   0 
  -1  -7  -3   81.58    3.93   0 
   0   1  15    2.58    4.87   0 
   3  -2  -4  163.85    7.22   0 
   3   1  12   44.20    4.39   0 
   4   0   0 1537.62    9.11   0 
   4   1   6  216.36    4.23   0 
   4   1   7  554.08    5.65   0 
   4   1   8  619.57    5.95   0 
   4   1   9  796.62    7.16   0 
   6  -1   0  831.26    6.66   0 
   7  -1   5   70.58    3.82   0 
   7  -1   6   35.81    3.48   0 
   8  -2   3  585.30    6.57   0 
  -5  -4   6  256.95    4.60   0 
  -5  -3   7  165.26    4.31   0 
  -5  -2   9   46.38    4.34   0 
  -5  -2  15   27.62    4.86   0 
  -4  -7   3  277.06    4.88   0 
  -4  -1   6    9.85    3.26   0 
  -3  -3   1   10.83    3.20   0 
  -3  -1   3  244.29    5.16   0 
  -2  -8  -1  337.65    5.20   0 
  -1  -9  -2  272.36    5.08   0 
  -1   1  15   58.27    6.30   0 
   0  -7  -4  377.86    5.66   0 
   0  -5  -4  229.09    4.97   0 
   1  -3  -4   12.31    4.75   0 
   2   0  -1 3862.64   19.28   0 
   3  -8  -6   28.00    5.23   0 
   4   1   4  687.15    6.14   0 
   6  -3  -4   29.29    4.32   0 
   6   0   4   45.81    4.41   0 
   7  -5  -5    2.21    4.06   0 
   7  -2  -1   43.42    3.76   0 
   7  -1   3  200.63    4.28   0 
   8  -5  -4  241.47    5.75   0 
   8  -3  -1  255.93    4.75   0 
  -5  -5   6  418.10    5.29   0 
  -5  -2  10   84.85    4.50   0 
  -5  -2  14  268.65    6.70   0 
  -4  -6   3  714.18    6.31   0 
  -4  -5   3  208.85    4.30   0 
  -4  -4   3  259.71    4.51   0 
  -3  -2   2  151.27    4.31   0 
   0   2   8  433.12    7.27   0 
   0   2   9  657.70    8.60   0 
   1   2   7 1035.39    8.78   0 
   1   2   9 1893.11   11.38   0 
   4   1  11  269.66    5.58   0 
   5  -1  -2  308.82    4.90   0 
   6   0   3   43.14    3.58   0 
   7  -1   2  328.38    4.98   0 
   8  -4  -3 1413.98    9.60   0 
  -5  -4   7  289.39    4.76   0 
  -5  -3   8  126.09    4.32   0 
  -5  -2  11  773.81    7.94   0 
  -5  -2  13   74.00    4.74   0 
  -4  -3   4  182.30    4.23   0 
  -4  -2   5 1577.58    9.19   0 
  -4  -1   7  399.04    6.56   0 
  -3  -6   1   45.24    4.41   0 
  -2  -6  -1  143.10    4.24   0 
   0  -9  -3   73.31    4.11   0 
   0   2   7   45.03    4.44   0 
   0   2  10  752.29    8.50   0 
   1  -9  -4   21.67    4.64   0 
   1   2   6   81.99    4.41   0 
   2   2   7  735.99    7.21   0 
   2   2   9  189.51    5.15   0 
   5   0   0 1101.72    8.06   0 
   5   1   6  143.68    4.63   0 
   6  -2  -3 2093.75   11.02   0 
   6   0   2  802.23    6.93   0 
  -4  -7   4    4.71    3.40   0 
  -2   0   3   24.72    3.68   0 
   2   2   6  271.92    4.76   0 
   3   1   1  327.08    5.11   0 
   4   1   2 1251.27    8.02   0 
   5   1   8  400.56    5.39   0 
   5   1   9  165.86    4.40   0 
   7  -2  -2  253.50    5.05   0 
   8  -3  -2  181.66    4.59   0 
   8  -2   0  181.32    4.57   0 
  -5  -2  10   84.60    4.30   0 
  -5  -2  15   15.80    3.26   0 
  -4  -4   4  117.49    7.76   0 
  -3   1   9 1033.46    7.24   0 
  -3   1  13  442.74    4.88   0 
  -2   1  16  181.66    4.03   0 
  -1   2   7  865.52    6.73   0 
   0  -9  -2  356.11    6.00   0 
   0  -4  -3   20.76    2.99   0 
   0   2   5 2559.50   12.50   0 
   1  -7  -4  344.33    5.14   0 
   1   2   4 4542.23   18.62   0 
   4  -2  -4 3588.71   13.05   0 
   5  -8  -6  129.00    3.77   0 
   5  -6  -6  879.68    6.24   0 
   7  -5  -5    1.05    3.15   0 
   7  -2  -2  259.27    5.30   0 
   8  -3  -2  178.43    5.06   0 
   8  -2   0  188.36    6.09   0 
  -5  -3   8  121.62    4.61   0 
  -4   0   9 2481.64   10.50   0 
  -4   0  14   68.87    3.40   0 
  -3   1  14   47.90    3.33   0 
   0  -5  -3  774.15    7.60   0 
   1  -6  -4 1929.45    9.82   0 
   1  -1  -2 1899.37   14.28   0 
   1   2  14   57.73    3.68   0 
   2  -9  -4  315.76    4.96   0 
   3  -8  -5  892.37    6.65   0 
   3   2  12   46.25    4.24   0 
   6  -3  -4   27.80    4.04   0 
   8  -5  -4  228.01    4.52   0 
   8  -4  -3 1360.55    9.14   0 
  -5  -2   9   41.59    4.17   0 
  -5  -1  14   55.23    4.08   0 
  -4   0  16  391.74    5.16   0 
  -2   2   9  248.65    4.80   0 
  -2   2  12  426.63    4.90   0 
  -1   2   6 1256.94    8.36   0 
  -1   2  14   13.96    3.02   0 
   0   2  15   17.04    3.38   0 
   2  -3  -4    9.73    2.91   0 
   3  -7  -5   29.06    3.94   0 
   3  -5  -5 1281.04    7.66   0 
   3   2   4  439.52    8.92   0 
   4  -9  -5   38.90    3.51   0 
   4   0  -1 1793.51   14.10   0 
   4   2   7  286.30    7.32   0 
   4   2   8  325.34    6.91   0 
   4   2   9  127.18    5.88   0 
   6  -5  -5  433.69    5.53   0 
   7  -8  -5  160.11    4.77   0 
   7  -7  -5  280.25    5.26   0 
   7  -6  -5   93.10    3.86   0 
   7  -4  -4  479.67    5.46   0 
   7  -3  -3  556.17    6.05   0 
  -5  -5   7  653.36   10.41   0 
  -5  -4   7  288.10    6.95   0 
  -5  -1  11  709.16    6.38   0 
  -5  -1  12  247.18    4.26   0 
  -5  -1  15    3.95    3.26   0 
  -4  -1   6   10.64    3.20   0 
  -3   1   7  932.35    7.00   0 
  -3   1  16  180.89    4.23   0 
  -2  -6   0   17.56    4.69   0 
  -2   2   8  710.08    6.55   0 
  -2   2  13  268.58    4.30   0 
   2 -10  -3  393.24    6.35   0 
   2  -8  -4   49.53    4.16   0 
   4  -8  -5  537.70    5.48   0 
   4   2   6  853.98   11.46   0 
   5  -9  -5   11.30    3.29   0 
   5  -1  -2  305.20    5.79   0 
   6  -1  -1  213.85    5.44   0 
   8  -6  -4   47.85    3.65   0 
  -5  -2   8  441.37    6.42   0 
  -5  -1  10 1858.53   10.06   0 
  -2  -4   0 1822.04   17.71   0 
  -2   2  14   44.27    3.24   0 
   0  -8  -2  958.48    8.37   0 
   1  -8  -3  275.68    5.52   0 
   3  -9  -4  115.24    4.61   0 
   3  -3  -4  810.15    6.73   0 
   4  -7  -5 1357.47    7.79   0 
   4  -6  -5  658.38    5.87   0 
   4  -5  -5  741.09    6.17   0 
   5  -8  -5  332.89    4.67   0 
   5  -5  -5 1349.99    7.66   0 
   5  -3  -4  112.60    3.75   0 
   5  -2  -3 2747.34   12.50   0 
   5   0   0 1085.28   12.13   0 
   6  -8  -5    9.91    3.37   0 
   6  -7  -5  256.31    4.27   0 
   6  -6  -5  433.62    5.07   0 
   7  -5  -4   22.02    3.97   0 
   8  -5  -3  296.37    5.46   0 
   8  -3  -1  249.79    5.79   0 
   8  -2   1  263.44    6.82   0 
  -5  -6   7  143.93    8.25   0 
  -5  -3   7  157.75    5.58   0 
  -4  -3   4  174.77    6.81   0 
  -4   0   7  249.90    4.95   0 
  -4   1  12  402.45    4.89   0 
  -4   1  13  138.26    3.86   0 
  -4   1  14   31.92    3.01   0 
  -3  -6   2    3.79    6.91   0 
  -2  -8   1  383.60    8.22   0 
  -2  -5   0  968.68   11.83   0 
  -2   1   4 1314.29    9.93   0 
  -1  -9   0  158.53    5.46   0 
  -1  -7  -1  947.38    8.98   0 
  -1   2   5 1087.63    8.37   0 
   1  -3  -3  272.90    5.18   0 
   2  -7  -4    6.60    3.14   0 
   2  -4  -4 2107.67   10.33   0 
   2  -2  -3 2924.15   13.69   0 
   2   2   3 3170.28   20.85   0 
   4  -3  -4  267.66    4.49   0 
   5  -7  -5  640.56    5.82   0 
   5  -6  -5  563.09    5.55   0 
   7  -2  -1   46.53    4.20   0 
   7  -1   1  623.00    9.27   0 
   8  -4  -2  197.65    5.28   0 
  -6  -4  11   10.96    4.96   0 
  -6  -3  12  349.57    6.46   0 
  -5  -1   9  518.18    5.85   0 
  -5   0  12  384.47    5.40   0 
  -5   0  14   89.26    3.53   0 
  -5   0  15   93.34    4.58   0 
  -4   1  10 2141.25    9.60   0 
  -4   1  15  228.08    4.48   0 
  -3  -1   3  275.72    6.67   0 
  -3   2  10  907.02    6.56   0 
  -3   2  11  509.50    5.28   0 
   0  -1  -1 5926.64   34.07   0 
   0   3  12  291.64    5.38   0 
   1  -7  -3 1752.11   10.13   0 
   1   2   3 1752.34   13.83   0 
   1   3   8  441.96    6.40   0 
   1   3  11  220.19    5.44   0 
   2  -9  -3  319.58    5.60   0 
   3 -10  -3  218.68    5.23   0 
   3  -8  -4 1612.20    9.16   0 
   3   0  -1 3599.00   21.12   0 
   4  -9  -4   92.01    3.77   0 
   4   2   5    6.30    6.40   0 
   6  -3  -3 1006.49    8.16   0 
   6  -2  -2  163.24    5.16   0 
   7  -4  -3  786.01    6.76   0 
   7  -3  -2   57.39    4.49   0 
  -6  -2  13  578.74    7.07   0 
  -3   2   9 1116.02    7.44   0 
  -3   2  15  126.09    4.04   0 
  -2   2   6 2861.01   12.32   0 
  -1  -3  -1 1280.53   13.18   0 
  -1   3  10 1202.97    7.73   0 
  -1   3  12  371.93    5.04   0 
   0  -7  -2  349.48    6.14   0 
   0   3   8   67.59    3.73   0 
   0   3  13   77.62    3.60   0 
   1   3   7   34.98    4.38   0 
   2   3  10  667.29    7.57   0 
   3  -2  -3  867.28    8.31   0 
   4  -2  -3  979.81    8.01   0 
   4  -1  -2 1725.06   11.66   0 
   5  -9  -4    9.47    3.46   0 
   6  -9  -4  689.37    6.48   0 
   6  -5  -4 1002.22    6.83   0 
   8  -7  -3   76.25    3.98   0 
  -6  -3  11 1081.07    8.61   0 
  -6  -2  12  873.68    8.09   0 
  -5  -2   7  254.92    5.88   0 
  -5  -1   8  181.60    5.36   0 
  -5   0  10 1978.13    9.78   0 
  -4  -1   5  869.23    8.77   0 
  -2  -9   2  625.59    9.29   0 
  -1  -6  -1  303.28    6.34   0 
  -1   3   8   17.12    3.96   0 
  -1   3  13   69.14    3.79   0 
  -1   3  14   44.65    4.38   0 
   0  -3  -2  754.09    8.60   0 
   0   3   7 1847.55   10.44   0 
   0   3  14   24.25    3.57   0 
   1  -6  -3 1851.92   10.21   0 
   1  -4  -3  758.29    7.45   0 
   2 -10  -2  610.16    6.84   0 
   2  -1  -2 2542.03   15.46   0 
   2   3   8  583.84    7.33   0 
   2   3  11  134.37    4.95   0 
   3  -7  -4 1077.88    7.36   0 
   3  -5  -4  745.57    7.06   0 
   4 -10  -3   15.72    3.47   0 
   4  -8  -4  305.59    4.91   0 
   4  -4  -4  121.20    3.99   0 
   5  -8  -4   80.12    3.96   0 
   6  -8  -4   64.83    3.79   0 
   6  -7  -4    9.66    3.48   0 
   6  -6  -4  502.10    5.49   0 
   6   0   2  830.11   13.14   0 
   7  -5  -3 1198.41    8.31   0 
   8  -3   0  390.77    6.46   0 
   8  -2   2  496.13    8.56   0 
  -6  -2  11  524.30    7.06   0 
  -4   0   6  330.43    5.30   0 
  -4   1   8  487.02    5.57   0 
  -3   2   8 1952.21    9.67   0 
  -2   3  10  923.27    7.50   0 
  -2   3  11  394.04    5.09   0 
  -2   3  13  192.38    4.42   0 
  -1   2   4 1620.43   10.98   0 
   0  -6  -2  273.39    6.01   0 
   1 -10  -1  421.01    6.31   0 
   1  -5  -3  703.75    6.83   0 
   2   3  12  114.51    4.53   0 
   3  -1  -2 1442.92   11.07   0 
   5  -7  -4 1204.29    7.93   0 
   5  -5  -4  146.51    4.19   0 
   8  -4  -1  181.98    4.79   0 
  -6  -3  10   74.73    4.50   0 
  -6  -1  13  460.55    5.71   0 
  -5   0   9  391.66    5.44   0 
  -5   1  12  628.75    6.63   0 
  -5   1  13  152.04    4.34   0 
  -5   1  14  241.50    4.60   0 
  -5   1  15  681.85    6.45   0 
  -4  -2   4 1269.81   12.65   0 
  -4   2  11  400.27    5.62   0 
  -4   2  13  193.66    4.22   0 
  -4   2  14  379.70    5.30   0 
  -4   2  15  802.98    6.74   0 
  -3   1   5   54.95    3.89   0 
  -2   0   2 3076.58   20.15   0 
  -2   3   9  233.46    4.45   0 
  -2   3  15   71.70    4.72   0 
  -1  -8   0  126.63    5.28   0 
  -1  -5  -1  356.11    6.79   0 
  -1   3   7 1086.89    7.72   0 
   0  -4  -2 1272.22   10.43   0 
   0   2   3 5397.12   21.87   0 
   0   3   6  919.65    8.27   0 
   1  -8  -2  526.89    6.94   0 
   1   3   6  936.16    8.65   0 
   4  -6  -4 1873.22    9.25   0 
   5  -1  -1  731.26    8.72   0 
   6  -9  -3  369.00    5.88   0 
   6  -4  -3  533.44    5.83   0 
   6  -1   0  859.14    9.27   0 
   7  -8  -3   90.72    3.78   0 
   7  -7  -3    8.97    3.43   0 
   7  -6  -3   64.44    3.94   0 
   7  -4  -2  603.03    7.05   0 
   7  -2   0   30.47    4.52   0 
   7  -1   2  340.14    7.87   0 
   8  -6  -2  301.94    5.01   0 
  -6  -2  10  117.62    5.14   0 
  -6  -1  12   62.32    3.72   0 
  -5  -3   6  279.60    7.30   0 
  -5   1  11  110.14    4.02   0 
  -4   1   7 1048.31    7.98   0 
  -4   2  10   30.90    3.49   0 
  -3   2   7 1641.74    9.18   0 
  -2  -7   1 2489.99   16.96   0 
  -2   2   5  250.93    4.74   0 
   2   3   6  841.85    9.03   0 
   3  -8  -3 1076.17    8.12   0 
   3   2   3 1496.18   19.63   0 
   3   3   9  232.73    6.50   0 
   3   3  10  214.79    6.10   0 
   4  -9  -3  666.37    6.38   0 
   5  -9  -3  109.25    4.10   0 
   7  -3  -1  422.21    6.61   0 
  -6  -1  11   79.41    4.08   0 
  -6   0  14  303.89    5.61   0 
  -5  -1   7  231.54    5.14   0 
  -5   0   8  113.15    4.91   0 
  -3  -5   2  645.89   14.69   0 
  -3  -2   2  145.57    9.28   0 
  -3   3  11  644.29    6.06   0 
  -3   3  15  215.08    5.11   0 
  -2   3   8  845.29    6.84   0 
  -1  -9   1  103.93    5.38   0 
   1  -2  -2  650.65    8.37   0 
   2  -6  -3  782.03    7.29   0 
   2  -4  -3  277.66    5.64   0 
   3  -3  -3 1816.88   10.42   0 
   3   3   8  147.29    5.70   0 
   3   3  11   63.62    4.97   0 
   4 -10  -2  274.40    5.97   0 
   4  -3  -3 3434.43   13.39   0 
   6  -8  -3  117.37    4.11   0 
   6  -7  -3   14.54    4.27   0 
   6  -6  -3  338.72    5.69   0 
   6  -5  -3  788.64    6.63   0 
   6  -3  -2  659.68    6.69   0 
   6  -2  -1  429.46    6.71   0 
   8  -5  -1   90.66    4.31   0 
   8  -3   1 1570.42   11.32   0 
   8  -2   3  607.31    9.50   0 
  -6  -4   9  293.01    6.90   0 
  -6  -3   9   39.32    4.53   0 
  -6   0  13   12.87    3.36   0 
  -5  -5   6  412.61   12.26   0 
  -4   2   9  950.85    7.20   0 
  -3   3  10  251.30    4.49   0 
  -2   3   7 2123.90   10.78   0 
  -1   3   6  743.53    7.06   0 
   0  -9   0   21.40    4.88   0 
   1  -7  -2 1209.39    9.22   0 
   1   3   5  624.92    7.99   0 
   2 -10  -1   32.40    4.63   0 
   2  -5  -3 2544.24   11.54   0 
   3  -7  -3 1219.39    8.23   0 
   4  -8  -3 1845.65    9.23   0 
   5  -4  -3  182.14    4.46   0 
   5   2   8  290.05    9.99   0 
   7  -5  -2 1007.61    7.62   0 
   8  -6  -1    7.37    4.32   0 
   8  -4   0  472.11    6.58   0 
  -6  -5   9  198.41    8.24   0 
  -6  -2   9  137.24    5.20   0 
  -6  -1  10  774.50    7.43   0 
  -6   0  12   91.51    3.99   0 
  -5  -2   6  558.72    7.90   0 
  -5   1   9 1252.48    8.45   0 
  -5   2  13  359.68    5.07   0 
  -5   2  15  416.44    5.70   0 
  -3   2   6 2398.67   11.34   0 
  -3   3   9  700.43    6.36   0 
  -1  -7   0  553.43    7.72   0 
   0   3   5 1661.86   10.82   0 
   2  -8  -2  117.78    5.14   0 
   3  -9  -2 1058.55    8.11   0 
   3  -4  -3 3064.53   12.59   0 
   3   3   7  225.78    6.32   0 
   4  -7  -3  530.74    5.91   0 
   4  -4  -3  575.10    6.26   0 
   5  -7  -3 1072.77    7.36   0 
   5  -6  -3  307.05    5.01   0 
   5  -5  -3  120.10    4.06   0 
   6  -9  -2   42.61    3.74   0 
   7  -7  -2  203.01    4.64   0 
   7  -6  -2  820.83    6.80   0 
  -6   0  11  227.55    4.81   0 
  -6   1  14   35.98    4.69   0 
  -5   2  12    0.89    3.52   0 
  -4   1   6  700.90    6.87   0 
  -4   2   8 2537.11   11.06   0 
  -4   3  12   66.61    3.91   0 
  -4   3  13  704.74    6.30   0 
  -4   3  14 1107.26    7.61   0 
  -4   3  15  334.02    5.35   0 
  -2  -8   2  817.35   10.46   0 
  -1   4  10 1690.17    9.71   0 
  -1   4  11  219.18    4.62   0 
  -1   4  13   13.48    3.66   0 
  -1   4  14  120.98    5.21   0 
   0  -7  -1  743.25    7.61   0 
   0   4  10  206.10    4.85   0 
   0   4  13    4.98    3.68   0 
   3  -5  -3   65.02    3.91   0 
   4  -9  -2  904.94    7.08   0 
   4  -6  -3   16.45    3.51   0 
   4  -5  -3   91.03    4.05   0 
   4   2   4   19.36    9.37   0 
   5  -9  -2  270.43    5.10   0 
   5   0   1  343.68    8.56   0 
   5   2   7  435.50   14.05   0 
   6  -4  -2 1229.56    8.50   0 
   7  -2   1  735.80    8.58   0 
   8  -5   0   37.38    4.57   0 
  -6  -1   9  125.44    5.32   0 
  -6   1  13  244.49    4.92   0 
  -5   0   7  694.27    7.21   0 
  -5   2  11    6.64    3.36   0 
  -4  -1   4 1090.17   10.84   0 
  -4   3  11    6.54    3.58   0 
  -3   0   3 3220.41   17.60   0 
  -3   1   4  476.78    6.70   0 
  -3   3   8 1805.39    9.62   0 
  -2  -1   1  714.74   16.96   0 
  -2   2   4  125.79    4.28   0 
  -2   3   6 1932.81   10.37   0 
  -2   4  11  364.37    5.18   0 
  -2   4  12  283.80    4.95   0 
  -2   4  13   91.74    3.90   0 
  -2   4  14  157.75    4.67   0 
  -1   2   3 1196.20   10.26   0 
  -1   4   9 1234.99    8.34   0 
   0   1   1 5927.99   35.66   0 
   0   4   9  163.06    4.71   0 
   1   4  10  314.26    6.33   0 
   1   4  11  280.74    5.63   0 
   1   4  12  121.03    4.43   0 
   2  -2  -2  483.44    7.02   0 
   3 -10  -1  268.77    5.02   0 
   4  -1  -1  897.31    9.52   0 
   5  -3  -2  809.84    7.18   0 
   6  -8  -2   82.77    3.79   0 
   7  -1   3  206.12    7.22   0 
   8  -4   1  240.78    6.08   0 
   8  -3   2  346.37    6.95   0 
  -6   0  10  278.53    5.10   0 
  -6   1  12  147.91    4.49   0 
  -5  -1   6 1079.81    9.82   0 
  -5   1   8  937.63    7.57   0 
  -5   2  10  135.57    4.08   0 
  -4  -7   5   93.91    9.94   0 
  -4   2   7 1041.40    7.71   0 
  -4   3  10    9.94    3.52   0 
  -2   4  10 1004.31    7.26   0 
  -1   4   8   43.03    4.33   0 
   1  -8  -1    6.22    3.97   0 
   1  -4  -2 2875.58   14.37   0 
   1   2   2 2735.84   20.80   0 
   2  -7  -2  565.53    6.18   0 
   3  -8  -2   22.55    3.58   0 
   3  -2  -2 3450.34   15.70   0 
   4 -10  -1  169.46    4.73   0 
   5 -10  -1   13.37    3.75   0 
   5  -8  -2  156.50    4.42   0 
   6  -6  -2  486.95    5.71   0 
   6  -3  -1  217.60    5.80   0 
   7  -5  -1  271.44    4.99   0 
   8  -6   0    6.35    3.71   0 
  -6  -3   8  225.24    6.23   0 
  -6  -2   8  240.26    6.11   0 
  -6   1  11  239.06    5.54   0 
  -4   3   9  356.12    5.85   0 
  -3   2   5  778.77    7.33   0 
  -3   3   7 1365.37    8.62   0 
  -3   4  13  592.45    6.44   0 
  -3   4  14  606.05    6.31   0 
  -2   4   9 1998.95   10.05   0 
  -1  -8   1  296.53    6.69   0 
   0  -8   0  189.57    5.61   0 
   0  -6  -1  704.45    7.70   0 
   0   3   4 3492.30   16.74   0 
   1   3   4  750.33    9.11   0 
   1   4   8   30.37    4.76   0 
   5  -7  -2   15.92    4.38   0 
   5  -4  -2 1840.85   10.35   0 
   5  -2  -1  847.53    8.55   0 
   6  -9  -1   15.43    3.63   0 
   6   0   3   41.53    6.59   0 
   7  -7  -1  263.68    5.09   0 
   7  -6  -1  419.79    5.49   0 
  -6  -4   8   83.27    6.40   0 
  -6   0   9  420.76    6.64   0 
  -5   2   9 1295.13    8.32   0 
  -5   3  12   27.30    4.52   0 
  -5   3  13   33.06    3.94   0 
  -5   3  14  146.91    4.35   0 
  -3  -8   4  132.09    7.78   0 
  -3   4  10  301.53    4.94   0 
  -2   4   8  514.08    6.57   0 
  -1  -9   2  161.70    5.91   0 
   0  -2  -1 2550.58   19.91   0 
   0   4   7  649.16    7.17   0 
   2  -6  -2   84.91    4.00   0 
   2   4  10  221.64    5.95   0 
   2   4  11   93.62    5.40   0 
   3  -9  -1    9.65    3.76   0 
   3  -7  -2   10.86    3.68   0 
   4  -7  -2  162.38    4.40   0 
   4  -3  -2  370.88    5.60   0 
   4   3   9   36.74    6.53   0 
   5  -6  -2  357.01    5.23   0 
   5  -5  -2 1588.33    9.23   0 
   5  -1   0  298.40    6.49   0 
   7  -4   0  479.53    6.82   0 
   8  -3   3   27.47    5.72   0 
  -6  -1   8  277.88    6.42   0 
  -6   2  13  447.69    5.88   0 
  -5   0   6  345.58    6.70   0 
  -5   1   7  470.28    6.17   0 
  -5   3  11  535.06    6.72   0 
  -4   1   5  733.06    7.44   0 
  -4   3   8 1704.07    9.77   0 
  -3   4   9    4.84    4.28   0 
  -1   4   7  745.57    6.99   0 
   0 -10   2  242.47    6.64   0 
   0  -9   1  389.05    6.75   0 
   1 -10   1   24.00    3.96   0 
   1  -7  -1  406.19    6.46   0 
   1  -1  -1 3768.37   24.01   0 
   1   4   7  807.16    8.56   0 
   2  -8  -1  328.63    5.51   0 
   2  -5  -2  444.91    6.59   0 
   2  -3  -2 1411.76   10.13   0 
   2   4   9 1165.45   10.51   0 
   3 -10   0   44.71    4.13   0 
   3  -3  -2 6563.30   19.86   0 
   4  -9  -1   51.11    3.74   0 
   5 -10   0   38.30    4.85   0 
   7  -2   2  939.29    9.63   0 
   8  -6   1   23.46    3.97   0 
   8  -4   2   91.68    5.33   0 
  -7  -2  11   19.91    3.91   0 
  -6   2  12  135.61    4.48   0 
  -5   2   8  960.16    7.90   0 
  -4   0   4  300.10    6.56   0 
  -4   2   6 1286.29    8.60   0 
  -4   4  11  343.85    5.92   0 
  -3   3   6 1862.30   10.03   0 
   2  -4  -2 3311.79   14.14   0 
   2   3   4  763.78   10.67   0 
   3  -6  -2 1923.36    9.94   0 
   3  -1  -1 1793.02   13.43   0 
   4 -10   0   15.87    4.09   0 
   4  -6  -2   50.73    4.08   0 
   4  -5  -2 3513.40   13.12   0 
   4  -4  -2 1401.05    8.91   0 
   4   3   8  161.17    8.10   0 
   5  -8  -1  350.08    5.56   0 
   6  -7  -1  873.62    6.98   0 
   6  -6  -1  706.11    7.19   0 
   6  -5  -1  759.19    6.94   0 
   7  -8   0  192.26    4.83   0 
   7  -7   0   48.37    4.57   0 
   7  -3   1  209.91    5.29   0 
  -7   0  12  326.94    5.91   0 
  -5   3  10  745.09    6.72   0 
  -4   4  10  645.96    6.83   0 
  -3  -1   2 2314.68   20.38   0 
  -3   4   8  238.74    4.73   0 
  -2  -7   2   37.30    5.78   0 
  -2  -5   1 1769.23   15.62   0 
  -2   4   7  656.22    6.54   0 
  -2   5  13  300.86    6.28   0 
  -1   4   6  774.82    7.66   0 
  -1   5  13   18.58    4.78   0 
   0  -7   0  987.22    9.17   0 
   0  -4  -1 2667.79   15.74   0 
   0  -3  -1  395.60    7.68   0 
   0   4   6  131.95    4.73   0 
   2  -9   0   98.39    4.30   0 
   3  -5  -2   76.70    4.07   0 
   3  -4  -2  108.80    4.13   0 
   3   3   5  271.02    8.62   0 
   4  -8  -1   35.33    3.70   0 
   5  -3  -1  626.72    7.42   0 
   6  -9   0  147.47    4.58   0 
   8  -5   2  712.84    8.41   0 
  -6  -5   8  235.36   10.78   0 
  -5   4  13   29.55    4.58   0 
  -4   3   7 1305.43    8.48   0 
  -3   2   4  163.12    4.81   0 
  -2   1   2 2509.27   16.48   0 
  -2   2   3 2859.95   14.62   0 
  -2   5  11  672.95    6.83   0 
  -2   5  12  124.24    4.52   0 
  -1   5  11  380.97    5.77   0 
   1  -8   0  109.86    5.62   0 
   1  -6  -1 1231.03    9.49   0 
   2  -7  -1  395.34    6.08   0 
   2  -1  -1 3331.06   19.70   0 
   2   4   7  650.99    9.01   0 
   5  -7  -1  450.85    5.64   0 
   6  -8   0  225.08    5.44   0 
   6  -3   0    3.60    3.76   0 
   8  -6   2  135.66    5.32   0 
   8  -4   3    7.06    4.93   0 
   8  -3   4   15.64    4.95   0 
  -7  -3  10   14.60    5.57   0 
  -7   0  11  182.02    4.98   0 
  -6   2  10  408.77    5.62   0 
  -6   3  12  516.68    6.59   0 
  -5  -1   5  470.26    7.84   0 
  -5   1   6  649.78    7.59   0 
  -5   2   7  597.88    6.87   0 
  -5   3   9  106.49    4.29   0 
  -5   4  12  949.32    7.49   0 
  -4   4   9    9.58    3.48   0 
  -3   1   3 2993.06   15.69   0 
  -3   5  12  199.21    4.76   0 
  -3   5  13  502.00    6.24   0 
  -2  -8   3   21.43    5.36   0 
  -2   4   6 1036.97    8.28   0 
  -2   5  10  816.04    7.07   0 
  -1   5   9 2499.90   12.54   0 
   0   5  10  566.03    7.33   0 
   1  -9   1  391.53    6.43   0 
   3  -9   0  299.61    5.22   0 
   3   0   0  270.62    7.69   0 
   4  -9   0  305.83    5.18   0 
   4  -7  -1  703.20    7.08   0 
   4   3   7  155.77    8.86   0 
   5  -6  -1 1166.17    8.08   0 
   6  -2   1  106.88    5.09   0 
   7  -8   1   43.46    3.84   0 
   7  -4   1  295.47    5.45   0 
  -6  -1   7  749.70    8.68   0 
  -5   4  11  397.54    5.52   0 
  -3   3   5 3391.98   13.58   0 
  -3   4   7 1780.21    9.69   0 
  -3   5  11  200.91    4.66   0 
  -2  -9   4   41.93    5.33   0 
  -2   3   4    8.25    3.32   0 
   0  -8   1   29.33    4.89   0 
   0   3   3 2706.83   16.03   0 
   0   5   9 2537.10   12.75   0 
   1 -10   2  222.84    5.43   0 
   1   5  11   59.95    5.17   0 
   5  -5  -1 1541.85    9.07   0 
   6  -9   1   13.30    3.67   0 
   6  -7   0  311.30    5.22   0 
   7  -7   1   24.54    3.87   0 
   7  -5   1  313.64    5.39   0 
   7  -3   2  719.61    8.37   0 
  -7   0  10   99.31    5.32   0 
  -7   1  11  131.22    4.63   0 
  -6   2   9  253.04    5.07   0 
  -6   3  11  136.36    4.50   0 
  -5  -4   5  173.72   12.94   0 
  -5   0   5 3789.07   17.13   0 
  -5   3   8 1044.09    7.79   0 
  -4  -2   3  469.85   10.86   0 
  -4   1   4 4188.27   17.74   0 
  -4   3   6 1710.82   10.23   0 
  -4   4   8  482.42    5.81   0 
  -4   5  12  548.90    6.24   0 
  -4   5  13   86.80    4.04   0 
  -3  -6   3  455.48   11.36   0 
  -1  -9   3  167.17    6.04   0 
  -1  -8   2  757.71    8.87   0 
  -1  -4   0   71.50    5.24   0 
  -1   4   5 1075.65    8.53   0 
  -1   5   8  544.62    6.42   0 
   0 -10   3   70.56    5.41   0 
   0  -9   2  243.53    6.29   0 
   1  -5  -1 1074.86    8.94   0 
   1   3   3 4775.59   22.44   0 
   1   5  10    9.91    4.91   0 
   2  -8   0  573.11    6.42   0 
   2  -6  -1  428.94    5.73   0 
   3   4   9  472.06    8.62   0 
   4  -6  -1  889.26    7.25   0 
   4  -3  -1  639.94    7.59   0 
   5  -8   0  531.33    6.17   0 
   5   0   2 1377.99   14.74   0 
   6  -6   0  842.78    6.93   0 
   6  -5   0  919.82    7.58   0 
  -7   2  12  199.46    4.80   0 
  -6   0   7  388.22    6.27   0 
  -6   3  10  367.66    5.58   0 
  -6   4  13   16.60    4.55   0 
  -5   4  10  127.01    4.29   0 
  -4   5  11  417.48    5.51   0 
  -3   5   9   10.56    3.38   0 
  -2   5   8   14.51    3.50   0 
   0   5   8    4.71    3.88   0 
   1  -2  -1 1621.44   13.68   0 
   1   5   9  123.58    5.64   0 
   2 -10   2   93.00    5.08   0 
   2  -9   1   58.29    4.01   0 
   2   4   6  987.49   10.66   0 
   3  -6  -1 1390.42    8.86   0 
   4  -8   0  757.15    6.82   0 
   4  -4  -1 2034.57   11.22   0 
   5  -9   1  109.64    4.42   0 
   5  -1   1  938.50   10.50   0 
   6  -8   1  120.88    4.26   0 
   6   0   4   40.93    6.70   0 
   7  -8   2   37.93    4.02   0 
   8  -4   4  195.51    5.49   0 
  -7  -1   9  127.19    5.88   0 
  -7   1  10  130.07    4.63   0 
  -7   2  11  195.52    5.54   0 
  -6  -4   7  238.17   10.43   0 
  -6   4  12  155.73    5.37   0 
  -5   2   6  789.36    7.78   0 
  -5   4   9  193.40    4.73   0 
  -4   5  10  290.70    5.09   0 
  -3   4   6 1811.16    9.94   0 
  -2  -4   1  722.11   12.12   0 
  -2   4   5 4011.54   14.93   0 
  -1   1   1 3700.05   24.54   0 
  -1   5   7   95.54    5.19   0 
   1  -4  -1  582.25    7.44   0 
   1  -3  -1 2590.00   15.32   0 
   2  -5  -1  184.58    4.79   0 
   3 -10   2  246.35    5.86   0 
   3  -9   1  406.79    5.87   0 
   3  -5  -1 1461.05    9.62   0 
   3   4   8  133.96    7.00   0 
   4 -10   2  163.54    5.44   0 
   4  -9   1  290.54    5.10   0 
   5 -10   2    9.86    3.94   0 
   6  -9   2   57.97    4.25   0 
   6  -3   1  244.32    6.04   0 
   6   1   7  237.86   13.28   0 
   7  -4   2  455.52    6.51   0 
  -7   0   9  219.75    6.54   0 
  -6   1   7  185.66    5.57   0 
  -6   2   8  413.25    6.00   0 
  -6   3   9  359.89    5.90   0 
  -5   3   7  380.73    5.58   0 
  -5   5  12   82.59    4.23   0 
  -4  -5   4  748.28   18.61   0 
  -4   4   7 1434.49    8.81   0 
  -3   0   2 1952.12   16.19   0 
  -3   5   8   87.35    4.09   0 
  -2   5   7  411.41    5.84   0 
  -2   6  12  284.20    6.33   0 
  -1  -6   1 2287.87   14.54   0 
  -1  -3   0 1310.23   14.57   0 
  -1  -2   0  261.26    9.87   0 
   1  -8   1 1117.15    9.38   0 
   1   5   8   91.32    5.43   0 
   3  -4  -1   13.98    3.44   0 
   3  -3  -1 2610.20   13.40   0 
   4  -7   0  456.36    5.79   0 
   5  -6   0  692.84    6.77   0 
   5  -3   0  460.23    6.51   0 
   6  -7   1  787.64    6.85   0 
   7  -6   2  149.50    4.71   0 
   7  -5   2  315.06    5.45   0 
   7  -3   3  735.68    8.38   0 
  -6   4  11  268.28    5.35   0 
  -5   1   5 4780.25   17.84   0 
  -5   5  11   89.71    4.30   0 
  -4   5   9  251.84    4.83   0 
  -3  -8   5   42.46    6.68   0 
  -3  -7   4  208.26    8.17   0 
  -3   2   3  892.27    8.74   0 
  -3   6  12  253.14    5.49   0 
  -2   6  11  192.23    4.96   0 
  -1   6  11  209.50    6.09   0 
   1 -10   3   20.27    4.29   0 
   1  -9   2  201.25    5.04   0 
   2  -4  -1 3068.89   13.96   0 
   2  -3  -1 5187.94   19.42   0 
   2   5  10   46.13    5.94   0 
   5  -5   0  816.36    7.28   0 
   5  -4   0  699.85    6.96   0 
   6  -6   1  730.95    6.92   0 
   6  -4   1  164.84    4.72   0 
   6  -2   2  401.61    6.96   0 
   7  -8   3  199.86    4.99   0 
   7  -2   4  578.99    8.65   0 
  -7   1   9  123.34    4.74   0 
  -7   2  10  325.85    5.49   0 
  -7   3  11  372.59    6.39   0 
  -6   4  10  218.07    4.75   0 
  -5   4   8  345.00    5.49   0 
  -5   5  10  101.90    4.28   0 
  -4   0   3 3062.75   17.41   0 
  -4   2   4 3626.95   15.10   0 
  -3   5   7 1248.46    8.34   0 
  -2   0   1 4518.63   29.27   0 
  -2   3   3   33.29    4.42   0 
  -1   5   6  499.20    6.90   0 
  -1   6  10  186.80    5.76   0 
   0 -10   4    5.86    4.94   0 
   0   4   4  278.06    5.94   0 
   1  -6   0  981.39    8.24   0 
   1   5   7  204.62    5.90   0 
   2  -8   1  328.15    6.04   0 
   2   3   3 2895.19   21.69   0 
   3   4   7  137.09    6.88   0 
   4  -8   1 1106.19    7.99   0 
   4  -6   0  643.79    7.19   0 
   4   3   6  310.21   12.59   0 
   5 -10   3  187.96    5.01   0 
   6  -9   3  370.57    6.40   0 
   6  -8   2   12.44    3.56   0 
   6  -1   3   10.53    4.63   0 
   7  -1   6   40.54    6.11   0 
  -6  -2   6 2134.85   16.63   0 
  -6   0   6  203.47    5.96   0 
  -6   2   7   20.47    3.91   0 
  -4   4   6  307.49    5.31   0 
  -4   5   8   33.66    3.86   0 
  -4   6  11  199.88    5.70   0 
  -4   6  12  176.31    4.74   0 
  -3   4   5 1942.41   10.42   0 
  -3   6  10  293.95    5.37   0 
  -2   2   2  511.17    7.47   0 
  -2   5   6 1255.68    8.62   0 
  -2   6   9   16.66    4.58   0 
  -1  -7   2  641.49    8.32   0 
  -1   6   9  611.92    7.55   0 
   0   5   6  478.80    6.55   0 
   0   6  11  225.80    5.97   0 
   2 -10   3  244.07    5.24   0 
   2   0   0  250.96    9.06   0 
   2   4   5  121.49    6.25   0 
   2   5   9  156.32    6.22   0 
   3 -10   3  346.60    6.25   0 
   3  -8   1  138.50    4.39   0 
   4 -10   3  595.23    6.47   0 
   4  -9   2  361.57    5.44   0 
   4  -2   0   80.20    4.27   0 
   5  -7   1 1367.31    8.63   0 
   5   1   4 2787.73   27.69   0 
   6  -7   2  648.84    6.95   0 
   7  -5   3  314.10    6.18   0 
   7  -4   3  352.82    6.31   0 
  -7   0   8   14.38    4.83   0 
  -7   2   9  173.73    5.49   0 
  -7   3  10  322.77    6.17   0 
  -6   4   9  308.89    5.17   0 
  -6   5  12    7.04    3.81   0 
  -5   2   5  413.28    6.49   0 
  -5   4   7  230.25    5.73   0 
  -5   5   9  310.91    5.32   0 
  -3   6   9 1049.07    8.52   0 
  -2  -8   4   48.18    5.66   0 
  -2  -7   3   45.07    5.06   0 
  -2   4   4 2096.15   11.30   0 
  -1  -9   4  129.24    5.71   0 
  -1  -8   3  138.33    5.57   0 
   0   6  10  188.49    5.30   0 
   1   4   4  789.97    9.29   0 
   3  -9   2  432.20    5.79   0 
   5  -8   2  961.69    8.07   0 
   5  -2   1 1009.82    9.62   0 
   6  -3   2 2508.32   13.36   0 
   7  -3   4  344.14    6.65   0 
  -7   1   8   63.14    5.12   0 
  -6   1   6   25.62    5.00   0 
  -6   5  11  299.71    5.43   0 
  -5  -1   4   14.73    5.46   0 
  -4   1   3 3247.77   16.46   0 
  -4   5   7  344.35    5.36   0 
  -4   6  10  248.51    4.84   0 
  -3   1   2 1509.27   12.68   0 
  -3   5   6  754.85    6.96   0 
  -1   6   8 1054.27    9.28   0 
   0   6   9  796.90    9.11   0 
   1  -7   1    9.57    3.76   0 
   2   5   8  585.67    9.02   0 
   4  -3   0 1084.72    8.83   0 
   5  -9   3  243.13    4.98   0 
   5  -6   1 1050.00    7.84   0 
   6  -9   4  305.88    6.27   0 
   6  -6   2  293.57    5.06   0 
   7  -7   4  951.69    8.66   0 
   7  -2   5  536.60    8.34   0 
  -6   3   7   83.52    4.82   0 
  -6   5  10  118.01    4.49   0 
  -5   5   8  116.32    4.44   0 
  -5   6  11  189.99    4.84   0 
  -4   6   9  430.17    5.81   0 
  -3   6   8   56.64    3.72   0 
  -1  -5   1   22.37    4.81   0 
  -1   5   5 1099.55    8.79   0 
   0   3   2  735.84    9.48   0 
   1  -8   2  141.03    5.69   0 
   1   5   6  227.61    5.89   0 
   3  -7   1  404.76    6.42   0 
   3  -5   0 2618.09   12.08   0 
   4 -10   4  154.11    5.42   0 
   5  -5   1  246.10    5.04   0 
   5  -3   1   96.18    5.21   0 
   6  -5   2    5.07    3.65   0 
   6  -4   2  468.86    6.36   0 
   6   0   5   84.33    6.63   0 
   7  -4   4  325.69    6.68   0 
  -6  -3   6   40.47    7.33   0 
  -6   4   8  297.16    5.03   0 
  -5   6  10  281.12    5.13   0 
  -4   3   4  294.09    5.39   0 
  -3   3   3 2022.75   11.47   0 
  -3   4   4 2362.39   11.56   0 
  -2   5   5 1451.11    9.39   0 
  -2   6   7  390.92    6.28   0 
  -1   3   2 1916.93   12.73   0 
   0 -10   5   31.29    4.43   0 
   0  -6   1 1564.27   10.93   0 
   0   5   5   83.76    4.66   0 
   0   6   8  946.87    9.22   0 
   1   6  10   51.56    5.29   0 
   2  -5   0  484.18    6.30   0 
   3 -10   4   84.04    4.44   0 
   3   4   6  768.30   12.50   0 
   4  -9   3  377.68    5.51   0 
   4  -8   2  928.06    7.37   0 
   5  -7   2  506.90    6.03   0 
   5  -1   2 1934.52   13.90   0 
   6  -2   3  823.41    8.98   0 
  -8   1  10   10.71    5.14   0 
  -7   4  10  217.02    5.14   0 
  -6   5   9  418.00    5.78   0 
  -5   3   5  542.15    6.26   0 
  -5   4   6  248.44    5.06   0 
  -4  -7   6  216.53    8.85   0 
  -4  -6   5  164.08    9.22   0 
  -4   5   6  412.43    5.63   0 
  -4   6   8   21.62    3.70   0 
  -3   6   7    9.85    4.57   0 
  -3   7  11  249.06    5.54   0 
  -1   4   3  726.52    7.95   0 
  -1   6   7  104.90    4.62   0 
   0   4   3   20.83    4.52   0 
   1   6   9  470.52    7.84   0 
   2  -9   3   43.22    3.95   0 
   2   5   7  331.33    7.45   0 
   3  -9   3  248.95    5.06   0 
   3  -8   2  820.52    6.95   0 
   3  -4   0 1107.33    8.59   0 
   5  -8   3  148.66    4.45   0 
   5   0   3 2263.12   17.95   0 
   6  -1   4  216.06    7.01   0 
   7  -7   5  342.02    5.60   0 
   7  -3   5  488.10    7.63   0 
  -8   2  10  195.26    6.05   0 
  -7   0   7   17.43    4.54   0 
  -6   6  11   45.42    4.21   0 
  -5   5   7 1299.99    8.41   0 
  -5   6   9  182.27    4.53   0 
  -4   2   3 1044.89    9.04   0 
  -3   5   5 1303.97    8.67   0 
  -3   7  10  510.87    6.47   0 
  -2  -5   2   79.44    6.07   0 
  -2   7  10   29.02    4.06   0 
   0  -9   4  153.93    5.03   0 
   0  -7   2   77.79    4.61   0 
   0   6   7   28.29    5.04   0 
   1  -4   0 1177.47   10.33   0 
   1   3   2 2336.80   17.41   0 
   3  -3   0  185.60    5.39   0 
   4  -1   1  366.23    7.27   0 
   5  -6   2  221.75    4.99   0 
   7  -6   5  322.93    6.43   0 
   7  -4   5  172.45    6.00   0 
  -7   3   8  285.58    5.37   0 
  -7   4   9  474.19    6.20   0 
  -6   0   5 3499.79   17.33   0 
  -6   3   6  493.71    6.25   0 
  -6   4   7 1430.87    8.77   0 
  -5   2   4  544.01    7.56   0 
  -4   7  10  190.19    4.98   0 
  -3  -5   3  378.34    9.66   0 
  -3   2   2 3361.15   16.09   0 
  -2   1   1 3219.54   19.96   0 
  -2   3   2 1405.65   10.30   0 
  -2   4   3  275.81    5.45   0 
  -2   6   6  563.09    6.87   0 
  -2   7   9  607.24    7.62   0 
  -1  -6   2   56.75    5.35   0 
  -1   5   4 4273.71   16.39   0 
  -1   7  10   83.20    4.74   0 
   0  -3   0   51.42    4.66   0 
   1 -10   5  462.81    6.58   0 
   1  -6   1   32.89    3.68   0 
   1   2   1 2158.58   22.14   0 
   2  -6   1  101.60    5.05   0 
   2   4   4   40.18    5.66   0 
   4  -9   4  147.40    5.37   0 
   4  -8   3   27.15    4.79   0 
   4  -7   2 1445.48    8.76   0 
   4  -5   1  989.74    7.79   0 
   6  -7   4   27.16    3.74   0 
   6  -5   3  614.89    6.91   0 
   6  -4   3  653.60    7.83   0 
   7  -5   5   15.51    4.10   0 
  -8   3  10  368.47    6.62   0 
  -7   5  10  466.36    6.20   0 
  -6   1   5    4.76    4.81   0 
  -6   5   8  592.05    6.33   0 
  -6   6  10  290.15    5.41   0 
  -5   6   8  430.89    5.83   0 
  -4   4   4  124.38    5.16   0 
  -4   6   7  210.71    4.89   0 
  -3  -8   6   88.89    5.74   0 
  -3   6   6  583.65    6.55   0 
  -3   7   9  595.28    6.67   0 
  -2   5   4 4449.35   15.44   0 
  -1  -8   4  376.29    6.86   0 
   0 -10   6   36.56    5.05   0 
   1  -9   4   36.75    4.17   0 
   1   4   3 1938.65   14.73   0 
   1   6   8  190.19    5.21   0 
   2 -10   5  382.04    5.82   0 
   3 -10   5   77.57    4.51   0 
   3  -7   2  108.25    5.15   0 
   4  -4   1  371.49    6.13   0 
   5  -9   5   76.59    4.29   0 
   5  -8   4   10.15    4.39   0 
   5  -7   3   46.72    3.96   0 
   5  -5   2  182.77    4.75   0 
   5  -2   2   93.91    5.43   0 
   6  -8   5  472.28    6.01   0 
   7  -3   6  394.54    7.14   0 
  -8   2   9   24.43    5.25   0 
  -7   4   8   98.04    5.35   0 
  -6   2   5  160.18    5.51   0 
  -6   6   9  369.35    6.36   0 
  -5   4   5 1368.33    8.98   0 
  -5   7  10  278.65    5.20   0 
  -4   7   9  151.90    4.47   0 
  -3   7   8  115.77    5.18   0 
  -2  -8   5  190.80    6.17   0 
  -2   7   8  380.66    6.20   0 
  -1  -7   3   99.23    5.40   0 
   0   5   4  221.67    5.45   0 
   0   6   6  377.38    7.00   0 
   1  -8   3   47.13    4.05   0 
   2  -9   4  224.62    4.98   0 
   2  -7   2  131.69    4.61   0 
   2  -3   0 8531.33   24.67   0 
   2  -1   0  786.87   10.58   0 
   2   5   6   48.94    5.88   0 
   3  -9   4  284.10    5.12   0 
   3  -8   3  642.56    6.48   0 
   4  -3   1 1355.60   10.16   0 
   4  -2   1 1383.36   10.42   0 
   5  -4   2  593.26    6.57   0 
   5  -3   2  262.75    5.97   0 
   6  -2   4  832.04    9.09   0 
   6   0   6  354.55    9.31   0 
   7  -6   6  171.79    4.85   0 
   7  -4   6  276.32    6.45   0 
  -7   3   7  528.06    7.03   0 
  -7   5   9  779.53    7.21   0 
  -6   4   6 1023.48    7.71   0 
  -6   5   7  806.47    7.14   0 
  -5   3   4  105.55    4.25   0 
  -5   6   7  724.06    7.39   0 
  -4   3   3 3531.41   14.42   0 
  -4   6   6  786.15    7.48   0 
  -3  -7   5  270.20    7.62   0 
  -3  -6   4  182.60    7.24   0 
  -3   4   3 3064.76   13.22   0 
  -2  -7   4  424.29    8.18   0 
  -2  -6   3  370.31    7.47   0 
  -1  -4   1 4023.18   20.79   0 
  -1   7   8  417.43    7.06   0 
   1  -3   0 2625.77   15.30   0 
   1   6   7    1.23    4.56   0 
   2  -8   3  202.60    4.68   0 
   3  -5   1  400.52    5.66   0 
   5  -6   3  292.66    5.25   0 
   6  -8   6  127.39    4.51   0 
   6  -7   5  226.59    5.04   0 
   6  -5   4 1437.45    9.81   0 
  -5   7   9  140.95    4.72   0 
  -4   7   8  340.27    5.38   0 
  -3  -3   2  270.49   13.58   0 
  -2   7   7    9.07    4.47   0 
  -1   6   5  669.13    7.34   0 
   0  -9   5  184.05    5.02   0 
   0   7   9   60.59    5.50   0 
   2 -10   6   32.58    4.35   0 
   2  -5   1  281.04    5.91   0 
   3 -10   6   70.64    4.35   0 
   4  -9   5  205.76    4.83   0 
   4  -7   3  832.02    7.04   0 
   5  -7   4  316.86    5.90   0 
   6  -4   4  455.52    6.95   0 
   6  -3   4  328.43    6.47   0 
   6  -1   5  121.82    5.73   0 
   7  -3   7  104.63    5.62   0 
  -7   1   6  308.45    6.60   0 
  -6  -2   5  316.16    9.98   0 
  -6   6   8  466.29    5.99   0 
  -4   0   2 3925.92   21.30   0 
  -3   3   2 6624.40   20.35   0 
  -3   6   5  216.13    4.99   0 
  -3   7   7    4.20    3.49   0 
  -2   2   1  220.87    5.83   0 
  -1  -9   6   73.82    5.55   0 
  -1   4   2 2810.63   14.90   0 
  -1   7   7  286.99    6.34   0 
   0  -8   4  513.97    7.49   0 
   0  -6   2 1163.83   10.00   0 
   1  -5   1 1683.32   10.73   0 
   1  -2   0 2626.88   17.97   0 
   3  -6   2  404.98    5.76   0 
   3  -4   1 2142.71   11.70   0 
   3   0   1  101.24    6.04   0 
   3   4   5  882.41   15.02   0 
   3   5   8  514.30   11.55   0 
   4  -5   2  223.32    4.90   0 
   4   4   8    9.18   10.14   0 
   5  -5   3 1210.55    8.78   0 
   5  -1   3  805.25    9.52   0 
   7  -4   7  119.22    5.65   0 
  -8   2   8  264.07    6.42   0 
  -7   0   6   32.73    4.77   0 
  -7   2   6  286.44    5.57   0 
  -7   4   7  408.47    5.81   0 
  -7   6   9  327.23    6.14   0 
  -6   5   6  535.98    6.80   0 
  -5   0   3 1239.79   12.03   0 
  -5   1   3  207.32    6.14   0 
  -5   4   4  132.43    4.41   0 
  -5   5   5 1334.92    8.70   0 
  -5   6   6  947.50    7.52   0 
  -5   7   8  271.21    5.22   0 
  -4   1   2 1681.84   12.30   0 
  -4   5   4   87.63    4.28   0 
  -4   7   7   89.87    4.27   0 
  -2  -9   7  388.28    7.64   0 
  -2   4   2 3284.56   14.85   0 
   0  -7   3  578.42    6.89   0 
   0   6   5  307.63    6.46   0 
   1  -9   5    6.18    3.83   0 
   1   5   4  337.39    7.10   0 
   1   6   6  268.40    7.10   0 
   2  -9   5 1134.00    8.23   0 
   3 -10   7   69.50    5.04   0 
   3  -8   4  623.19    6.51   0 
   3  -7   3  770.68    6.93   0 
   6  -7   6  233.03    5.00   0 
  -8   3   8   23.93    4.86   0 
  -7   3   6  292.50    6.27   0 
  -6   4   5  820.82    7.17   0 
  -6   6   7  115.43    4.42   0 
  -6   7   9  158.12    4.65   0 
  -5   2   3 2690.06   14.04   0 
  -4   4   3  555.52    6.42   0 
  -4   6   5  660.45    6.52   0 
  -4   8   9  163.35    4.89   0 
  -3   7   6   89.31    4.23   0 
  -3   8   9   45.83    4.17   0 
  -2   7   6  193.49    5.02   0 
  -2   8   9  329.68    6.52   0 
   1 -10   7  435.19    6.38   0 
   1  -8   4  876.38    7.84   0 
   1  -6   2  519.69    6.24   0 
   1  -1   0   55.17    5.33   0 
   2 -10   7  425.39    6.25   0 
   2  -8   4  284.00    4.92   0 
   2  -6   2  644.20    6.79   0 
   2   5   5  379.73    8.35   0 
   2   6   8   21.75    5.61   0 
   4  -9   6   32.71    3.93   0 
   4  -6   3 1438.70    8.97   0 
   5  -8   6   51.39    4.28   0 
   5  -6   4  725.87    6.80   0 
   5  -4   3  680.85    6.76   0 
   5  -2   3   76.19    5.27   0 
   5   1   5  240.68    9.47   0 
   6  -5   5  531.50    6.28   0 
   6  -2   5  110.16    5.33   0 
   6   0   7  335.19    8.51   0 
  -8  -1   8   20.69    5.53   0 
  -7  -1   6    1.44    5.49   0 
  -7   5   7  183.51    4.87   0 
  -5  -6   7  141.43    9.02   0 
  -5   7   7  128.19    4.20   0 
  -4  -1   2  855.56   13.43   0 
  -4   2   2 1588.64   11.04   0 
  -4   7   6  568.45    6.81   0 
  -3   5   3   70.70    4.05   0 
  -3   6   4   29.21    4.52   0 
  -2   6   4 1747.62    9.98   0 
  -1  -8   5  665.42    7.81   0 
  -1  -5   2    6.78    4.55   0 
  -1   6   4 1982.18   11.24   0 
  -1   7   6  154.32    5.38   0 
   0   7   7  589.14    8.19   0 
   1  -7   3 1028.59    8.08   0 
   2  -7   3  481.61    6.08   0 
   2  -4   1 3465.63   15.01   0 
   3  -9   6  222.48    5.36   0 
   3  -3   1 3489.38   15.31   0 
   4  -8   5  420.67    5.88   0 
   4  -4   2 1094.45    8.19   0 
   4   2   4   19.48    9.44   0 
   5  -3   3  317.37    5.87   0 
   6  -7   7  103.91    4.49   0 
   6  -6   6   62.12    4.18   0 
   6  -4   5 1306.92    9.21   0 
   6  -3   5  574.84    7.56   0 
   6  -1   6   47.59    5.52   0 
  -8   4   8   94.34    4.59   0 
  -7   4   6  822.78    7.83   0 
  -7   6   8  791.71    7.24   0 
  -6   7   8  395.75    5.89   0 
  -5  -1   3 2767.43   20.25   0 
  -5   3   3 4928.48   16.69   0 
  -4   8   8  192.90    5.00   0 
  -3   0   1 3576.73   23.14   0 
  -3   1   1 1716.11   13.95   0 
  -2  -8   6  404.63    7.57   0 
  -1  -7   4  304.14    6.37   0 
   0  -4   1  106.68    4.80   0 
   2   3   2 1608.83   19.33   0 
   3  -2   1 1684.33   12.38   0 
   3   5   7  567.12   12.68   0 
   4  -1   2  971.20   10.15   0 
   4   1   3 1119.75   15.99   0 
   5  -5   4  873.05    7.70   0 
  -8   2   7  330.88    6.89   0 
  -6   3   4   27.16    4.03   0 
  -6   6   6  402.02    5.65   0 
  -5   5   4  145.17    4.54   0 
  -5   6   5  567.56    6.13   0 
  -5   8   8  191.67    5.47   0 
  -4  -7   7   44.18    5.96   0 
  -4   3   2  353.51    5.75   0 
  -4   6   4 1841.89   10.24   0 
  -3   7   5   34.52    3.71   0 
  -2   3   1 5005.76   18.91   0 
  -2   7   5  156.16    4.78   0 
  -1  -9   7  475.22    7.52   0 
  -1  -6   3  484.48    7.04   0 
   1  -9   6  265.04    5.32   0 
   1  -4   1 4779.24   18.60   0 
   2  -9   6 1383.24    8.96   0 
   2   4   3 1390.34   15.02   0 
   3  -8   5  489.65    5.85   0 
   3  -6   3  127.69    5.17   0 
   4  -2   2  708.86    7.84   0 
   5  -6   5  606.47    6.74   0 
   5   2   7  457.43   13.94   0 
   6  -7   8  241.92    5.30   0 
   6  -6   7  735.38    7.57   0 
   6  -5   6  368.54    5.76   0 
  -8   3   7  396.63    6.13   0 
  -7   2   5  197.19    5.60   0 
  -7   6   7   29.43    3.77   0 
  -5   4   3  190.03    5.25   0 
  -5   7   6  398.70    5.71   0 
  -4   5   3   92.40    4.25   0 
  -4   7   5 1313.44    9.01   0 
  -4   8   7  210.04    4.74   0 
  -2  -9   8  174.61    5.52   0 
  -2   8   7   46.10    4.17   0 
  -1   7   5  250.35    6.23   0 
  -1   8   8   69.10    4.54   0 
   0   6   4  994.12    8.78   0 
   0   7   6   94.93    5.50   0 
   1   4   2  710.13    9.90   0 
   1   6   5   80.38    5.12   0 
   1   7   8  657.96    9.22   0 
   2  -8   5   68.92    3.91   0 
   2  -5   2 2759.54   12.92   0 
   2   6   7   10.09    5.63   0 
   3  -7   4 1240.64    8.22   0 
   4  -9   8  145.16    5.28   0 
   4  -6   4 1897.79   10.34   0 
   5  -4   4  829.82    7.95   0 
   6  -4   6 1396.50    9.42   0 
   6  -3   6  191.46    5.76   0 
   6  -2   6   14.65    3.75   0 
   6   0   8  305.86    8.51   0 
  -8   0   7  267.94    7.45   0 
  -7  -3   7  400.96   14.25   0 
  -7   3   5 1141.80    8.81   0 
  -7   5   6  276.36    5.21   0 
  -6   4   4  123.36    4.26   0 
  -5  -5   6  408.92   12.90   0 
  -5  -4   5  161.69   12.56   0 
  -3  -7   6  193.48    6.20   0 
  -2   6   3  813.28    7.31   0 
  -1  -3   1 1767.42   16.15   0 
  -1   5   2  361.70    6.33   0 
   0  -9   7   38.02    4.97   0 
   0  -7   4 1098.16    8.97   0 
   0  -5   2  934.48    8.79   0 
   1  -8   5  157.04    4.69   0 
   2  -7   4  550.92    6.88   0 
   2  -3   1 9374.60   25.51   0 
   3  -4   2 1788.82   10.84   0 
   5  -8   8  334.24    5.37   0 
   5  -1   4   73.83    5.02   0 
   6  -5   7  355.24    5.71   0 
   6  -1   7  411.06    7.62   0 
  -7   4   5  587.45    7.19   0 
  -6  -1   4  161.13    7.69   0 
  -6   6   5  429.42    5.56   0 
  -6   7   6  148.06    5.12   0 
  -5   6   4 1994.43    9.87   0 
  -5   8   7  214.90    5.02   0 
  -4   4   2 1391.82    9.09   0 
  -4   8   6  355.62    6.19   0 
  -3   3   1 2519.67   13.19   0 
  -3   5   2   71.55    4.04   0 
  -3   6   3   62.94    3.89   0 
  -3   8   6   23.02    4.09   0 
  -2  -6   4  351.80    6.94   0 
  -2  -5   3 2395.95   15.89   0 
  -2   8   6   11.19    4.50   0 
  -1   6   3 1595.52   10.25   0 
  -1   8   7  177.76    5.13   0 
   0  -6   3 1225.21    9.47   0 
   1  -9   7  384.22    5.93   0 
   1  -7   4  671.68    6.75   0 
   1  -6   3 2434.52   11.91   0 
   1   7   7  142.14    5.91   0 
   2  -6   3 1964.00   10.36   0 
   4  -4   3   67.99    3.73   0 
   5  -7   7  680.98    6.58   0 
   5  -6   6  685.23    7.32   0 
   5  -5   5  869.56    7.47   0 
   5  -3   4  402.73    5.92   0 
   5  -2   4  134.42    5.47   0 
   6  -4   7   60.61    4.59   0 
  -8   5   7   29.74    3.91   0 
  -7   6   6   14.24    3.89   0 
  -7   7   7  145.85    4.64   0 
  -6   5   4  956.70    7.38   0 
  -5   5   3  119.69    4.29   0 
  -5   7   5  640.75    6.48   0 
  -4  -6   6   10.11    6.04   0 
  -3   7   4 1114.99    7.98   0 
  -2   4   1 3024.69   13.72   0 
  -2   7   4    6.39    3.65   0 
  -1  -9   8  504.81    7.56   0 
   1   3   1 1292.99   14.06   0 
   3  -9   8  121.92    4.18   0 
   3  -7   5  670.44    6.93   0 
   6  -5   8  106.52    5.14   0 
   6  -3   7   21.26    5.13   0 
   6  -2   7   85.05    5.31   0 
  -8   2   6  296.98    6.54   0 
  -7  -2   6 1553.16   18.51   0 
  -6   2   3 2107.25   12.54   0 
  -6   8   7  374.48    5.64   0 
  -5   2   2 1119.46    9.48   0 
  -5   8   6  133.31    4.49   0 
  -4   6   3   13.05    3.59   0 
  -4   7   4 2768.63   11.42   0 
  -3  -8   8   15.32    4.90   0 
  -3  -6   5  405.94    8.22   0 
  -2  -8   7  250.35    6.44   0 
  -2  -2   1 1279.13   23.60   0 
  -1   1   0   59.98    5.29   0 
   0  -8   6  454.95    6.83   0 
   0   5   2 2323.09   13.23   0 
   1  -3   1 3506.91   17.37   0 
   2  -9   8   52.09    4.57   0 
   2   5   4  307.60    8.07   0 
   2   6   6  138.31    6.96   0 
   3  -6   4   52.16    3.94   0 
   3  -5   3  813.09    7.12   0 
   4  -7   6  765.26    6.74   0 
   4  -3   3  984.20    8.55   0 
   5  -4   5  914.97    8.10   0 
   5   0   5  576.60    9.34   0 
   5   1   6  144.64    7.57   0 
   6  -1   8  205.00    6.52   0 
  -8  -1   7    4.87    6.50   0 
  -6   3   3 1025.42    8.52   0 
  -5   1   2  302.94    6.52   0 
  -4   5   2 3440.17   13.13   0 
  -4   8   5  545.13    6.09   0 
  -3  -4   3 1254.94   15.12   0 
  -3  -1   1  977.15   18.21   0 
  -3   4   1   11.65    3.40   0 
  -3   8   5  898.53    7.37   0 
  -3   9   7  328.12    6.30   0 
  -2   8   5   18.48    4.64   0 
  -1  -7   5  587.52    7.88   0 
   0  -9   8   30.92    3.76   0 
   0  -3   1   79.36    5.15   0 
   0   4   1 2640.73   15.45   0 
   0   6   3  789.78    8.15   0 
   1   6   4  167.58    5.66   0 
   3  -9   9  157.26    4.49   0 
   3  -8   7  202.29    4.77   0 
   3  -3   2 1542.76   10.24   0 
   3   5   6  872.58   15.95   0 
   4  -8   8  517.97    6.13   0 
   4   0   3 1255.69   12.68   0 
   5  -6   7  798.29    6.92   0 
   5  -5   6 1323.75    8.71   0 
   6  -4   8  107.84    4.44   0 
   6  -3   8  281.12    6.40   0 
   6  -2   8  173.25    5.73   0 
  -8   5   6   40.27    3.91   0 
  -7   2   4  472.41    7.16   0 
  -7   3   4 1757.67   11.25   0 
  -7   6   5   93.41    5.02   0 
  -6   1   3  660.02    8.26   0 
  -6   4   3  538.80    6.22   0 
  -6   6   4  510.84    5.87   0 
  -6   8   6   77.56    4.29   0 
  -5   4   2 1812.80   10.40   0 
  -5   6   3  303.31    5.08   0 
  -5   7   4 1201.74    8.11   0 
  -4  -5   5  376.22   10.08   0 
  -4   2   1 1034.44    9.65   0 
  -3  -5   4  741.80   10.55   0 
  -2   6   2   89.39    3.97   0 
   0   8   7  536.63    7.46   0 
   1   7   6   58.84    5.14   0 
   2  -7   5  117.81    4.22   0 
   5  -7   9   73.40    4.33   0 
   5  -3   5  157.47    4.73   0 
   5  -1   5 1036.12   10.29   0 
   6  -1   9   76.75    5.62   0 
  -7   4   4  505.92    6.22   0 
  -5   8   5  368.58    5.39   0 
  -4  -7   8  257.39    7.57   0 
  -4   1   1  875.45    9.72   0 
  -4   9   6   37.97    4.98   0 
  -3   7   3 1230.80    8.52   0 
  -2  -7   6   70.92    4.91   0 
  -2   5   1  183.04    5.36   0 
  -2   7   3  144.95    4.48   0 
  -1  -9   9  133.25    4.64   0 
  -1  -6   4  871.00    9.05   0 
  -1  -4   2 2078.91   14.44   0 
  -1   6   2  380.62    6.35   0 
  -1   8   5  139.04    5.43   0 
   0  -7   5  741.13    7.34   0 
   1  -7   5  783.29    7.01   0 
   3  -7   6  521.80    5.80   0 
   4  -8   9  359.80    5.57   0 
   4  -6   6  249.14    5.44   0 
   4  -4   4  148.22    4.33   0 
   4  -1   3 2195.31   13.99   0 
   5  -6   8  349.12    5.93   0 
   5  -2   5  200.74    4.94   0 
   5   2   8  289.85   10.24   0 
   6  -4   9  473.34    6.47   0 
   6  -3   9  214.07    6.01   0 
   6  -2   9   44.37    5.24   0 
  -8   0   6  345.19    7.89   0 
  -8   6   6  435.21    6.11   0 
  -7   1   4  211.26    6.19   0 
  -6   5   3  784.77    6.97   0 
  -5   5   2 1578.72    9.66   0 
  -5   9   6   90.31    4.93   0 
  -4   4   1 1974.58   10.83   0 
  -4   6   2   53.42    3.98   0 
  -4   7   3  520.65    6.04   0 
  -4   8   4  304.95    5.25   0 
  -3  -7   7  119.67    5.44   0 
  -3   5   1 1443.99    9.41   0 
  -3   8   4 1653.38    9.32   0 
  -3   9   6  265.39    5.50   0 
  -2   1   0  714.49   10.05   0 
  -2   8   4   53.13    4.87   0 
  -1   5   1 1140.77    9.34   0 
  -1   7   3 1706.49   10.88   0 
   0  -9   9   41.60    3.96   0 
   0  -8   7  347.65    6.10   0 
   1  -9   9  101.12    4.47   0 
   1  -8   7  172.02    5.12   0 
   1  -6   4  764.21    7.52   0 
   1  -4   2 5145.98   18.62   0 
   3  -4   3  990.57    7.96   0 
   3   1   2  951.67   15.64   0 
   3   4   4  189.18   11.63   0 
   4  -8  10  186.79    4.58   0 
   4  -5   5 2011.00   10.16   0 
   5  -4   6  424.65    5.99   0 
  -8   3   5  331.10    5.87   0 
  -7   7   5  268.58    4.96   0 
  -6   7   4    3.30    3.72   0 
  -3  -8   9   -1.09    4.68   0 
  -2  -8   8   29.89    4.14   0 
  -2   3   0 8418.10   24.13   0 
  -2   9   6    4.87    3.76   0 
  -1   3   0 2632.79   14.94   0 
   0  -4   2 1419.69   11.14   0 
   1  -5   3 2156.47   11.41   0 
   1   7   5  198.28    6.56   0 
   2  -9  10   90.48    4.19   0 
   2  -7   6  182.55    5.38   0 
   2   6   5  636.15   10.11   0 
   3  -5   4   86.68    3.91   0 
   4  -7   8  650.90    6.47   0 
   5  -3   6  353.30    6.18   0 
  -8   2   5 1446.95   10.95   0 
  -8   5   5  216.19    4.73   0 
  -6   6   3  362.89    5.34   0 
  -5  -6   8  177.19    7.83   0 
  -5   7   3 1073.46    7.61   0 
  -5   8   4   81.44    4.13   0 
  -3   9   5  371.11    5.65   0 
   1   5   2 1157.72   10.83   0 
   2  -8   8    4.37    3.63   0 
   3  -8   9  493.23    5.78   0 
   3  -7   7    3.69    3.67   0 
   3  -1   2  387.40    7.19   0 
   5  -5   8   12.75    3.50   0 
   5  -4   7  150.54    5.31   0 
   5   1   7  537.50   10.09   0 
  -8   6   5  499.71    6.94   0 
  -6  -5   8  226.17   10.45   0 
  -6   3   2  674.48    7.42   0 
  -5   6   2  355.41    5.20   0 
  -5   9   5    9.37    3.56   0 
  -4   5   1  976.72    7.58   0 
  -3   7   2   11.64    3.64   0 
  -3   8   3 1045.26    7.72   0 
  -2  -6   5  591.68    7.93   0 
  -2   4   0  160.32    5.09   0 
  -2   7   2  564.97    6.13   0 
  -2   9   5  159.74    5.41   0 
  -1  -8   8   59.35    4.88   0 
  -1   9   6   53.54    5.08   0 
   0  -9  10   80.58    4.16   0 
   0   8   5  170.56    5.71   0 
   1  -8   8  270.22    5.60   0 
   1  -2   1 2390.57   16.19   0 
   1   6   3  139.97    5.34   0 
   2  -3   2 1060.96    8.83   0 
   2   1   1  680.69   18.77   0 
   3   0   2 1285.22   13.34   0 
   4  -5   6  188.27    4.63   0 
   4  -4   5  126.43    4.18   0 
   5  -6  10  462.97    5.99   0 
   5  -2   6  287.66    5.58   0 
   5  -1   6  154.10    5.38   0 
  -8   1   5  421.09    7.56   0 
  -7   0   4  488.13    8.82   0 
  -7   3   3  566.80    7.20   0 
  -7   4   3  745.18    7.09   0 
  -7   7   4  113.97    4.20   0 
  -7   8   5  165.28    4.52   0 
  -6   2   2  160.65    5.51   0 
  -6   4   2 1239.38    8.81   0 
  -6   7   3   15.24    4.59   0 
  -5  -2   3   77.99   10.63   0 
  -5   3   1  610.66    7.18   0 
  -4   0   1 1812.40   15.31   0 
  -4   7   2  169.67    4.33   0 
  -4   8   3 1864.74    9.66   0 
  -3   6   1 1458.78    8.85   0 
  -2   6   1  418.26    5.67   0 
  -2   8   3  316.19    5.37   0 
  -1   4   0 1169.78    9.56   0 
   0  -8   8  144.97    4.49   0 
   0   3   0   60.52    5.27   0 
   0   7   3  867.75    8.89   0 
   1   4   1 1249.21   12.14   0 
   2  -5   4  876.11    7.67   0 
   2  -4   3  454.65    6.30   0 
   2   0   1  457.12   10.02   0 
   3  -8  10  109.33    4.39   0 
   3  -7   8  355.65    6.12   0 
   3  -6   6   18.31    3.46   0 
   3  -3   3  149.26    4.61   0 
   4  -2   4 1345.30   10.11   0 
   4   1   4  707.55   11.13   0 
   5  -5   9  187.40    4.62   0 
   5  -3   7   55.58    4.80   0 
  -7   2   3  673.83    8.02   0 
  -7   5   3 1181.72    8.22   0 
  -6   5   2 1174.47    8.05   0 
  -5   2   1  814.25    8.56   0 
  -5   4   1  553.06    6.16   0 
  -4  -6   7  265.67    7.22   0 
  -4   6   1  843.08    7.04   0 
  -4   9   4   88.72    3.94   0 
  -3  -6   6  472.70    7.56   0 
  -3   4   0 1104.52    8.24   0 
  -2  -8   9  161.37    4.98   0 
  -1   6   1 1197.84    9.21   0 
   2   4   2 1343.58   15.41   0 
   2   5   3  189.47    7.25   0 
   3  -4   4 2254.67   10.93   0 
   4  -6   8  360.33    5.29   0 
   5  -5  10  426.57    6.45   0 
   5  -4   8  109.73    4.12   0 
  -8   3   4  346.97    6.74   0 
  -8   5   4  219.99    4.78   0 
  -7   6   3   62.80    3.86   0 
  -6   6   2  460.74    5.67   0 
  -5   5   1 1518.43    9.02   0 
  -4  -7   9  531.02    8.40   0 
  -3  -7   8  338.27    6.45   0 
  -2  -5   4  602.39    8.21   0 
  -2   0   0  235.53    8.50   0 
  -2   5   0  477.45    6.58   0 
  -2   9   4  297.77    6.03   0 
  -1   8   3  289.54    5.97   0 
  -1   9   5   21.94    4.75   0 
   0  -6   5 1812.43   10.64   0 
   1  -6   5  728.72    6.73   0 
   1   7   4  123.79    5.29   0 
   2  -8  10  172.54    5.21   0 
   4  -7  11  167.33    4.46   0 
   4  -5   7  415.36    5.46   0 
   4  -3   5  124.94    4.81   0 
   4  -1   4 1982.59   12.65   0 
   5  -2   7  124.76    5.26   0 
   5   0   7  461.47    7.62   0 
   5   1   8  385.76    8.92   0 
  -6   1   2  435.88    7.16   0 
  -6   8   3  121.27    4.30   0 
  -6   9   4  687.61    6.73   0 
  -4   3   0 1140.98    9.08   0 
  -4   4   0 1992.73   10.83   0 
  -4   8   2  301.74    5.00   0 
  -3   5   0 2691.07   11.64   0 
  -3   7   1  255.68    4.97   0 
  -1  -7   7  371.91    6.49   0 
   2  -6   6   70.63    3.67   0 
   3  -7   9  371.73    5.39   0 
   3  -6   7   75.09    3.91   0 
   3   5   5  224.84   11.04   0 
   4  -4   6 1086.64    7.66   0 
   5  -5  11  306.72    5.18   0 
   5  -4   9   39.47    3.80   0 
   5  -3   8  154.74    4.54   0 
   5  -1   7   78.72    4.94   0 
  -8  -1   6   94.28    7.27   0 
  -8   2   4 1288.30   10.63   0 
  -7   7   3    7.70    3.53   0 
  -6  -2   4   26.36   10.93   0 
  -6   7   2  337.81    5.14   0 
  -5   1   1  742.97    8.63   0 
  -5   6   1 1137.63    8.04   0 
  -4   9   3  646.62    6.54   0 
  -2  -8  10  108.66    5.27   0 
  -2   8   2  107.81    4.42   0 
  -1   5   0  669.44    7.19   0 
   1  -4   3 1421.15   10.22   0 
   1  -3   2 1894.67   12.09   0 
   2  -8  11    4.34    3.66   0 
   2  -7   8 1674.14    8.95   0 
   2  -2   2   66.30    4.96   0 
   2   6   4  478.52    9.36   0 
   2   7   6  251.71    8.11   0 
   3  -5   6    3.68    4.41   0 
   3  -2   3 1755.29   11.29   0 
   4   4   8    6.74    9.46   0 
   5  -4  10    3.32    3.64   0 
   5  -2   8  301.88    6.14   0 
  -8   0   5   53.55    6.47   0 
  -7   1   3  107.77    5.34   0 
  -7   4   2  598.49    7.22   0 
  -7   5   2 1007.65    8.19   0 
  -5   9   3  115.92    4.19   0 
  -4   2   0   77.27    4.17   0 
  -4   5   0  798.56    6.99   0 
  -3   6   0  445.80    5.63   0 
  -2   9   3  322.01    6.01   0 
  -1  -5   4  702.83    7.65   0 
  -1   9   4   21.22    4.63   0 
   0  -8  10  166.09    5.11   0 
   0  -5   4 1137.65    8.69   0 
   0   7   2  343.37    6.63   0 
   3  -6   8 1553.49    8.78   0 
   4  -6  11  107.26    4.77   0 
   4  -2   5 5543.68   18.48   0 
   4   2   5    6.18    6.68   0 
   4   3   6  302.10   11.28   0 
   5  -4  11  373.38    5.65   0 
   5  -1   8  424.91    6.89   0 
   5   0   8  239.48    6.12   0 
   5   1   9  172.30    6.68   0 
  -8   5   3  290.70    5.91   0 
  -7   3   2   56.57    4.80   0 
  -7   6   2  793.97    7.38   0 
  -7   8   3   89.40    4.07   0 
  -6   3   1  210.67    5.54   0 
  -6   4   1  624.39    6.75   0 
  -6   5   1  746.01    6.60   0 
  -6   9   3  350.97    5.33   0 
  -5  -5   7  672.70   11.21   0 
  -5   7   1  449.91    5.49   0 
  -4  -7  10  213.30    6.20   0 
  -2  -7   8  175.22    4.74   0 
  -2  -6   6  127.88    4.40   0 
  -2   6   0  739.32    6.97   0 
  -1   7   1  400.27    5.92   0 
  -1   8   2  532.56    7.02   0 
   1   6   2  198.32    5.74   0 
   1   8   5  149.57    6.41   0 
   2  -4   4 1347.32    9.04   0 
   3  -4   5   74.71    3.67   0 
   3  -3   4 1980.55   10.72   0 
   4  -5   9   15.94    4.34   0 
   4  -4   7 1704.00    9.26   0 
   4  -3   6  721.70    7.22   0 
   5  -2   9  175.60    5.66   0 
  -8   4   3 1384.51    9.37   0 
  -8   6   3   18.67    3.71   0 
  -6  -1   3  226.12    8.96   0 
  -6   6   1  700.98    6.44   0 
  -6   8   2   83.13    4.05   0 
  -5  -1   2 2015.06   19.93   0 
  -4   8   1   38.48    3.59   0 
  -3  -7   9   12.44    4.54   0 
  -3   8   1   66.42    3.78   0 
  -2  -8  11  137.72    4.64   0 
  -1  -6   6   99.03    4.90   0 
  -1  -4   3 2417.39   14.27   0 
   0  -8  11   73.42    4.88   0 
   0  -6   6 1288.78    8.81   0 
   0  -3   2 4702.21   20.44   0 
   0   8   3  573.43    7.60   0 
   1   5   1  357.02    6.83   0 
   1   7   3   80.00    5.01   0 
   2  -6   7   25.89    3.63   0 
   2  -3   3 1114.05    8.56   0 
   3  -7  12   12.75    3.38   0 
   3  -6   9   94.39    3.78   0 
   5  -3  11  136.24    4.62   0 
   5  -1   9  502.25    7.09   0 
   5   0   9  540.60    7.78   0 
  -8   1   4  190.95    6.29   0 
  -8   3   3  256.42    6.06   0 
  -8   7   3   71.82    4.12   0 
  -7   7   2  207.67    4.82   0 
  -6   7   1  847.62    7.32   0 
  -5   3   0  440.99    6.11   0 
  -5   5   0  807.76    6.98   0 
  -5   8   1  348.31    5.20   0 
  -5   9   2  266.26    4.81   0 
  -4  -6   8  192.14    6.28   0 
  -4  -5   6  218.07    6.79   0 
  -4  10   3   16.56    3.81   0 
  -3  -6   7  343.47    6.57   0 
  -3   7   0  357.07    5.11   0 
  -2   3  -1 8689.84   23.65   0 
  -2   4  -1 3553.92   14.17   0 
  -2   8   1  321.22    5.29   0 
  -1   9   3   28.33    4.42   0 
   0   5   0 1194.21    9.58   0 
   2  -7  10  110.46    4.00   0 
   3  -5   7 2392.50   10.47   0 
   4  -1   5 4806.57   18.37   0 
   5  -2  10  807.36    7.74   0 
   5   0  10  166.02    6.23   0 
  -7   2   2  255.88    5.91   0 
  -7   8   2   17.98    4.28   0 
  -6   2   1  412.70    6.21   0 
  -6   9   2   30.12    3.71   0 
  -5   6   0  632.48    6.27   0 
  -4   1   0 2557.83   15.10   0 
  -4   7   0  444.77    5.45   0 
  -3   3  -1 3313.26   14.42   0 
  -3   4  -1 2175.59   11.01   0 
  -3  10   3  231.19    4.92   0 
  -1  -8  12   61.61    4.74   0 
  -1   3  -1 3515.84   16.43   0 
   0  -8  12   62.56    3.98   0 
   1  -6   7 2158.41   10.55   0 
   1  -5   5 1337.03    8.48   0 
   2  -5   6  663.75    6.25   0 
   2   7   5   77.86    6.19   0 
   3  -6  10   46.44    3.67   0 
   3  -4   6  371.43    5.72   0 
   4  -5  11   11.56    3.52   0 
   4  -2   6 1564.55   10.21   0 
   4   0   5  361.25    6.77   0 
   4   1   5  174.23    6.35   0 
   5  -2  11  264.99    5.30   0 
   5  -1  10  557.35    6.87   0 
  -6   0   2  342.27    7.93   0 
  -6   8   1  214.11    5.11   0 
  -5   7   0 1082.55    7.63   0 
  -3   0   0  257.63    7.64   0 
  -3   5  -1  387.77    5.29   0 
  -2  -7   9  153.18    4.65   0 
  -2   5  -1  293.89    5.01   0 
  -1  -7   9  184.49    5.20   0 
  -1   4  -1 4586.25   17.17   0 
   0  -7   9  251.50    4.59   0 
   0   9   4   60.06    4.93   0 
   1  -7  10  433.96    5.99   0 
   1   2   0  262.70    8.99   0 
   2  -7  12    5.67    4.35   0 
   3  -6  11   15.53    3.41   0 
   3  -5   8  534.45    5.80   0 
   3  -2   4  369.71    6.21   0 
   4  -5  12  968.55    7.63   0 
  -8   5   2  379.70    5.56   0 
  -8   6   2  294.07    5.05   0 
  -7  -1   4  204.16    8.43   0 
  -7   4   1  566.44    6.99   0 
  -7   5   1  269.41    4.82   0 
  -7   6   1  418.04    5.48   0 
  -6   5   0  950.73    7.69   0 
  -5   2   0  409.61    6.29   0 
  -4   4  -1  363.09    5.21   0 
  -4   5  -1 1008.79    7.38   0 
  -4   8   0  755.00    6.50   0 
  -4   9   1   54.92    3.63   0 
  -3  -7  10    2.04    3.86   0 
  -3  -4   4  645.41    9.34   0 
  -3   8   0  316.85    4.90   0 
  -3   9   1   10.85    3.62   0 
  -2  -6   7   18.85    4.31   0 
  -1   7   0  164.48    5.10   0 
  -1   8   1    9.82    3.69   0 
   0  -5   5 1154.35    8.23   0 
   0   7   1  704.21    7.14   0 
   0   8   2  987.99    8.87   0 
   1  -4   4 2136.50   11.02   0 
   2  -7  13   22.77    3.54   0 
   2  -4   5 1242.92    8.57   0 
   2  -1   2  599.23    8.40   0 
   2   5   2 1133.50   13.17   0 
   2   6   3   49.64    6.02   0 
   3  -6  12   70.35    3.78   0 
   3  -3   5 5982.15   17.41   0 
   4  -3   8  150.29    4.64   0 
  -8   4   2  197.69    5.43   0 
  -8   7   2   49.34    3.98   0 
  -7   0   3   43.04    5.58   0 
  -7   7   1  267.65    5.01   0 
  -6   4   0  603.21    6.39   0 
  -6   6   0  856.68    6.74   0 
  -5   0   1   70.58    5.41   0 
  -5   8   0  508.66    5.85   0 
  -4   6  -1  486.45    5.58   0 
  -3   2  -1 1677.11   11.37   0 
  -2   6  -1  101.21    3.83   0 
  -2   9   1  149.88    4.96   0 
  -1   5  -1 1668.50   10.10   0 
  -1   9   2    5.58    3.54   0 
   0   6   0  722.68    8.19   0 
   2  -5   7 3656.68   13.03   0 
   3  -6  13  122.31    3.96   0 
   3  -4   7 2644.14   11.38   0 
   3   0   3  756.03    9.33   0 
   4  -4  11   26.92    4.44   0 
   4  -2   7  345.01    5.88   0 
   4  -1   6  583.30    7.38   0 
  -7   3   1  419.62    6.37   0 
  -7   8   1  213.46    4.65   0 
  -6   7   0  304.99    4.80   0 
  -6   9   1   20.72    3.45   0 
  -5   5  -1  238.37    5.26   0 
  -4   7  -1  588.61    6.40   0 
  -3  -7  11   38.94    4.34   0 
  -3  -6   8  351.61    6.14   0 
  -3   7  -1  401.32    5.26   0 
  -2  -7  10  252.35    4.91   0 
  -2   8   0  557.82    6.00   0 
  -1  -7  10  192.72    4.44   0 
   0   9   3   74.41    4.75   0 
   1  -5   6  415.12    5.29   0 
   1  -3   3  241.44    4.96   0 
   1  -2   2  576.11    7.81   0 
   1   4   0   72.15    4.82   0 
   1   6   1  303.90    6.38   0 
   1   7   2  117.60    5.19   0 
   2  -3   4 1131.88    8.32   0 
   2   3   1 1458.42   20.73   0 
   3  -5  10  238.40    4.89   0 
   4  -4  12  156.97    4.43   0 
   4  -3   9  192.36    5.14   0 
   4   2   6  880.28   11.88   0 
  -8   3   2  180.50    5.58   0 
  -7   1   2  255.48    6.72   0 
  -6   1   1  211.67    5.68   0 
  -6   3   0    4.72    3.49   0 
  -5   4  -1  178.76    4.24   0 
  -5   6  -1 1022.57    7.26   0 
  -5  10   1    7.27    3.45   0 
  -2   7  -1  978.51    7.33   0 
  -2  10   2  624.18    6.60   0 
  -1   6  -1   33.53    3.39   0 
   0  -7  11   86.29    3.86   0 
   0  -4   4 1273.53    9.59   0 
   2  -6  11   90.50    4.32   0 
   2  -2   3  460.55    6.36   0 
   2   7   4  156.08    7.11   0 
   3  -3   6 6601.05   17.70   0 
   4  -3  10  835.32    7.28   0 
   4   0   6   68.43    4.54   0 
   4   3   7  158.15    8.00   0 
  -5  -5   8  155.77    6.13   0 
  -5   7  -1 1395.85    8.04   0 
  -5   9   0  101.30    3.86   0 
  -4  -4   5  207.88    7.29   0 
  -4   2  -1 1396.99   10.19   0 
  -1  -7  11  211.80    4.63   0 
   0  -7  12  260.37    5.30   0 
   0  -6   8  598.38    5.88   0 
   0   3  -1   82.82    4.20   0 
   1  -6   9   22.90    3.53   0 
   1   8   3  360.95    7.19   0 
   2  -5   8  230.92    4.39   0 
   3  -5  11   40.59    3.38   0 
   3  -5  12  445.23    5.10   0 
   3  -4   8   84.67    3.83   0 
   3  -2   5 5210.43   17.20   0 
   3  -1   4 3024.03   14.70   0 
   3   1   3  495.32    9.21   0 
   4  -2   8  349.67    5.27   0 
   4  -1   7  200.07    5.14   0 
   4   1   6  209.12    5.93   0 
  -8   0   4    3.62    5.74   0 
  -8   7   1  357.59    5.08   0 
  -7   5   0  577.16    6.04   0 
  -7   6   0  102.31    4.02   0 
  -7   7   0   45.08    3.73   0 
  -6   9   0  138.64    4.11   0 
  -5  -4   6  264.91    8.16   0 
  -5   1   0  288.58    6.57   0 
  -4  -5   7  646.39    8.20   0 
  -3  -7  12    7.53    3.70   0 
  -3   5  -2 1981.12    9.82   0 
  -3   8  -1  145.40    3.98   0 
  -2  -4   4 2062.09   13.26   0 
  -2   1  -1  179.83    5.48   0 
  -2   9   0  105.67    4.56   0 
   0   5  -1  888.23    8.27   0 
   0   7   0 1001.14    8.72   0 
   0   8   1  395.65    6.34   0 
   1  -4   5 1519.16    9.39   0 
   2  -6  14   58.07    3.75   0 
   3   2   3 1476.18   18.54   0 
   4  -3  12    8.59    3.43   0 
   4  -2   9  306.58    5.64   0 
  -8   1   3  137.44    6.14   0 
  -7  -3   7  380.12   12.78   0 
  -7   4   0  470.84    6.42   0 
  -6   5  -1  238.71    4.65   0 
  -6   7  -1  793.44    6.63   0 
  -5   8  -1  467.16    5.59   0 
  -4   5  -2  224.28    5.04   0 
  -4  10   0   21.89    4.25   0 
  -3  -6   9  510.57    7.00   0 
  -3   4  -2 1867.07    9.95   0 
  -3   6  -2  380.00    5.14   0 
  -2  -5   6 1119.95    9.22   0 
  -2   4  -2 6015.85   17.68   0 
  -2   8  -1  316.75    5.07   0 
  -1  -7  12  519.80    5.85   0 
  -1   7  -1   12.62    3.17   0 
  -1  10   2  163.94    5.53   0 
   0   9   2  366.37    6.63   0 
   1  -6  10  326.48    4.77   0 
   2  -5   9   60.29    3.48   0 
   3  -4   9  219.12    4.27   0 
   3  -3   7    3.83    3.76   0 
   4  -2  10  475.99    6.23   0 
   4  -1   8  221.48    5.35   0 
   4   0   7 1598.39   10.94   0 
  -8   2   2   73.76    5.29   0 
  -6   4  -1  158.11    4.97   0 
  -5  10   0   42.07    3.55   0 
  -4  -6  10  420.22    6.33   0 
  -4   4  -2 1074.63    7.51   0 
  -4   6  -2  113.68    3.92   0 
  -4   7  -2 1325.89    8.23   0 
  -3  -3   3 3024.16   20.86   0 
  -3   1  -1 1223.29   11.15   0 
  -3   7  -2  114.55    4.56   0 
  -2   6  -2  722.78    6.40   0 
  -1  -7  13  292.84    5.05   0 
  -1   1  -1 7783.28   32.84   0 
   0  -3   3  797.13    8.18   0 
   2  -5  10  379.72    5.49   0 
   2  -3   5 1706.66    9.63   0 
   2   4   1 1178.27   14.50   0 
   4  -2  11  715.37    6.69   0 
   4  -2  12  383.00    6.11   0 
   4   1   7  528.08    7.89   0 
   4   2   7  304.11    7.53   0 
   4   3   8  159.38    7.26   0 
  -5   6  -2  218.35    4.48   0 
  -4   0   0 1478.52   13.88   0 
  -3   3  -2 1543.84    9.63   0 
  -3   9  -1  454.22    5.46   0 
  -2  -6   9  286.67    5.16   0 
  -2   3  -2 1027.54    8.29   0 
  -1  -6   9  241.94    4.69   0 
  -1   4  -2 5258.79   17.48   0 
  -1   5  -2 4726.61   16.04   0 
   0  -6  10  140.43    3.83   0 
   0   6  -1 1582.55    9.93   0 
   1  -5   8 2317.81   10.04   0 
   2  -4   7 2561.95   10.61   0 
   2   6   2  609.02   10.26   0 
   3  -4  11  757.55    6.34   0 
   3  -4  12  219.08    4.39   0 
   3  -3   8   86.64    4.39   0 
   3  -2   6 5381.43   16.57   0 
   4   0   8  846.52    8.09   0 
  -8  -1   5  104.25   10.20   0 
  -8   7   0  470.79    5.62   0 
  -7   3   0  280.97    5.76   0 
  -7   6  -1   67.29    4.43   0 
  -7   7  -1   31.44    4.02   0 
  -5   2  -1  996.60    8.81   0 
  -4  -6  11  173.02    5.28   0 
  -3  -6  10   97.63    5.01   0 
  -2   7  -2  137.99    4.08   0 
  -2   9  -1   64.91    4.29   0 
  -2  10   0   42.71    4.38   0 
  -1   6  -2  535.99    6.20   0 
  -1   8  -1 1066.82    8.38   0 
  -1   9   0  653.23    6.66   0 
   0  -5   7   85.72    3.53   0 
   1  -6  14  351.69    4.85   0 
   1   6   0 1895.29   12.38   0 
   2  -5  11  144.48    3.94   0 
   2  -2   4  658.19    7.42   0 
   2   0   2  307.29    7.18   0 
   2   7   3  142.87    6.82   0 
   3  -1   5 1419.01    9.97   0 
   3   0   4 2472.06   14.24   0 
   4  -1  10  562.74    6.62   0 
   4  -1  11    5.65    4.09   0 
   4  -1  12  245.06    5.19   0 
   4   2   8  343.29    7.25   0 
   4   3   9   36.23    5.36   0 
  -8   3   1  256.67    5.65   0 
  -8   5   0   34.09    4.47   0 
  -7   5  -1  308.44    5.52   0 
  -7   8  -1   43.35    3.91   0 
  -6   3  -1  249.24    5.37   0 
  -5  -5   9  114.05    5.01   0 
  -5   4  -2  549.55    5.81   0 
  -5   8  -2  993.20    6.94   0 
  -4   3  -2  299.23    5.02   0 
  -1  -5   7   73.40    4.27   0 
  -1  10   1  402.58    5.65   0 
   0  -6  11  226.30    4.16   0 
   0  -2   2 5985.34   24.59   0 
   0   8   0  182.99    4.51   0 
   0   9   1   57.30    4.42   0 
   1  -5   9  880.51    6.53   0 
   1  -4   6  289.94    4.60   0 
   2  -5  13  481.68    5.38   0 
   2  -5  14  417.09    5.23   0 
   3  -3   9  406.10    5.04   0 
   4   0   9  515.78    6.78   0 
   4   0  10  299.61    5.99   0 
   4   1   8  630.58    7.73   0 
  -6   6  -2  279.32    4.48   0 
  -6   7  -2  634.36    5.77   0 
  -5   9  -2  231.66    5.26   0 
  -4  -5   8  299.38    6.12   0 
  -4   1  -1  363.55    6.53   0 
  -3  10  -1  241.17    4.62   0 
  -2  -5   7  757.32    7.11   0 
  -2   8  -2  140.48    4.12   0 
  -1  -6  11  548.96    5.96   0 
  -1   7  -2   51.12    4.02   0 
   0   7  -1  357.03    5.97   0 
   2  -1   3  536.60    7.19   0 
   3  -3  10  105.11    3.73   0 
   3  -3  14   48.54    4.51   0 
   3  -2   7  375.92    5.22   0 
   4   0  11  157.87    4.44   0 
   4   1   9  809.10    8.35   0 
   4   1  10  125.48    5.32   0 
   4   1  11  268.59    6.40   0 
   4   2  10  128.45    5.67   0 
  -6   5  -2    7.71    3.41   0 
  -4  -6  12  238.31    4.99   0 
  -4   6  -3 1459.33    7.95   0 
  -4   7  -3  845.87    6.80   0 
  -3   2  -2   45.56    4.40   0 
  -3   6  -3  127.19    4.05   0 
  -3   9  -2  442.08    5.21   0 
  -2   2  -2   67.45    4.09   0 
  -1  -6  12  349.34    5.33   0 
   0  -6  14  229.18    4.50   0 
   1  -5  10   30.65    3.27   0 
   2  -4   9  557.15    5.53   0 
   2   5   1 1804.72   15.45   0 
   3  -3  11  727.26    6.16   0 
   3  -3  12  456.09    5.54   0 
   3  -3  13  215.31    4.40   0 
  -8   4   0  461.53    6.24   0 
  -7   1   1  126.56    5.62   0 
  -7   4  -1  295.51    5.01   0 
  -6   9  -2   62.03    3.69   0 
  -3   4  -3  961.65    7.64   0 
  -3   7  -3  788.95    6.48   0 
  -2  -6  12  188.72    5.00   0 
  -2  -4   5 1175.08    9.08   0 
  -2   5  -3 1729.65    9.15   0 
  -2  10  -1  198.04    4.46   0 
  -1  -6  13   45.17    3.64   0 
  -1   9  -1  371.51    5.33   0 
  -1  10   0   71.11    4.68   0 
   1  -5  12  321.34    5.29   0 
   1  -5  15  511.25    6.20   0 
   1  -4   7  311.65    4.66   0 
   1   7   0  520.14    7.52   0 
   1   8   1  205.32    5.52   0 
   2  -4  10   48.75    3.41   0 
   3  -2   8  267.85    4.46   0 
   3  -1   6   79.92    4.27   0 
  -8   6  -1   30.55    3.56   0 
  -7   6  -2  153.55    4.68   0 
  -7   7  -2   70.71    3.64   0 
  -6   0   1  359.03    8.31   0 
  -6   1   0  846.35    8.79   0 
  -6   4  -2  459.72    5.66   0 
  -5  -4   7  284.88    6.93   0 
  -5   6  -3  294.69    4.65   0 
  -5   7  -3   48.80    3.42   0 
  -5  10  -2    4.00    3.28   0 
  -4   4  -3   72.94    3.97   0 
  -3  -6  13  383.70    5.83   0 
  -3   8  -3  614.69    5.60   0 
  -2  -6  13   87.37    4.40   0 
  -2  -5   8    5.29    3.98   0 
  -2   9  -2  307.43    4.72   0 
  -1  -6  14  221.09    4.48   0 
  -1   8  -2  135.48    4.22   0 
   0  -5   9  653.62    5.89   0 
   0   4  -2 1424.95   10.17   0 
   0   5  -2 1021.76    8.10   0 
   0   8  -1   29.15    4.21   0 
   1  -5  14  315.30    4.58   0 
   1  -3   5   25.89    3.03   0 
   2  -4  11  468.39    5.12   0 
   2  -4  13  137.49    3.75   0 
   2  -4  14  343.63    4.87   0 
   2  -3   7  962.69    6.81   0 
   2  -2   5 1558.62    9.72   0 
   2   8   4   59.79    6.50   0 
   3  -2   9  153.50    4.75   0 
   3  -2  14  442.31    6.17   0 
   3   1   4  451.15    7.85   0 
  -8   1   2  241.41    7.28   0 
  -8   2   1  344.65    6.88   0 
  -5   5  -3 1280.52    7.68   0 
  -5   9  -3  239.48    5.04   0 
  -4  -5   9   85.29    4.59   0 
  -4  -3   4  172.21    6.63   0 
  -4   9  -3  367.71    4.84   0 
  -1   2  -2  564.93    7.53   0 
   0  -5  10  754.08    6.21   0 
   0   6  -2 1120.16    8.43   0 
   1  -4   8  911.90    6.57   0 
   1  -1   2   89.52    5.05   0 
   1   5  -1   22.63    4.03   0 
   1   9   2  261.15    6.07   0 
   3  -2  11  183.34    4.62   0 
   3  -2  12  328.14    5.58   0 
   3  -2  13  522.65    5.47   0 
   3   0   5  503.66    6.47   0 
  -8   5  -1  162.15    4.37   0 
  -7   3  -1  221.64    5.25   0 
  -6  -3   6   38.41    5.99   0 
  -6  -2   4   25.26    8.95   0 
  -6   6  -3  523.10    5.33   0 
  -6   7  -3    9.48    3.24   0 
  -3   9  -3  245.77    4.33   0 
  -2   8  -3  208.49    4.33   0 
  -1   6  -3 2120.70    9.89   0 
   0  -5  11  870.43    6.22   0 
   1   3  -1 1723.28   14.14   0 
   2  -3   8  721.54    6.10   0 
   2   7   2   17.67    5.10   0 
   3  -1   7  978.13    7.59   0 
  -8   3   0  387.78    6.29   0 
  -5  -5  11   84.69    4.59   0 
  -5   1  -1  949.18    9.27   0 
  -5   4  -3  717.38    6.23   0 
  -5  10  -3  186.56    4.24   0 
  -4   7  -4  325.49    5.06   0 
  -4  10  -3  573.50    5.68   0 
  -3  -5   9  319.85    5.15   0 
  -3   3  -3  150.99    4.23   0 
  -2   3  -3 1117.66    8.05   0 
  -2  10  -2   89.06    3.78   0 
  -1  -4   6  840.62    7.01   0 
  -1   9  -2  203.41    4.32   0 
   0  -5  14  506.99    5.29   0 
   0   7  -2   76.65    3.84   0 
   1   0   1   58.84    6.02   0 
   2  -3   9  430.62    4.93   0 
   2  -3  15  994.58    7.32   0 
   3  -1   8 1484.65    9.02   0 
  -7   7  -3  210.67    4.97   0 
  -7   8  -3  198.50    4.36   0 
  -6  -4   9  288.63    6.81   0 
  -6   3  -2 2420.26   11.39   0 
  -5  -3   5  307.70    8.33   0 
  -5   0   0 1076.90   11.50   0 
  -5   7  -4  312.79    5.09   0 
  -4   3  -3  967.36    7.29   0 
  -4   8  -4   88.72    3.67   0 
  -3  -4   6  809.87    8.18   0 
  -3   6  -4   48.13    3.56   0 
  -3   7  -4 1249.21    7.34   0 
  -3   8  -4  643.52    6.17   0 
  -3  10  -3  355.54    4.95   0 
  -2  -4   6  646.92    6.89   0 
  -2   9  -3   44.33    3.38   0 
  -1  -5  10  629.88    5.64   0 
   0   9  -1  391.04    6.35   0 
   1  -4  10  767.14    5.93   0 
   1  -4  14  147.07    4.49   0 
   1  -4  15  604.16    5.64   0 
   1  -3   6 1382.65    8.18   0 
   1   8   0  123.38    4.82   0 
   2  -3  12  474.50    5.59   0 
   2  -3  13  462.36    5.38   0 
   2  -3  14   90.92    3.69   0 
   2  -2   6 1082.12    7.62   0 
   2  -1   4   90.48    3.98   0 
   3  -1   9  437.49    5.73   0 
   3  -1  12  235.99    5.01   0 
   3   0   6   15.66    3.70   0 
   3   2   4  452.88    8.69   0 
  -8   0   3   82.38    7.11   0 
  -8   4  -1  240.64    4.90   0 
  -8   6  -2  133.27    4.09   0 
  -7   4  -2  462.97    5.65   0 
  -7   6  -3  155.66    4.73   0 
  -5   2  -2   91.09    4.08   0 
  -5   6  -4  734.48    5.94   0 
  -5   9  -4   48.58    4.29   0 
  -4  -5  11  802.27    7.69   0 
  -4   9  -4  157.66    3.78   0 
  -3  -5  10  110.41    4.52   0 
  -3   5  -4   91.31    3.70   0 
  -2   6  -4  238.79    4.34   0 
  -2   7  -4  558.19    5.58   0 
  -1  -5  12  266.44    4.76   0 
  -1  -5  15   13.54    3.84   0 
  -1   8  -3   47.24    3.57   0 
   0   8  -2   49.35    4.19   0 
   0  10   0  188.79    5.46   0 
   1  -4  11  596.90    5.38   0 
   1  -4  12  155.52    4.06   0 
   1  -4  13  450.59    5.07   0 
   1  -2   4  202.10    4.45   0 
   1   7  -1 1060.69    8.93   0 
   1   9   1   73.95    4.68   0 
   2   8   3   40.07    5.77   0 
   3  -1  10  670.67    6.25   0 
   3  -1  11  454.01    5.32   0 
   3   1   5  142.89    5.29   0 
  -7  -3   8  106.51    6.41   0 
  -6   4  -3  663.90    6.78   0 
  -6   7  -4   25.00    3.73   0 
  -6   8  -4  429.15    5.04   0 
  -4  -4   7  799.46    8.03   0 
  -3  -2   2  150.20    7.88   0 
  -2  -5  11    0.17    3.52   0 
  -2   5  -4  923.73    6.77   0 
  -2   8  -4  293.29    4.36   0 
  -2  10  -3  238.57    4.99   0 
  -1  -5  13    6.65    2.92   0 
  -1  -5  14    8.03    3.17   0 
  -1  -4   7  722.45    6.54   0 
  -1  10  -2  220.32    5.23   0 
   0  -3   5  524.31    6.01   0 
   1  -3   7 2043.66    9.76   0 
   2  -2   7  708.67    6.08   0 
   2  -2  15   82.75    3.75   0 
   3   0   7  103.32    4.50   0 
   3   0  13  141.53    4.03   0 
   3   6   7  365.25   12.59   0 
  -8   5  -2  696.82    7.09   0 
  -6  -1   2   45.09    9.10   0 
  -6   6  -4  249.60    4.84   0 
  -6   9  -4  313.27    4.79   0 
  -5   3  -3  329.98    5.12   0 
  -5   5  -4  882.73    6.39   0 
  -4  -5  12 1645.58    9.65   0 
  -4   4  -4  158.92    4.41   0 
  -4  10  -4  158.30    3.83   0 
  -3  -3   4 1339.74   11.69   0 
  -3   1  -2  375.24    6.37   0 
  -2  -5  13  199.45    4.89   0 
  -2  -5  14   63.03    3.98   0 
  -2  -5  15    3.21    3.11   0 
  -1   3  -3  256.15    4.76   0 
  -1   9  -3   36.32    4.10   0 
   0  -4   9  482.34    5.15   0 
   0   5  -3 2532.71   11.76   0 
   0   6  -3 1225.42    8.73   0 
   2  -2  14  655.14    5.86   0 
   2   0   3  335.80    6.56   0 
   3   0   8  475.01    6.14   0 
   3   0  12  244.89    4.74   0 
   3   4   4  195.93   10.02   0 
  -7   5  -3  307.75    4.67   0 
  -4  -5  14   71.81    3.74   0 
  -4   7  -5  211.20    4.69   0 
  -3  -5  12  491.19    5.45   0 
  -3  -5  14  164.01    4.54   0 
  -3  -4   7  408.68    6.13   0 
  -3   0  -1  102.33    5.55   0 
  -3  10  -4   85.42    3.69   0 
  -2  -4   7 2213.66   10.93   0 
  -2  -2   2 2693.03   20.06   0 
  -2   0  -1  446.97    9.08   0 
  -2   1  -2  606.34    7.63   0 
  -1   7  -4  678.24    6.40   0 
   0  -4  10  972.22    6.57   0 
   0  -4  14   60.64    3.92   0 
   0  -4  15  274.87    4.57   0 
   0   7  -3  562.85    6.65   0 
   1  -3   8  433.41    5.01   0 
   1  -3  15  356.28    4.79   0 
   2  -2   8  910.17    6.51   0 
   2  -2  13  512.13    5.43   0 
   2  -1   5  767.54    7.11   0 
   2   7   1    5.73    5.18   0 
   3   0   9 1610.30    9.20   0 
   3   0  10  406.96    5.25   0 
   3   0  11  398.08    5.49   0 
   3   1   6  898.54    8.81   0 
  -7   2  -1  718.90    7.58   0 
  -7   3  -2  711.83    7.07   0 
  -6   5  -4 1455.80    8.49   0 
  -5   7  -5  167.47    3.84   0 
  -4   6  -5  794.68    6.11   0 
  -4   8  -5  438.58    4.99   0 
  -4   9  -5  201.43    4.17   0 
  -3   2  -3 1980.27   10.88   0 
  -3   6  -5  831.17    6.24   0 
  -3   8  -5  499.67    5.14   0 
  -2   2  -3  461.10    6.31   0 
  -1   5  -4 1561.89    8.56   0 
   0  -4  11  924.82    6.23   0 
   0   4  -3 1442.40    9.40   0 
   0   9  -2  238.04    4.87   0 
   0  10  -1  189.17    4.50   0 
   1  -3   9  382.38    5.29   0 
   1  -3  14  393.71    4.68   0 
   1   5  -2    6.90    3.86   0 
   1   6  -2   61.49    4.44   0 
   1   8  -1  287.18    5.63   0 
   1   9   0  163.81    5.15   0 
   2  -2   9  392.12    4.80   0 
   2  -2  11  274.83    4.33   0 
   2  -2  12  695.87    5.69   0 
   2   1   2 1644.16   16.46   0 
   2   4   0 1806.09   16.79   0 
   2   5   0  965.54   11.18   0 
   3   1  12   43.54    3.63   0 
  -8   3  -1 1574.86   10.19   0 
  -7   1   0  167.71    5.85   0 
  -6  -4  11   16.84    3.94   0 
  -6   2  -2  399.55    5.98   0 
  -6   8  -5  492.74    5.68   0 
  -5  -4   9  242.79    5.14   0 
  -5   6  -5  603.94    5.53   0 
  -5   9  -5   73.02    3.45   0 
  -4  -4   8  268.01    5.30   0 
  -4   1  -2  952.98    8.80   0 
  -4   2  -3 1158.84    8.59   0 
  -3   9  -5  274.72    4.29   0 
  -2   7  -5  122.10    3.89   0 
  -2  10  -4  535.16    5.82   0 
  -1  -4  16   66.26    3.54   0 
  -1   8  -4  907.18    6.67   0 
  -1  10  -3   24.63    3.99   0 
   0   2  -2 6090.79   23.31   0 
   1  -3  11  334.17    4.46   0 
   1  -3  12  152.97    3.69   0 
   1  -3  13  612.91    5.46   0 
   1  -2   5 2563.61   11.46   0 
   2  -1  14  433.83    5.56   0 
   2   8   2    8.38    5.07   0 
   3   1   7  317.79    5.55   0 
   3   1  11  228.62    5.11   0 
   3   2   5   90.54    4.91   0 
   3   2  12   50.74    4.15   0 
  -8   4  -2   95.95    3.92   0 
  -7   4  -3  337.68    5.33   0 
  -7   6  -4   28.51    3.10   0 
  -6   1  -1 1077.97    9.50   0 
  -6   3  -3 1104.01    8.20   0 
  -6   7  -5  222.99    4.10   0 
  -4   5  -5 2142.62    9.18   0 
  -4  10  -5    2.17    2.95   0 
  -3   3  -4 1999.83    9.80   0 
  -3   5  -5  234.65    4.29   0 
  -2  -4   8 1305.25    8.03   0 
  -2   6  -5  373.70    4.78   0 
  -2   8  -5   68.65    3.23   0 
  -1  -4  15  115.46    3.66   0 
  -1  -3   5  259.17    4.80   0 
   0  -3  16   19.96    3.06   0 
   1  -1   3  878.53    8.93   0 
   1   4  -2 1982.29   12.28   0 
   1   7  -2  643.67    7.09   0 
   2  -1   6  918.19    7.18   0 
   2  -1  13  160.31    4.45   0 
   2   6   0   17.44    4.53   0 
   3   1   8  124.71    4.29   0 
   3   1   9  253.34    5.23   0 
   3   1  10  338.48    4.96   0 
   3   2  11   77.28    4.23   0 
   3   5   5  238.77    9.83   0 
  -8   1   1  150.39    6.07   0 
  -8   5  -3  797.51    7.46   0 
  -7  -3   9  189.84    6.15   0 
  -6   6  -5    9.88    3.81   0 
  -5  -4  10   18.71    3.83   0 
  -4  -3   5  772.88    8.91   0 
  -4   3  -4  938.43    6.87   0 
  -2  -4  16  428.03    5.20   0 
  -2   3  -4 1119.24    7.77   0 
  -2   5  -5  266.05    4.32   0 
  -2   9  -5 1141.23    7.07   0 
  -1  -4  11  198.76    3.78   0 
  -1  -4  12  105.28    3.48   0 
  -1  -4  13  409.96    4.70   0 
  -1  -4  14   40.75    3.15   0 
   0  -3   7 2061.46    9.45   0 
   0  10  -2  233.93    5.30   0 
   1  -2  15   55.16    3.25   0 
   2  -1  12  322.76    5.03   0 
   3   2   6  354.30    6.50   0 
   3   2  10  157.46    4.93   0 
   3   3  11   60.80    4.25   0 
  -7   5  -4   72.32    3.38   0 
  -6   4  -4  463.53    5.48   0 
  -5  -1   1  613.77   15.78   0 
  -5   2  -3   77.17    4.39   0 
  -4   8  -6  345.31    4.52   0 
  -4   9  -6   30.74    3.33   0 
  -3  -4   9  303.71    5.19   0 
  -2  -4  15  104.41    3.48   0 
  -1   2  -3 1782.73   11.26   0 
  -1   7  -5  840.12    6.69   0 
   0  -3  14    3.86    3.73   0 
   0   3  -3  827.36    8.05   0 
   0   6  -4  864.40    7.34   0 
   0   9  -3    4.76    3.18   0 
   1  -2   6 1703.38    9.06   0 
   1  -2  14  312.46    4.59   0 
   2  -1   7  498.70    5.38   0 
   2  -1   8  319.33    4.78   0 
   2  -1  11  189.85    4.50   0 
   2   0   4  820.58    8.21   0 
   2   0  14   25.78    3.08   0 
   3   2   7  620.33    7.47   0 
   3   3   5  275.98    7.19   0 
   3   3  10  228.89    5.83   0 
   3   4  10   92.78    5.14   0 
  -7   7  -5  338.49    4.77   0 
  -5  -4  11    3.95    3.16   0 
  -5  -4  12   59.45    4.11   0 
  -5  -3   6  264.62    6.43   0 
  -5   1  -2 1921.53   11.77   0 
  -5   3  -4  383.89    5.47   0 
  -5   9  -6  111.00    3.55   0 
  -4  -4  10  151.66    4.36   0 
  -4   4  -5  130.28    3.71   0 
  -4   6  -6  262.87    4.85   0 
  -3   8  -6  978.28    6.42   0 
  -3   9  -6  223.74    3.87   0 
  -2  -4  11  651.76    5.93   0 
  -2  -4  12  402.98    5.16   0 
  -2  -4  13   32.80    3.70   0 
  -2  -3   5  663.63    7.01   0 
  -2  10  -5  374.39    4.75   0 
  -1   8  -5  158.72    4.16   0 
  -1  10  -4    4.14    3.06   0 
   0  -3  13  554.72    5.26   0 
   0   5  -4 1148.08    8.04   0 
   1  -2   7 3400.38   12.12   0 
   1  -2  13  195.70    3.76   0 
   2  -1   9  923.53    6.56   0 
   2  -1  10  494.97    5.24   0 
   2   7   0  609.76    9.26   0 
   2   8   1  350.23    8.17   0 
   3   2   8  436.72    6.23   0 
   3   4   5  878.05   12.65   0 
   3   5   6  931.43   13.60   0 
   3   5   8  548.86    9.72   0 
  -7   0   1  159.70    7.50   0 
  -7   6  -5  330.59    5.15   0 
  -6   0   0  595.36   10.08   0 
  -5   6  -6  705.32    6.24   0 
  -4  -4  11  292.12    5.11   0 
  -3  -4  11 2866.59   11.29   0 
  -3  -4  14  132.08    3.75   0 
  -3  -4  15  119.00    3.86   0 
  -3  -3   5  568.32    7.00   0 
  -3   6  -6   18.95    3.06   0 
  -2   7  -6  200.30    3.98   0 
  -2   8  -6 1049.14    7.09   0 
  -1  -3   6 1601.07    9.16   0 
  -1  -3  16  131.39    3.69   0 
  -1  -2   3 1434.41   11.25   0 
  -1   3  -4  103.59    4.06   0 
  -1   5  -5 1286.42    7.46   0 
  -1   9  -5    4.16    3.69   0 
   0  -3   9  875.27    6.21   0 
   0  -3  10  665.63    5.54   0 
   0  -3  12  119.95    3.39   0 
   0   8  -4  509.62    5.73   0 
   1  -2  12  273.32    4.03   0 
   1  -1  15    9.84    3.81   0 
   2   0  13   38.04    3.19   0 
   2   1  14   61.71    4.07   0 
   3   3   6   71.69    4.89   0 
   3   3   8  158.68    5.42   0 
   3   3   9  224.88    5.38   0 
   3   4   9  469.96    7.28   0 
   3   5   7  590.60   10.21   0 
  -8   3  -2  344.78    5.82   0 
  -4  -4  12  207.96    4.24   0 
  -4  -4  14  178.47    4.01   0 
  -2   6  -6   70.79    3.35   0 
  -1  -3  15  542.74    5.28   0 
   0  10  -3   66.85    3.83   0 
   1  -2   8  827.61    6.07   0 
   1  -2   9  686.21    5.63   0 
   1  -2  10  447.17    4.80   0 
   1  -2  11   13.12    3.19   0 
   1   5  -3 1504.47    9.74   0 
   1   6  -3  465.76    5.79   0 
   2   0   5 2210.15   11.76   0 
   2   0  12  158.97    3.85   0 
   3   3   7  237.20    5.58   0 
   3   4   6  785.74   10.33   0 
  -8   4  -3   11.69    3.11   0 
  -7  -2   6 1446.72   15.38   0 
  -7   2  -2  907.52    8.10   0 
  -7   4  -4  313.77    5.30   0 
  -4   8  -7  368.71    4.59   0 
  -4   9  -7    7.83    3.66   0 
  -1  -3   7 3714.97   12.60   0 
  -1  -3  14  553.61    5.07   0 
   1  -1   4 1670.58   10.25   0 
   1   9  -2  153.26    4.66   0 
   2   0  11  799.07    6.38   0 
   2   3   0  191.57    9.06   0 
  -8  -1   5  102.79    9.04   0 
  -8   2  -1  262.42    5.84   0 
  -7   5  -5    9.95    3.71   0 
  -6   2  -3  815.56    7.50   0 
  -6   3  -4  343.18    5.48   0 
  -5   8  -7   27.31    3.13   0 
  -4  -3   6 1233.27    9.43   0 
  -4   7  -7  679.86    5.50   0 
  -3   8  -7  225.77    4.05   0 
  -3   9  -7  529.46    5.22   0 
  -2  -3  16  756.09    5.88   0 
  -2   5  -6  680.16    5.66   0 
  -1  -3   8 1409.66    7.86   0 
  -1  -3  13  211.00    3.81   0 
  -1   7  -6  403.56    5.07   0 
   0  -2  14  433.44    4.70   0 
   2   0   6  606.34    6.34   0 
   2   0  10  172.82    3.99   0 
   2   5  -1 1671.71   12.99   0 
   2   6  -1  193.94    5.87   0 
  -6  -3   9   39.99    3.69   0 
  -6   4  -5 1415.95    8.04   0 
  -5   0  -1  339.23    7.41   0 
  -5   7  -7  717.96    5.75   0 
  -4   2  -4 1417.37    8.77   0 
  -4   6  -7  415.39    5.21   0 
  -3  -3  16  287.95    4.89   0 
  -3   1  -3 2098.29   12.10   0 
  -2   2  -4  736.22    6.74   0 
  -1  -3   9   13.59    2.91   0 
  -1  -3  10   17.80    3.47   0 
  -1  -3  11  525.02    5.03   0 
  -1   6  -6 1194.96    6.98   0 
   0  -2  13  351.50    4.93   0 
   0  -1  16  160.00    3.67   0 
   0   8  -5  288.29    5.15   0 
   0  10  -4    7.72    3.71   0 
   1   4  -3 2750.93   13.19   0 
   2   0   8  349.97    5.29   0 
   2   0   9  265.39    4.44   0 
   2   1   3 1215.73   11.47   0 
   2   1  12  309.47    4.69   0 
   2   8   0  365.52    7.37   0 
  -7   1  -1  645.92    8.61   0 
  -6   5  -6  404.90    5.36   0 
  -6   7  -7  108.04    3.67   0 
  -4   1  -3 2410.58   12.33   0 
  -4   4  -6 1154.36    6.83   0 
  -3   4  -6  413.40    4.88   0 
  -3   6  -7   80.22    3.35   0 
  -2  -3   7   35.78    3.47   0 
  -2  -3  14   52.06    3.08   0 
  -2   1  -3  562.60    6.92   0 
  -2   7  -7  187.80    3.70   0 
  -2   8  -7  166.31    3.76   0 
  -2   9  -7  311.82    4.45   0 
  -1   0  -1   55.05    5.07   0 
   1  -1   5 4334.24   15.02   0 
   1  -1  12  690.39    5.43   0 
   2   7  -1 2486.29   14.90   0 
  -6  -3  11 1054.24    8.22   0 
  -6   1  -2   16.39    3.74   0 
  -5  -3   8  118.95    4.38   0 
  -5   2  -4  145.36    4.48   0 
  -5   3  -5  175.76    4.11   0 
  -4  -2   3  441.86    8.90   0 
  -4   9  -8  146.02    4.12   0 
  -3  -3  15  209.17    4.12   0 
  -2  -3  13  141.29    3.68   0 
  -2   4  -6 3640.05   11.62   0 
  -2  10  -7  443.55    5.72   0 
  -1  -2  15 1997.26    8.54   0 
  -1   5  -6  413.59    4.78   0 
  -1  10  -6  724.75    6.39   0 
   0  -2   6 3233.75   11.90   0 
   0  -1  15  789.69    5.93   0 
   1  -1  11  324.63    4.37   0 
   1   0   2 1493.95   13.65   0 
   1   9  -3  170.40    4.67   0 
   2   2  12  122.16    4.48   0 
   2   4  -1  689.43    9.77   0 
  -8   1   0  307.27    7.58   0 
  -8   4  -4  192.08    4.98   0 
  -6  -3  12  343.56    5.31   0 
  -5  -3  14   74.51    4.00   0 
  -4  -3  15  237.21    4.37   0 
  -4   5  -7  432.44    4.79   0 
  -3  -3   7  333.04    4.97   0 
  -3  -3  14  117.00    3.48   0 
  -3   5  -7 2426.40    9.31   0 
  -3   9  -8  122.86    3.58   0 
  -2  -3   8 2135.05    9.36   0 
  -2  -3   9 1871.53    8.86   0 
  -2  -3  11 1487.91    7.53   0 
  -2  -3  12  174.23    3.65   0 
  -1  -2   4  760.10    7.28   0 
   0  -2   7  633.66    5.53   0 
   0  -2   8  759.55    5.79   0 
   0  -2   9  355.38    4.79   0 
   0  -2  10   75.41    3.36   0 
   0   2  -3  953.62    8.46   0 
   0   3  -4  666.38    6.44   0 
   1  -1   6  797.77    6.56   0 
   1  -1   9  497.40    5.25   0 
   1  -1  10   11.36    2.78   0 
   1   0  13  524.49    5.11   0 
   1   8  -4  405.43    5.65   0 
   2   1  10  150.58    3.99   0 
  -8   3  -3   31.26    3.95   0 
  -7  -2   7  899.88   10.84   0 
  -7   3  -4  349.14    5.42   0 
  -6  -2   5  301.61    7.57   0 
  -5  -3  13   56.74    3.92   0 
  -5   5  -7  575.56    5.27   0 
  -5   7  -8  761.29    5.61   0 
  -4  -3   8  167.82    4.42   0 
  -4   7  -8  693.39    5.61   0 
  -3  -3   8  325.35    5.03   0 
  -3   7  -8  392.05    4.56   0 
  -2   5  -7 4081.80   12.28   0 
  -1   2  -4  200.95    4.28   0 
  -1   3  -5   29.89    2.86   0 
  -1   7  -7   48.75    2.94   0 
  -1   8  -7  191.88    3.85   0 
   0  -1  14  599.32    5.26   0 
   0   7  -6 1356.55    8.00   0 
   0   8  -6  485.80    5.74   0 
   0  10  -5   32.58    3.13   0 
   1  -1   8 1036.50    6.61   0 
   1   1  14  594.46    5.49   0 
   1   5  -4  733.28    6.89   0 
   2   1   9   33.21    3.68   0 
   2   2  11  134.66    4.74   0 
   2   3  12  114.27    3.98   0 
   2   8  -1  377.92    7.36   0 
  -7   5  -6  104.72    3.71   0 
  -5  -3  11   57.24    3.42   0 
  -5   1  -3  805.83    7.69   0 
  -4  -3   9  335.62    5.11   0 
  -4  -3  13   40.64    3.18   0 
  -4   6  -8  380.06    4.83   0 
  -3  -3   9  238.66    4.25   0 
  -3  -3  10 1790.29    8.83   0 
  -3  -3  11 1944.14    8.66   0 
  -3  -3  12  127.57    3.49   0 
  -3  -2   3   89.56    5.02   0 
  -2  -2  15  354.39    4.41   0 
  -2   8  -8    5.91    3.00   0 
  -2   9  -8   48.55    3.15   0 
  -1  -2  13  154.95    3.58   0 
  -1   4  -6  305.69    4.28   0 
  -1   6  -7 2229.77    9.06   0 
   0  -1  13  243.95    3.87   0 
   0   0  15   91.18    4.08   0 
   0   4  -5  151.85    3.83   0 
   0   6  -6 1282.57    7.30   0 
   0   9  -6   15.51    3.67   0 
   2   1   8  317.93    5.30   0 
   2   6  -2   14.68    4.07   0 
  -6   5  -7  386.59    5.13   0 
  -5  -2   4  103.75    5.46   0 
  -5   6  -8  353.93    4.54   0 
  -4  -3  10  701.16    6.09   0 
  -4  -3  11  262.98    4.34   0 
  -4   3  -6  790.35    6.40   0 
  -3  -2  16  102.09    3.39   0 
  -3   0  -2 1246.72   10.99   0 
  -3   2  -5 5496.61   15.88   0 
  -3   3  -6 7380.07   16.31   0 
  -3   6  -8 1759.13    8.15   0 
  -2   7  -8 1765.91    7.96   0 
  -1  -2   5 1327.15    8.92   0 
  -1  -2  12  257.15    3.88   0 
  -1  -1  15  167.65    3.74   0 
   1   1  13  706.93    6.32   0 
   1   2  14   58.26    4.00   0 
   1   9  -4  133.73    3.99   0 
   2   1   5 2703.74   12.96   0 
   2   1   6  260.78    4.91   0 
   2   1   7  196.67    4.67   0 
   2   2  10  918.17    7.28   0 
   2   3  11  141.42    4.42   0 
   2   5  -2   75.73    4.65   0 
   2   7  -2   36.63    3.99   0 
   2   9   0   25.33    4.63   0 
  -8   2  -2  503.80    6.81   0 
  -6   2  -4  842.43    7.30   0 
  -4   2  -5 5535.37   15.97   0 
  -4   8  -9  398.25    4.62   0 
  -3  -2  15  317.46    4.92   0 
  -3   8  -9  554.19    5.57   0 
  -3   9  -9  167.80    3.65   0 
  -2  -2  14  192.06    3.76   0 
  -2   3  -6 4019.42   12.39   0 
  -2   6  -8  942.19    5.98   0 
  -1  -2  11  147.21    3.41   0 
  -1   1  -3  874.39    8.30   0 
  -1   5  -7 1629.49    7.77   0 
   0  -1   3 2477.68   14.00   0 
   0  -1  12  870.53    5.77   0 
   0   5  -6   39.65    2.88   0 
   2   4  11   94.93    4.29   0 
  -6   6  -8  111.81    3.53   0 
  -5   3  -6  355.95    5.21   0 
  -4   5  -8  380.56    4.41   0 
  -3   5  -8  590.48    5.18   0 
  -2  -2  13  544.34    4.88   0 
  -2  -1  16    5.05    2.88   0 
  -1  -2   6  960.92    7.03   0 
  -1  -2  10  479.93    4.78   0 
  -1  -1  14  548.89    5.01   0 
  -1   0  16   62.50    3.16   0 
  -1   8  -8  290.24    4.20   0 
   0  -1  11  168.98    3.60   0 
   0   1  -2  403.12    7.21   0 
   0   8  -7  350.36    4.98   0 
   1   1  12  122.43    3.95   0 
   1   8  -5  735.17    6.38   0 
   2   2   9  187.06    4.63   0 
   2   8  -2  806.46    8.92   0 
  -7  -2   9   93.13    4.34   0 
  -7  -2  10  255.39    5.17   0 
  -7  -2  11   13.58    3.57   0 
  -7   4  -6  262.32    5.03   0 
  -6  -2   6 2001.86   13.41   0 
  -5  -2  15   22.01    2.98   0 
  -5   2  -5  219.78    4.57   0 
  -5   5  -8   10.08    2.89   0 
  -5   7  -9   72.67    3.30   0 
  -4  -2  15  194.82    3.90   0 
  -3   1  -4 3091.22   13.15   0 
  -2  -2   4 1887.47   11.53   0 
  -2   0  -2  305.24    6.42   0 
  -2   8  -9  428.82    4.64   0 
  -2   9  -9  191.87    3.96   0 
  -1  -2   8 3885.67   11.95   0 
  -1  -2   9 1795.18    8.10   0 
   0   7  -7  885.36    6.19   0 
   0   9  -7   35.32    3.70   0 
   1   0   3  229.57    5.01   0 
   1   0   9   59.59    3.62   0 
   1   2  13   58.35    3.23   0 
   1   9  -5  118.74    4.42   0 
   2   9  -1   40.99    4.87   0 
  -8   3  -4   19.22    4.20   0 
  -7   1  -2  339.86    6.78   0 
  -7   3  -5  487.31    5.99   0 
  -6   0  -1  856.50   11.22   0 
  -4  -2  14  102.65    4.00   0 
  -4   1  -4 2046.77   10.83   0 
  -4   6  -9   52.83    3.06   0 
  -3   6  -9  101.64    3.35   0 
  -2  -2  12   12.41    2.84   0 
  -2  -1  15  310.50    4.32   0 
  -2   7  -9  608.44    4.98   0 
  -1  -1  13  562.59    4.91   0 
  -1   6  -8  621.75    5.34   0 
   0  -1  10   82.61    3.16   0 
   0   0  13  643.87    5.43   0 
   0   3  -5  577.19    5.77   0 
   0   6  -7  152.57    3.46   0 
   2   2   8  183.16    3.98   0 
   2   4  10  230.53    4.89   0 
   2   6  -3  371.46    6.16   0 
   2   7  -3   42.82    4.33   0 
  -6  -2  13  585.85    6.01   0 
  -6   1  -3   11.83    3.59   0 
  -6   3  -6  208.19    4.73   0 
  -6   5  -8  113.73    4.05   0 
  -5  -2  14  253.74    4.18   0 
  -5   6  -9  423.34    4.55   0 
  -4  -2   4 1232.30   10.62   0 
  -3  -2  13  181.33    3.65   0 
  -3  -1  16  109.73    3.44   0 
  -3   8 -10  122.53    4.07   0 
  -2  -2  11 1649.29    7.61   0 
  -2   1  -4   88.50    3.67   0 
  -1   3  -6 1586.09    8.02   0 
  -1   4  -7  381.67    4.49   0 
   0  -1   4   34.26    3.11   0 
   0  -1   9  315.96    4.24   0 
   0   4  -6  276.50    4.26   0 
   0  10  -7   27.32    3.12   0 
   1   0   4 1358.11    9.58   0 
   1   0   7   23.01    3.51   0 
   1   0   8   18.87    2.73   0 
   1   1  11  952.75    6.48   0 
   1   3  13   71.57    3.38   0 
   1   7  -6 2020.83    9.88   0 
   2   2   2 1706.57   17.03   0 
   2   2   7  762.18    6.98   0 
   2   3   9 1221.22    8.34   0 
   2   4  -2 1368.90   11.48   0 
   2   9  -2  660.44    8.96   0 
  -7   0   0  760.18   13.19   0 
  -6  -2   7  224.95    5.18   0 
  -6  -2  12  848.03    6.81   0 
  -6  -1   2   43.69    8.45   0 
  -5  -2   5  271.89    5.86   0 
  -5  -2  13   71.55    3.17   0 
  -4  -1  16  122.17    3.50   0 
  -4   3  -7  628.88    6.00   0 
  -4   4  -8   44.83    3.20   0 
  -4   7 -10  485.71    4.86   0 
  -3  -2   4 1493.45   10.54   0 
  -3  -2  12   36.06    2.83   0 
  -3   4  -8   98.84    3.33   0 
  -2  -2  10 8857.61   16.84   0 
  -2  -1  14  648.00    5.22   0 
  -2   0  16  255.53    3.98   0 
  -2   6  -9  527.41    4.95   0 
  -1  -1  12  327.29    4.06   0 
  -1   2  -5 2749.69   11.13   0 
  -1   9  -9  119.19    3.47   0 
   0  -1   7  765.19    6.02   0 
   0  -1   8  667.06    5.37   0 
   0   0  12  536.26    4.92   0 
   0   2  -4 2076.46   10.79   0 
   0   5  -7   89.29    3.14   0 
   0   8  -8  151.56    4.21   0 
   1   0   6 4377.56   14.21   0 
   1   6  -6   95.28    3.98   0 
   2   5  -3 2257.70   12.70   0 
   2   8  -3   17.87    3.53   0 
  -7   2  -4  584.75    6.86   0 
  -6  -2   8  233.38    4.90   0 
  -6  -2   9  138.32    4.27   0 
  -6  -2  10  123.05    4.28   0 
  -6  -2  11  517.35    5.69   0 
  -6   6  -9   79.69    3.41   0 
  -5  -2  12  224.37    4.54   0 
  -5   0  -2 1345.62   11.48   0 
  -5   1  -4   77.56    3.99   0 
  -5   7 -10  125.55    3.56   0 
  -3  -2  11  149.63    3.42   0 
  -3  -1  15  188.02    3.73   0 
  -3   2  -6 5629.11   15.00   0 
  -3   5  -9  297.01    3.86   0 
  -2  -2   6  899.00    6.98   0 
  -2  -2   7  402.55    5.16   0 
  -2  -2   9  807.69    5.75   0 
  -2   3  -7 1008.82    6.28   0 
  -2   4  -8  849.88    5.78   0 
  -2   8 -10  198.83    3.75   0 
  -2   9 -10   95.52    3.33   0 
  -1   7  -9  521.93    4.88   0 
   0   1  13  499.84    5.22   0 
   0   2  14   40.85    3.87   0 
   0   7  -8  323.14    4.35   0 
   0   9  -8   32.53    3.14   0 
   1   4  -5  816.49    6.86   0 
   1   9  -6   86.36    3.53   0 
   2   2   6  275.30    5.03   0 
   2   3   8  616.54    6.49   0 
   2   4   9 1287.19    8.86   0 
   2   5   9  162.94    5.15   0 
  -8  -1   7    9.36    4.30   0 
  -8   1  -1  116.12    5.91   0 
  -8   2  -3  611.44    7.81   0 
  -6   2  -5  116.39    3.60   0 
  -5  -2   6  544.55    6.87   0 
  -5  -2  11  769.90    6.53   0 
  -5   3  -7   58.28    3.27   0 
  -5   4  -8  122.99    3.45   0 
  -5   5  -9  191.45    3.82   0 
  -4  -2  11  385.00    5.08   0 
  -4  -1  15   58.75    3.14   0 
  -4   2  -6 1695.92    8.76   0 
  -4   6 -10  315.91    4.46   0 
  -3  -2  10 2063.84    8.88   0 
  -2  -1  13  218.38    3.73   0 
  -2   0  15  172.24    3.65   0 
  -2   7 -10  118.93    3.26   0 
  -1   1  15   59.63    3.19   0 
   0   0  11  836.57    5.93   0 
   1   2  11  640.78    5.65   0 
   1   3  -4 3272.67   13.47   0 
   1   3  12  476.85    5.21   0 
   2   2   3 3177.38   18.02   0 
   2   2   4 5061.11   19.70   0 
   2   2   5  513.25    6.50   0 
   2   9  -3  354.30    6.75   0 
  -8  -1   8   12.02    4.04   0 
  -7   4  -7  124.13    3.65   0 
  -5  -1  15    7.11    2.92   0 
  -5   6 -10  464.65    5.35   0 
  -4  -2   5 1588.91   10.35   0 
  -3  -2   9  484.82    5.09   0 
  -3  -1  14  381.92    4.30   0 
  -3   0  16  180.69    3.64   0 
  -3   8 -11  249.10    4.47   0 
  -2   1  16  174.46    3.72   0 
  -2   2  -6 1149.52    7.14   0 
  -1  -1  10 5870.38   13.51   0 
  -1   0  13  448.26    4.56   0 
   1   1   9   14.83    2.95   0 
   1   4  12  119.92    4.20   0 
   1   7  -7  365.57    5.31   0 
   1   8  -7  474.35    5.70   0 
   2   6  -4  361.44    5.61   0 
   2   8  -4   47.96    3.70   0 
  -7   3  -6  390.97    5.56   0 
  -6   4  -8  112.09    4.09   0 
  -6   5  -9  230.72    4.45   0 
  -5  -2   8  449.65    5.78   0 
  -5  -2   9   47.11    3.10   0 
  -5   2  -6  300.79    5.06   0 
  -4  -2   6  301.94    5.06   0 
  -4  -2   9    5.19    3.31   0 
  -4  -1  14  372.24    5.06   0 
  -4   7 -11  162.25    3.98   0 
  -3  -2   6  828.90    6.81   0 
  -3  -2   7  113.88    3.76   0 
  -3  -2   8  516.21    5.03   0 
  -2  -1  12  851.73    5.53   0 
  -2   6 -10  493.08    4.71   0 
  -1   1  -4 1829.15   10.23   0 
  -1   1  14  181.97    3.54   0 
  -1   2  15   95.29    3.89   0 
  -1   3  -7 2126.20    8.81   0 
  -1   8 -10  131.76    3.42   0 
  -1   9 -10  230.40    4.10   0 
   0   0  10  971.02    6.18   0 
   0   1  12  640.33    5.25   0 
   0   2  13  564.42    5.64   0 
   0   3  -6  393.53    4.80   0 
   0   4  -7  876.72    5.95   0 
   0   8  -9  197.21    3.83   0 
   0   9  -9   48.13    3.66   0 
   1   6  -7  124.85    4.15   0 
   1   9  -7  474.98    5.89   0 
   2   3   7  693.46    6.76   0 
   2   4   8  938.44    7.78   0 
   2   6   8   21.65    4.17   0 
  -6  -1  14  421.52    4.92   0 
  -6   3  -7   25.24    3.80   0 
  -5  -1  14   62.75    3.12   0 
  -4  -2   8  141.78    3.80   0 
  -4   0  16  374.84    4.66   0 
  -4   4  -9  447.81    4.67   0 
  -3  -1  13  106.27    3.26   0 
  -3   0  -3  814.35    8.33   0 
  -3   0  15  180.38    3.68   0 
  -3   1  -5 1498.99    8.74   0 
  -3   3  -8   91.64    3.76   0 
  -3   7 -11    6.91    2.82   0 
  -2   8 -11    4.03    2.88   0 
  -1  -1   2 1028.06   11.02   0 
  -1  -1   9 2739.87    9.64   0 
  -1   0  12 1203.11    6.44   0 
  -1   5  -9 1014.88    6.09   0 
   1   1   8  402.63    4.84   0 
   1   2  10 1222.09    7.20   0 
   1   3  11  245.23    4.33   0 
   2   9  -4   45.16    4.23   0 
  -6  -1  13  478.36    5.41   0 
  -5   4  -9   45.46    3.50   0 
  -4  -1  13  234.99    4.25   0 
  -4   0  -3 1273.37   10.25   0 
  -4   5 -10   73.61    3.11   0 
  -3   5 -10  255.67    3.81   0 
  -2  -1  11  106.22    3.32   0 
  -2   1  -5  814.15    7.08   0 
  -2   1  15   86.66    3.12   0 
  -2   3  -8  777.39    6.03   0 
  -2   4  -9  556.85    4.88   0 
  -2   7 -11  335.62    4.02   0 
  -1  -1   8  454.57    4.71   0 
  -1   2  -6 1706.62    8.53   0 
  -1   6 -10  351.53    4.66   0 
   0   0   9  667.10    5.44   0 
   0   1  -3 2479.67   13.76   0 
   0   1  11 1387.51    7.24   0 
   0   2  -5 1078.50    7.67   0 
   0   6  -9  853.55    5.65   0 
   1   2  -3 1611.02   10.98   0 
   1   4  -6  938.53    6.90   0 
   1   4  11  288.95    5.00   0 
   2   7  -5   38.06    3.69   0 
   2   8  -5  204.48    4.81   0 
  -7  -1  11  239.48    4.93   0 
  -7   1  -3  206.63    5.67   0 
  -7   2  -5  529.00    6.72   0 
  -6   1  -4  207.16    4.85   0 
  -5  -1  13  399.52    4.61   0 
  -5   3  -8  162.78    4.18   0 
  -4   0  15   38.13    2.98   0 
  -4   6 -11  130.07    3.39   0 
  -3  -1  12  228.85    3.79   0 
  -3   2  -7  411.38    4.73   0 
  -3   6 -11    9.64    2.69   0 
  -2   0  13  493.64    4.67   0 
  -1   0  -2 1385.39   12.75   0 
  -1   0  11  661.45    5.46   0 
  -1   1  13  840.49    5.55   0 
  -1   8 -11  369.42    4.91   0 
   0   0   8 1502.06    7.95   0 
   0   2  12  620.19    5.27   0 
   0   3  13   84.17    3.26   0 
   1   1   7 3971.17   12.72   0 
   1   5  -7   69.98    3.13   0 
   1   5  11   61.53    3.94   0 
   1   7  -8    6.30    2.92   0 
   1   8  -8   69.93    3.34   0 
   1   9  -8  488.01    5.94   0 
   2   4   7  681.15    6.91   0 
   2   6  -5  602.22    6.40   0 
  -7  -1   5  679.01    8.93   0 
  -7  -1  10  192.66    4.33   0 
  -6  -1  12   58.85    3.02   0 
  -6   2  -6   11.64    3.66   0 
  -5   0  15   90.11    3.31   0 
  -5   1  -5 1095.94    8.25   0 
  -4  -1  12  277.79    4.36   0 
  -4   2  -7  368.94    4.74   0 
  -3   0  14  582.45    4.82   0 
  -2  -1  10 1683.77    7.57   0 
  -2   0  -3  328.15    5.91   0 
  -2   2  -7  749.29    5.95   0 
  -1  -1   7 1671.97    8.18   0 
  -1   7 -11  122.05    3.70   0 
   0   4  -8 1109.78    6.86   0 
   0   4  13    5.19    3.33   0 
   0   7 -10  270.92    4.45   0 
   1   3  -5  278.00    4.50   0 
   1   3  10 1516.95    8.05   0 
   1   6  -8  915.85    6.54   0 
   2   6   7    4.17    4.11   0 
   2   9  -5  191.61    4.74   0 
  -7  -1   9  121.40    4.05   0 
  -5  -1  12  262.93    3.98   0 
  -3   1  15  222.64    3.85   0 
  -2  -1   9 1103.68    6.73   0 
  -2   1  14  391.96    4.40   0 
  -2   2  15  148.43    3.43   0 
  -2   8 -12   70.78    3.07   0 
  -1  -1   4  358.32    5.57   0 
  -1  -1   5  767.18    6.80   0 
  -1  -1   6 1360.64    7.86   0 
  -1   3  -8  435.12    4.56   0 
  -1   4  -9 1379.92    6.98   0 
  -1   5 -10   32.18    2.78   0 
   0   0   7 6019.60   15.31   0 
   0   1  10  571.02    5.07   0 
   0   3  -7 2049.96    8.76   0 
   0   5  -9  664.40    5.33   0 
   1   1   6 1198.21    7.75   0 
   2   3   5  141.16    4.43   0 
   2   7  -6   66.88    3.69   0 
  -7  -1   6    4.05    3.72   0 
  -6   3  -8  300.06    5.14   0 
  -5   2  -7  125.62    3.56   0 
  -4  -1  11  209.86    4.21   0 
  -4   4 -10   55.95    2.98   0 
  -4   5 -11   14.43    2.82   0 
  -3   0  13  199.24    3.64   0 
  -3   3  -9  444.21    4.92   0 
  -3   4 -10  344.82    4.07   0 
  -3   5 -11   35.35    2.79   0 
  -2   7 -12    5.41    2.81   0 
  -1   0  10  538.06    5.00   0 
  -1   2  13  526.63    5.25   0 
  -1   3  14   43.66    2.98   0 
  -1   6 -11  178.68    3.42   0 
   0   2  11  810.10    5.87   0 
   0   3  12  290.99    4.22   0 
   0   6 -10  143.58    3.37   0 
   1   2   8 2744.05   11.03   0 
   1   4  10  317.61    5.08   0 
   1   7  -9  199.75    4.21   0 
   1   8  -9  263.33    4.06   0 
   2   6  -6  131.43    4.00   0 
  -6  -1  10  793.80    6.73   0 
  -6   0  14  321.74    4.47   0 
  -5  -1   1  587.52   14.40   0 
  -5  -1  11  725.27    5.76   0 
  -5   0  -3 2337.96   13.99   0 
  -5   0  14   85.35    3.27   0 
  -5   4 -10    5.89    3.45   0 
  -5   5 -11  325.45    4.32   0 
  -4   1  15  230.96    4.34   0 
  -4   3  -9  218.25    3.95   0 
  -3  -1  10  351.74    4.28   0 
  -2  -1   8  837.20    5.90   0 
  -2   3  -9  491.17    4.77   0 
  -2   4 -10   47.60    2.99   0 
  -1   1  -5 4545.60   14.87   0 
  -1   2  -7 3518.37   11.28   0 
  -1   8 -12   68.78    3.08   0 
   0   0   6 1791.42    9.08   0 
   0   8 -11   75.12    3.18   0 
   1   4  -7  768.24    5.74   0 
   1   5  -8  815.74    5.82   0 
   1   5  10    6.85    3.56   0 
   1   6  10   67.35    3.89   0 
   2   3   4  771.48    8.36   0 
  -8   1  -2   73.62    5.86   0 
  -5  -1  10 1951.74    9.09   0 
  -5   3  -9  208.21    4.41   0 
  -4  -1  10   63.43    3.50   0 
  -4   0  13  462.34    4.64   0 
  -4   1  -6  633.63    6.33   0 
  -3   1  14   47.38    2.80   0 
  -2   0  11  334.01    4.08   0 
  -2   1  -6 1031.81    7.25   0 
  -2   2  14   49.23    2.90   0 
  -2   6 -12  693.09    5.19   0 
  -1   0   9 2755.27    9.64   0 
  -1   7 -12  312.96    4.06   0 
   0   1   9 2994.50   10.19   0 
   0   2  -6 3350.92   11.56   0 
   0   4  12  178.32    3.74   0 
   1   2  -4  737.48    6.81   0 
   1   3  -6 1708.75    8.88   0 
   1   6  -9  246.30    3.96   0 
   2   5   6   51.34    4.32   0 
   2   7  -7   80.81    3.75   0 
   2   8  -7  251.77    4.82   0 
  -7   2  -6   19.18    4.00   0 
  -6   0  13    9.33    2.68   0 
  -6   1  -5  115.49    4.66   0 
  -6   2  -7   81.73    3.90   0 
  -5   0  13  303.40    4.02   0 
  -5   1  15  718.76    5.45   0 
  -4   2  -8  370.14    4.62   0 
  -3  -1   9 1107.54    6.42   0 
  -3   0  -4 2470.73   12.38   0 
  -3   0  12  111.26    3.24   0 
  -2   2  -8  958.28    6.36   0 
  -1   3  13   68.11    3.08   0 
  -1   5 -11  335.52    4.00   0 
   0   0   5 1197.87    7.91   0 
   0   1  -4   34.02    3.06   0 
   0   2  10  773.81    5.98   0 
   0   3  11  623.92    5.79   0 
   0   4  -9  546.22    4.93   0 
   0   5  12    2.18    2.82   0 
   1   2   7 1015.10    7.44   0 
   1   4   9   15.01    3.58   0 
   1   8 -10  333.80    4.50   0 
   2   5  -6 1151.62    7.89   0 
   2   9  -7  389.22    5.72   0 
  -7   0  12  317.29    4.73   0 
  -6  -1   8  274.58    4.83   0 
  -4   0  -4 3643.57   15.28   0 
  -4   1  14   28.10    2.67   0 
  -4   5 -12  947.27    6.38   0 
  -3   4 -11  793.90    5.46   0 
  -3   5 -12  454.23    4.37   0 
  -2   1  12   13.07    3.16   0 
  -2   7 -13   20.24    2.75   0 
  -1   2  12  119.94    3.24   0 
  -1   3  -9  430.92    4.44   0 
  -1   6 -12  187.69    3.57   0 
   0   1   8 3091.22   10.70   0 
   0   3  -8  350.41    4.23   0 
   0   8 -12   64.61    3.84   0 
   1   5  -9 1117.04    6.66   0 
   2   4  -5 1159.81    8.08   0 
   2   4   5  119.10    4.29   0 
   2   6  -7   17.67    2.87   0 
  -7   1  -4  281.15    6.22   0 
  -6  -1   7  690.83    6.62   0 
  -6   3  -9  210.96    4.64   0 
  -5   1  -6  155.87    4.20   0 
  -5   2  -8  294.41    4.87   0 
  -4   0  12   46.71    2.84   0 
  -4   2  15  768.72    5.71   0 
  -4   3 -10  885.03    6.32   0 
  -3  -1   8  294.61    3.98   0 
  -3   1  13  452.89    4.49   0 
  -3   3 -10  105.63    3.34   0 
  -3   3  15  215.89    3.77   0 
  -3   6 -13  122.68    3.25   0 
  -2  -1   1  690.39   12.86   0 
  -2  -1   6  261.34    4.29   0 
  -2   0  -4  846.74    7.92   0 
  -2   2  13  309.95    3.92   0 
  -2   3  14   80.23    3.15   0 
  -2   4 -11  524.92    4.64   0 
  -1   0   8 1203.90    6.76   0 
  -1   4  13   13.97    2.84   0 
   0   4  11   51.05    3.60   0 
   0   7 -12  271.00    4.49   0 
   1   1   3 1355.23   10.76   0 
   1   4  -8   87.99    3.02   0 
   1   5   9  135.73    4.31   0 
   1   6 -10  196.02    4.15   0 
   1   6   9  489.63    6.08   0 
   2   3   3 2797.80   16.35   0 
   2   7  -8  190.28    4.25   0 
   2   8  -8   29.42    3.56   0 
  -8   0   9   82.73    3.34   0 
  -6  -1   4  150.95    5.35   0 
  -6   1  14   33.65    3.12   0 
  -5  -1   8  179.94    4.39   0 
  -5   0  12  413.37    4.37   0 
  -5   1  14  251.59    3.81   0 
  -4  -1   8  843.94    6.48   0 
  -3  -1   7  515.77    5.45   0 
  -3   2  14   91.38    3.15   0 
  -2  -1   5 4775.35   15.62   0 
  -2   3 -10  540.90    4.84   0 
  -1   0  -3  226.86    4.80   0 
  -1   1  -6  789.21    6.20   0 
  -1   2  -8  847.01    5.70   0 
  -1   7 -13  261.29    3.89   0 
   0   4 -10 1022.58    6.34   0 
   0   5 -11  945.10    6.10   0 
   1   2  -5 1366.41    8.57   0 
   1   2   6   83.24    3.72   0 
   1   3  -7 3764.90   11.81   0 
   1   8 -11   48.74    3.66   0 
   2   5  -7  770.33    6.51   0 
   2   9  -8  167.25    4.42   0 
  -8   0   8   94.17    4.17   0 
  -6   0  11  224.52    4.38   0 
  -5   3 -10   53.99    3.67   0 
  -4   0  11  177.74    3.98   0 
  -4   1  -7  205.80    4.31   0 
  -4   1  13  132.96    3.31   0 
  -3   2  -9  154.74    3.55   0 
  -2   0   9 3902.73   11.25   0 
  -2   1  -7  502.19    5.35   0 
  -2   1  11  398.23    4.72   0 
  -2   4  14  175.44    3.73   0 
  -1   0   7 3004.96   10.66   0 
  -1   2  11  727.31    5.41   0 
  -1   3  12  392.75    4.42   0 
  -1   5 -12  359.86    4.15   0 
   0   0   3 1322.65   10.45   0 
   0   1   7  913.44    6.67   0 
   0   2   9  683.13    5.45   0 
   0   3  10  475.69    4.91   0 
   0   5  11   28.64    3.02   0 
   0   6 -12  723.47    5.29   0 
   0   6  11  246.88    5.08   0 
   1   4   8   28.22    3.61   0 
   1   7 -11  208.07    3.70   0 
   2   4  -6  626.13    6.00   0 
   2   5   5  386.32    6.39   0 
   2   6  -8  242.15    4.14   0 
   2   7   5   75.80    5.19   0 
  -8   0   7  243.51    5.17   0 
  -6   1  13  253.79    4.41   0 
  -5   0  -4 2534.41   13.89   0 
  -5   0  11  790.12    5.66   0 
  -5   1  13  156.73    3.94   0 
  -4  -1   7  396.39    5.27   0 
  -4   2  -9  333.14    4.41   0 
  -4   2  14  376.24    4.43   0 
  -4   4 -12  166.85    4.08   0 
  -3  -1   6  214.66    4.42   0 
  -3   0  10    9.42    2.71   0 
  -3   1  12  272.77    3.83   0 
  -3   4 -12  212.75    3.75   0 
  -3   5 -13   71.22    3.03   0 
  -2   2  -9  433.09    4.41   0 
  -2   3  13  192.16    3.57   0 
  -1   3 -10 1125.82    6.26   0 
   1   3   7   34.55    3.65   0 
   1   4  -9  279.79    3.93   0 
   2   3  -4  374.87    5.50   0 
   2   4   4   38.83    4.18   0 
   2   6   5  660.46    8.10   0 
   2   7  -9  153.06    4.38   0 
   2   8  -9  172.92    3.83   0 
  -8   0   4    4.76    4.44   0 
  -8   0   6  302.91    5.91   0 
  -6   0  -3   45.46    5.19   0 
  -6   1  -6   44.21    4.01   0 
  -6   2  -8  178.10    4.31   0 
  -3   0  -5  525.19    5.97   0 
  -3   2  13  309.03    4.11   0 
  -3   3 -11  724.32    5.29   0 
  -2  -1   2   17.48    3.33   0 
  -2   4 -12  173.85    3.51   0 
  -2   5 -13  524.68    4.87   0 
  -2   6 -14   55.76    3.59   0 
  -1   1   9 1281.62    6.87   0 
  -1   4  12  270.84    4.10   0 
   0   0   2 1217.74   12.12   0 
   0   4  10  230.09    4.49   0 
   0   7 -13  217.08    3.84   0 
   1   5   8   87.84    3.96   0 
   1   6 -11  616.42    5.02   0 
   1   7   8  726.03    7.64   0 
  -8   1  -3  394.28    9.39   0 
  -7   0   9  199.07    4.15   0 
  -7   1  12   52.33    2.92   0 
  -6   2  14    6.39    2.71   0 
  -5   1  -7   79.73    3.80   0 
  -5   2  -9  173.39    3.84   0 
  -5   2  14  448.08    4.58   0 
  -4  -1   6   14.13    3.23   0 
  -4   0  -5  347.77    5.85   0 
  -4   0  10 2354.76    8.97   0 
  -4   1  12  410.26    4.26   0 
  -4   3 -11 1427.90    7.41   0 
  -3  -1   5 2092.01   10.76   0 
  -2   0   8 2159.79    8.70   0 
  -2   3 -11  552.54    4.76   0 
  -2   4  13   85.60    3.61   0 
  -1   0   6 1748.77    8.60   0 
  -1   1  -7    8.29    3.26   0 
  -1   2  -9  736.21    5.39   0 
  -1   2  10   17.88    2.77   0 
  -1   3  11  571.38    4.95   0 
  -1   4 -12  168.61    3.92   0 
  -1   5 -13   43.97    3.30   0 
  -1   5  12   71.86    3.62   0 
   0   2   8  434.09    4.97   0 
   0   4 -11  966.81    5.75   0 
   0   5 -12  114.34    3.15   0 
   1   2  -6  910.55    6.66   0 
   1   2   5  148.73    4.25   0 
   1   6   8  182.31    4.56   0 
   2   3   2 1561.16   14.52   0 
   2   8 -10  113.73    4.09   0 
   2   8   4   62.28    5.45   0 
   3   7  -3    3.36    4.75   0 
  -7   1  -5   73.96    4.88   0 
  -6   1  12  155.88    3.54   0 
  -5  -1   2 1893.20   15.92   0 
  -5  -1   4   10.26    3.81   0 
  -5   0  10 1849.72    8.08   0 
  -5   1  12  642.95    5.10   0 
  -5   3 -11  144.87    4.34   0 
  -4   2  13  192.73    3.52   0 
  -4   3  14 1138.74    6.50   0 
  -3   1  -8 1455.82    7.89   0 
  -3   1  11  453.40    4.42   0 
  -3   2 -10  779.28    6.04   0 
  -3   4  14  601.40    5.05   0 
  -2   0  -5 1995.95   10.29   0 
  -1   3 -11  333.76    4.59   0 
  -1   6 -14  368.77    4.23   0 
   0   1   6  181.60    3.87   0 
   0   3 -10  652.46    5.06   0 
   0   3   9  828.18    5.98   0 
   0   5  10  589.16    5.72   0 
   0   6 -13  199.68    3.61   0 
   1   1   1   19.36    4.60   0 
   1   4 -10  853.69    6.07   0 
   1   5 -11  452.26    4.34   0 
   2   7 -10  267.17    4.23   0 
   3   6  -3  415.84    8.16   0 
   3   7  -4  193.41    5.47   0 
   3   7  -2    4.05    5.95   0 
  -8   1  10   17.62    3.55   0 
  -7   0   8   13.42    3.53   0 
  -6   0   9  416.49    5.40   0 
  -4  -1   5  857.07    7.41   0 
  -4   2 -10  464.48    5.21   0 
  -3  -1   4  508.91    6.33   0 
  -3   2  12  673.16    5.09   0 
  -3   3  13  148.28    3.32   0 
  -3   4 -13   70.15    3.10   0 
  -2   1  -8  310.92    4.04   0 
  -2   2 -10  701.05    5.24   0 
  -2   2  11 1438.97    6.83   0 
  -2   3  12  929.51    5.66   0 
  -2   4 -13  135.97    3.75   0 
  -2   5 -14  405.27    4.52   0 
  -2   5  13  302.61    4.46   0 
  -1   1   8 2453.65    9.24   0 
   0   6  10  186.20    3.99   0 
   1   3   6 1032.99    7.60   0 
   1   4   7  751.28    6.53   0 
   1   6 -12  373.10    4.26   0 
   2   5   4  299.66    6.12   0 
   2   6 -10  321.54    4.75   0 
   3   6  -4  169.21    5.28   0 
   3   6  -2    4.20    5.56   0 
   3   7  -5  271.19    5.63   0 
   3   8  -4  120.72    5.61   0 
   3   8  -3    3.95    5.25   0 
  -6   2  -9   46.48    3.72   0 
  -6   2  13  449.03    4.70   0 
  -5   3  14  142.02    3.48   0 
  -4   1  11  998.15    5.94   0 
  -3   3 -12  475.30    4.80   0 
  -2   0   7 1200.94    7.02   0 
  -2   3 -12  487.68    4.90   0 
  -1   4  11  229.38    3.75   0 
   0   4 -12   69.38    2.94   0 
   0   5 -13   70.65    3.07   0 
   1   2  -7  499.37    5.32   0 
   1   3  -9   13.72    2.73   0 
   1   7 -13  300.31    4.23   0 
   2   4  -8 1218.30    7.08   0 
   2   7 -11  339.14    4.75   0 
   2   7   4  154.43    5.90   0 
   2   8 -11  134.51    3.62   0 
   3   7  -6  193.20    4.99   0 
  -7   0   7   16.26    3.31   0 
  -6   1  11  231.08    3.78   0 
  -5   0  -5  573.09    7.22   0 
  -5   2 -10  830.73    6.89   0 
  -4   3 -12   11.52    2.67   0 
  -4   4  14  407.76    4.47   0 
  -3  -1   3  240.02    5.31   0 
  -3   0   8  765.78    5.56   0 
  -3   1  10  395.45    4.29   0 
  -2   1   9  338.36    4.18   0 
  -2   4  12  284.33    4.03   0 
  -1   0   5 1871.45    9.52   0 
  -1   1  -8  962.41    6.15   0 
  -1   2 -10  496.44    4.69   0 
  -1   3  10 1262.45    6.73   0 
  -1   4 -13  465.76    4.50   0 
  -1   5  11  370.51    4.97   0 
   0   2  -9  363.95    4.16   0 
   0   2   7   43.82    2.89   0 
   1   5 -12  273.16    3.79   0 
   1   5   7  205.98    4.46   0 
   1   7   7  143.89    4.75   0 
   2   4   3 1379.22   11.53   0 
   2   6   4  496.35    7.52   0 
   3   6  -6  447.23    6.14   0 
  -7   1  10  123.65    3.91   0 
  -7   2  12  203.58    4.50   0 
  -6   0   8  357.94    4.68   0 
  -6   1  -7  388.56    5.73   0 
  -5   1  -8  429.80    5.44   0 
  -4   0  -6   74.30    4.20   0 
  -4   2  12 1324.50    6.61   0 
  -4   3  13  722.88    5.18   0 
  -3   1  -9  453.13    5.21   0 
  -3   2 -11  189.12    4.21   0 
  -2   0  -6  558.68    5.75   0 
  -2   3  11  466.18    4.87   0 
  -1   6  11  203.98    3.97   0 
   0   1  -7  730.03    5.67   0 
   0   3   8   68.69    3.08   0 
   0   5   9 2610.92   10.70   0 
   1   2   4 4487.99   16.47   0 
   1   6 -13   45.26    2.92   0 
   1   6   7    1.18    3.45   0 
   2   4  -9   72.05    3.41   0 
   2   6 -11   84.10    3.12   0 
   3   5  -4  728.94    8.29   0 
   3   8  -7   69.99    3.98   0 
  -7   0   6   32.46    3.46   0 
  -6   0  -4   42.20    4.86   0 
  -5   0   8  110.31    3.81   0 
  -5   3  13   36.26    2.80   0 
  -4  -1   2  799.25   10.10   0 
  -4   1  -9  365.07    4.99   0 
  -4   2 -11  734.14    6.08   0 
  -3   2  11  563.78    4.73   0 
  -3   5  13  486.87    5.04   0 
  -2   1  -9 1042.15    6.34   0 
  -2   2 -11  284.99    4.06   0 
  -2   4 -14  346.19    4.08   0 
  -2   5  12  112.52    3.34   0 
   0   5 -14  517.42    4.78   0 
   0   6   9  817.66    6.82   0 
   0   7   9   56.21    3.72   0 
   1   2  -8 3918.07   11.61   0 
   1   3 -10   14.15    2.60   0 
   2   3  -7   34.00    2.59   0 
   2   7 -12  101.15    3.29   0 
   3   5  -5  506.39    6.36   0 
   3   6  -7  331.70    5.30   0 
   3   7  -8  355.14    5.44   0 
   3   8  -8   16.07    3.36   0 
  -8   1   8  629.29    6.38   0 
  -7   1  -6   35.12    4.02   0 
  -6   1  10  198.02    3.65   0 
  -6   3  13   -0.10    2.63   0 
  -4   4  13  192.45    3.82   0 
  -3   0   7 1247.91    7.17   0 
  -3   3 -13  232.75    3.82   0 
  -2   3 -13  437.53    4.64   0 
  -2   6  12  303.95    4.32   0 
  -1   0   4 1740.41   10.42   0 
  -1   2 -11   15.70    2.68   0 
  -1   4  10 1620.73    7.80   0 
  -1   5 -15  487.30    4.70   0 
   0   2 -10   73.15    3.15   0 
   0   4 -13   33.89    2.86   0 
   1   3   5  630.85    6.43   0 
   1   4   6  536.64    5.61   0 
   1   5 -13    1.65    2.56   0 
   2   5 -11    3.63    2.87   0 
   2   6 -12  187.49    4.22   0 
   3   5  -6  185.69    4.42   0 
   3   6  -8  357.59    5.16   0 
  -7   1   9  122.00    4.05   0 
  -7   2  11  196.51    4.21   0 
  -5   2 -11  275.88    4.81   0 
  -4   2  11  402.93    4.31   0 
  -4   3 -13   61.10    3.13   0 
  -3   0  -7  104.78    4.11   0 
  -3   1   9 1034.69    6.18   0 
  -2   4  11  391.82    4.53   0 
  -1   0  -6 4267.74   14.03   0 
  -1   1  -9  506.85    4.73   0 
  -1   2   8 1264.39    6.79   0 
  -1   3 -13  593.86    5.09   0 
  -1   3   9  250.92    3.74   0 
  -1   5  10  511.75    5.30   0 
   0   1  -8  619.90    5.16   0 
   0   3 -12  124.48    3.15   0 
   0   4   8   41.54    3.04   0 
   1   6 -14  239.36    3.91   0 
   1   8   6   75.03    4.50   0 
   2   8   3   45.54    5.02   0 
   3   5  -7  930.09    7.22   0 
   3   7  -9   13.73    3.54   0 
   3   8  -9    0.82    3.38   0 
  -8   1   7  258.99    4.88   0 
  -8   2  10  185.23    3.82   0 
  -7   0   4  444.95    6.82   0 
  -6   2  11  303.88    4.51   0 
  -5   0  -6    7.92    3.95   0 
  -5   0   7  712.73    6.31   0 
  -5   1  -9  509.94    5.86   0 
  -5   2  11    8.25    3.25   0 
  -5   4  13   25.75    2.84   0 
  -4   0   7  248.53    3.84   0 
  -4   5  13   81.18    3.20   0 
  -3   1 -10  658.48    5.99   0 
  -3   2 -12  310.60    4.32   0 
  -3   2  10  932.82    6.15   0 
  -3   3  11  724.25    5.61   0 
  -2   0  -7  219.94    4.06   0 
  -2   1 -10  496.17    5.09   0 
  -2   2 -12  643.26    5.06   0 
  -1   6  10  183.73    4.33   0 
  -1   7  10   82.12    3.93   0 
   0   2   6 2825.21   11.01   0 
   0   3   7 1871.24    9.02   0 
   0   5 -15  383.69    4.90   0 
   1   2  -9 1629.32    7.53   0 
   1   3 -11  534.99    4.78   0 
   1   5   6  225.67    4.52   0 
   3   6  -9  528.00    5.99   0 
  -7   3  12  507.31    5.04   0 
  -6   0   6  193.90    4.42   0 
  -6   1  -8  200.88    4.81   0 
  -6   1   9  637.54    5.41   0 
  -6   3  12  524.97    4.85   0 
  -6   4  13   16.91    2.56   0 
  -5   3  12   30.48    2.70   0 
  -4   0  -7 1515.33    9.14   0 
  -4   1 -10  597.92    6.08   0 
  -4   1   9 1558.80    7.48   0 
  -4   2 -12  386.63    5.22   0 
  -3   3 -14   46.63    3.80   0 
  -2   3 -14   92.30    3.72   0 
  -1   1   6 3099.47   11.39   0 
  -1   2 -12  296.74    4.37   0 
  -1   4 -15  606.73    5.55   0 
   0   2 -11   28.07    2.85   0 
   0   4 -14   62.01    2.91   0 
   1   4 -13  408.90    4.39   0 
   1   5 -14    9.43    2.65   0 
   1   6   6  277.70    5.07   0 
   1   7   6   65.48    3.92   0 
   2   4 -11  650.94    5.67   0 
   2   5 -12  373.55    4.26   0 
   2   6 -13   83.09    3.30   0 
   3   7 -10   10.26    2.88   0 
  -7   1   8   59.12    3.26   0 
  -4   4  12    3.76    2.67   0 
  -3   0   6   62.07    3.24   0 
  -1   1 -10   12.11    2.79   0 
  -1   4   9 1209.50    6.77   0 
   0   3 -13  577.25    5.04   0 
   0   6   8  958.44    6.97   0 
   0   7   8 1575.64    9.00   0 
;
_shelx_hkl_checksum              95575
loop_
_space_group_symop_operation_xyz
'x, y, z'
'-x, -y, -z'
loop_
_atom_site_label
_atom_site_type_symbol
_atom_site_fract_x
_atom_site_fract_y
_atom_site_fract_z
_atom_site_U_iso_or_equiv
_atom_site_adp_type
_atom_site_occupancy
_atom_site_site_symmetry_order
_atom_site_calc_flag
_atom_site_refinement_flags_posn
_atom_site_refinement_flags_adp
_atom_site_refinement_flags_occupancy
_atom_site_disorder_assembly
_atom_site_disorder_group
Cu1 Cu 0.500000 0.000000 0.500000 0.01445(7) Uani 1 2 d S . P . .
O1 O 0.62861(15) 0.10824(14) 0.65936(8) 0.02276(18) Uani 1 1 d . . . . .
N1 N 0.28645(16) 0.15003(13) 0.49196(8) 0.01533(17) Uani 1 1 d . . . . .
C1 C 0.52316(19) 0.15818(15) 0.73405(10) 0.0172(2) Uani 1 1 d . . . . .
C2 C 0.32425(19) 0.20477(15) 0.70143(10) 0.0165(2) Uani 1 1 d . . . . .
C3 C 0.2205(2) 0.25847(17) 0.78688(11) 0.0209(2) Uani 1 1 d . . . . .
H3 H 0.087226 0.289211 0.763784 0.025 Uiso 1 1 calc R U . . .
C4 C 0.3080(2) 0.2674(2) 0.90304(11) 0.0263(3) Uani 1 1 d . . . . .
H4 H 0.235524 0.302308 0.959692 0.032 Uiso 1 1 calc R U . . .
C5 C 0.5068(2) 0.2237(2) 0.93612(11) 0.0268(3) Uani 1 1 d . . . . .
H5 H 0.569738 0.230612 1.016079 0.032 Uiso 1 1 calc R U . . .
C6 C 0.6119(2) 0.17110(18) 0.85437(11) 0.0231(2) Uani 1 1 d . . . . .
H6 H 0.746454 0.142915 0.879114 0.028 Uiso 1 1 calc R U . . .
C7 C 0.22891(18) 0.21071(15) 0.58270(10) 0.0165(2) Uani 1 1 d . . . . .
H7 H 0.112088 0.264683 0.570066 0.020 Uiso 1 1 calc R U . . .
C11 C 0.18580(18) 0.18372(15) 0.37711(9) 0.01557(19) Uani 1 1 d . . . . .
H11 H 0.126641 0.062772 0.321933 0.019 Uiso 1 1 calc R U . . .
C12 C 0.36967(19) 0.30361(18) 0.33374(10) 0.0198(2) Uani 1 1 d . . . . .
H12A H 0.427589 0.427010 0.384201 0.024 Uiso 1 1 calc R U . . .
H12B H 0.493098 0.249291 0.338095 0.024 Uiso 1 1 calc R U . . .
C13 C 0.2817(2) 0.31991(18) 0.20825(11) 0.0214(2) Uani 1 1 d . . . . .
H13A H 0.400704 0.402576 0.182950 0.026 Uiso 1 1 calc R U . . .
H13B H 0.236701 0.197982 0.156725 0.026 Uiso 1 1 calc R U . . .
C14 C 0.0840(2) 0.39460(18) 0.19761(11) 0.0232(2) Uani 1 1 d . . . . .
H14A H 0.022288 0.394243 0.114856 0.028 Uiso 1 1 calc R U . . .
H14B H 0.133805 0.522831 0.240863 0.028 Uiso 1 1 calc R U . . .
C15 C -0.0962(2) 0.28056(19) 0.24529(11) 0.0225(2) Uani 1 1 d . . . . .
H15A H -0.157909 0.155905 0.196509 0.027 Uiso 1 1 calc R U . . .
H15B H -0.217828 0.336929 0.241562 0.027 Uiso 1 1 calc R U . . .
C16 C -0.00449(19) 0.26762(17) 0.37146(10) 0.0192(2) Uani 1 1 d . . . . .
H16A H 0.049283 0.391204 0.421615 0.023 Uiso 1 1 calc R U . . .
H16B H -0.123098 0.190565 0.399938 0.023 Uiso 1 1 calc R U . . .
loop_
_atom_site_aniso_label
_atom_site_aniso_U_11
_atom_site_aniso_U_22
_atom_site_aniso_U_33
_atom_site_aniso_U_23
_atom_site_aniso_U_13
_atom_site_aniso_U_12
Cu1 0.01390(10) 0.01745(10) 0.01309(10) 0.00152(6) 0.00287(6) 0.00766(7)
O1 0.0198(4) 0.0326(5) 0.0161(4) -0.0031(3) 0.0011(3) 0.0148(4)
N1 0.0145(4) 0.0174(4) 0.0152(4) 0.0039(3) 0.0033(3) 0.0067(3)
C1 0.0182(5) 0.0168(5) 0.0155(5) 0.0002(4) 0.0025(4) 0.0064(4)
C2 0.0180(5) 0.0170(5) 0.0154(5) 0.0029(4) 0.0046(4) 0.0066(4)
C3 0.0216(5) 0.0247(6) 0.0192(5) 0.0032(4) 0.0078(4) 0.0101(4)
C4 0.0299(6) 0.0334(7) 0.0183(5) 0.0032(5) 0.0101(5) 0.0118(5)
C5 0.0311(6) 0.0332(7) 0.0156(5) 0.0035(5) 0.0035(5) 0.0111(5)
C6 0.0240(6) 0.0270(6) 0.0173(5) 0.0018(4) 0.0005(4) 0.0108(5)
C7 0.0162(5) 0.0182(5) 0.0173(5) 0.0040(4) 0.0049(4) 0.0078(4)
C11 0.0142(5) 0.0191(5) 0.0150(5) 0.0047(4) 0.0038(4) 0.0069(4)
C12 0.0152(5) 0.0264(6) 0.0198(5) 0.0083(4) 0.0057(4) 0.0067(4)
C13 0.0215(5) 0.0275(6) 0.0195(5) 0.0092(4) 0.0080(4) 0.0101(5)
C14 0.0224(5) 0.0278(6) 0.0247(6) 0.0137(5) 0.0075(4) 0.0112(5)
C15 0.0167(5) 0.0306(6) 0.0236(6) 0.0122(5) 0.0044(4) 0.0099(4)
C16 0.0168(5) 0.0248(5) 0.0209(5) 0.0087(4) 0.0068(4) 0.0109(4)
loop_
_atom_type_symbol
_atom_type_description
_atom_type_scat_dispersion_real
_atom_type_scat_dispersion_imag
_atom_type_scat_source
C C 0.0033 0.0016 'International Tables Vol C Tables 4.2.6.8 and 6.1.1.4'
H H 0.0000 0.0000 'International Tables Vol C Tables 4.2.6.8 and 6.1.1.4'
Cu Cu 0.3201 1.2651 'International Tables Vol C Tables 4.2.6.8 and 6.1.1.4'
N N 0.0061 0.0033 'International Tables Vol C Tables 4.2.6.8 and 6.1.1.4'
O O 0.0106 0.0060 'International Tables Vol C Tables 4.2.6.8 and 6.1.1.4'
loop_
_geom_angle_atom_site_label_1
_geom_angle_atom_site_label_2
_geom_angle_atom_site_label_3
_geom_angle
_geom_angle_site_symmetry_1
_geom_angle_site_symmetry_3
_geom_angle_publ_flag
O1 Cu1 O1 180.0 2_656 . ?
O1 Cu1 N1 89.42(4) 2_656 . ?
O1 Cu1 N1 90.58(4) . . ?
O1 Cu1 N1 90.58(4) 2_656 2_656 ?
O1 Cu1 N1 89.42(4) . 2_656 ?
N1 Cu1 N1 180.0 . 2_656 ?
C1 O1 Cu1 125.74(8) . . ?
C7 N1 C11 119.42(9) . . ?
C7 N1 Cu1 121.86(8) . . ?
C11 N1 Cu1 118.66(7) . . ?
O1 C1 C2 123.30(10) . . ?
O1 C1 C6 119.35(11) . . ?
C2 C1 C6 117.33(11) . . ?
C3 C2 C1 120.14(11) . . ?
C3 C2 C7 117.71(10) . . ?
C1 C2 C7 122.03(10) . . ?
C4 C3 C2 121.49(11) . . ?
C4 C3 H3 119.3 . . ?
C2 C3 H3 119.3 . . ?
C3 C4 C5 118.65(12) . . ?
C3 C4 H4 120.7 . . ?
C5 C4 H4 120.7 . . ?
C6 C5 C4 121.06(12) . . ?
C6 C5 H5 119.5 . . ?
C4 C5 H5 119.5 . . ?
C5 C6 C1 121.32(12) . . ?
C5 C6 H6 119.3 . . ?
C1 C6 H6 119.3 . . ?
N1 C7 C2 126.51(10) . . ?
N1 C7 H7 116.7 . . ?
C2 C7 H7 116.7 . . ?
N1 C11 C16 116.76(9) . . ?
N1 C11 C12 108.36(9) . . ?
C16 C11 C12 109.78(9) . . ?
N1 C11 H11 107.2 . . ?
C16 C11 H11 107.2 . . ?
C12 C11 H11 107.2 . . ?
C13 C12 C11 110.60(9) . . ?
C13 C12 H12A 109.5 . . ?
C11 C12 H12A 109.5 . . ?
C13 C12 H12B 109.5 . . ?
C11 C12 H12B 109.5 . . ?
H12A C12 H12B 108.1 . . ?
C14 C13 C12 110.78(10) . . ?
C14 C13 H13A 109.5 . . ?
C12 C13 H13A 109.5 . . ?
C14 C13 H13B 109.5 . . ?
C12 C13 H13B 109.5 . . ?
H13A C13 H13B 108.1 . . ?
C13 C14 C15 111.43(10) . . ?
C13 C14 H14A 109.3 . . ?
C15 C14 H14A 109.3 . . ?
C13 C14 H14B 109.3 . . ?
C15 C14 H14B 109.3 . . ?
H14A C14 H14B 108.0 . . ?
C14 C15 C16 111.20(10) . . ?
C14 C15 H15A 109.4 . . ?
C16 C15 H15A 109.4 . . ?
C14 C15 H15B 109.4 . . ?
C16 C15 H15B 109.4 . . ?
H15A C15 H15B 108.0 . . ?
C11 C16 C15 109.20(10) . . ?
C11 C16 H16A 109.8 . . ?
C15 C16 H16A 109.8 . . ?
C11 C16 H16B 109.8 . . ?
C15 C16 H16B 109.8 . . ?
H16A C16 H16B 108.3 . . ?
loop_
_geom_bond_atom_site_label_1
_geom_bond_atom_site_label_2
_geom_bond_distance
_geom_bond_site_symmetry_2
_geom_bond_publ_flag
Cu1 O1 1.8969(9) 2_656 ?
Cu1 O1 1.8969(9) . ?
Cu1 N1 2.0184(9) . ?
Cu1 N1 2.0185(9) 2_656 ?
O1 C1 1.3089(14) . ?
N1 C7 1.2902(14) . ?
N1 C11 1.4846(14) . ?
C1 C2 1.4177(16) . ?
C1 C6 1.4186(16) . ?
C2 C3 1.4098(16) . ?
C2 C7 1.4424(15) . ?
C3 C4 1.3767(17) . ?
C3 H3 0.9500 . ?
C4 C5 1.406(2) . ?
C4 H4 0.9500 . ?
C5 C6 1.3788(18) . ?
C5 H5 0.9500 . ?
C6 H6 0.9500 . ?
C7 H7 0.9500 . ?
C11 C16 1.5278(15) . ?
C11 C12 1.5308(16) . ?
C11 H11 1.0000 . ?
C12 C13 1.5297(16) . ?
C12 H12A 0.9900 . ?
C12 H12B 0.9900 . ?
C13 C14 1.5241(17) . ?
C13 H13A 0.9900 . ?
C13 H13B 0.9900 . ?
C14 C15 1.5258(17) . ?
C14 H14A 0.9900 . ?
C14 H14B 0.9900 . ?
C15 C16 1.5341(16) . ?
C15 H15A 0.9900 . ?
C15 H15B 0.9900 . ?
C16 H16A 0.9900 . ?
C16 H16B 0.9900 . ?
loop_
_geom_torsion_atom_site_label_1
_geom_torsion_atom_site_label_2
_geom_torsion_atom_site_label_3
_geom_torsion_atom_site_label_4
_geom_torsion
_geom_torsion_site_symmetry_1
_geom_torsion_site_symmetry_2
_geom_torsion_site_symmetry_3
_geom_torsion_site_symmetry_4
_geom_torsion_publ_flag
N1 Cu1 O1 C1 34.25(10) . . . . ?
N1 Cu1 O1 C1 -145.75(10) 2_656 . . . ?
Cu1 O1 C1 C2 -25.23(17) . . . . ?
Cu1 O1 C1 C6 156.19(9) . . . . ?
O1 C1 C2 C3 -179.60(11) . . . . ?
C6 C1 C2 C3 -1.00(17) . . . . ?
O1 C1 C2 C7 -3.64(18) . . . . ?
C6 C1 C2 C7 174.96(11) . . . . ?
C1 C2 C3 C4 0.06(19) . . . . ?
C7 C2 C3 C4 -176.07(12) . . . . ?
C2 C3 C4 C5 0.8(2) . . . . ?
C3 C4 C5 C6 -0.7(2) . . . . ?
C4 C5 C6 C1 -0.3(2) . . . . ?
O1 C1 C6 C5 179.79(12) . . . . ?
C2 C1 C6 C5 1.12(19) . . . . ?
C11 N1 C7 C2 -173.96(10) . . . . ?
Cu1 N1 C7 C2 8.86(16) . . . . ?
C3 C2 C7 N1 -172.55(11) . . . . ?
C1 C2 C7 N1 11.39(19) . . . . ?
C7 N1 C11 C16 -7.89(15) . . . . ?
Cu1 N1 C11 C16 169.38(8) . . . . ?
C7 N1 C11 C12 116.64(11) . . . . ?
Cu1 N1 C11 C12 -66.09(10) . . . . ?
N1 C11 C12 C13 171.81(9) . . . . ?
C16 C11 C12 C13 -59.61(13) . . . . ?
C11 C12 C13 C14 56.44(14) . . . . ?
C12 C13 C14 C15 -54.34(14) . . . . ?
C13 C14 C15 C16 55.61(15) . . . . ?
N1 C11 C16 C15 -176.38(10) . . . . ?
C12 C11 C16 C15 59.83(12) . . . . ?
C14 C15 C16 C11 -58.06(13) . . . . ?
